data_PCOD9084500
_publ_section_title
;
Structure prediction by ZEFSAII (Michael W. Deem and Ramdas Pophale) SiO2 
 PCOD9084500
Probable space group: P -1
;
_chemical_formula_sum "Si O2"
_cell_formula_units_Z 16
_cell_length_a 15.792950
_cell_length_b 14.455145
_cell_length_c 11.705127
_cell_angle_alpha 148.731443
_cell_angle_beta 50.791306
_cell_angle_gamma 140.690427
_cell_volume 875.197040
_symmetry_space_group_name_H-M "P -1"
_symmetry_group_IT_number 2
_symmetry_cell_setting 'triclinic'
loop_
_space_group_symop_operation_xyz
x,y,z
-x,-y,-z
loop_
_atom_site_type_symbol
_atom_site_label
_atom_site_fract_x
_atom_site_fract_y
_atom_site_fract_z
Si Si1 0.903274 0.870343 0.337968
Si Si2 0.362383 0.281866 0.487790
Si Si3 0.835835 0.157537 0.206000
Si Si4 0.283549 0.891981 0.974740
Si Si5 0.355298 0.558300 0.595176
Si Si6 0.059708 0.650123 0.461374
Si Si7 0.907575 0.841466 0.728453
Si Si8 0.024589 0.451368 0.054243
O O1 0.762974 0.835263 0.443655
O O2 0.886914 0.641786 0.113711
O O3 0.000000 0.000000 0.500000
O O4 0.982635 0.999785 0.293144
O O5 0.360500 0.468265 0.619241
O O6 0.508459 0.378703 0.515435
O O7 0.342252 0.112469 0.227711
O O8 0.720769 0.092383 0.142533
O O9 0.819225 0.204287 0.400299
O O10 0.969566 0.395088 0.305595
O O11 0.865880 0.977378 0.976044
O O12 0.345768 0.762435 0.821030
O O13 0.125910 0.740531 0.980781
O O14 0.221942 0.359558 0.438235
O O15 0.083464 0.644722 0.300544
O O16 0.968109 0.739558 0.643615
O O17 0.000000 0.500000 0.000000
#
# Coordination Sequence:
#
# PCOD9084500 Si02
#       8
#     2   2   2   2   2   2   2   2
#     4  12  19  33  51  79 113 146 171 222 276 326
#     4  11  23  35  51  79 121 144 183 221 270 336
#     4  10  19  35  53  82 111 137 186 234 270 316
#     4  11  19  35  54  79 110 145 178 228 274 315
#     4  11  21  35  53  80 112 150 184 221 273 326
#     4  10  21  33  53  84 110 142 181 229 276 320
#     4  12  19  35  56  80 113 142 182 225 280 317
#     4  11  19  31  54  80 115 140 173 219 285 324
#
# _framework density 18.281597999999999
#
# number of rings (size 3 to 8) (size 9 to 14) (size 15 to 20)
#    0.000    1.000    8.750    2.250    0.000    0.000 
#    0.000    0.000    0.000    0.000    0.000    9.625 
#    0.000    0.000    0.000    0.000    0.000    0.000 
#
# Total GULP energy -89228.541370 kJ/mol
# GULP energy per Si atom -5576.783836 kJ/mol
# Density = 1.823999 g / cm^3
# Si number density = 18.281598 Si / 1000 Ang^3
#
#
#
# Elastic Constant Matrix: (Units=GPa)
#
#
# Indices 1 2 3 4 5 6 
#
# 1 72.6015 18.7095 43.1588 1.0552 -8.8214 -1.7254
# 2 18.7095 55.7745 10.0570 -4.7413 5.7978 13.3771
# 3 43.1588 10.0570 96.2425 2.3845 -11.8797 -13.8707
# 4 1.0552 -4.7413 2.3845 15.1266 -6.6717 -1.5230
# 5 -8.8214 5.7978 -11.8797 -6.6717 36.3894 -6.3158
# 6 -1.7254 13.3771 -13.8707 -1.5230 -6.3158 22.6954
#
#
#
# Elastic Compliance Matrix: (Units=1/GPa)
#
#
# Indices 1 2 3 4 5 6 
#
# 1 0.020549 -0.006178 -0.007936 -0.000434 0.003522 0.001304
# 2 -0.006178 0.027621 -0.004766 0.002791 -0.010846 -0.022494
# 3 -0.007936 -0.004766 0.017491 0.001053 0.007344 0.015010
# 4 -0.000434 0.002791 0.001053 0.074184 0.014794 0.008060
# 5 0.003522 -0.010846 0.007344 0.014794 0.039171 0.023043
# 6 0.001304 -0.022494 0.015010 0.008060 0.023043 0.073546
#
#
# Mechanical properties :
#
#
# Convention : Reuss Voigt Hill
#
# Bulk Modulus (GPa) = 35.84050 40.94100 38.39075
# Shear Modulus (GPa) = 16.68777 25.02183 20.85480
#
# Velocity S-wave (km/s) = 3.02457 3.70359 3.38117
# Velocity P-wave (km/s) = 5.64310 6.38217 6.02398
#
# Compressibility (1/GPa) = 0.02790140
#
# Stress axis : x y z
#
# Youngs Moduli (GPa) = 48.66518 36.20471 57.17313
#
# Poissons Ratio (x) = 0.22367 0.45371
# Poissons Ratio (y) = 0.30065 0.27247
# Poissons Ratio (z) = 0.38619 0.17254
#
# Static dielectric constant tensor:
#      x y z
#    x 1.690660 -0.047460 0.002720 
#    y -0.047460 1.665850 -0.003330 
#    z 0.002720 -0.003330 1.684040 
# 
# From -- ./inp_files/424506.got.cif
#   From: 2010.05.17/outbox.cif.g08.bks.cpg/sg2_213_cif.got.tgz:424506.got - 2010.06.03 11:33:40.
