data_PCOD9084186
_publ_section_title
;
Structure prediction by ZEFSAII (Michael W. Deem and Ramdas Pophale) SiO2 
 PCOD9084186
Probable space group: P -1
;
_chemical_formula_sum "Si O2"
_cell_formula_units_Z 12
_cell_length_a 10.124721
_cell_length_b 12.599435
_cell_length_c 17.078503
_cell_angle_alpha 152.145901
_cell_angle_beta 33.170205
_cell_angle_gamma 144.486073
_cell_volume 533.140626
_symmetry_space_group_name_H-M "P -1"
_symmetry_group_IT_number 2
_symmetry_cell_setting 'triclinic'
loop_
_space_group_symop_operation_xyz
x,y,z
-x,-y,-z
loop_
_atom_site_type_symbol
_atom_site_label
_atom_site_fract_x
_atom_site_fract_y
_atom_site_fract_z
Si Si1 0.654634 0.506924 0.770547
Si Si2 0.294012 0.095184 0.117542
Si Si3 0.872812 0.636707 0.033785
Si Si4 0.155851 0.275427 0.604019
Si Si5 0.355768 0.185540 0.594615
Si Si6 0.033952 0.320637 0.525907
O O1 0.621373 0.729662 0.883490
O O2 0.414001 0.425763 0.894128
O O3 0.607881 0.290024 0.588100
O O4 0.918069 0.530165 0.695600
O O5 0.179864 0.238914 0.330650
O O6 0.071068 0.868493 0.053057
O O7 0.500000 0.000000 0.000000
O O8 0.832645 0.702952 0.187781
O O9 0.985059 0.422443 0.823679
O O10 0.378992 0.285815 0.560967
O O11 0.195961 0.359014 0.549542
O O12 0.000000 0.000000 0.500000
O O13 0.216833 0.905977 0.481522
#
# Coordination Sequence:
#
# PCOD9084186 Si02
#       6
#     2   2   2   2   2   2
#     4  10  21  38  66  84 118 157 197 240 291 347
#     4  11  23  37  63  87 117 158 203 237 285 356
#     4   9  21  37  63  84 118 152 203 230 293 351
#     4  10  19  34  61  89 120 153 191 248 292 346
#     4   8  18  34  62  83 115 154 197 228 289 350
#     4  10  21  37  59  93 120 148 199 246 294 339
#
# _framework density 22.508132
#
# number of rings (size 3 to 8) (size 9 to 14) (size 15 to 20)
#    1.000    1.333    0.000    2.500    7.000    0.667 
#    0.000    4.167    0.000    0.000    0.000    0.000 
#    0.000    0.000    0.000    0.000    0.000    0.000 
#
# Total GULP energy -66881.031117 kJ/mol
# GULP energy per Si atom -5573.419260 kJ/mol
# Density = 2.245690 g / cm^3
# Si number density = 22.508132 Si / 1000 Ang^3
#
#
#
# Elastic Constant Matrix: (Units=GPa)
#
#
# Indices 1 2 3 4 5 6 
#
# 1 69.4100 24.0878 -1.5594 7.8864 -8.3713 -9.4465
# 2 24.0878 82.9987 17.1773 10.6839 -11.6465 8.2969
# 3 -1.5594 17.1773 57.4712 15.0132 -13.0122 -1.1151
# 4 7.8864 10.6839 15.0132 18.5137 1.0430 -4.1784
# 5 -8.3713 -11.6465 -13.0122 1.0430 30.7146 -0.7265
# 6 -9.4465 8.2969 -1.1151 -4.1784 -0.7265 15.1780
#
#
#
# Elastic Compliance Matrix: (Units=1/GPa)
#
#
# Indices 1 2 3 4 5 6 
#
# 1 0.020605 -0.007132 0.006021 -0.006340 0.006050 0.015709
# 2 -0.007132 0.018065 -0.002672 -0.009237 0.003689 -0.016876
# 3 0.006021 -0.002672 0.027597 -0.023850 0.013160 0.001300
# 4 -0.006340 -0.009237 -0.023850 0.087484 -0.017771 0.022584
# 5 0.006050 0.003689 0.013160 -0.017771 0.041780 -0.000177
# 6 0.015709 -0.016876 0.001300 0.022584 -0.000177 0.091191
#
#
# Mechanical properties :
#
#
# Convention : Reuss Voigt Hill
#
# Bulk Modulus (GPa) = 17.03505 32.14346 24.58926
# Shear Modulus (GPa) = 15.93090 24.22621 20.07856
#
# Velocity S-wave (km/s) = 2.66331 3.28431 2.98997
# Velocity P-wave (km/s) = 4.12825 5.35668 4.78208
#
# Compressibility (1/GPa) = 0.05870248
#
# Stress axis : x y z
#
# Youngs Moduli (GPa) = 48.53116 55.35656 36.23538
#
# Poissons Ratio (x) = 0.39478 -0.21819
# Poissons Ratio (y) = 0.34610 0.09683
# Poissons Ratio (z) = -0.29222 0.14792
#
# Static dielectric constant tensor:
#      x y z
#    x 1.888750 -0.014290 -0.001980 
#    y -0.014290 1.899660 0.022680 
#    z -0.001980 0.022680 1.785250 
# 
# From -- ./inp_files/264012.got.cif
#   From: 2010.05.17/outbox.cif.g08.bks.cpg/sg2_133_cif.got.tgz:264012.got - 2010.06.03 11:33:40.
