data_PCOD9084538
_publ_section_title
;
Structure prediction by ZEFSAII (Michael W. Deem and Ramdas Pophale) SiO2 
 PCOD9084538
Probable space group: P -1
;
_chemical_formula_sum "Si O2"
_cell_formula_units_Z 14
_cell_length_a 11.060718
_cell_length_b 7.814538
_cell_length_c 20.577715
_cell_angle_alpha 45.362019
_cell_angle_beta 32.919648
_cell_angle_gamma 46.707187
_cell_volume 666.309793
_symmetry_space_group_name_H-M "P -1"
_symmetry_group_IT_number 2
_symmetry_cell_setting 'triclinic'
loop_
_space_group_symop_operation_xyz
x,y,z
-x,-y,-z
loop_
_atom_site_type_symbol
_atom_site_label
_atom_site_fract_x
_atom_site_fract_y
_atom_site_fract_z
Si Si1 0.800875 0.218288 0.948576
Si Si2 0.564469 0.702420 0.555590
Si Si3 0.937866 0.247372 0.210430
Si Si4 0.591479 0.951641 0.896160
Si Si5 0.607183 0.493188 0.729526
Si Si6 0.000800 0.326319 0.703679
Si Si7 0.129222 0.674634 0.963662
O O1 0.918396 0.363128 0.804777
O O2 0.793661 0.315060 0.998735
O O3 0.559856 0.201276 0.031620
O O4 0.949952 0.932390 0.961217
O O5 0.318651 0.636397 0.679692
O O6 0.663656 0.618343 0.604827
O O7 0.764385 0.602752 0.440055
O O8 0.500000 0.000000 0.500000
O O9 0.016291 0.439471 0.075870
O O10 0.141364 0.182605 0.187923
O O11 0.952427 0.973684 0.247778
O O12 0.571338 0.220924 0.803231
O O13 0.500000 0.000000 0.000000
O O14 0.800423 0.452006 0.709515
O O15 0.359899 0.644206 0.826460
#
# Coordination Sequence:
#
# PCOD9084538 Si02
#       7
#     2   2   2   2   2   2   2
#     4  11  22  36  54  82 119 141 185 226 279 335
#     4  10  21  34  56  81 111 148 190 229 261 324
#     4  10  19  35  54  81 107 143 186 222 278 316
#     4  11  19  35  57  86 113 140 181 235 278 325
#     4  11  20  34  59  83 111 144 185 227 284 320
#     4  10  20  37  54  81 111 146 188 229 265 325
#     4  11  22  34  56  85 111 150 175 231 286 328
#
# _framework density 21.011247999999998
#
# number of rings (size 3 to 8) (size 9 to 14) (size 15 to 20)
#    0.000    1.429    4.286    3.000    0.000    4.000 
#    0.000    0.714    0.000    3.429    0.000   16.000 
#    0.000    0.000    0.000    0.000    0.000    0.000 
#
# Total GULP energy -78224.818271 kJ/mol
# GULP energy per Si atom -5587.487019 kJ/mol
# Density = 2.096343 g / cm^3
# Si number density = 21.011248 Si / 1000 Ang^3
#
#
#
# Elastic Constant Matrix: (Units=GPa)
#
#
# Indices 1 2 3 4 5 6 
#
# 1 91.2981 10.5331 41.2646 11.0806 4.5842 -18.1019
# 2 10.5331 43.7814 -5.1587 -11.0399 1.3662 -10.9509
# 3 41.2646 -5.1587 89.6278 4.5061 10.0996 -8.3123
# 4 11.0806 -11.0399 4.5061 35.5013 -18.2905 1.1746
# 5 4.5842 1.3662 10.0996 -18.2905 36.1900 0.1769
# 6 -18.1019 -10.9509 -8.3123 1.1746 0.1769 30.0819
#
#
#
# Elastic Compliance Matrix: (Units=1/GPa)
#
#
# Indices 1 2 3 4 5 6 
#
# 1 0.017239 -0.005246 -0.006630 -0.008775 -0.004604 0.007002
# 2 -0.005246 0.029594 0.003692 0.012599 0.004845 0.008116
# 3 -0.006630 0.003692 0.015041 -0.000743 -0.003880 0.001563
# 4 -0.008775 0.012599 -0.000743 0.047940 0.025087 -0.002918
# 5 -0.004604 0.004845 -0.003880 0.025087 0.041810 -0.003305
# 6 0.007002 0.008116 0.001563 -0.002918 -0.003305 0.040976
#
#
# Mechanical properties :
#
#
# Convention : Reuss Voigt Hill
#
# Bulk Modulus (GPa) = 21.97462 35.33170 28.65316
# Shear Modulus (GPa) = 22.30778 32.22587 27.26682
#
# Velocity S-wave (km/s) = 3.26192 3.92055 3.60630
# Velocity P-wave (km/s) = 4.96669 6.11117 5.56841
#
# Compressibility (1/GPa) = 0.04550705
#
# Stress axis : x y z
#
# Youngs Moduli (GPa) = 58.00747 33.79078 66.48277
#
# Poissons Ratio (x) = 0.17727 0.44075
# Poissons Ratio (y) = 0.30432 -0.24545
# Poissons Ratio (z) = 0.38456 -0.12475
#
# Static dielectric constant tensor:
#      x y z
#    x 1.782690 -0.021080 -0.002430 
#    y -0.021080 1.773440 0.013390 
#    z -0.002430 0.013390 1.764710 
# 
# From -- ./inp_files/166199.got.cif
#   From: 2010.05.17/outbox.cif.g08.bks.cpg/sg2_84_cif.got.tgz:166199.got - 2010.06.03 11:33:40.
