data_PCOD9084170
_publ_section_title
;
Structure prediction by ZEFSAII (Michael W. Deem and Ramdas Pophale) SiO2 
 PCOD9084170
Probable space group: P -1
;
_chemical_formula_sum "Si O2"
_cell_formula_units_Z 14
_cell_length_a 16.009226
_cell_length_b 18.736068
_cell_length_c 9.242707
_cell_angle_alpha 129.120547
_cell_angle_beta 61.632867
_cell_angle_gamma 159.391501
_cell_volume 686.057655
_symmetry_space_group_name_H-M "P -1"
_symmetry_group_IT_number 2
_symmetry_cell_setting 'triclinic'
loop_
_space_group_symop_operation_xyz
x,y,z
-x,-y,-z
loop_
_atom_site_type_symbol
_atom_site_label
_atom_site_fract_x
_atom_site_fract_y
_atom_site_fract_z
Si Si1 0.636526 0.742310 0.778095
Si Si2 0.336984 0.594722 0.023376
Si Si3 0.592486 0.173851 0.230814
Si Si4 0.925995 0.870468 0.536006
Si Si5 0.045120 0.440380 0.815512
Si Si6 0.196432 0.982920 0.276627
Si Si7 0.485762 0.899031 0.486111
O O1 0.596541 0.774040 0.987901
O O2 0.638435 0.562508 0.373557
O O3 0.663106 0.827149 0.717642
O O4 0.857857 0.013066 0.521135
O O5 0.225500 0.544358 0.906452
O O6 0.096784 0.312274 0.909973
O O7 0.389494 0.722400 0.256898
O O8 0.830566 0.429789 0.274864
O O9 0.668172 0.220787 0.392587
O O10 0.367628 0.047236 0.237472
O O11 0.500000 0.000000 0.000000
O O12 0.882648 0.895304 0.745196
O O13 0.000000 0.000000 0.500000
O O14 0.775423 0.148232 0.629341
O O15 0.000000 0.500000 0.000000
O O16 0.500000 0.000000 0.500000
#
# Coordination Sequence:
#
# PCOD9084170 Si02
#       7
#     2   2   2   2   2   2   2
#     4   9  17  32  60  92 123 157 200 247 305 364
#     4  11  21  38  60  88 122 158 204 257 302 358
#     4  12  23  39  61  84 121 168 205 249 308 356
#     4   8  16  31  56  97 122 151 201 248 298 366
#     4  12  22  42  59  81 121 161 206 257 302 359
#     4  10  19  34  61  87 123 162 203 249 301 365
#     4  12  26  40  59  88 120 164 215 259 302 362
#
# _framework density 20.40645
#
# number of rings (size 3 to 8) (size 9 to 14) (size 15 to 20)
#    0.000    1.429    5.714    0.000    0.000    1.714 
#    0.000    0.000    0.000    0.857    0.000   15.000 
#    0.000    0.000    0.000    0.000    0.000    0.000 
#
# Total GULP energy -77953.311791 kJ/mol
# GULP energy per Si atom -5568.093699 kJ/mol
# Density = 2.036000 g / cm^3
# Si number density = 20.406450 Si / 1000 Ang^3
#
#
#
# Elastic Constant Matrix: (Units=GPa)
#
#
# Indices 1 2 3 4 5 6 
#
# 1 67.0400 35.6426 29.0804 -13.4021 -21.7780 -3.3433
# 2 35.6426 138.2446 33.9089 -21.8945 -6.6558 -21.8328
# 3 29.0804 33.9089 91.4742 -20.5228 -5.2750 -8.3640
# 4 -13.4021 -21.8945 -20.5228 33.8691 3.8485 -11.3630
# 5 -21.7780 -6.6558 -5.2750 3.8485 26.0983 -11.1075
# 6 -3.3433 -21.8328 -8.3640 -11.3630 -11.1075 47.2559
#
#
#
# Elastic Compliance Matrix: (Units=1/GPa)
#
#
# Indices 1 2 3 4 5 6 
#
# 1 0.027417 -0.002869 -0.004353 0.005978 0.023257 0.006748
# 2 -0.002869 0.010424 -0.000595 0.007275 0.001927 0.006710
# 3 -0.004353 -0.000595 0.014700 0.008147 -0.000358 0.003894
# 4 0.005978 0.007275 0.008147 0.046720 0.009563 0.018708
# 5 0.023257 0.001927 -0.000358 0.009563 0.065296 0.020120
# 6 0.006748 0.006710 0.003894 0.018708 0.020120 0.034655
#
#
# Mechanical properties :
#
#
# Convention : Reuss Voigt Hill
#
# Bulk Modulus (GPa) = 27.09620 54.89140 40.99380
# Shear Modulus (GPa) = 22.01214 34.65313 28.33264
#
# Velocity S-wave (km/s) = 3.28790 4.12533 3.73019
# Velocity P-wave (km/s) = 5.26505 7.04617 6.21970
#
# Compressibility (1/GPa) = 0.03690554
#
# Stress axis : x y z
#
# Youngs Moduli (GPa) = 36.47429 95.93471 68.02786
#
# Poissons Ratio (x) = 0.27522 0.29615
# Poissons Ratio (y) = 0.10464 0.04049
# Poissons Ratio (z) = 0.15878 0.05711
#
# Static dielectric constant tensor:
#      x y z
#    x 1.744740 0.035030 -0.041810 
#    y 0.035030 1.598290 0.009840 
#    z -0.041810 0.009840 1.740510 
# 
# From -- ./inp_files/337307.got.cif
#   From: 2010.05.17/outbox.cif.g08.bks.cpg/sg2_169_cif.got.tgz:337307.got - 2010.06.03 11:33:40.
