data_PCOD9084312
_publ_section_title
;
Structure prediction by ZEFSAII (Michael W. Deem and Ramdas Pophale) SiO2 
 PCOD9084312
Probable space group: P -1
;
_chemical_formula_sum "Si O2"
_cell_formula_units_Z 16
_cell_length_a 8.174045
_cell_length_b 10.977315
_cell_length_c 12.286706
_cell_angle_alpha 87.670923
_cell_angle_beta 34.182469
_cell_angle_gamma 83.532841
_cell_volume 612.730563
_symmetry_space_group_name_H-M "P -1"
_symmetry_group_IT_number 2
_symmetry_cell_setting 'triclinic'
loop_
_space_group_symop_operation_xyz
x,y,z
-x,-y,-z
loop_
_atom_site_type_symbol
_atom_site_label
_atom_site_fract_x
_atom_site_fract_y
_atom_site_fract_z
Si Si1 0.127499 0.487209 0.769973
Si Si2 0.522392 0.533266 0.860025
Si Si3 0.329490 0.794526 0.926948
Si Si4 0.403914 0.668321 0.326378
Si Si5 0.265714 0.857825 0.567654
Si Si6 0.955123 0.763343 0.916415
Si Si7 0.755935 0.930213 0.584307
Si Si8 0.860367 0.737315 0.361834
O O1 0.395383 0.419582 0.694609
O O2 0.098794 0.633801 0.785415
O O3 0.132152 0.409599 0.657543
O O4 0.817373 0.463317 0.993615
O O5 0.570121 0.672096 0.812017
O O6 0.706180 0.426206 0.694038
O O7 0.500000 0.500000 0.000000
O O8 0.136060 0.786198 0.924368
O O9 0.500480 0.909392 0.809101
O O10 0.116608 0.784217 0.146534
O O11 0.207613 0.766346 0.504732
O O12 0.629285 0.743313 0.132783
O O13 0.999750 0.866226 0.799249
O O14 0.551804 0.794942 0.476540
O O15 0.345101 0.980770 0.464820
O O16 0.870020 0.798950 0.471126
O O17 0.000000 0.000000 0.500000
#
# Coordination Sequence:
#
# PCOD9084312 Si02
#       8
#     2   2   2   2   2   2   2   2
#     4   9  18  35  61  95 125 151 195 248 311 369
#     4  10  19  34  62  95 129 159 197 240 306 390
#     4  11  22  41  69  90 122 168 199 255 320 350
#     4  10  19  38  61  97 126 153 201 258 304 367
#     4  11  24  38  64  96 115 162 216 257 295 359
#     4  11  18  36  68  96 128 152 193 257 317 358
#     4  12  29  46  58  84 131 167 213 258 299 366
#     4  10  22  41  67  96 116 157 214 259 303 361
#
# _framework density 26.112618999999999
#
# number of rings (size 3 to 8) (size 9 to 14) (size 15 to 20)
#    0.000    1.500    6.250    1.125    0.000    9.000 
#    0.000    0.000    0.000    7.500    0.000    0.000 
#    0.000    0.000    0.000    0.000    0.000    0.000 
#
# Total GULP energy -89543.766606 kJ/mol
# GULP energy per Si atom -5596.485413 kJ/mol
# Density = 2.605319 g / cm^3
# Si number density = 26.112619 Si / 1000 Ang^3
#
#
#
# Elastic Constant Matrix: (Units=GPa)
#
#
# Indices 1 2 3 4 5 6 
#
# 1 79.9890 13.5213 19.5885 2.9925 14.8313 24.4513
# 2 13.5213 39.0005 32.2481 -16.0007 0.1569 7.3426
# 3 19.5885 32.2481 138.5198 -28.8724 11.6821 8.8754
# 4 2.9925 -16.0007 -28.8724 61.2038 10.9427 9.9685
# 5 14.8313 0.1569 11.6821 10.9427 36.4877 1.3557
# 6 24.4513 7.3426 8.8754 9.9685 1.3557 38.6359
#
#
#
# Elastic Compliance Matrix: (Units=1/GPa)
#
#
# Indices 1 2 3 4 5 6 
#
# 1 0.017598 -0.003501 -0.000182 0.001098 -0.007021 -0.010467
# 2 -0.003501 0.035849 -0.006111 0.007272 0.001235 -0.005113
# 3 -0.000182 -0.006111 0.010042 0.004241 -0.004313 -0.001973
# 4 0.001098 0.007272 0.004241 0.023117 -0.008444 -0.008720
# 5 -0.007021 0.001235 -0.004313 -0.008444 0.033938 0.006187
# 6 -0.010467 -0.005113 -0.001973 -0.008720 0.006187 0.035965
#
#
# Mechanical properties :
#
#
# Convention : Reuss Voigt Hill
#
# Bulk Modulus (GPa) = 22.77902 43.13611 32.95756
# Shear Modulus (GPa) = 26.21480 40.07559 33.14520
#
# Velocity S-wave (km/s) = 3.17190 3.92180 3.56661
# Velocity P-wave (km/s) = 4.70711 6.08790 5.44148
#
# Compressibility (1/GPa) = 0.04390005
#
# Stress axis : x y z
#
# Youngs Moduli (GPa) = 56.82327 27.89466 99.58369
#
# Poissons Ratio (x) = 0.09767 0.01810
# Poissons Ratio (y) = 0.19896 0.60860
# Poissons Ratio (z) = 0.01033 0.17048
#
# Static dielectric constant tensor:
#      x y z
#    x 2.115460 -0.034870 -0.007350 
#    y -0.034870 2.124420 0.024990 
#    z -0.007350 0.024990 2.054870 
# 
# From -- ./inp_files/390146.got.cif
#   From: 2010.05.17/outbox.cif.g08.bks.cpg/sg2_196_cif.got.tgz:390146.got - 2010.06.03 11:33:40.
