data_PCOD9084942
_publ_section_title
;
Structure prediction by ZEFSAII (Michael W. Deem and Ramdas Pophale) SiO2 
 PCOD9084942
Probable space group: P -1
;
_chemical_formula_sum "Si O2"
_cell_formula_units_Z 16
_cell_length_a 14.897215
_cell_length_b 13.646073
_cell_length_c 10.700500
_cell_angle_alpha 119.982227
_cell_angle_beta 29.935757
_cell_angle_gamma 104.143134
_cell_volume 845.920964
_symmetry_space_group_name_H-M "P -1"
_symmetry_group_IT_number 2
_symmetry_cell_setting 'triclinic'
loop_
_space_group_symop_operation_xyz
x,y,z
-x,-y,-z
loop_
_atom_site_type_symbol
_atom_site_label
_atom_site_fract_x
_atom_site_fract_y
_atom_site_fract_z
Si Si1 0.074379 0.664386 0.460206
Si Si2 0.951449 0.638378 0.095977
Si Si3 0.515294 0.538480 0.863508
Si Si4 0.590715 0.849849 0.815860
Si Si5 0.392131 0.606176 0.591210
Si Si6 0.266550 0.837148 0.044623
Si Si7 0.134212 0.121440 0.311608
Si Si8 0.954232 0.476354 0.344364
O O1 0.929912 0.808305 0.697678
O O2 0.037090 0.576652 0.344817
O O3 0.046132 0.603705 0.584247
O O4 0.298649 0.650371 0.174851
O O5 0.766239 0.755192 0.453502
O O6 0.000000 0.500000 0.000000
O O7 0.156773 0.645885 0.883594
O O8 0.924827 0.621970 0.970892
O O9 0.526147 0.443105 0.677487
O O10 0.724943 0.548015 0.614789
O O11 0.500000 0.500000 0.000000
O O12 0.403345 0.823023 0.991981
O O13 0.702050 0.837442 0.804194
O O14 0.500000 0.000000 0.000000
O O15 0.500000 0.500000 0.500000
O O16 0.394824 0.729795 0.723894
O O17 0.065545 0.829661 0.329110
O O18 0.211054 0.972020 0.133631
#
# Coordination Sequence:
#
# PCOD9084942 Si02
#       8
#     2   2   2   2   2   2   2   2
#     4  10  19  35  58  78 107 149 185 224 281 338
#     4  11  21  34  56  85 115 140 183 240 288 331
#     4   9  20  36  53  79 114 146 176 227 288 340
#     4  10  21  36  54  81 116 152 180 227 290 338
#     4  11  21  33  56  90 111 139 187 242 284 332
#     4  10  21  35  53  85 113 143 184 236 277 335
#     4  10  20  36  56  80 111 148 187 226 283 339
#     4   9  21  35  52  84 111 140 184 234 276 336
#
# _framework density 18.914296
#
# number of rings (size 3 to 8) (size 9 to 14) (size 15 to 20)
#    0.000    2.000    1.250    2.250    3.500    3.000 
#    0.000    0.000    0.000    9.750    3.250    0.000 
#    0.000    0.000    0.000    0.000    0.000    0.000 
#
# Total GULP energy -89087.897715 kJ/mol
# GULP energy per Si atom -5567.993607 kJ/mol
# Density = 1.887125 g / cm^3
# Si number density = 18.914296 Si / 1000 Ang^3
#
#
#
# Elastic Constant Matrix: (Units=GPa)
#
#
# Indices 1 2 3 4 5 6 
#
# 1 99.7580 35.4530 32.4704 17.2088 -3.9884 3.9612
# 2 35.4530 63.1985 21.2219 10.3823 -2.5786 -7.6797
# 3 32.4704 21.2219 87.2184 18.9586 -2.4945 -10.8645
# 4 17.2088 10.3823 18.9586 17.8360 5.2610 -7.7630
# 5 -3.9884 -2.5786 -2.4945 5.2610 38.1188 1.2162
# 6 3.9612 -7.6797 -10.8645 -7.7630 1.2162 20.2013
#
#
#
# Elastic Compliance Matrix: (Units=1/GPa)
#
#
# Indices 1 2 3 4 5 6 
#
# 1 0.017188 -0.007600 -0.002568 -0.016819 0.003895 -0.014338
# 2 -0.007600 0.021635 -0.001293 -0.000072 0.000307 0.008974
# 3 -0.002568 -0.001293 0.016074 -0.013032 0.002382 0.003505
# 4 -0.016819 -0.000072 -0.013032 0.108831 -0.018889 0.039221
# 5 0.003895 0.000307 0.002382 -0.018889 0.029693 -0.008412
# 6 -0.014338 0.008974 0.003505 0.039221 -0.008412 0.073188
#
#
# Mechanical properties :
#
#
# Convention : Reuss Voigt Hill
#
# Bulk Modulus (GPa) = 31.27427 47.60729 39.44078
# Shear Modulus (GPa) = 16.65617 25.96653 21.31135
#
# Velocity S-wave (km/s) = 2.97073 3.70922 3.36033
# Velocity P-wave (km/s) = 5.32331 6.60069 5.99611
#
# Compressibility (1/GPa) = 0.03197517
#
# Stress axis : x y z
#
# Youngs Moduli (GPa) = 58.18173 46.22041 62.21342
#
# Poissons Ratio (x) = 0.35127 0.15978
# Poissons Ratio (y) = 0.44217 0.08042
# Poissons Ratio (z) = 0.14943 0.05975
#
# Static dielectric constant tensor:
#      x y z
#    x 2.354670 0.549780 0.928260 
#    y 0.549780 2.127210 0.707960 
#    z 0.928260 0.707960 2.998220 
# 
# From -- ./inp_files/313648.got.cif
#   From: 2010.05.17/outbox.cif.g08.bks.cpg/sg2_157_cif.got.tgz:313648.got - 2010.06.03 11:33:40.
