data_PCOD9084866
_publ_section_title
;
Structure prediction by ZEFSAII (Michael W. Deem and Ramdas Pophale) SiO2 
 PCOD9084866
Probable space group: P -1
;
_chemical_formula_sum "Si O2"
_cell_formula_units_Z 16
_cell_length_a 9.504500
_cell_length_b 14.044312
_cell_length_c 10.418199
_cell_angle_alpha 34.466182
_cell_angle_beta 62.047950
_cell_angle_gamma 78.924602
_cell_volume 640.502445
_symmetry_space_group_name_H-M "P -1"
_symmetry_group_IT_number 2
_symmetry_cell_setting 'triclinic'
loop_
_space_group_symop_operation_xyz
x,y,z
-x,-y,-z
loop_
_atom_site_type_symbol
_atom_site_label
_atom_site_fract_x
_atom_site_fract_y
_atom_site_fract_z
Si Si1 0.719568 0.976858 0.696785
Si Si2 0.667237 0.381546 0.051712
Si Si3 0.712349 0.780164 0.654099
Si Si4 0.202286 0.534082 0.385177
Si Si5 0.696150 0.637916 0.249374
Si Si6 0.607815 0.068674 0.010240
Si Si7 0.064289 0.847184 0.360593
Si Si8 0.988683 0.543595 0.103050
O O1 0.743332 0.895220 0.643041
O O2 0.880266 0.116474 0.552269
O O3 0.681344 0.811529 0.998670
O O4 0.550183 0.026355 0.718200
O O5 0.689555 0.566390 0.915762
O O6 0.705394 0.439085 0.822024
O O7 0.818924 0.314399 0.100299
O O8 0.471011 0.241953 0.300163
O O9 0.884715 0.869272 0.396876
O O10 0.220476 0.368585 0.640787
O O11 0.311131 0.721164 0.208321
O O12 0.000000 0.500000 0.500000
O O13 0.500000 0.500000 0.500000
O O14 0.826271 0.590840 0.152403
O O15 0.785225 0.045322 0.923180
O O16 0.500000 0.000000 0.000000
O O17 0.033514 0.634212 0.604926
O O18 0.000000 0.500000 0.000000
#
# Coordination Sequence:
#
# PCOD9084866 Si02
#       8
#     2   2   2   2   2   2   2   2
#     4  11  21  36  61  90 122 155 198 254 305 360
#     4  10  20  35  57  86 118 158 196 251 307 352
#     4  10  19  35  57  86 117 154 201 244 297 361
#     4  12  20  37  62  91 121 161 205 253 303 366
#     4  12  21  35  60  97 119 149 208 262 293 351
#     4  10  20  37  60  88 122 161 204 242 305 377
#     4  10  20  37  58  88 119 162 197 239 308 372
#     4  11  22  38  60  87 121 155 206 252 300 363
#
# _framework density 24.980391000000001
#
# number of rings (size 3 to 8) (size 9 to 14) (size 15 to 20)
#    0.000    1.250    5.000    2.625    0.000    1.000 
#    0.000    0.000    0.000   18.000    0.000    0.000 
#    0.000    0.000    0.000    0.000    0.000    0.000 
#
# Total GULP energy -89257.477086 kJ/mol
# GULP energy per Si atom -5578.592318 kJ/mol
# Density = 2.492353 g / cm^3
# Si number density = 24.980391 Si / 1000 Ang^3
#
#
#
# Elastic Constant Matrix: (Units=GPa)
#
#
# Indices 1 2 3 4 5 6 
#
# 1 131.5838 35.3233 56.9399 21.1670 -38.7237 -6.3700
# 2 35.3233 151.9561 35.9323 11.7094 -20.8187 -1.6617
# 3 56.9399 35.9323 86.3764 15.9895 -43.9803 -9.3915
# 4 21.1670 11.7094 15.9895 52.8782 -10.5705 -15.6421
# 5 -38.7237 -20.8187 -43.9803 -10.5705 61.7976 12.0514
# 6 -6.3700 -1.6617 -9.3915 -15.6421 12.0514 27.7489
#
#
#
# Elastic Compliance Matrix: (Units=1/GPa)
#
#
# Indices 1 2 3 4 5 6 
#
# 1 0.011346 -0.000772 -0.005360 -0.002781 0.002971 -0.002114
# 2 -0.000772 0.007426 -0.002314 -0.000907 0.000455 -0.001225
# 3 -0.005360 -0.002314 0.022170 -0.001709 0.011295 0.000265
# 4 -0.002781 -0.000907 -0.001709 0.024299 -0.001674 0.013153
# 5 0.002971 0.000455 0.011295 -0.001674 0.027586 -0.008392
# 6 -0.002114 -0.001225 0.000265 0.013153 -0.008392 0.046627
#
#
# Mechanical properties :
#
#
# Convention : Reuss Voigt Hill
#
# Bulk Modulus (GPa) = 41.58047 69.58970 55.58508
# Shear Modulus (GPa) = 30.42036 44.59967 37.51001
#
# Velocity S-wave (km/s) = 3.49344 4.22997 3.87922
# Velocity P-wave (km/s) = 5.74052 7.19549 6.50879
#
# Compressibility (1/GPa) = 0.02404975
#
# Stress axis : x y z
#
# Youngs Moduli (GPa) = 88.13712 134.65678 45.10575
#
# Poissons Ratio (x) = 0.10390 0.24179
# Poissons Ratio (y) = 0.06801 0.10439
# Poissons Ratio (z) = 0.47246 0.31163
#
# Static dielectric constant tensor:
#      x y z
#    x 2.371570 -0.129550 -0.153150 
#    y -0.129550 2.041920 -0.003490 
#    z -0.153150 -0.003490 2.084320 
# 
# From -- ./inp_files/397000.got.cif
#   From: 2010.05.17/outbox.cif.g08.bks.cpg/sg2_199_cif.got.tgz:397000.got - 2010.06.03 11:33:40.
