data_PCOD9084854
_publ_section_title
;
Structure prediction by ZEFSAII (Michael W. Deem and Ramdas Pophale) SiO2 
 PCOD9084854
Probable space group: P -1
;
_chemical_formula_sum "Si O2"
_cell_formula_units_Z 14
_cell_length_a 7.452496
_cell_length_b 22.831030
_cell_length_c 16.002846
_cell_angle_alpha 20.889842
_cell_angle_beta 133.912620
_cell_angle_gamma 139.685646
_cell_volume 626.055592
_symmetry_space_group_name_H-M "P -1"
_symmetry_group_IT_number 2
_symmetry_cell_setting 'triclinic'
loop_
_space_group_symop_operation_xyz
x,y,z
-x,-y,-z
loop_
_atom_site_type_symbol
_atom_site_label
_atom_site_fract_x
_atom_site_fract_y
_atom_site_fract_z
Si Si1 0.267778 0.811894 0.138308
Si Si2 0.032802 0.858722 0.311585
Si Si3 0.200589 0.435930 0.031831
Si Si4 0.107435 0.338835 0.310531
Si Si5 0.559527 0.805729 0.093505
Si Si6 0.708532 0.532988 0.306096
Si Si7 0.032176 0.521050 0.259080
O O1 0.317616 0.638148 0.417163
O O2 0.935566 0.724887 0.163655
O O3 0.329865 0.845216 0.015921
O O4 0.500000 0.000000 0.000000
O O5 0.948661 0.828074 0.422132
O O6 0.089797 0.688126 0.531201
O O7 0.790280 0.837869 0.195827
O O8 0.292882 0.048336 0.124013
O O9 0.132737 0.596014 0.837491
O O10 0.002011 0.365857 0.980550
O O11 0.500000 0.500000 0.000000
O O12 0.146695 0.309619 0.264685
O O13 0.401714 0.498916 0.226496
O O14 0.363443 0.600505 0.274433
O O15 0.859488 0.518033 0.289310
#
# Coordination Sequence:
#
# PCOD9084854 Si02
#       7
#     2   2   2   2   2   2   2
#     4  10  20  34  54  85 123 159 188 229 287 350
#     4  10  20  36  55  84 120 151 187 241 286 347
#     4  10  20  37  62  86 111 153 201 244 295 343
#     4  10  20  37  59  88 116 150 199 246 287 342
#     4  10  20  35  55  85 119 153 191 232 288 358
#     4  10  19  35  57  85 119 151 195 238 282 349
#     4  10  20  35  60  82 112 157 192 235 297 341
#
# _framework density 22.36223
#
# number of rings (size 3 to 8) (size 9 to 14) (size 15 to 20)
#    0.000    2.000    2.857    1.286    0.000    0.000 
#   10.286    0.714    0.000    6.857    0.000    0.000 
#    0.000    0.000    0.000    0.000    0.000    0.000 
#
# Total GULP energy -77985.013165 kJ/mol
# GULP energy per Si atom -5570.358083 kJ/mol
# Density = 2.231133 g / cm^3
# Si number density = 22.362230 Si / 1000 Ang^3
#
#
#
# Elastic Constant Matrix: (Units=GPa)
#
#
# Indices 1 2 3 4 5 6 
#
# 1 110.8605 39.7489 59.3666 -3.9088 -37.4554 4.3523
# 2 39.7489 83.6095 45.4973 3.9069 -17.3457 11.2817
# 3 59.3666 45.4973 98.4545 -6.2455 -40.5082 -1.1796
# 4 -3.9088 3.9069 -6.2455 35.7535 -9.3966 -7.0438
# 5 -37.4554 -17.3457 -40.5082 -9.3966 43.5464 6.8164
# 6 4.3523 11.2817 -1.1796 -7.0438 6.8164 37.0871
#
#
#
# Elastic Compliance Matrix: (Units=1/GPa)
#
#
# Indices 1 2 3 4 5 6 
#
# 1 0.015732 -0.003313 -0.003675 0.003632 0.009903 -0.002086
# 2 -0.003313 0.018499 -0.008592 -0.006070 -0.003851 -0.005957
# 3 -0.003675 -0.008592 0.024336 0.009951 0.017821 0.002434
# 4 0.003632 -0.006070 0.009951 0.036306 0.016933 0.005520
# 5 0.009903 -0.003851 0.017821 0.016933 0.051055 -0.005592
# 6 -0.002086 -0.005957 0.002434 0.005520 -0.005592 0.031174
#
#
# Mechanical properties :
#
#
# Convention : Reuss Voigt Hill
#
# Bulk Modulus (GPa) = 36.48614 64.68335 50.58474
# Shear Modulus (GPa) = 22.99912 33.16485 28.08198
#
# Velocity S-wave (km/s) = 3.21047 3.85525 3.54754
# Velocity P-wave (km/s) = 5.48582 6.98608 6.28091
#
# Compressibility (1/GPa) = 0.02740767
#
# Stress axis : x y z
#
# Youngs Moduli (GPa) = 63.56369 54.05568 41.09067
#
# Poissons Ratio (x) = 0.17909 0.15102
# Poissons Ratio (y) = 0.21059 0.35305
# Poissons Ratio (z) = 0.23361 0.46444
#
# Static dielectric constant tensor:
#      x y z
#    x 1.933470 -0.022910 0.044510 
#    y -0.022910 1.954320 0.005550 
#    z 0.044510 0.005550 1.905470 
# 
# From -- ./inp_files/563412.got.cif
#   From: 2010.05.17/outbox.cif.g08.bks.cpg/sg2_282_cif.got.tgz:563412.got - 2010.06.03 11:33:40.
