data_PCOD9084663
_publ_section_title
;
Structure prediction by ZEFSAII (Michael W. Deem and Ramdas Pophale) SiO2 
 PCOD9084663
Probable space group: P -1
;
_chemical_formula_sum "Si O2"
_cell_formula_units_Z 16
_cell_length_a 11.555181
_cell_length_b 11.303864
_cell_length_c 14.449722
_cell_angle_alpha 84.245977
_cell_angle_beta 83.644502
_cell_angle_gamma 25.651574
_cell_volume 812.027070
_symmetry_space_group_name_H-M "P -1"
_symmetry_group_IT_number 2
_symmetry_cell_setting 'triclinic'
loop_
_space_group_symop_operation_xyz
x,y,z
-x,-y,-z
loop_
_atom_site_type_symbol
_atom_site_label
_atom_site_fract_x
_atom_site_fract_y
_atom_site_fract_z
Si Si1 0.934540 0.977107 0.241304
Si Si2 0.598888 0.625221 0.689174
Si Si3 0.187782 0.310492 0.875658
Si Si4 0.269017 0.267046 0.437170
Si Si5 0.372711 0.882977 0.879307
Si Si6 0.710132 0.544560 0.049220
Si Si7 0.834468 0.984404 0.831955
Si Si8 0.730258 0.840712 0.757359
O O1 0.665121 0.214275 0.308320
O O2 0.839032 0.020609 0.144152
O O3 0.062949 0.987468 0.221257
O O4 0.147084 0.687615 0.283785
O O5 0.661607 0.660496 0.600937
O O6 0.517246 0.775547 0.776548
O O7 0.232466 0.367012 0.947356
O O8 0.908398 0.594139 0.828673
O O9 0.234131 0.130129 0.909641
O O10 0.423808 0.121190 0.796080
O O11 0.242894 0.223069 0.345242
O O12 0.000000 0.500000 0.500000
O O13 0.500000 0.000000 0.500000
O O14 0.589972 0.636839 0.951337
O O15 0.968252 0.235946 0.084617
O O16 0.465449 0.733118 0.123939
O O17 0.840225 0.871631 0.766916
#
# Coordination Sequence:
#
# PCOD9084663 Si02
#       8
#     2   2   2   2   2   2   2   2
#     4  10  21  37  58  77 109 164 184 229 264 321
#     4  10  22  38  56  84 111 145 183 223 290 330
#     4  10  19  35  56  78 115 150 185 225 276 332
#     4  12  23  38  65  91 112 132 173 234 287 344
#     4  10  22  33  57  77 119 149 189 235 274 315
#     4  10  22  33  53  84 111 152 198 233 264 309
#     4  10  22  38  55  79 114 154 196 223 264 316
#     4  10  20  38  57  82 113 145 178 226 280 338
#
# _framework density 19.703776000000001
#
# number of rings (size 3 to 8) (size 9 to 14) (size 15 to 20)
#    0.750    1.000    1.250    3.375    1.750    1.000 
#    0.000    3.750    0.000    4.500    0.000    0.000 
#    0.000    0.000    0.000    0.000    0.000    0.000 
#
# Total GULP energy -89368.834249 kJ/mol
# GULP energy per Si atom -5585.552141 kJ/mol
# Density = 1.965893 g / cm^3
# Si number density = 19.703776 Si / 1000 Ang^3
#
#
#
# Elastic Constant Matrix: (Units=GPa)
#
#
# Indices 1 2 3 4 5 6 
#
# 1 108.3876 4.8818 20.5932 -8.2695 -15.3036 -11.8064
# 2 4.8818 67.2938 17.0378 -5.7776 -0.1476 -15.0399
# 3 20.5932 17.0378 73.6046 -5.3221 -12.8165 -3.4871
# 4 -8.2695 -5.7776 -5.3221 29.9039 -4.4361 -6.7192
# 5 -15.3036 -0.1476 -12.8165 -4.4361 20.8280 1.5600
# 6 -11.8064 -15.0399 -3.4871 -6.7192 1.5600 27.4039
#
#
#
# Elastic Compliance Matrix: (Units=1/GPa)
#
#
# Indices 1 2 3 4 5 6 
#
# 1 0.011854 0.001561 -0.001405 0.006141 0.008655 0.006798
# 2 0.001561 0.018964 -0.003957 0.005992 -0.000782 0.012091
# 3 -0.001405 -0.003957 0.016858 0.003244 0.010035 -0.000407
# 4 0.006141 0.005992 0.003244 0.042603 0.014429 0.015972
# 5 0.008655 -0.000782 0.010035 0.014429 0.063276 0.004512
# 6 0.006798 0.012091 -0.000407 0.015972 0.004512 0.049663
#
#
# Mechanical properties :
#
#
# Convention : Reuss Voigt Hill
#
# Bulk Modulus (GPa) = 24.95316 37.14573 31.04945
# Shear Modulus (GPa) = 22.30389 29.41202 25.85795
#
# Velocity S-wave (km/s) = 3.36811 3.86775 3.62655
# Velocity P-wave (km/s) = 5.27420 6.23210 5.77305
#
# Compressibility (1/GPa) = 0.04007508
#
# Stress axis : x y z
#
# Youngs Moduli (GPa) = 84.36100 52.73238 59.32039
#
# Poissons Ratio (x) = -0.08233 0.08333
# Poissons Ratio (y) = -0.13172 0.23471
# Poissons Ratio (z) = 0.11850 0.20864
#
# Static dielectric constant tensor:
#      x y z
#    x 1.714700 -0.022170 0.001560 
#    y -0.022170 1.689030 0.025680 
#    z 0.001560 0.025680 1.668580 
# 
# From -- ./inp_files/519720.got.cif
#   From: 2010.05.17/outbox.cif.g08.bks.cpg/sg2_260_cif.got.tgz:519720.got - 2010.06.03 11:33:40.
