data_PCOD9084502
_publ_section_title
;
Structure prediction by ZEFSAII (Michael W. Deem and Ramdas Pophale) SiO2 
 PCOD9084502
Probable space group: P -1
;
_chemical_formula_sum "Si O2"
_cell_formula_units_Z 16
_cell_length_a 9.558006
_cell_length_b 18.760222
_cell_length_c 24.406915
_cell_angle_alpha 17.955680
_cell_angle_beta 149.486726
_cell_angle_gamma 145.832211
_cell_volume 684.161755
_symmetry_space_group_name_H-M "P -1"
_symmetry_group_IT_number 2
_symmetry_cell_setting 'triclinic'
loop_
_space_group_symop_operation_xyz
x,y,z
-x,-y,-z
loop_
_atom_site_type_symbol
_atom_site_label
_atom_site_fract_x
_atom_site_fract_y
_atom_site_fract_z
Si Si1 0.916564 0.648307 0.539217
Si Si2 0.285951 0.417071 0.216780
Si Si3 0.573319 0.252281 0.885532
Si Si4 0.153392 0.007074 0.280835
Si Si5 0.367971 0.778153 0.198648
Si Si6 0.582449 0.152340 0.234249
Si Si7 0.662096 0.584055 0.884212
Si Si8 0.978217 0.090826 0.503581
O O1 0.617608 0.736118 0.355514
O O2 0.877293 0.381289 0.740138
O O3 0.010355 0.786557 0.524414
O O4 0.094056 0.754284 0.470893
O O5 0.430225 0.525898 0.238984
O O6 0.431564 0.464683 0.173325
O O7 0.210313 0.145749 0.387485
O O8 0.985654 0.527045 0.034004
O O9 0.559604 0.311295 0.773249
O O10 0.865658 0.128829 0.083203
O O11 0.354518 0.051875 0.980655
O O12 0.329627 0.025469 0.272061
O O13 0.326181 0.164403 0.268854
O O14 0.833759 0.225510 0.307669
O O15 0.501947 0.394981 0.005281
O O16 0.724299 0.990516 0.356080
#
# Coordination Sequence:
#
# PCOD9084502 Si02
#       8
#     2   2   2   2   2   2   2   2
#     4  10  20  36  58  80 115 145 187 231 266 328
#     4   9  17  32  55  83 110 139 176 229 278 329
#     4   9  19  35  60  84 110 139 194 235 263 324
#     4  10  19  35  53  82 120 145 174 230 280 330
#     4   9  20  35  56  87 101 150 195 229 264 311
#     4  10  22  32  52  85 118 149 175 217 288 340
#     4   9  17  31  50  80 112 145 173 211 279 334
#     4  10  21  36  54  86 114 146 181 220 282 346
#
# _framework density 23.386282999999999
#
# number of rings (size 3 to 8) (size 9 to 14) (size 15 to 20)
#    0.000    2.500    1.250    0.375   12.250    0.500 
#    0.000    0.000    0.000    7.500    0.000    0.000 
#    0.000    0.000    0.000    0.000    0.000    0.000 
#
# Total GULP energy -89329.567910 kJ/mol
# GULP energy per Si atom -5583.097994 kJ/mol
# Density = 2.333305 g / cm^3
# Si number density = 23.386283 Si / 1000 Ang^3
#
#
#
# Elastic Constant Matrix: (Units=GPa)
#
#
# Indices 1 2 3 4 5 6 
#
# 1 76.8751 15.4378 33.6418 -26.1643 -37.5877 15.9998
# 2 15.4378 84.3606 23.4694 -11.8616 -11.7060 -13.1616
# 3 33.6418 23.4694 64.7876 -9.9579 -15.8685 17.7432
# 4 -26.1643 -11.8616 -9.9579 35.2882 10.5404 -15.0025
# 5 -37.5877 -11.7060 -15.8685 10.5404 40.4901 -8.1994
# 6 15.9998 -13.1616 17.7432 -15.0025 -8.1994 41.0938
#
#
#
# Elastic Compliance Matrix: (Units=1/GPa)
#
#
# Indices 1 2 3 4 5 6 
#
# 1 0.034897 0.003500 -0.011624 0.018064 0.024986 0.004133
# 2 0.003500 0.017846 -0.009086 0.010077 0.004840 0.012921
# 3 -0.011624 -0.009086 0.026264 -0.009039 -0.003552 -0.013733
# 4 0.018064 0.010077 -0.009039 0.048563 0.007408 0.019304
# 5 0.024986 0.004840 -0.003552 0.007408 0.047076 0.005453
# 6 0.004133 0.012921 -0.013733 0.019304 0.005453 0.040929
#
#
# Mechanical properties :
#
#
# Convention : Reuss Voigt Hill
#
# Bulk Modulus (GPa) = 22.42862 41.23568 31.83215
# Shear Modulus (GPa) = 18.87818 33.60603 26.24210
#
# Velocity S-wave (km/s) = 2.84427 3.79489 3.35343
# Velocity P-wave (km/s) = 4.51639 6.07225 5.35117
#
# Compressibility (1/GPa) = 0.04458590
#
# Stress axis : x y z
#
# Youngs Moduli (GPa) = 28.65583 56.03637 38.07490
#
# Poissons Ratio (x) = -0.19611 0.44258
# Poissons Ratio (y) = -0.10028 0.34595
# Poissons Ratio (z) = 0.33309 0.50915
#
# Static dielectric constant tensor:
#      x y z
#    x 1.919510 0.040700 -0.028480 
#    y 0.040700 1.914440 0.036640 
#    z -0.028480 0.036640 1.978470 
# 
# From -- ./inp_files/608438.got.cif
#   From: 2010.05.17/outbox.cif.g08.bks.cpg/sg2_305_cif.got.tgz:608438.got - 2010.06.03 11:33:40.
