data_PCOD9084097
_publ_section_title
;
Structure prediction by ZEFSAII (Michael W. Deem and Ramdas Pophale) SiO2 
 PCOD9084097
Probable space group: P -1
;
_chemical_formula_sum "Si O2"
_cell_formula_units_Z 16
_cell_length_a 16.893674
_cell_length_b 11.790051
_cell_length_c 9.988515
_cell_angle_alpha 140.599853
_cell_angle_beta 47.800653
_cell_angle_gamma 137.732474
_cell_volume 825.772325
_symmetry_space_group_name_H-M "P -1"
_symmetry_group_IT_number 2
_symmetry_cell_setting 'triclinic'
loop_
_space_group_symop_operation_xyz
x,y,z
-x,-y,-z
loop_
_atom_site_type_symbol
_atom_site_label
_atom_site_fract_x
_atom_site_fract_y
_atom_site_fract_z
Si Si1 0.506476 0.410755 0.263437
Si Si2 0.123131 0.488032 0.317288
Si Si3 0.903969 0.309943 0.851576
Si Si4 0.074165 0.106383 0.882609
Si Si5 0.912790 0.738317 0.578427
Si Si6 0.686755 0.830584 0.424514
Si Si7 0.690657 0.235239 0.843652
Si Si8 0.233252 0.159713 0.363323
O O1 0.500000 0.500000 0.500000
O O2 0.579969 0.625516 0.300682
O O3 0.369959 0.252786 0.236893
O O4 0.588892 0.300434 0.051408
O O5 0.146676 0.393935 0.341788
O O6 0.238811 0.680759 0.301412
O O7 0.000000 0.500000 0.500000
O O8 0.100419 0.333320 0.079134
O O9 0.787267 0.316704 0.929808
O O10 0.982226 0.309327 0.634561
O O11 0.847683 0.084624 0.776317
O O12 0.000000 0.500000 0.000000
O O13 0.196688 0.087409 0.727185
O O14 0.985865 0.976304 0.747569
O O15 0.000000 0.000000 0.000000
O O16 0.827390 0.724726 0.540825
O O17 0.746114 0.791749 0.457260
O O18 0.645735 0.994718 0.664823
#
# Coordination Sequence:
#
# PCOD9084097 Si02
#       8
#     2   2   2   2   2   2   2   2
#     4  10  23  39  62  87 120 172 212 251 298 364
#     4  11  21  37  61  95 121 157 206 256 313 371
#     4  11  24  35  61  95 126 156 194 263 326 364
#     4  10  19  34  60  88 118 158 197 252 311 363
#     4  11  22  38  58  89 125 160 199 256 317 377
#     4  10  20  39  63  91 117 162 208 256 306 360
#     4  11  21  40  64  90 125 157 214 256 299 372
#     4  10  23  39  56  86 126 158 207 243 310 369
#
# _framework density 19.375799000000001
#
# number of rings (size 3 to 8) (size 9 to 14) (size 15 to 20)
#    0.000    1.500    5.000    1.125    5.250    4.500 
#    0.000    0.625    0.000    0.750    0.000    0.000 
#    0.000    0.000    0.000    0.000    0.000    0.000 
#
# Total GULP energy -89067.518737 kJ/mol
# GULP energy per Si atom -5566.719921 kJ/mol
# Density = 1.933170 g / cm^3
# Si number density = 19.375799 Si / 1000 Ang^3
#
#
#
# Elastic Constant Matrix: (Units=GPa)
#
#
# Indices 1 2 3 4 5 6 
#
# 1 36.1849 25.9521 9.1252 -1.1722 -12.0267 -0.4414
# 2 25.9521 70.6252 0.9872 -6.4790 3.3133 3.9423
# 3 9.1252 0.9872 86.8813 0.3895 -15.1360 7.3238
# 4 -1.1722 -6.4790 0.3895 32.2855 8.0412 -2.9587
# 5 -12.0267 3.3133 -15.1360 8.0412 29.2766 -1.9162
# 6 -0.4414 3.9423 7.3238 -2.9587 -1.9162 28.4833
#
#
#
# Elastic Compliance Matrix: (Units=1/GPa)
#
#
# Indices 1 2 3 4 5 6 
#
# 1 0.051250 -0.021038 -0.001080 -0.008245 0.025457 0.004840
# 2 -0.021038 0.023370 -0.000127 0.006951 -0.013505 -0.003715
# 3 -0.001080 -0.000127 0.013070 -0.002184 0.006723 -0.003134
# 4 -0.008245 0.006951 -0.002184 0.036048 -0.015060 0.002203
# 5 0.025457 -0.013505 0.006723 -0.015060 0.053925 0.002599
# 6 0.004840 -0.003715 -0.003134 0.002203 0.002599 0.036907
#
#
# Mechanical properties :
#
#
# Convention : Reuss Voigt Hill
#
# Bulk Modulus (GPa) = 23.14758 29.53561 26.34160
# Shear Modulus (GPa) = 18.28416 28.51757 23.40087
#
# Velocity S-wave (km/s) = 3.07524 3.84058 3.47902
# Velocity P-wave (km/s) = 4.95803 5.91130 5.45552
#
# Compressibility (1/GPa) = 0.04320107
#
# Stress axis : x y z
#
# Youngs Moduli (GPa) = 19.51214 42.78922 76.51113
#
# Poissons Ratio (x) = 0.90021 0.08261
# Poissons Ratio (y) = 0.41050 0.00969
# Poissons Ratio (z) = 0.02107 0.00542
#
# Static dielectric constant tensor:
#      x y z
#    x 1.693170 -0.006650 -0.009340 
#    y -0.006650 1.868120 0.052080 
#    z -0.009340 0.052080 1.752290 
# 
# From -- ./inp_files/308692.got.cif
#   From: 2010.05.17/outbox.cif.g08.bks.cpg/sg2_155_cif.got.tgz:308692.got - 2010.06.03 11:33:40.
