data_PCOD9084637
_publ_section_title
;
Structure prediction by ZEFSAII (Michael W. Deem and Ramdas Pophale) SiO2 
 PCOD9084637
Probable space group: P -1
;
_chemical_formula_sum "Si O2"
_cell_formula_units_Z 16
_cell_length_a 7.239018
_cell_length_b 11.501591
_cell_length_c 18.520842
_cell_angle_alpha 152.923611
_cell_angle_beta 66.096266
_cell_angle_gamma 99.458035
_cell_volume 565.683081
_symmetry_space_group_name_H-M "P -1"
_symmetry_group_IT_number 2
_symmetry_cell_setting 'triclinic'
loop_
_space_group_symop_operation_xyz
x,y,z
-x,-y,-z
loop_
_atom_site_type_symbol
_atom_site_label
_atom_site_fract_x
_atom_site_fract_y
_atom_site_fract_z
Si Si1 0.798106 0.161184 0.301734
Si Si2 0.731123 0.207977 0.887641
Si Si3 0.053511 0.209906 0.055186
Si Si4 0.875039 0.782593 0.340078
Si Si5 0.604125 0.169259 0.033136
Si Si6 0.341265 0.818580 0.274414
Si Si7 0.007338 0.427311 0.337043
Si Si8 0.677177 0.277345 0.528323
O O1 0.605384 0.250489 0.444210
O O2 0.799175 0.458727 0.437757
O O3 0.014696 0.936074 0.197211
O O4 0.760948 0.012929 0.153785
O O5 0.599682 0.555231 0.086538
O O6 0.563514 0.200132 0.972246
O O7 0.717144 0.070707 0.737588
O O8 0.907300 0.461564 0.159342
O O9 0.041459 0.421996 0.241850
O O10 0.000000 0.000000 0.000000
O O11 0.136036 0.736378 0.278301
O O12 0.707170 0.959624 0.530441
O O13 0.774883 0.987820 0.400128
O O14 0.865094 0.922147 0.858059
O O15 0.517937 0.466937 0.252566
O O16 0.500000 0.000000 0.000000
O O17 0.145066 0.587554 0.432196
#
# Coordination Sequence:
#
# PCOD9084637 Si02
#       8
#     2   2   2   2   2   2   2   2
#     4  10  21  37  57  87 119 158 192 237 290 356
#     4  10  19  35  55  87 128 145 191 239 303 339
#     4  10  23  41  59  81 120 163 192 233 298 361
#     4  11  21  36  63  85 118 149 201 243 292 342
#     4   9  19  33  55  86 122 152 179 245 294 337
#     4  10  20  34  60  94 115 148 191 256 288 341
#     4   9  19  37  62  80 119 156 195 235 295 343
#     4  11  19  36  60  95 112 144 204 247 294 332
#
# _framework density 28.284388
#
# number of rings (size 3 to 8) (size 9 to 14) (size 15 to 20)
#    0.000    2.000    2.500    1.875    1.750    0.500 
#    4.500    1.250    0.000    0.000    0.000    0.000 
#    0.000    0.000    0.000    0.000    0.000    0.000 
#
# Total GULP energy -89075.779080 kJ/mol
# GULP energy per Si atom -5567.236192 kJ/mol
# Density = 2.822001 g / cm^3
# Si number density = 28.284388 Si / 1000 Ang^3
#
#
#
# Elastic Constant Matrix: (Units=GPa)
#
#
# Indices 1 2 3 4 5 6 
#
# 1 58.9485 7.3021 15.6923 9.4044 -1.9050 -8.2660
# 2 7.3021 207.0861 77.7444 -32.0989 7.6433 -18.4650
# 3 15.6923 77.7444 113.9395 -22.1526 13.6808 -7.5174
# 4 9.4044 -32.0989 -22.1526 85.9903 -20.4998 1.6444
# 5 -1.9050 7.6433 13.6808 -20.4998 30.4179 0.4279
# 6 -8.2660 -18.4650 -7.5174 1.6444 0.4279 31.5876
#
#
#
# Elastic Compliance Matrix: (Units=1/GPa)
#
#
# Indices 1 2 3 4 5 6 
#
# 1 0.018848 0.000533 -0.003247 -0.002627 0.000672 0.004598
# 2 0.000533 0.006965 -0.004467 0.001659 0.001367 0.003043
# 3 -0.003247 -0.004467 0.012952 0.001028 -0.004208 -0.000375
# 4 -0.002627 0.001659 0.001028 0.014964 0.009046 -0.000375
# 5 0.000672 0.001367 -0.004208 0.009046 0.040578 -0.001047
# 6 0.004598 0.003043 -0.000375 -0.000375 -0.001047 0.034585
#
#
# Mechanical properties :
#
#
# Convention : Reuss Voigt Hill
#
# Bulk Modulus (GPa) = 40.97975 64.60572 52.79273
# Shear Modulus (GPa) = 33.02754 48.21485 40.62120
#
# Velocity S-wave (km/s) = 3.42086 4.13321 3.79380
# Velocity P-wave (km/s) = 5.48844 6.75789 6.15597
#
# Compressibility (1/GPa) = 0.02440230
#
# Stress axis : x y z
#
# Youngs Moduli (GPa) = 53.05601 143.57531 77.20802
#
# Poissons Ratio (x) = -0.07646 0.25071
# Poissons Ratio (y) = -0.02825 0.34486
# Poissons Ratio (z) = 0.17228 0.64130
#
# Static dielectric constant tensor:
#      x y z
#    x 3.031110 0.517240 -0.659420 
#    y 0.517240 2.958080 -0.776120 
#    z -0.659420 -0.776120 3.026490 
# 
# From -- ./inp_files/568990.got.cif
#   From: 2010.05.17/outbox.cif.g08.bks.cpg/sg2_285_cif.got.tgz:568990.got - 2010.06.03 11:33:40.
