data_PCOD9084409
_publ_section_title
;
Structure prediction by ZEFSAII (Michael W. Deem and Ramdas Pophale) SiO2 
 PCOD9084409
Probable space group: P -1
;
_chemical_formula_sum "Si O2"
_cell_formula_units_Z 16
_cell_length_a 8.474038
_cell_length_b 5.883444
_cell_length_c 19.619408
_cell_angle_alpha 116.159886
_cell_angle_beta 54.774121
_cell_angle_gamma 99.377914
_cell_volume 711.603747
_symmetry_space_group_name_H-M "P -1"
_symmetry_group_IT_number 2
_symmetry_cell_setting 'triclinic'
loop_
_space_group_symop_operation_xyz
x,y,z
-x,-y,-z
loop_
_atom_site_type_symbol
_atom_site_label
_atom_site_fract_x
_atom_site_fract_y
_atom_site_fract_z
Si Si1 0.035467 0.699306 0.211663
Si Si2 0.370457 0.038967 0.709189
Si Si3 0.861756 0.313708 0.972679
Si Si4 0.896407 0.218017 0.164694
Si Si5 0.735005 0.528692 0.648716
Si Si6 0.363702 0.912793 0.464239
Si Si7 0.413111 0.550782 0.833406
Si Si8 0.086412 0.961802 0.369644
O O1 0.131350 0.679817 0.110378
O O2 0.125699 0.842635 0.268814
O O3 0.811062 0.827829 0.273059
O O4 0.021001 0.409343 0.196733
O O5 0.554699 0.956350 0.605680
O O6 0.430464 0.247970 0.775290
O O7 0.272072 0.837676 0.749536
O O8 0.645849 0.376055 0.065622
O O9 0.965674 0.031296 0.924276
O O10 0.000000 0.500000 0.000000
O O11 0.781484 0.339443 0.144625
O O12 0.617568 0.385800 0.601859
O O13 0.592363 0.642651 0.760414
O O14 0.849438 0.271602 0.623029
O O15 0.839309 0.755828 0.619042
O O16 0.500000 0.000000 0.500000
O O17 0.143219 0.985296 0.551161
#
# Coordination Sequence:
#
# PCOD9084409 Si02
#       8
#     2   2   2   2   2   2   2   2
#     4  10  22  37  63  97 136 183 227 283 350 408
#     4   9  19  37  61 102 136 163 225 289 348 399
#     4  11  19  34  62 106 138 168 231 303 353 394
#     4  10  19  34  64  97 141 165 232 291 357 387
#     4  11  29  49  72  99 147 191 229 279 359 422
#     4  11  23  46  78 110 133 176 240 294 346 414
#     4  10  21  38  63  95 133 185 224 283 346 420
#     4  12  27  52  69  99 148 194 227 284 354 423
#
# _framework density 22.484421000000001
#
# number of rings (size 3 to 8) (size 9 to 14) (size 15 to 20)
#    0.000    1.500    5.000    1.125    7.000    0.000 
#    4.500    4.375    0.000    0.000    0.000    0.000 
#    0.000    0.000    0.000    0.000    0.000    0.000 
#
# Total GULP energy -89200.277906 kJ/mol
# GULP energy per Si atom -5575.017369 kJ/mol
# Density = 2.243325 g / cm^3
# Si number density = 22.484421 Si / 1000 Ang^3
#
#
#
# Elastic Constant Matrix: (Units=GPa)
#
#
# Indices 1 2 3 4 5 6 
#
# 1 65.6227 51.7580 39.9245 2.4665 6.5444 6.4495
# 2 51.7580 131.6248 55.2419 -4.4761 3.8683 7.3360
# 3 39.9245 55.2419 168.7452 -26.3527 2.9991 8.4270
# 4 2.4665 -4.4761 -26.3527 33.2408 9.8258 -0.6536
# 5 6.5444 3.8683 2.9991 9.8258 34.4599 0.9288
# 6 6.4495 7.3360 8.4270 -0.6536 0.9288 22.3815
#
#
#
# Elastic Compliance Matrix: (Units=1/GPa)
#
#
# Indices 1 2 3 4 5 6 
#
# 1 0.024602 -0.008012 -0.003872 -0.005508 -0.001782 -0.003092
# 2 -0.008012 0.011539 -0.001737 0.000696 0.000200 -0.000808
# 3 -0.003872 -0.001737 0.008676 0.007475 -0.001921 -0.001284
# 4 -0.005508 0.000696 0.007475 0.039775 -0.011028 0.000164
# 5 -0.001782 0.000200 -0.001921 -0.011028 0.032661 -0.000506
# 6 -0.003092 -0.000808 -0.001284 0.000164 -0.000506 0.046345
#
#
# Mechanical properties :
#
#
# Convention : Reuss Voigt Hill
#
# Bulk Modulus (GPa) = 56.89213 73.31571 65.10392
# Shear Modulus (GPa) = 25.41976 32.62099 29.02037
#
# Velocity S-wave (km/s) = 3.36601 3.81310 3.59651
# Velocity P-wave (km/s) = 6.36118 7.21557 6.80180
#
# Compressibility (1/GPa) = 0.01757712
#
# Stress axis : x y z
#
# Youngs Moduli (GPa) = 40.64716 86.66018 115.25699
#
# Poissons Ratio (x) = 0.69429 0.44628
# Poissons Ratio (y) = 0.32565 0.20015
# Poissons Ratio (z) = 0.15739 0.15049
#
# Static dielectric constant tensor:
#      x y z
#    x 1.912620 -0.037120 0.002750 
#    y -0.037120 1.860650 -0.013550 
#    z 0.002750 -0.013550 1.865910 
# 
# From -- ./inp_files/585837.got.cif
#   From: 2010.05.17/outbox.cif.g08.bks.cpg/sg2_293_cif.got.tgz:585837.got - 2010.06.03 11:33:40.
