data_PCOD9084140
_publ_section_title
;
Structure prediction by ZEFSAII (Michael W. Deem and Ramdas Pophale) SiO2 
 PCOD9084140
Probable space group: P -1
;
_chemical_formula_sum "Si O2"
_cell_formula_units_Z 16
_cell_length_a 7.196489
_cell_length_b 16.481428
_cell_length_c 10.415567
_cell_angle_alpha 66.643812
_cell_angle_beta 103.344098
_cell_angle_gamma 52.329157
_cell_volume 681.423567
_symmetry_space_group_name_H-M "P -1"
_symmetry_group_IT_number 2
_symmetry_cell_setting 'triclinic'
loop_
_space_group_symop_operation_xyz
x,y,z
-x,-y,-z
loop_
_atom_site_type_symbol
_atom_site_label
_atom_site_fract_x
_atom_site_fract_y
_atom_site_fract_z
Si Si1 0.849742 0.750163 0.519868
Si Si2 0.401347 0.863107 0.780012
Si Si3 0.668368 0.112155 0.953057
Si Si4 0.064835 0.842090 0.625207
Si Si5 0.425721 0.311423 0.561016
Si Si6 0.750599 0.911617 0.797724
Si Si7 0.951556 0.837595 0.148933
Si Si8 0.159783 0.585140 0.418314
O O1 0.052097 0.745093 0.638311
O O2 0.660911 0.728402 0.536827
O O3 0.083722 0.624688 0.530963
O O4 0.564800 0.918878 0.326204
O O5 0.367514 0.846184 0.932604
O O6 0.673912 0.835189 0.820006
O O7 0.376398 0.781705 0.746301
O O8 0.111638 0.030047 0.583961
O O9 0.447287 0.245181 0.737400
O O10 0.681145 0.001901 0.041315
O O11 0.000000 0.000000 0.000000
O O12 0.132063 0.091234 0.315412
O O13 0.763775 0.234121 0.668781
O O14 0.182636 0.478754 0.432561
O O15 0.984319 0.837813 0.999987
O O16 0.936392 0.738187 0.222402
O O17 0.500000 0.500000 0.500000
#
# Coordination Sequence:
#
# PCOD9084140 Si02
#       8
#     2   2   2   2   2   2   2   2
#     4  11  21  37  62  88 122 166 206 250 316 382
#     4  10  21  35  59  86 130 165 201 256 314 373
#     4  10  19  34  60  97 122 156 201 263 323 365
#     4  10  22  40  57  95 130 166 213 261 314 369
#     4  10  21  36  60  89 126 161 198 255 323 378
#     4  11  22  39  63  99 131 161 210 269 316 376
#     4  10  20  36  61  92 126 154 203 264 323 369
#     4  10  23  41  56  91 125 165 208 259 316 384
#
# _framework density 23.480256000000001
#
# number of rings (size 3 to 8) (size 9 to 14) (size 15 to 20)
#    0.000    1.750    1.250    4.875    3.500    1.000 
#    6.750    0.000    0.000    7.500    0.000    0.000 
#    0.000    0.000    0.000    0.000    0.000    0.000 
#
# Total GULP energy -89092.501449 kJ/mol
# GULP energy per Si atom -5568.281341 kJ/mol
# Density = 2.342681 g / cm^3
# Si number density = 23.480256 Si / 1000 Ang^3
#
#
#
# Elastic Constant Matrix: (Units=GPa)
#
#
# Indices 1 2 3 4 5 6 
#
# 1 109.9287 42.2943 16.6209 4.5910 5.2643 38.5331
# 2 42.2943 110.6115 31.5431 -7.8755 8.3889 45.2128
# 3 16.6209 31.5431 44.1220 -8.3035 -6.7685 10.3363
# 4 4.5910 -7.8755 -8.3035 43.2848 6.9136 -0.8552
# 5 5.2643 8.3889 -6.7685 6.9136 38.2653 5.2501
# 6 38.5331 45.2128 10.3363 -0.8552 5.2501 62.3795
#
#
#
# Elastic Compliance Matrix: (Units=1/GPa)
#
#
# Indices 1 2 3 4 5 6 
#
# 1 0.012329 -0.001650 -0.002554 -0.002123 -0.000583 -0.005977
# 2 -0.001650 0.016446 -0.009314 0.001863 -0.004130 -0.008984
# 3 -0.002554 -0.009314 0.031413 0.003543 0.006955 0.002586
# 4 -0.002123 0.001863 0.003543 0.024988 -0.004012 0.000055
# 5 -0.000583 -0.004130 0.006955 -0.004012 0.029116 -0.000305
# 6 -0.005977 -0.008984 0.002586 0.000055 -0.000305 0.025833
#
#
# Mechanical properties :
#
#
# Convention : Reuss Voigt Hill
#
# Bulk Modulus (GPa) = 30.16323 49.50875 39.83599
# Shear Modulus (GPa) = 28.05672 40.39952 34.22812
#
# Velocity S-wave (km/s) = 3.46049 4.15248 3.82218
# Velocity P-wave (km/s) = 5.37036 6.64243 6.03998
#
# Compressibility (1/GPa) = 0.03315295
#
# Stress axis : x y z
#
# Youngs Moduli (GPa) = 81.10663 60.80597 31.83439
#
# Poissons Ratio (x) = 0.10033 0.08129
# Poissons Ratio (y) = 0.13382 0.29650
# Poissons Ratio (z) = 0.20711 0.56634
#
# Static dielectric constant tensor:
#      x y z
#    x 2.129640 0.023550 0.047540 
#    y 0.023550 1.901220 0.023370 
#    z 0.047540 0.023370 1.921230 
# 
# From -- ./inp_files/397365.got.cif
#   From: 2010.05.17/outbox.cif.g08.bks.cpg/sg2_199_cif.got.tgz:397365.got - 2010.06.03 11:33:40.
