data_PCOD9084612
_publ_section_title
;
Structure prediction by ZEFSAII (Michael W. Deem and Ramdas Pophale) SiO2 
 PCOD9084612
Probable space group: P -1
;
_chemical_formula_sum "Si O2"
_cell_formula_units_Z 14
_cell_length_a 11.439958
_cell_length_b 15.098385
_cell_length_c 12.263401
_cell_angle_alpha 133.165662
_cell_angle_beta 127.245506
_cell_angle_gamma 29.367534
_cell_volume 757.425108
_symmetry_space_group_name_H-M "P -1"
_symmetry_group_IT_number 2
_symmetry_cell_setting 'triclinic'
loop_
_space_group_symop_operation_xyz
x,y,z
-x,-y,-z
loop_
_atom_site_type_symbol
_atom_site_label
_atom_site_fract_x
_atom_site_fract_y
_atom_site_fract_z
Si Si1 0.208068 0.167510 0.592175
Si Si2 0.840241 0.154671 0.944961
Si Si3 0.523724 0.787921 0.307216
Si Si4 0.707333 0.065334 0.386049
Si Si5 0.900840 0.140906 0.726558
Si Si6 0.336018 0.512026 0.486701
Si Si7 0.367420 0.508619 0.749340
O O1 0.282486 0.255144 0.677786
O O2 0.923280 0.338808 0.586540
O O3 0.320582 0.010372 0.427366
O O4 0.338045 0.030254 0.657714
O O5 0.608686 0.221533 0.852806
O O6 0.968590 0.068750 0.827875
O O7 0.764158 0.335543 0.097919
O O8 0.000000 0.000000 0.000000
O O9 0.626857 0.637432 0.336942
O O10 0.839230 0.063054 0.551591
O O11 0.492996 0.287314 0.405406
O O12 0.896054 0.922729 0.276555
O O13 0.643637 0.370935 0.785955
O O14 0.500000 0.500000 0.500000
O O15 0.280436 0.588274 0.644686
#
# Coordination Sequence:
#
# PCOD9084612 Si02
#       7
#     2   2   2   2   2   2   2
#     4  11  20  37  57  84 122 150 185 237 291 341
#     4  11  21  35  57  86 112 148 199 239 277 343
#     4  10  21  37  55  82 120 153 185 235 294 338
#     4  10  19  35  55  82 118 145 184 241 280 333
#     4   9  17  33  54  79 112 144 185 234 286 319
#     4  11  22  33  59  90 113 149 196 237 284 335
#     4  10  20  35  57  84 112 152 190 236 290 334
#
# _framework density 18.483674000000001
#
# number of rings (size 3 to 8) (size 9 to 14) (size 15 to 20)
#    0.000    1.714    4.286    5.143    2.000    0.571 
#    2.571    0.000    0.000    8.571    0.000    0.000 
#    0.000    0.000    0.000    0.000    0.000    0.000 
#
# Total GULP energy -77974.051044 kJ/mol
# GULP energy per Si atom -5569.575075 kJ/mol
# Density = 1.844160 g / cm^3
# Si number density = 18.483674 Si / 1000 Ang^3
#
#
#
# Elastic Constant Matrix: (Units=GPa)
#
#
# Indices 1 2 3 4 5 6 
#
# 1 123.0826 43.8034 27.8841 7.3037 -3.6287 5.4759
# 2 43.8034 78.8226 9.6371 0.6808 -9.0699 16.1271
# 3 27.8841 9.6371 47.4989 0.1866 -14.6460 13.6454
# 4 7.3037 0.6808 0.1866 21.6842 3.1840 -5.3985
# 5 -3.6287 -9.0699 -14.6460 3.1840 23.5305 1.0099
# 6 5.4759 16.1271 13.6454 -5.3985 1.0099 24.1207
#
#
#
# Elastic Compliance Matrix: (Units=1/GPa)
#
#
# Indices 1 2 3 4 5 6 
#
# 1 0.013267 -0.009011 -0.011573 -0.000306 -0.009013 0.009869
# 2 -0.009011 0.022660 0.012140 -0.005682 0.016611 -0.021939
# 3 -0.011573 0.012140 0.046372 -0.010850 0.034754 -0.035606
# 4 -0.000306 -0.005682 -0.010850 0.054768 -0.017388 0.022992
# 5 -0.009013 0.016611 0.034754 -0.017388 0.073026 -0.035670
# 6 0.009869 -0.021939 -0.035606 0.022992 -0.035670 0.080668
#
#
# Mechanical properties :
#
#
# Convention : Reuss Voigt Hill
#
# Bulk Modulus (GPa) = 15.28869 45.78371 30.53620
# Shear Modulus (GPa) = 15.17665 25.07236 20.12451
#
# Velocity S-wave (km/s) = 2.86857 3.68701 3.30323
# Velocity P-wave (km/s) = 4.38873 6.55355 5.57718
#
# Compressibility (1/GPa) = 0.06540781
#
# Stress axis : x y z
#
# Youngs Moduli (GPa) = 75.37571 44.13158 21.56492
#
# Poissons Ratio (x) = 0.39769 0.24957
# Poissons Ratio (y) = 0.67925 -0.26179
# Poissons Ratio (z) = 0.87234 -0.53574
#
# Static dielectric constant tensor:
#      x y z
#    x 1.661720 0.025600 -0.017990 
#    y 0.025600 1.689040 0.014700 
#    z -0.017990 0.014700 1.662810 
# 
# From -- ./inp_files/431862.got.cif
#   From: 2010.05.17/outbox.cif.g08.bks.cpg/sg2_216_cif.got.tgz:431862.got - 2010.06.03 11:33:40.
