data_PCOD9084085
_publ_section_title
;
Structure prediction by ZEFSAII (Michael W. Deem and Ramdas Pophale) SiO2 
 PCOD9084085
Probable space group: P -1
;
_chemical_formula_sum "Si O2"
_cell_formula_units_Z 14
_cell_length_a 18.057376
_cell_length_b 9.105603
_cell_length_c 15.959051
_cell_angle_alpha 35.952724
_cell_angle_beta 35.824436
_cell_angle_gamma 65.342480
_cell_volume 647.512075
_symmetry_space_group_name_H-M "P -1"
_symmetry_group_IT_number 2
_symmetry_cell_setting 'triclinic'
loop_
_space_group_symop_operation_xyz
x,y,z
-x,-y,-z
loop_
_atom_site_type_symbol
_atom_site_label
_atom_site_fract_x
_atom_site_fract_y
_atom_site_fract_z
Si Si1 0.637783 0.417338 0.688895
Si Si2 0.760223 0.690836 0.137822
Si Si3 0.788777 0.408344 0.401860
Si Si4 0.943131 0.546840 0.943320
Si Si5 0.653155 0.037029 0.150642
Si Si6 0.576531 0.351392 0.960735
Si Si7 0.631378 0.947341 0.397524
O O1 0.792871 0.543640 0.425965
O O2 0.559334 0.567626 0.653000
O O3 0.680450 0.521150 0.699518
O O4 0.500000 0.000000 0.000000
O O5 0.827476 0.663709 0.176051
O O6 0.741155 0.958275 0.044337
O O7 0.557419 0.316611 0.484384
O O8 0.883798 0.746971 0.926404
O O9 0.906667 0.324411 0.319205
O O10 0.591335 0.047242 0.727844
O O11 0.000000 0.500000 0.000000
O O12 0.770861 0.175688 0.237563
O O13 0.719427 0.092189 0.158587
O O14 0.672333 0.333442 0.954879
O O15 0.500000 0.500000 0.000000
O O16 0.500000 0.000000 0.500000
#
# Coordination Sequence:
#
# PCOD9084085 Si02
#       7
#     2   2   2   2   2   2   2
#     4  10  22  38  59  91 126 160 201 252 305 370
#     4   9  17  34  57  86 116 152 192 256 302 341
#     4   9  19  38  55  85 120 161 197 245 309 356
#     4  10  22  36  59  93 126 154 197 268 305 351
#     4  10  19  34  60  87 118 149 209 254 295 348
#     4  10  21  36  61  88 119 161 204 246 300 372
#     4  12  22  37  65  97 116 155 217 259 296 356
#
# _framework density 21.621220000000001
#
# number of rings (size 3 to 8) (size 9 to 14) (size 15 to 20)
#    0.000    2.000    2.857    0.857    6.000    0.571 
#    0.000    0.000    0.000   15.429    0.000    0.000 
#    0.000    0.000    0.000    0.000    0.000    0.000 
#
# Total GULP energy -78066.779191 kJ/mol
# GULP energy per Si atom -5576.198514 kJ/mol
# Density = 2.157201 g / cm^3
# Si number density = 21.621220 Si / 1000 Ang^3
#
#
#
# Elastic Constant Matrix: (Units=GPa)
#
#
# Indices 1 2 3 4 5 6 
#
# 1 97.9816 54.2882 22.6575 -8.6013 15.4257 -0.7695
# 2 54.2882 155.4523 21.1988 24.5852 23.5218 -12.8134
# 3 22.6575 21.1988 25.0935 6.6853 6.6027 -4.6633
# 4 -8.6013 24.5852 6.6853 30.8270 -4.2735 -1.1426
# 5 15.4257 23.5218 6.6027 -4.2735 32.2762 -2.0640
# 6 -0.7695 -12.8134 -4.6633 -1.1426 -2.0640 37.9576
#
#
#
# Elastic Compliance Matrix: (Units=1/GPa)
#
#
# Indices 1 2 3 4 5 6 
#
# 1 0.018911 -0.007198 -0.015796 0.014470 0.001131 -0.003490
# 2 -0.007198 0.012087 0.002336 -0.013047 -0.007355 0.003429
# 3 -0.015796 0.002336 0.061251 -0.020541 -0.008962 0.006888
# 4 0.014470 -0.013047 -0.020541 0.053054 0.013544 -0.004301
# 5 0.001131 -0.007355 -0.008962 0.013544 0.039364 -0.001013
# 6 -0.003490 0.003429 0.006888 -0.004301 -0.001013 0.028093
#
#
# Mechanical properties :
#
#
# Convention : Reuss Voigt Hill
#
# Bulk Modulus (GPa) = 19.63338 52.75738 36.19538
# Shear Modulus (GPa) = 18.44657 32.23769 25.34213
#
# Velocity S-wave (km/s) = 2.92408 3.86556 3.42730
# Velocity P-wave (km/s) = 4.52776 6.66162 5.69551
#
# Compressibility (1/GPa) = 0.05093367
#
# Stress axis : x y z
#
# Youngs Moduli (GPa) = 52.87821 82.73610 16.32633
#
# Poissons Ratio (x) = 0.59549 0.25789
# Poissons Ratio (y) = 0.38059 -0.03814
# Poissons Ratio (z) = 0.83528 -0.19329
#
# Static dielectric constant tensor:
#      x y z
#    x 1.793800 0.023240 0.003200 
#    y 0.023240 1.832810 0.022940 
#    z 0.003200 0.022940 1.836960 
# 
# From -- ./inp_files/222440.got.cif
#   From: 2010.05.17/outbox.cif.g08.bks.cpg/sg2_112_cif.got.tgz:222440.got - 2010.06.03 11:33:40.
