data_PCOD9084734
_publ_section_title
;
Structure prediction by ZEFSAII (Michael W. Deem and Ramdas Pophale) SiO2 
 PCOD9084734
Probable space group: P -1
;
_chemical_formula_sum "Si O2"
_cell_formula_units_Z 16
_cell_length_a 25.904040
_cell_length_b 10.194062
_cell_length_c 12.321284
_cell_angle_alpha 144.593715
_cell_angle_beta 156.883847
_cell_angle_gamma 31.173938
_cell_volume 654.837011
_symmetry_space_group_name_H-M "P -1"
_symmetry_group_IT_number 2
_symmetry_cell_setting 'triclinic'
loop_
_space_group_symop_operation_xyz
x,y,z
-x,-y,-z
loop_
_atom_site_type_symbol
_atom_site_label
_atom_site_fract_x
_atom_site_fract_y
_atom_site_fract_z
Si Si1 0.386486 0.333474 0.634722
Si Si2 0.323604 0.918730 0.510606
Si Si3 0.342970 0.239076 0.932428
Si Si4 0.751709 0.492540 0.858390
Si Si5 0.402518 0.822647 0.354267
Si Si6 0.095197 0.197099 0.712963
Si Si7 0.780461 0.304328 0.243137
Si Si8 0.664940 0.178802 0.217241
O O1 0.283455 0.497421 0.646796
O O2 0.353293 0.538476 0.613273
O O3 0.369232 0.086855 0.408311
O O4 0.553862 0.225460 0.931755
O O5 0.232450 0.790354 0.304816
O O6 0.314880 0.908650 0.357352
O O7 0.288665 0.188782 0.678548
O O8 0.502007 0.750921 0.762718
O O9 0.381473 0.966766 0.882636
O O10 0.233876 0.449573 0.946765
O O11 0.577318 0.678399 0.621882
O O12 0.850494 0.586595 0.043790
O O13 0.344578 0.663117 0.062919
O O14 0.921130 0.306983 0.461536
O O15 0.160800 0.984196 0.790962
O O16 0.169416 0.019778 0.631322
#
# Coordination Sequence:
#
# PCOD9084734 Si02
#       8
#     2   2   2   2   2   2   2   2
#     4  10  19  35  56  88 114 143 180 240 280 329
#     4  10  20  32  53  83 114 146 190 230 281 325
#     4   9  17  32  51  80 112 147 172 238 276 325
#     4  10  20  35  58  80 113 145 196 229 271 331
#     4  11  21  35  55  90 112 144 192 242 266 332
#     4   9  19  43  55  84 115 156 179 224 286 354
#     4  10  23  36  62  80 121 149 180 226 296 334
#     4   9  17  34  59  80 114 144 185 226 281 328
#
# _framework density 24.433561999999998
#
# number of rings (size 3 to 8) (size 9 to 14) (size 15 to 20)
#    0.000    2.250    3.750    1.500    1.750    2.500 
#    0.000    8.750    0.000    3.750    0.000    0.000 
#    0.000    0.000    0.000    0.000    0.000    0.000 
#
# Total GULP energy -89424.857366 kJ/mol
# GULP energy per Si atom -5589.053585 kJ/mol
# Density = 2.437795 g / cm^3
# Si number density = 24.433562 Si / 1000 Ang^3
#
#
#
# Elastic Constant Matrix: (Units=GPa)
#
#
# Indices 1 2 3 4 5 6 
#
# 1 88.2159 16.4821 47.6254 -2.6741 22.5200 -3.5989
# 2 16.4821 65.8233 27.5268 12.6077 12.8370 6.1856
# 3 47.6254 27.5268 107.5343 26.5920 33.3457 -10.9702
# 4 -2.6741 12.6077 26.5920 33.6098 -1.5672 8.9124
# 5 22.5200 12.8370 33.3457 -1.5672 50.5252 8.8965
# 6 -3.5989 6.1856 -10.9702 8.9124 8.8965 35.6368
#
#
#
# Elastic Compliance Matrix: (Units=1/GPa)
#
#
# Indices 1 2 3 4 5 6 
#
# 1 0.017613 -0.001867 -0.011248 0.012322 0.001267 -0.004758
# 2 -0.001867 0.018112 -0.002329 -0.004547 -0.001947 -0.002426
# 3 -0.011248 -0.002329 0.030649 -0.030801 -0.019316 0.021228
# 4 0.012322 -0.004547 -0.030801 0.065770 0.023262 -0.029703
# 5 0.001267 -0.001947 -0.019316 0.023262 0.036798 -0.020484
# 6 -0.004758 -0.002426 0.021228 -0.029703 -0.020484 0.047078
#
#
# Mechanical properties :
#
#
# Convention : Reuss Voigt Hill
#
# Bulk Modulus (GPa) = 28.17937 49.42688 38.80312
# Shear Modulus (GPa) = 19.32457 35.28364 27.30411
#
# Velocity S-wave (km/s) = 2.81535 3.80421 3.34650
# Velocity P-wave (km/s) = 4.70387 6.29039 5.55407
#
# Compressibility (1/GPa) = 0.03548695
#
# Stress axis : x y z
#
# Youngs Moduli (GPa) = 56.77616 55.21143 32.62722
#
# Poissons Ratio (x) = 0.10305 0.36700
# Poissons Ratio (y) = 0.10597 0.07599
# Poissons Ratio (z) = 0.63863 0.12859
#
# Static dielectric constant tensor:
#      x y z
#    x 2.029940 0.044040 -0.022320 
#    y 0.044040 1.944780 0.052530 
#    z -0.022320 0.052530 1.923870 
# 
# From -- ./inp_files/544977.got.cif
#   From: 2010.05.17/outbox.cif.g08.bks.cpg/sg2_273_cif.got.tgz:544977.got - 2010.06.03 11:33:40.
