data_PCOD9084403
_publ_section_title
;
Structure prediction by ZEFSAII (Michael W. Deem and Ramdas Pophale) SiO2 
 PCOD9084403
Probable space group: P -1
;
_chemical_formula_sum "Si O2"
_cell_formula_units_Z 16
_cell_length_a 10.845741
_cell_length_b 5.888825
_cell_length_c 12.054737
_cell_angle_alpha 76.205698
_cell_angle_beta 112.476462
_cell_angle_gamma 75.352684
_cell_volume 638.127891
_symmetry_space_group_name_H-M "P -1"
_symmetry_group_IT_number 2
_symmetry_cell_setting 'triclinic'
loop_
_space_group_symop_operation_xyz
x,y,z
-x,-y,-z
loop_
_atom_site_type_symbol
_atom_site_label
_atom_site_fract_x
_atom_site_fract_y
_atom_site_fract_z
Si Si1 0.939672 0.378857 0.690662
Si Si2 0.427720 0.656365 0.286101
Si Si3 0.841775 0.188938 0.465379
Si Si4 0.670242 0.933243 0.949442
Si Si5 0.224246 0.471174 0.798665
Si Si6 0.814909 0.534950 0.853388
Si Si7 0.616239 0.131357 0.520720
Si Si8 0.092742 0.864766 0.904437
O O1 0.861762 0.365834 0.550987
O O2 0.866690 0.572068 0.744322
O O3 0.097500 0.381779 0.723196
O O4 0.964627 0.110399 0.788989
O O5 0.319373 0.544808 0.208090
O O6 0.548183 0.412435 0.410722
O O7 0.354969 0.829759 0.346556
O O8 0.456209 0.838388 0.183428
O O9 0.753426 0.366806 0.313685
O O10 0.757767 0.020621 0.506009
O O11 0.000000 0.000000 0.500000
O O12 0.754545 0.751608 0.898631
O O13 0.654464 0.754883 0.063968
O O14 0.779238 0.049211 0.024426
O O15 0.151127 0.676072 0.844819
O O16 0.934544 0.296899 0.986181
O O17 0.500000 0.000000 0.500000
#
# Coordination Sequence:
#
# PCOD9084403 Si02
#       8
#     2   2   2   2   2   2   2   2
#     4  11  21  37  60  97 139 185 231 282 354 413
#     4  10  21  43  67  99 137 174 235 298 338 411
#     4  12  25  46  70 101 148 186 232 286 348 428
#     4   9  20  37  66  94 136 184 232 283 349 410
#     4  10  22  39  61  96 140 191 224 276 349 428
#     4  10  19  34  64  96 136 180 231 289 346 406
#     4  11  25  46  72 104 137 183 237 291 349 408
#     4   9  19  35  55  95 143 178 231 282 344 415
#
# _framework density 25.073343000000001
#
# number of rings (size 3 to 8) (size 9 to 14) (size 15 to 20)
#    0.000    1.750    2.500    1.500    0.000    8.500 
#    4.500    0.625    0.000   10.500    0.000    0.000 
#    0.000    0.000    0.000    0.000    0.000    0.000 
#
# Total GULP energy -89388.902996 kJ/mol
# GULP energy per Si atom -5586.806437 kJ/mol
# Density = 2.501628 g / cm^3
# Si number density = 25.073343 Si / 1000 Ang^3
#
#
#
# Elastic Constant Matrix: (Units=GPa)
#
#
# Indices 1 2 3 4 5 6 
#
# 1 84.5064 26.7385 31.2154 -0.1304 -35.4491 2.5780
# 2 26.7385 85.6145 52.1039 4.8681 -7.2915 9.9895
# 3 31.2154 52.1039 199.6860 -22.3693 -33.7260 -3.5801
# 4 -0.1304 4.8681 -22.3693 60.7170 6.9636 5.7576
# 5 -35.4491 -7.2915 -33.7260 6.9636 38.6405 -1.1538
# 6 2.5780 9.9895 -3.5801 5.7576 -1.1538 20.7944
#
#
#
# Elastic Compliance Matrix: (Units=1/GPa)
#
#
# Indices 1 2 3 4 5 6 
#
# 1 0.021704 -0.006128 0.001529 -0.001433 0.020410 0.002046
# 2 -0.006128 0.017102 -0.004966 -0.001669 -0.006674 -0.008219
# 3 0.001529 -0.004966 0.007493 0.002079 0.006729 0.003284
# 4 -0.001433 -0.001669 0.002079 0.018098 -0.003192 -0.003851
# 5 0.020410 -0.006674 0.006729 -0.003192 0.049957 0.005490
# 6 0.002046 -0.008219 0.003284 -0.003851 0.005490 0.053721
#
#
# Mechanical properties :
#
#
# Convention : Reuss Voigt Hill
#
# Bulk Modulus (GPa) = 36.80604 65.54694 51.17649
# Shear Modulus (GPa) = 25.47633 41.34699 33.41166
#
# Velocity S-wave (km/s) = 3.19105 4.06524 3.65438
# Velocity P-wave (km/s) = 5.31867 6.94506 6.18555
#
# Compressibility (1/GPa) = 0.02716945
#
# Stress axis : x y z
#
# Youngs Moduli (GPa) = 46.07347 58.47302 133.46098
#
# Poissons Ratio (x) = 0.35834 -0.20411
# Poissons Ratio (y) = 0.28235 0.66276
# Poissons Ratio (z) = -0.07046 0.29037
#
# Static dielectric constant tensor:
#      x y z
#    x 2.078930 -0.047820 0.027300 
#    y -0.047820 2.006620 -0.082090 
#    z 0.027300 -0.082090 2.019590 
# 
# From -- ./inp_files/410102.got.cif
#   From: 2010.05.17/outbox.cif.g08.bks.cpg/sg2_206_cif.got.tgz:410102.got - 2010.06.03 11:33:40.
