data_PCOD9084646
_publ_section_title
;
Structure prediction by ZEFSAII (Michael W. Deem and Ramdas Pophale) SiO2 
 PCOD9084646
Probable space group: P -1
;
_chemical_formula_sum "Si O2"
_cell_formula_units_Z 13
_cell_length_a 12.823050
_cell_length_b 8.617236
_cell_length_c 7.966449
_cell_angle_alpha 48.677897
_cell_angle_beta 52.861044
_cell_angle_gamma 51.974999
_cell_volume 491.055403
_symmetry_space_group_name_H-M "P -1"
_symmetry_group_IT_number 2
_symmetry_cell_setting 'triclinic'
loop_
_space_group_symop_operation_xyz
x,y,z
-x,-y,-z
loop_
_atom_site_type_symbol
_atom_site_label
_atom_site_fract_x
_atom_site_fract_y
_atom_site_fract_z
Si Si1 0.908931 0.843148 0.205992
Si Si2 0.000000 0.500000 0.000000
Si Si3 0.382714 0.867595 0.631671
Si Si4 0.702990 0.474253 0.226231
Si Si5 0.962182 0.372691 0.424887
Si Si6 0.515128 0.853934 0.924573
Si Si7 0.358249 0.547306 0.321184
O O1 0.959002 0.624011 0.192657
O O2 0.939885 0.730340 0.440720
O O3 0.744345 0.969555 0.250804
O O4 0.000000 0.000000 0.000000
O O5 0.162689 0.474965 0.891188
O O6 0.982076 0.734468 0.729077
O O7 0.294155 0.761871 0.673364
O O8 0.513108 0.661708 0.727628
O O9 0.450300 0.010711 0.354593
O O10 0.639911 0.628210 0.016884
O O11 0.623689 0.507275 0.458324
O O12 0.801448 0.415518 0.597672
O O13 0.385195 0.771381 0.101032
O O14 0.500000 0.000000 0.000000
#
# Coordination Sequence:
#
# PCOD9084646 Si02
#       7
#     2   1   2   2   2   2   2
#     4  11  25  46  66  89 131 180 217 252 322 397
#     4  10  20  40  66  92 126 164 206 274 322 366
#     4  11  21  37  63  90 122 172 211 256 320 381
#     4  10  19  35  55  92 131 158 201 264 321 372
#     4  10  24  45  64  95 133 167 214 273 319 377
#     4  11  18  34  59  92 127 165 201 258 324 377
#     4  10  21  37  60  93 128 157 210 270 313 369
#
# _framework density 26.473593999999999
#
# number of rings (size 3 to 8) (size 9 to 14) (size 15 to 20)
#    0.000    1.538    3.077    2.769    0.000    5.538 
#    2.769    6.154    0.000    0.000    0.000    0.000 
#    0.000    0.000    0.000    0.000    0.000    0.000 
#
# Total GULP energy -72529.359629 kJ/mol
# GULP energy per Si atom -5579.181510 kJ/mol
# Density = 2.641334 g / cm^3
# Si number density = 26.473594 Si / 1000 Ang^3
#
#
#
# Elastic Constant Matrix: (Units=GPa)
#
#
# Indices 1 2 3 4 5 6 
#
# 1 143.9432 7.0867 63.2002 -10.3980 -8.0326 -19.7730
# 2 7.0867 76.5992 47.9470 -4.0641 -12.0248 -7.0868
# 3 63.2002 47.9470 188.1943 -16.2103 -11.5289 -14.7637
# 4 -10.3980 -4.0641 -16.2103 41.6564 6.1557 -11.1278
# 5 -8.0326 -12.0248 -11.5289 6.1557 61.9863 -0.4862
# 6 -19.7730 -7.0868 -14.7637 -11.1278 -0.4862 27.8327
#
#
#
# Elastic Compliance Matrix: (Units=1/GPa)
#
#
# Indices 1 2 3 4 5 6 
#
# 1 0.009261 0.001758 -0.002700 0.003152 0.000780 0.006868
# 2 0.001758 0.016321 -0.004227 0.000971 0.002540 0.003595
# 3 -0.002700 -0.004227 0.007670 0.002442 0.000030 0.002051
# 4 0.003152 0.000971 0.002442 0.030353 -0.001839 0.015885
# 5 0.000780 0.002540 0.000030 -0.001839 0.016921 0.000777
# 6 0.006868 0.003595 0.002051 0.015885 0.000777 0.049177
#
#
# Mechanical properties :
#
#
# Convention : Reuss Voigt Hill
#
# Bulk Modulus (GPa) = 43.64044 71.68937 57.66491
# Shear Modulus (GPa) = 33.85725 45.66194 39.75960
#
# Velocity S-wave (km/s) = 3.58006 4.15759 3.87959
# Velocity P-wave (km/s) = 5.79736 7.08419 6.47283
#
# Compressibility (1/GPa) = 0.02291452
#
# Stress axis : x y z
#
# Youngs Moduli (GPa) = 107.98285 61.26981 130.36977
#
# Poissons Ratio (x) = -0.10773 0.35198
# Poissons Ratio (y) = -0.18987 0.55113
# Poissons Ratio (z) = 0.29154 0.25901
#
# Static dielectric constant tensor:
#      x y z
#    x 0.880570 -1.638840 -0.977050 
#    y -1.638840 -0.100470 -1.427820 
#    z -0.977050 -1.427820 1.366950 
# 
# From -- ./inp_files/26934.got.cif
#   From: 2010.05.17/outbox.cif.g08.bks.cpg/sg2_14_cif.got.tgz:26934.got - 2010.06.03 11:33:40.
