data_PCOD9084737
_publ_section_title
;
Structure prediction by ZEFSAII (Michael W. Deem and Ramdas Pophale) SiO2 
 PCOD9084737
Probable space group: P -1
;
_chemical_formula_sum "Si O2"
_cell_formula_units_Z 16
_cell_length_a 11.879734
_cell_length_b 10.193938
_cell_length_c 10.021826
_cell_angle_alpha 90.335627
_cell_angle_beta 107.233221
_cell_angle_gamma 142.206102
_cell_volume 647.919188
_symmetry_space_group_name_H-M "P -1"
_symmetry_group_IT_number 2
_symmetry_cell_setting 'triclinic'
loop_
_space_group_symop_operation_xyz
x,y,z
-x,-y,-z
loop_
_atom_site_type_symbol
_atom_site_label
_atom_site_fract_x
_atom_site_fract_y
_atom_site_fract_z
Si Si1 0.310043 0.636244 0.171523
Si Si2 0.380134 0.312151 0.661658
Si Si3 0.308714 0.207794 0.335372
Si Si4 0.926732 0.621955 0.433512
Si Si5 0.373497 0.878613 0.594141
Si Si6 0.960559 0.722352 0.141529
Si Si7 0.737397 0.767006 0.103737
Si Si8 0.042803 0.231253 0.269442
O O1 0.467562 0.656209 0.218436
O O2 0.163543 0.464746 0.246339
O O3 0.462021 0.899701 0.246298
O O4 0.148270 0.484698 0.990463
O O5 0.327831 0.200764 0.499930
O O6 0.483751 0.547107 0.660493
O O7 0.218906 0.198150 0.720811
O O8 0.174526 0.220081 0.286943
O O9 0.206530 0.986449 0.231299
O O10 0.718278 0.345700 0.395016
O O11 0.899483 0.644277 0.272948
O O12 0.963431 0.748405 0.575238
O O13 0.150827 0.751000 0.506608
O O14 0.500000 0.000000 0.500000
O O15 0.864540 0.775431 0.067690
O O16 0.500000 0.500000 0.000000
O O17 0.823665 0.993846 0.114076
#
# Coordination Sequence:
#
# PCOD9084737 Si02
#       8
#     2   2   2   2   2   2   2   2
#     4  11  22  38  64  90 128 162 211 261 320 364
#     4  10  19  35  56  88 122 174 204 246 298 375
#     4   9  20  34  58  86 131 160 209 243 300 373
#     4  11  24  44  72  90 122 164 215 264 317 370
#     4  11  24  47  71  92 115 162 220 269 319 377
#     4  11  23  38  58  97 129 164 198 263 311 373
#     4  11  21  33  56  91 135 167 205 239 300 377
#     4  10  21  37  62  90 124 174 207 250 305 381
#
# _framework density 24.694438000000002
#
# number of rings (size 3 to 8) (size 9 to 14) (size 15 to 20)
#    0.000    1.500    2.500    3.000    1.750    4.000 
#    2.250    0.625    0.000    0.000    0.000    0.000 
#    0.000    0.000    0.000    0.000    0.000    0.000 
#
# Total GULP energy -89282.470796 kJ/mol
# GULP energy per Si atom -5580.154425 kJ/mol
# Density = 2.463823 g / cm^3
# Si number density = 24.694438 Si / 1000 Ang^3
#
#
#
# Elastic Constant Matrix: (Units=GPa)
#
#
# Indices 1 2 3 4 5 6 
#
# 1 32.5759 15.9501 10.6416 7.1944 -12.0140 2.3026
# 2 15.9501 159.0530 59.3465 44.5861 -15.6242 -6.4096
# 3 10.6416 59.3465 138.7718 29.7569 -27.0587 -15.1682
# 4 7.1944 44.5861 29.7569 55.8661 -0.9439 -13.6566
# 5 -12.0140 -15.6242 -27.0587 -0.9439 21.7949 2.4336
# 6 2.3026 -6.4096 -15.1682 -13.6566 2.4336 29.4654
#
#
#
# Elastic Compliance Matrix: (Units=1/GPa)
#
#
# Indices 1 2 3 4 5 6 
#
# 1 0.042468 -0.000886 0.003332 -0.007969 0.027433 -0.007755
# 2 -0.000886 0.009275 -0.002001 -0.006740 0.003649 -0.002368
# 3 0.003332 -0.002001 0.011838 -0.004361 0.014669 0.002166
# 4 -0.007969 -0.006740 -0.004361 0.029233 -0.014676 0.011673
# 5 0.027433 0.003649 0.014669 -0.014676 0.082020 -0.007374
# 6 -0.007755 -0.002368 0.002166 0.011673 -0.007374 0.041163
#
#
# Mechanical properties :
#
#
# Convention : Reuss Voigt Hill
#
# Bulk Modulus (GPa) = 15.51041 55.80857 35.65949
# Shear Modulus (GPa) = 21.13297 37.72278 29.42787
#
# Velocity S-wave (km/s) = 2.92854 3.91267 3.45582
# Velocity P-wave (km/s) = 4.21067 6.56206 5.51318
#
# Compressibility (1/GPa) = 0.06447281
#
# Stress axis : x y z
#
# Youngs Moduli (GPa) = 23.54718 107.81833 84.47179
#
# Poissons Ratio (x) = 0.09552 -0.28149
# Poissons Ratio (y) = 0.02086 0.16899
# Poissons Ratio (z) = -0.07847 0.21570
#
# Static dielectric constant tensor:
#      x y z
#    x 2.019110 0.044700 0.069640 
#    y 0.044700 2.079110 0.060320 
#    z 0.069640 0.060320 2.000450 
# 
# From -- ./inp_files/240629.got.cif
#   From: 2010.05.17/outbox.cif.g08.bks.cpg/sg2_121_cif.got.tgz:240629.got - 2010.06.03 11:33:40.
