data_PCOD9084690
_publ_section_title
;
Structure prediction by ZEFSAII (Michael W. Deem and Ramdas Pophale) SiO2 
 PCOD9084690
Probable space group: P -1
;
_chemical_formula_sum "Si O2"
_cell_formula_units_Z 14
_cell_length_a 13.514934
_cell_length_b 8.046395
_cell_length_c 11.467806
_cell_angle_alpha 51.470074
_cell_angle_beta 120.677023
_cell_angle_gamma 137.207492
_cell_volume 659.435784
_symmetry_space_group_name_H-M "P -1"
_symmetry_group_IT_number 2
_symmetry_cell_setting 'triclinic'
loop_
_space_group_symop_operation_xyz
x,y,z
-x,-y,-z
loop_
_atom_site_type_symbol
_atom_site_label
_atom_site_fract_x
_atom_site_fract_y
_atom_site_fract_z
Si Si1 0.009631 0.772419 0.467189
Si Si2 0.901318 0.670465 0.683443
Si Si3 0.292111 0.676277 0.603810
Si Si4 0.617181 0.052814 0.208674
Si Si5 0.361527 0.416428 0.579527
Si Si6 0.296621 0.600424 0.113224
Si Si7 0.677962 0.854806 0.625807
O O1 0.977030 0.638633 0.634274
O O2 0.884159 0.548097 0.404322
O O3 0.993291 0.009926 0.365910
O O4 0.172822 0.944458 0.443945
O O5 0.752147 0.597128 0.567839
O O6 0.841334 0.506335 0.839086
O O7 0.346559 0.518149 0.650827
O O8 0.354820 0.809741 0.708803
O O9 0.335372 0.919037 0.433989
O O10 0.668014 0.866421 0.309992
O O11 0.445081 0.845666 0.160971
O O12 0.700747 0.282692 0.059932
O O13 0.531865 0.652573 0.551410
O O14 0.304326 0.351192 0.209566
#
# Coordination Sequence:
#
# PCOD9084690 Si02
#       7
#     2   2   2   2   2   2   2
#     4   9  19  32  55  84 112 145 182 228 282 327
#     4   9  17  35  57  82 112 142 187 234 271 327
#     4  11  21  35  57  85 114 146 184 231 278 329
#     4  10  20  37  57  81 117 148 182 231 279 330
#     4  10  21  36  60  87 109 143 190 234 277 323
#     4   9  19  35  57  83 112 150 185 227 282 328
#     4  10  19  35  56  82 111 142 186 231 273 326
#
# _framework density 21.230270000000001
#
# number of rings (size 3 to 8) (size 9 to 14) (size 15 to 20)
#    0.000    2.286    0.000    3.429    0.000    5.143 
#    0.000   12.143    0.000   30.857    0.000    2.000 
#    0.000    0.000    0.000    0.000    0.000    0.000 
#
# Total GULP energy -78030.572072 kJ/mol
# GULP energy per Si atom -5573.612291 kJ/mol
# Density = 2.118195 g / cm^3
# Si number density = 21.230270 Si / 1000 Ang^3
#
#
#
# Elastic Constant Matrix: (Units=GPa)
#
#
# Indices 1 2 3 4 5 6 
#
# 1 77.1376 33.6453 38.7035 -8.6718 -9.5493 -11.2789
# 2 33.6453 129.9174 47.7559 -7.2859 -5.0738 -13.7486
# 3 38.7035 47.7559 110.9900 -23.3273 -23.0361 -13.2368
# 4 -8.6718 -7.2859 -23.3273 29.3086 6.0627 -6.7672
# 5 -9.5493 -5.0738 -23.0361 6.0627 25.3335 -0.8054
# 6 -11.2789 -13.7486 -13.2368 -6.7672 -0.8054 48.0512
#
#
#
# Elastic Compliance Matrix: (Units=1/GPa)
#
#
# Indices 1 2 3 4 5 6 
#
# 1 0.016713 -0.002551 -0.003677 0.001497 0.002164 0.002427
# 2 -0.002551 0.009731 -0.003781 -0.000643 -0.002265 0.001015
# 3 -0.003677 -0.003781 0.016805 0.010091 0.010859 0.004288
# 4 0.001497 -0.000643 0.010091 0.044732 -0.000800 0.009234
# 5 0.002164 -0.002265 0.010859 -0.000800 0.050015 0.003577
# 6 0.002427 0.001015 0.004288 0.009234 0.003577 0.024213
#
#
# Mechanical properties :
#
#
# Convention : Reuss Voigt Hill
#
# Bulk Modulus (GPa) = 43.04863 62.02826 52.53845
# Shear Modulus (GPa) = 26.31987 33.73468 30.02728
#
# Velocity S-wave (km/s) = 3.52480 3.99054 3.76488
# Velocity P-wave (km/s) = 6.07344 7.10724 6.61058
#
# Compressibility (1/GPa) = 0.02322954
#
# Stress axis : x y z
#
# Youngs Moduli (GPa) = 59.83518 102.76622 59.50578
#
# Poissons Ratio (x) = 0.26218 0.21880
# Poissons Ratio (y) = 0.15265 0.22501
# Poissons Ratio (z) = 0.22001 0.38860
#
# Static dielectric constant tensor:
#      x y z
#    x 1.987030 -0.007510 0.005790 
#    y -0.007510 1.779190 -0.012770 
#    z 0.005790 -0.012770 1.771450 
# 
# From -- ./inp_files/388289.got.cif
#   From: 2010.05.17/outbox.cif.g08.bks.cpg/sg2_195_cif.got.tgz:388289.got - 2010.06.03 11:33:40.
