data_PCOD9084251
_publ_section_title
;
Structure prediction by ZEFSAII (Michael W. Deem and Ramdas Pophale) SiO2 
 PCOD9084251
Probable space group: P -1
;
_chemical_formula_sum "Si O2"
_cell_formula_units_Z 16
_cell_length_a 11.845041
_cell_length_b 8.967469
_cell_length_c 15.546575
_cell_angle_alpha 45.054834
_cell_angle_beta 121.502931
_cell_angle_gamma 130.322257
_cell_volume 884.542523
_symmetry_space_group_name_H-M "P -1"
_symmetry_group_IT_number 2
_symmetry_cell_setting 'triclinic'
loop_
_space_group_symop_operation_xyz
x,y,z
-x,-y,-z
loop_
_atom_site_type_symbol
_atom_site_label
_atom_site_fract_x
_atom_site_fract_y
_atom_site_fract_z
Si Si1 0.314387 0.141787 0.579492
Si Si2 0.062862 0.097012 0.621821
Si Si3 0.558593 0.450291 0.678801
Si Si4 0.310124 0.430327 0.709291
Si Si5 0.854923 0.716544 0.138707
Si Si6 0.053869 0.278840 0.012472
Si Si7 0.851045 0.320995 0.399055
Si Si8 0.132365 0.427615 0.175738
O O1 0.169614 0.147686 0.561258
O O2 0.442300 0.227179 0.667896
O O3 0.379330 0.326393 0.452160
O O4 0.256506 0.879514 0.627694
O O5 0.178693 0.201841 0.703901
O O6 0.962471 0.232132 0.518571
O O7 0.958278 0.819404 0.708352
O O8 0.462681 0.487752 0.700832
O O9 0.700555 0.435346 0.778575
O O10 0.296394 0.376533 0.827510
O O11 0.254090 0.630897 0.595468
O O12 0.929254 0.567494 0.276614
O O13 0.843279 0.660266 0.056295
O O14 0.951673 0.995599 0.079903
O O15 0.131697 0.354625 0.105277
O O16 0.952622 0.414223 0.912040
#
# Coordination Sequence:
#
# PCOD9084251 Si02
#       8
#     2   2   2   2   2   2   2   2
#     4  10  21  35  57  84 122 146 182 231 283 348
#     4  11  19  35  60  91 111 143 191 235 288 327
#     4  10  22  38  52  85 121 152 180 227 288 342
#     4   9  21  36  55  81 122 148 176 231 284 345
#     4   9  20  38  58  82 115 143 187 238 284 321
#     4  10  21  38  61  85 108 149 196 243 265 322
#     4  10  19  34  62  84 111 152 183 234 285 337
#     4  11  21  37  63  85 112 145 197 234 277 328
#
# _framework density 18.088446000000001
#
# number of rings (size 3 to 8) (size 9 to 14) (size 15 to 20)
#    0.750    1.250    2.500    1.500    1.750    0.500 
#    0.000    3.750    0.000    0.000    0.000    0.000 
#    0.000    0.000    0.000    0.000    0.000    0.000 
#
# Total GULP energy -89106.449908 kJ/mol
# GULP energy per Si atom -5569.153119 kJ/mol
# Density = 1.804728 g / cm^3
# Si number density = 18.088446 Si / 1000 Ang^3
#
#
#
# Elastic Constant Matrix: (Units=GPa)
#
#
# Indices 1 2 3 4 5 6 
#
# 1 66.2746 68.7884 65.1492 36.4567 1.8079 33.8245
# 2 68.7884 10.7509 -35.2115 -29.0262 -34.4990 -43.6006
# 3 65.1492 -35.2115 12.7512 -37.0485 -55.6010 -33.1963
# 4 36.4567 -29.0262 -37.0485 3.7079 -35.5576 -23.4570
# 5 1.8079 -34.4990 -55.6010 -35.5576 -0.5048 -23.3503
# 6 33.8245 -43.6006 -33.1963 -23.4570 -23.3503 -4.6140
#
#
#
# Elastic Compliance Matrix: (Units=1/GPa)
#
#
# Indices 1 2 3 4 5 6 
#
# 1 0.024611 -0.018708 0.010229 0.015530 0.044276 -0.019418
# 2 -0.018708 0.036625 -0.018999 -0.023981 -0.049776 0.027274
# 3 0.010229 -0.018999 0.019713 0.004541 0.022742 -0.025484
# 4 0.015530 -0.023981 0.004541 0.038521 0.028735 -0.033459
# 5 0.044276 -0.049776 0.022742 0.028735 0.108948 -0.066121
# 6 -0.019418 0.027274 -0.025484 -0.033459 -0.066121 0.071263
#
#
# Mechanical properties :
#
#
# Convention : Reuss Voigt Hill
#
# Bulk Modulus (GPa) = 38.47151 31.91433 35.19292
# Shear Modulus (GPa) = 13.76272 -0.87880 6.44196
#
# Velocity S-wave (km/s) = 2.76136 -0.69777 1.88921
# Velocity P-wave (km/s) = 5.61084 4.12706 4.92515
#
# Compressibility (1/GPa) = 0.02599326
#
# Stress axis : x y z
#
# Youngs Moduli (GPa) = 40.63290 27.30365 50.72875
#
# Poissons Ratio (x) = 0.51080 -0.51892
# Poissons Ratio (y) = 0.76016 0.96379
# Poissons Ratio (z) = -0.41565 0.51874
#
# Static dielectric constant tensor:
#      x y z
#    x 1.625200 -0.027600 -0.030180 
#    y -0.027600 1.625380 0.013770 
#    z -0.030180 0.013770 1.636250 
# 
# From -- ./inp_files/351727.got.cif
#   From: 2010.05.17/outbox.cif.g08.bks.cpg/sg2_176_cif.got.tgz:351727.got - 2010.06.03 11:33:40.
