data_PCOD9085119
_publ_section_title
;
Structure prediction by ZEFSAII (Michael W. Deem and Ramdas Pophale) SiO2 
 PCOD9085119
Probable space group: P -1
;
_chemical_formula_sum "Si O2"
_cell_formula_units_Z 14
_cell_length_a 5.272132
_cell_length_b 16.356283
_cell_length_c 8.321777
_cell_angle_alpha 62.542043
_cell_angle_beta 93.469996
_cell_angle_gamma 108.297139
_cell_volume 601.544934
_symmetry_space_group_name_H-M "P -1"
_symmetry_group_IT_number 2
_symmetry_cell_setting 'triclinic'
loop_
_space_group_symop_operation_xyz
x,y,z
-x,-y,-z
loop_
_atom_site_type_symbol
_atom_site_label
_atom_site_fract_x
_atom_site_fract_y
_atom_site_fract_z
Si Si1 0.160040 0.734704 0.343847
Si Si2 0.155959 0.557947 0.712971
Si Si3 0.236080 0.939834 0.155672
Si Si4 0.288516 0.772555 0.941034
Si Si5 0.311459 0.410812 0.674737
Si Si6 0.674501 0.419483 0.976095
Si Si7 0.898722 0.890350 0.872287
O O1 0.228660 0.654552 0.524965
O O2 0.267206 0.842726 0.321144
O O3 0.839225 0.682516 0.351227
O O4 0.266104 0.748393 0.152818
O O5 0.107716 0.463310 0.686352
O O6 0.878191 0.522304 0.831122
O O7 0.378059 0.568457 0.849630
O O8 0.140553 0.002934 0.226332
O O9 0.994677 0.896017 0.057915
O O10 0.500000 0.000000 0.000000
O O11 0.602515 0.823719 0.875787
O O12 0.113547 0.845469 0.839948
O O13 0.200228 0.669911 0.939651
O O14 0.500000 0.500000 0.500000
O O15 0.447328 0.387528 0.860712
#
# Coordination Sequence:
#
# PCOD9085119 Si02
#       7
#     2   2   2   2   2   2   2
#     4  11  21  39  61  94 123 160 214 261 318 369
#     4  11  24  39  57  91 126 167 209 260 319 379
#     4  10  19  35  58  94 128 154 202 275 327 367
#     4  11  21  37  64  90 121 169 213 259 315 383
#     4  12  22  40  62  91 126 169 213 263 312 380
#     4  11  23  40  59  84 131 168 210 253 320 384
#     4  10  20  36  58  94 122 159 206 266 322 374
#
# _framework density 23.273408
#
# number of rings (size 3 to 8) (size 9 to 14) (size 15 to 20)
#    0.000    1.143    5.714    3.429    0.000    0.000 
#    0.000    0.000    0.000    1.714    0.000    1.000 
#    0.000    0.000    0.000    0.000    0.000    0.000 
#
# Total GULP energy -77982.960101 kJ/mol
# GULP energy per Si atom -5570.211436 kJ/mol
# Density = 2.322044 g / cm^3
# Si number density = 23.273408 Si / 1000 Ang^3
#
#
#
# Elastic Constant Matrix: (Units=GPa)
#
#
# Indices 1 2 3 4 5 6 
#
# 1 114.4308 37.8540 17.7721 -8.3335 6.5553 -1.1048
# 2 37.8540 115.3587 29.6700 -31.6018 7.7794 -12.5222
# 3 17.7721 29.6700 48.9601 -16.3796 15.8424 -1.5386
# 4 -8.3335 -31.6018 -16.3796 37.3449 -2.3822 8.7295
# 5 6.5553 7.7794 15.8424 -2.3822 19.6314 -3.1192
# 6 -1.1048 -12.5222 -1.5386 8.7295 -3.1192 36.0326
#
#
#
# Elastic Compliance Matrix: (Units=1/GPa)
#
#
# Indices 1 2 3 4 5 6 
#
# 1 0.010025 -0.003135 -0.001867 -0.001134 -0.000841 -0.000660
# 2 -0.003135 0.013242 -0.004313 0.008090 0.000646 0.002417
# 3 -0.001867 -0.004313 0.035635 0.011072 -0.025869 -0.004956
# 4 -0.001134 0.008090 0.011072 0.039342 -0.008097 -0.006983
# 5 -0.000841 0.000646 -0.025869 -0.008097 0.072015 0.007290
# 6 -0.000660 0.002417 -0.004956 -0.006983 0.007290 0.030684
#
#
# Mechanical properties :
#
#
# Convention : Reuss Voigt Hill
#
# Bulk Modulus (GPa) = 24.83159 49.92686 37.37922
# Shear Modulus (GPa) = 21.45947 31.49868 26.47907
#
# Velocity S-wave (km/s) = 3.03984 3.68288 3.37670
# Velocity P-wave (km/s) = 4.79724 6.29155 5.59451
#
# Compressibility (1/GPa) = 0.04027129
#
# Stress axis : x y z
#
# Youngs Moduli (GPa) = 99.74862 75.51855 28.06223
#
# Poissons Ratio (x) = 0.23676 0.05240
# Poissons Ratio (y) = 0.31272 0.12103
# Poissons Ratio (z) = 0.18626 0.32571
#
# Static dielectric constant tensor:
#      x y z
#    x 2.057280 -0.052500 0.015320 
#    y -0.052500 1.953640 -0.023370 
#    z 0.015320 -0.023370 1.901740 
# 
# From -- ./inp_files/37263.got.cif
#   From: 2010.05.17/outbox.cif.g08.bks.cpg/sg2_19_cif.got.tgz:37263.got - 2010.06.03 11:33:40.
