data_PCOD9085071
_publ_section_title
;
Structure prediction by ZEFSAII (Michael W. Deem and Ramdas Pophale) SiO2 
 PCOD9085071
Probable space group: P -1
;
_chemical_formula_sum "Si O2"
_cell_formula_units_Z 14
_cell_length_a 8.561241
_cell_length_b 11.069725
_cell_length_c 12.227501
_cell_angle_alpha 39.471972
_cell_angle_beta 54.886725
_cell_angle_gamma 75.181833
_cell_volume 561.719196
_symmetry_space_group_name_H-M "P -1"
_symmetry_group_IT_number 2
_symmetry_cell_setting 'triclinic'
loop_
_space_group_symop_operation_xyz
x,y,z
-x,-y,-z
loop_
_atom_site_type_symbol
_atom_site_label
_atom_site_fract_x
_atom_site_fract_y
_atom_site_fract_z
Si Si1 0.003347 0.847549 0.443529
Si Si2 0.292744 0.337460 0.643643
Si Si3 0.275398 0.575764 0.909514
Si Si4 0.856824 0.176052 0.368356
Si Si5 0.312023 0.063107 0.998837
Si Si6 0.558201 0.419565 0.795186
Si Si7 0.858026 0.367373 0.851302
O O1 0.167945 0.885786 0.451015
O O2 0.897206 0.607649 0.658364
O O3 0.869795 0.982191 0.434768
O O4 0.107827 0.911450 0.240706
O O5 0.500000 0.500000 0.500000
O O6 0.292413 0.124316 0.839420
O O7 0.317512 0.400704 0.463239
O O8 0.077667 0.348950 0.763066
O O9 0.243628 0.694006 0.946452
O O10 0.075551 0.365464 0.134349
O O11 0.290408 0.722287 0.697142
O O12 0.465125 0.503331 0.874651
O O13 0.366844 0.270554 0.905992
O O14 0.500000 0.000000 0.000000
O O15 0.696027 0.294154 0.869863
#
# Coordination Sequence:
#
# PCOD9085071 Si02
#       7
#     2   2   2   2   2   2   2
#     4  10  19  35  58  88 119 153 203 247 293 341
#     4  10  23  40  63  87 116 162 210 240 291 366
#     4  10  20  36  64  89 122 160 205 236 304 361
#     4   9  19  33  60  88 117 158 202 249 281 354
#     4  11  23  39  63  88 116 153 211 253 290 353
#     4  11  23  41  62  91 124 161 198 246 308 361
#     4  11  23  40  63  90 127 159 196 248 307 363
#
# _framework density 24.923484999999999
#
# number of rings (size 3 to 8) (size 9 to 14) (size 15 to 20)
#    0.000    1.714    1.429    3.429   12.000    0.000 
#    0.000    5.000    0.000    0.000    0.000    0.000 
#    0.000    0.000    0.000    0.000    0.000    0.000 
#
# Total GULP energy -78233.271666 kJ/mol
# GULP energy per Si atom -5588.090833 kJ/mol
# Density = 2.486676 g / cm^3
# Si number density = 24.923485 Si / 1000 Ang^3
#
#
#
# Elastic Constant Matrix: (Units=GPa)
#
#
# Indices 1 2 3 4 5 6 
#
# 1 102.0205 24.0862 11.1608 3.0514 5.1774 -26.9896
# 2 24.0862 54.9856 13.3382 8.3312 4.6912 -12.4913
# 3 11.1608 13.3382 74.1486 -1.3758 21.6989 -18.6288
# 4 3.0514 8.3312 -1.3758 41.8496 -8.8123 -1.5497
# 5 5.1774 4.6912 21.6989 -8.8123 29.2478 -8.0798
# 6 -26.9896 -12.4913 -18.6288 -1.5497 -8.0798 32.7396
#
#
#
# Elastic Compliance Matrix: (Units=1/GPa)
#
#
# Indices 1 2 3 4 5 6 
#
# 1 0.013261 -0.003840 0.001181 0.000279 0.000301 0.010227
# 2 -0.003840 0.021958 -0.002117 -0.004384 -0.001656 0.003392
# 3 0.001181 -0.002117 0.019304 -0.001339 -0.012376 0.008033
# 4 0.000279 -0.004384 -0.001339 0.026908 0.010192 0.001584
# 5 0.000301 -0.001656 -0.012376 0.010192 0.048010 0.004906
# 6 0.010227 0.003392 0.008033 0.001584 0.004906 0.046125
#
#
# Mechanical properties :
#
#
# Convention : Reuss Voigt Hill
#
# Bulk Modulus (GPa) = 22.23610 36.48058 29.35834
# Shear Modulus (GPa) = 24.98632 32.93870 28.96251
#
# Velocity S-wave (km/s) = 3.16970 3.63932 3.41259
# Velocity P-wave (km/s) = 4.72621 5.68580 5.22807
#
# Compressibility (1/GPa) = 0.04497191
#
# Stress axis : x y z
#
# Youngs Moduli (GPa) = 75.40788 45.54104 51.80211
#
# Poissons Ratio (x) = 0.17489 -0.06118
# Poissons Ratio (y) = 0.28958 0.10964
# Poissons Ratio (z) = -0.08905 0.09639
#
# Static dielectric constant tensor:
#      x y z
#    x 2.117970 0.106250 0.028530 
#    y 0.106250 2.045000 -0.026260 
#    z 0.028530 -0.026260 1.940720 
# 
# From -- ./inp_files/193950.got.cif
#   From: 2010.05.17/outbox.cif.g08.bks.cpg/sg2_97_cif.got.tgz:193950.got - 2010.06.03 11:33:40.
