data_PCOD9085496
_publ_section_title
;
Structure prediction by ZEFSAII (Michael W. Deem and Ramdas Pophale) SiO2 
 PCOD9085496
Probable space group: P -1
;
_chemical_formula_sum "Si O2"
_cell_formula_units_Z 15
_cell_length_a 9.278802
_cell_length_b 15.688728
_cell_length_c 16.804915
_cell_angle_alpha 23.874103
_cell_angle_beta 143.610543
_cell_angle_gamma 139.552627
_cell_volume 584.236794
_symmetry_space_group_name_H-M "P -1"
_symmetry_group_IT_number 2
_symmetry_cell_setting 'triclinic'
loop_
_space_group_symop_operation_xyz
x,y,z
-x,-y,-z
loop_
_atom_site_type_symbol
_atom_site_label
_atom_site_fract_x
_atom_site_fract_y
_atom_site_fract_z
Si Si1 0.190521 0.715298 0.523308
Si Si2 0.698534 0.753274 0.631499
Si Si3 0.500000 0.000000 0.000000
Si Si4 0.459583 0.827380 0.857414
Si Si5 0.975604 0.961831 0.348875
Si Si6 0.996940 0.559439 0.815277
Si Si7 0.840114 0.893826 0.094866
Si Si8 0.746858 0.632854 0.030789
O O1 0.459740 0.708657 0.615656
O O2 0.139560 0.500351 0.735030
O O3 0.003964 0.742605 0.345506
O O4 0.166750 0.903702 0.415385
O O5 0.913993 0.855590 0.697705
O O6 0.778974 0.563317 0.776475
O O7 0.640770 0.945211 0.383369
O O8 0.718309 0.983927 0.174924
O O9 0.712767 0.018556 0.002622
O O10 0.239883 0.651019 0.891517
O O11 0.608997 0.784097 0.038164
O O12 0.645233 0.826584 0.864965
O O13 0.954755 0.744830 0.576165
O O14 0.060920 0.361776 0.960113
O O15 0.000000 0.000000 0.000000
O O16 0.500000 0.500000 0.000000
#
# Coordination Sequence:
#
# PCOD9085496 Si02
#       8
#     2   2   1   2   2   2   2   2
#     4  10  21  34  54  84 116 150 189 239 296 346
#     4  11  18  32  59  87 111 140 197 246 286 336
#     4  10  20  34  52  84 124 146 188 248 298 342
#     4  10  19  35  61  81 112 154 195 235 288 358
#     4   9  18  30  50  81 110 147 186 232 291 337
#     4   9  18  33  57  82 109 151 186 235 293 336
#     4  11  21  36  58  89 121 151 198 249 296 343
#     4   9  20  39  56  78 115 157 192 230 296 356
#
# _framework density 25.674520999999999
#
# number of rings (size 3 to 8) (size 9 to 14) (size 15 to 20)
#    0.000    2.133    1.333    4.400    0.000    0.533 
#    0.000    2.667    2.933    0.800    0.000    0.000 
#    0.000    0.000    0.000    0.000    0.000    0.000 
#
# Total GULP energy -83647.762850 kJ/mol
# GULP energy per Si atom -5576.517523 kJ/mol
# Density = 2.561608 g / cm^3
# Si number density = 25.674521 Si / 1000 Ang^3
#
#
#
# Elastic Constant Matrix: (Units=GPa)
#
#
# Indices 1 2 3 4 5 6 
#
# 1 213.5022 33.8515 60.3697 -10.6388 29.5753 -33.5075
# 2 33.8515 82.0760 51.5896 20.0264 10.6069 -16.7508
# 3 60.3697 51.5896 167.3298 46.1399 1.1905 -7.0709
# 4 -10.6388 20.0264 46.1399 50.0716 -13.3502 10.3030
# 5 29.5753 10.6069 1.1905 -13.3502 55.2634 -10.8347
# 6 -33.5075 -16.7508 -7.0709 10.3030 -10.8347 40.0127
#
#
#
# Elastic Compliance Matrix: (Units=1/GPa)
#
#
# Indices 1 2 3 4 5 6 
#
# 1 0.006547 -0.000748 -0.002832 0.003105 -0.001891 0.003357
# 2 -0.000748 0.017992 -0.003042 -0.006910 -0.003231 0.007273
# 3 -0.002832 -0.003042 0.010509 -0.009246 -0.000258 0.000523
# 4 0.003105 -0.006910 -0.009246 0.035598 0.006641 -0.009294
# 5 -0.001891 -0.003231 -0.000258 0.006641 0.021562 0.001147
# 6 0.003357 0.007273 0.000523 -0.009294 0.001147 0.033644
#
#
# Mechanical properties :
#
#
# Convention : Reuss Voigt Hill
#
# Bulk Modulus (GPa) = 45.86254 83.83661 64.84958
# Shear Modulus (GPa) = 34.16156 50.20934 42.18545
#
# Velocity S-wave (km/s) = 3.65165 4.42702 4.05790
# Velocity P-wave (km/s) = 5.97337 7.67176 6.87521
#
# Compressibility (1/GPa) = 0.02180429
#
# Stress axis : x y z
#
# Youngs Moduli (GPa) = 152.74715 55.58020 95.15573
#
# Poissons Ratio (x) = 0.04158 0.26950
# Poissons Ratio (y) = 0.11426 0.28942
# Poissons Ratio (z) = 0.43261 0.16905
#
# Static dielectric constant tensor:
#      x y z
#    x 2.108140 -0.001060 -0.029170 
#    y -0.001060 1.994680 -0.056320 
#    z -0.029170 -0.056320 2.000090 
# 
# From -- ./inp_files/357449.got.cif
#   From: 2010.05.17/outbox.cif.g08.bks.cpg/sg2_179_cif.got.tgz:357449.got - 2010.06.03 11:33:40.
