data_PCOD9085202
_publ_section_title
;
Structure prediction by ZEFSAII (Michael W. Deem and Ramdas Pophale) SiO2 
 PCOD9085202
Probable space group: P -1
;
_chemical_formula_sum "Si O2"
_cell_formula_units_Z 16
_cell_length_a 21.852846
_cell_length_b 14.573911
_cell_length_c 7.861892
_cell_angle_alpha 140.253791
_cell_angle_beta 142.759577
_cell_angle_gamma 25.372536
_cell_volume 637.309844
_symmetry_space_group_name_H-M "P -1"
_symmetry_group_IT_number 2
_symmetry_cell_setting 'triclinic'
loop_
_space_group_symop_operation_xyz
x,y,z
-x,-y,-z
loop_
_atom_site_type_symbol
_atom_site_label
_atom_site_fract_x
_atom_site_fract_y
_atom_site_fract_z
Si Si1 0.571491 0.185800 0.687180
Si Si2 0.707063 0.748468 0.449462
Si Si3 0.685597 0.480871 0.185884
Si Si4 0.166326 0.767545 0.184621
Si Si5 0.011748 0.541160 0.824564
Si Si6 0.016946 0.154782 0.618298
Si Si7 0.686060 0.656590 0.904984
Si Si8 0.888679 0.925348 0.910963
O O1 0.469159 0.394381 0.880748
O O2 0.453234 0.237023 0.370431
O O3 0.705914 0.120179 0.784470
O O4 0.657497 0.966357 0.669788
O O5 0.655358 0.682767 0.370782
O O6 0.893538 0.538115 0.566887
O O7 0.647798 0.765507 0.157087
O O8 0.842641 0.305223 0.391663
O O9 0.727439 0.362563 0.930527
O O10 0.232633 0.581149 0.202209
O O11 0.138343 0.950607 0.470751
O O12 0.938199 0.936342 0.219542
O O13 0.944123 0.702222 0.740204
O O14 0.976498 0.680040 0.108387
O O15 0.193499 0.362760 0.946172
O O16 0.992057 0.890868 0.950025
#
# Coordination Sequence:
#
# PCOD9085202 Si02
#       8
#     2   2   2   2   2   2   2   2
#     4  11  20  40  54  87 120 150 179 230 294 336
#     4  10  21  35  57  82 117 148 189 232 278 332
#     4  11  22  36  58  86 114 150 188 228 287 340
#     4  10  20  38  61  87 109 146 193 239 273 329
#     4   8  17  34  58  81 110 142 196 226 276 323
#     4  10  19  39  60  81 114 151 188 236 278 329
#     4  10  19  35  59  86 110 150 189 230 281 339
#     4   8  19  35  60  80 110 147 188 229 274 335
#
# _framework density 25.105529000000001
#
# number of rings (size 3 to 8) (size 9 to 14) (size 15 to 20)
#    0.750    1.500    1.250    1.875    0.000    1.500 
#    0.000    5.625    0.000    0.000    0.000    0.000 
#    0.000    0.000    0.000    0.000    0.000    0.000 
#
# Total GULP energy -89315.606348 kJ/mol
# GULP energy per Si atom -5582.225397 kJ/mol
# Density = 2.504839 g / cm^3
# Si number density = 25.105529 Si / 1000 Ang^3
#
#
#
# Elastic Constant Matrix: (Units=GPa)
#
#
# Indices 1 2 3 4 5 6 
#
# 1 95.2651 38.7003 24.8288 -1.4874 -0.6633 -15.4724
# 2 38.7003 126.1408 37.7216 -6.8842 -9.2789 -18.4824
# 3 24.8288 37.7216 57.2994 2.3865 -20.8291 -16.3617
# 4 -1.4874 -6.8842 2.3865 42.5897 -0.5800 9.0542
# 5 -0.6633 -9.2789 -20.8291 -0.5800 29.5790 -1.5624
# 6 -15.4724 -18.4824 -16.3617 9.0542 -1.5624 41.1475
#
#
#
# Elastic Compliance Matrix: (Units=1/GPa)
#
#
# Indices 1 2 3 4 5 6 
#
# 1 0.013066 -0.002594 -0.004874 -0.000101 -0.003866 0.001685
# 2 -0.002594 0.010704 -0.006009 0.001747 -0.000843 0.001027
# 3 -0.004874 -0.006009 0.035687 -0.005312 0.023651 0.011726
# 4 -0.000101 0.001747 -0.005312 0.025524 -0.003069 -0.007098
# 5 -0.003866 -0.000843 0.023651 -0.003069 0.050588 0.010168
# 6 0.001685 0.001027 0.011726 -0.007098 0.010168 0.032008
#
#
# Mechanical properties :
#
#
# Convention : Reuss Voigt Hill
#
# Bulk Modulus (GPa) = 30.76569 53.46742 42.11656
# Shear Modulus (GPa) = 24.34683 34.49355 29.42019
#
# Velocity S-wave (km/s) = 3.11751 3.71069 3.42696
# Velocity P-wave (km/s) = 5.02390 6.30098 5.69833
#
# Compressibility (1/GPa) = 0.03250374
#
# Stress axis : x y z
#
# Youngs Moduli (GPa) = 76.53208 93.42136 28.02168
#
# Poissons Ratio (x) = 0.24236 0.13657
# Poissons Ratio (y) = 0.19854 0.16837
# Poissons Ratio (z) = 0.37301 0.56133
#
# Static dielectric constant tensor:
#      x y z
#    x 2.057410 0.056370 0.039630 
#    y 0.056370 2.083110 0.085280 
#    z 0.039630 0.085280 2.013140 
# 
# From -- ./inp_files/355046.got.cif
#   From: 2010.05.17/outbox.cif.g08.bks.cpg/sg2_178_cif.got.tgz:355046.got - 2010.06.03 11:33:40.
