data_PCOD9085815
_publ_section_title
;
Structure prediction by ZEFSAII (Michael W. Deem and Ramdas Pophale) SiO2 
 PCOD9085815
Probable space group: P -1
;
_chemical_formula_sum "Si O2"
_cell_formula_units_Z 16
_cell_length_a 20.876626
_cell_length_b 17.016073
_cell_length_c 5.545584
_cell_angle_alpha 96.438749
_cell_angle_beta 75.609642
_cell_angle_gamma 27.781373
_cell_volume 602.679385
_symmetry_space_group_name_H-M "P -1"
_symmetry_group_IT_number 2
_symmetry_cell_setting 'triclinic'
loop_
_space_group_symop_operation_xyz
x,y,z
-x,-y,-z
loop_
_atom_site_type_symbol
_atom_site_label
_atom_site_fract_x
_atom_site_fract_y
_atom_site_fract_z
Si Si1 0.242737 0.980571 0.937402
Si Si2 0.724384 0.629182 0.154425
Si Si3 0.772546 0.856298 0.712445
Si Si4 0.209796 0.812245 0.278149
Si Si5 0.653738 0.412703 0.418852
Si Si6 0.245097 0.144924 0.774608
Si Si7 0.352613 0.242649 0.228617
Si Si8 0.955407 0.213983 0.940433
O O1 0.444203 0.699500 0.682651
O O2 0.203935 0.076772 0.245625
O O3 0.281496 0.008836 0.721766
O O4 0.060281 0.136132 0.046607
O O5 0.779995 0.605204 0.350253
O O6 0.474179 0.922901 0.480915
O O7 0.782731 0.597993 0.830782
O O8 0.800270 0.453150 0.048047
O O9 0.849159 0.727404 0.837858
O O10 0.519278 0.126743 0.039124
O O11 0.855916 0.728503 0.342985
O O12 0.325044 0.646561 0.350997
O O13 0.320626 0.675023 0.867565
O O14 0.000000 0.000000 0.500000
O O15 0.128672 0.989329 0.507131
O O16 0.836839 0.270473 0.163525
O O17 0.500000 0.000000 0.000000
#
# Coordination Sequence:
#
# PCOD9085815 Si02
#       8
#     2   2   2   2   2   2   2   2
#     4  10  22  37  63  86 118 160 202 252 291 349
#     4  10  20  36  59  89 118 151 199 242 285 357
#     4   8  17  32  52  83 111 144 189 232 284 335
#     4  10  24  41  61  84 121 162 195 257 307 350
#     4  11  23  43  60  84 124 155 205 252 304 350
#     4   8  16  34  51  79 110 145 185 235 284 326
#     4  10  19  35  63  91 118 156 193 234 299 358
#     4  11  22  42  61  91 116 161 204 246 300 356
#
# _framework density 26.548110000000001
#
# number of rings (size 3 to 8) (size 9 to 14) (size 15 to 20)
#    0.750    1.500    1.250    1.875    1.750    5.000 
#    9.000    0.000    0.000    1.500    0.000    0.000 
#    0.000    0.000    0.000    0.000    0.000    0.000 
#
# Total GULP energy -89538.911799 kJ/mol
# GULP energy per Si atom -5596.181987 kJ/mol
# Density = 2.648769 g / cm^3
# Si number density = 26.548110 Si / 1000 Ang^3
#
#
#
# Elastic Constant Matrix: (Units=GPa)
#
#
# Indices 1 2 3 4 5 6 
#
# 1 94.0547 44.5492 35.4865 7.3884 7.3186 -10.1750
# 2 44.5492 171.1520 82.5461 -47.7681 17.1624 4.8899
# 3 35.4865 82.5461 170.6513 -41.1836 15.9422 5.3144
# 4 7.3884 -47.7681 -41.1836 66.7515 -2.1198 6.9929
# 5 7.3186 17.1624 15.9422 -2.1198 43.5122 4.8005
# 6 -10.1750 4.8899 5.3144 6.9929 4.8005 45.9484
#
#
#
# Elastic Compliance Matrix: (Units=1/GPa)
#
#
# Indices 1 2 3 4 5 6 
#
# 1 0.015118 -0.004763 -0.002720 -0.007340 -0.000615 0.005351
# 2 -0.004763 0.010242 -0.002061 0.006814 -0.001848 -0.002750
# 3 -0.002720 -0.002061 0.008663 0.004322 -0.001485 -0.001888
# 4 -0.007340 0.006814 0.004322 0.023967 -0.001166 -0.006376
# 5 -0.000615 -0.001848 -0.001485 -0.001166 0.024539 -0.002154
# 6 0.005351 -0.002750 -0.001888 -0.006376 -0.002154 0.024655
#
#
# Mechanical properties :
#
#
# Convention : Reuss Voigt Hill
#
# Bulk Modulus (GPa) = 66.95863 84.55797 75.75830
# Shear Modulus (GPa) = 38.09497 49.46083 43.77790
#
# Velocity S-wave (km/s) = 3.79217 4.32101 4.06520
# Velocity P-wave (km/s) = 6.66712 7.53756 7.11566
#
# Compressibility (1/GPa) = 0.01493459
#
# Stress axis : x y z
#
# Youngs Moduli (GPa) = 66.14779 97.63437 115.43347
#
# Poissons Ratio (x) = 0.46500 0.31403
# Poissons Ratio (y) = 0.31504 0.23792
# Poissons Ratio (z) = 0.17995 0.20123
#
# Static dielectric constant tensor:
#      x y z
#    x 2.100630 -0.045340 -0.083260 
#    y -0.045340 2.049840 -0.058070 
#    z -0.083260 -0.058070 2.152860 
# 
# From -- ./inp_files/125028.got.cif
#   From: 2010.05.17/outbox.cif.g08.bks.cpg/sg2_63_cif.got.tgz:125028.got - 2010.06.03 11:33:40.
