data_PCOD9085870
_publ_section_title
;
Structure prediction by ZEFSAII (Michael W. Deem and Ramdas Pophale) SiO2 
 PCOD9085870
Probable space group: P -1
;
_chemical_formula_sum "Si O2"
_cell_formula_units_Z 16
_cell_length_a 8.509253
_cell_length_b 10.619628
_cell_length_c 13.949542
_cell_angle_alpha 43.072026
_cell_angle_beta 91.994589
_cell_angle_gamma 115.211214
_cell_volume 696.602334
_symmetry_space_group_name_H-M "P -1"
_symmetry_group_IT_number 2
_symmetry_cell_setting 'triclinic'
loop_
_space_group_symop_operation_xyz
x,y,z
-x,-y,-z
loop_
_atom_site_type_symbol
_atom_site_label
_atom_site_fract_x
_atom_site_fract_y
_atom_site_fract_z
Si Si1 0.321566 0.747042 0.667631
Si Si2 0.584124 0.369575 0.736164
Si Si3 0.891196 0.537531 0.810229
Si Si4 0.367440 0.587821 0.962814
Si Si5 0.151293 0.914216 0.983863
Si Si6 0.632052 0.088454 0.742865
Si Si7 0.997417 0.837018 0.239511
Si Si8 0.396589 0.603133 0.558740
O O1 0.338496 0.662191 0.818083
O O2 0.334485 0.597955 0.669639
O O3 0.114766 0.710928 0.685633
O O4 0.500000 0.000000 0.500000
O O5 0.735608 0.505792 0.748232
O O6 0.655934 0.245883 0.743725
O O7 0.550215 0.544751 0.589123
O O8 0.364046 0.149199 0.876192
O O9 0.830615 0.576720 0.890332
O O10 0.854472 0.292148 0.944380
O O11 0.488659 0.818718 0.900817
O O12 0.500000 0.500000 0.000000
O O13 0.057702 0.842093 0.127162
O O14 0.042412 0.973080 0.873673
O O15 0.838688 0.133289 0.705376
O O16 0.549568 0.165932 0.615926
O O17 0.797500 0.596316 0.387668
#
# Coordination Sequence:
#
# PCOD9085870 Si02
#       8
#     2   2   2   2   2   2   2   2
#     4  12  26  50  71  95 141 195 242 287 345 414
#     4  11  22  40  69 106 137 174 227 292 369 414
#     4  12  23  45  74 101 140 182 236 300 352 412
#     4  12  28  46  71 102 141 191 242 289 341 420
#     4  10  19  35  64 102 131 172 211 284 355 418
#     4  12  22  41  67  99 142 180 228 288 356 417
#     4  10  21  35  64 102 132 168 227 276 360 415
#     4  11  23  42  67  95 142 185 227 292 348 422
#
# _framework density 22.968627999999999
#
# number of rings (size 3 to 8) (size 9 to 14) (size 15 to 20)
#    0.000    0.750    5.000    3.000    1.750    0.000 
#    0.000    2.500    0.000    0.000    0.000    0.000 
#    0.000    0.000    0.000    0.000    0.000    0.000 
#
# Total GULP energy -89418.453075 kJ/mol
# GULP energy per Si atom -5588.653317 kJ/mol
# Density = 2.291635 g / cm^3
# Si number density = 22.968628 Si / 1000 Ang^3
#
#
#
# Elastic Constant Matrix: (Units=GPa)
#
#
# Indices 1 2 3 4 5 6 
#
# 1 145.8329 24.7114 61.4170 -11.0061 1.9038 14.6331
# 2 24.7114 48.4863 29.6783 7.2863 -11.6647 8.5860
# 3 61.4170 29.6783 79.4145 -3.2418 1.3931 4.9256
# 4 -11.0061 7.2863 -3.2418 25.7250 -5.7557 -3.3007
# 5 1.9038 -11.6647 1.3931 -5.7557 38.8181 6.3407
# 6 14.6331 8.5860 4.9256 -3.3007 6.3407 25.9095
#
#
#
# Elastic Compliance Matrix: (Units=1/GPa)
#
#
# Indices 1 2 3 4 5 6 
#
# 1 0.010939 -0.000192 -0.007995 0.003367 0.000909 -0.004388
# 2 -0.000192 0.035457 -0.012918 -0.010856 0.011713 -0.013435
# 3 -0.007995 -0.012918 0.023439 0.002859 -0.004870 0.005896
# 4 0.003367 -0.010856 0.002859 0.045038 0.002107 0.006374
# 5 0.000909 0.011713 -0.004870 0.002107 0.031506 -0.010911
# 6 -0.004388 -0.013435 0.005896 0.006374 -0.010911 0.047888
#
#
# Mechanical properties :
#
#
# Convention : Reuss Voigt Hill
#
# Bulk Modulus (GPa) = 36.19676 56.14968 46.17322
# Shear Modulus (GPa) = 20.35133 28.61898 24.48515
#
# Velocity S-wave (km/s) = 2.97989 3.53371 3.26855
# Velocity P-wave (km/s) = 5.25672 6.41473 5.86438
#
# Compressibility (1/GPa) = 0.02762678
#
# Stress axis : x y z
#
# Youngs Moduli (GPa) = 91.41438 28.20282 42.66423
#
# Poissons Ratio (x) = 0.00542 0.34108
# Poissons Ratio (y) = 0.01757 0.55112
# Poissons Ratio (z) = 0.73082 0.36431
#
# Static dielectric constant tensor:
#      x y z
#    x 1.863080 0.015010 -0.009510 
#    y 0.015010 1.883840 0.024580 
#    z -0.009510 0.024580 1.876460 
# 
# From -- ./inp_files/499901.got.cif
#   From: 2010.05.17/outbox.cif.g08.bks.cpg/sg2_250_cif.got.tgz:499901.got - 2010.06.03 11:33:40.
