data_PCOD9085633
_publ_section_title
;
Structure prediction by ZEFSAII (Michael W. Deem and Ramdas Pophale) SiO2 
 PCOD9085633
Probable space group: P -1
;
_chemical_formula_sum "Si O2"
_cell_formula_units_Z 16
_cell_length_a 8.465981
_cell_length_b 17.551272
_cell_length_c 7.904568
_cell_angle_alpha 52.347839
_cell_angle_beta 82.312452
_cell_angle_gamma 48.026391
_cell_volume 611.400726
_symmetry_space_group_name_H-M "P -1"
_symmetry_group_IT_number 2
_symmetry_cell_setting 'triclinic'
loop_
_space_group_symop_operation_xyz
x,y,z
-x,-y,-z
loop_
_atom_site_type_symbol
_atom_site_label
_atom_site_fract_x
_atom_site_fract_y
_atom_site_fract_z
Si Si1 0.522160 0.864368 0.288566
Si Si2 0.695646 0.356247 0.454453
Si Si3 0.601948 0.632450 0.746394
Si Si4 0.517129 0.050552 0.208996
Si Si5 0.253621 0.881734 0.721801
Si Si6 0.273507 0.472994 0.603891
Si Si7 0.987631 0.101108 0.976615
Si Si8 0.071545 0.357914 0.887978
O O1 0.619886 0.713495 0.499954
O O2 0.610456 0.901246 0.363495
O O3 0.530961 0.890799 0.056087
O O4 0.236344 0.995573 0.181017
O O5 0.601011 0.353294 0.299674
O O6 0.499272 0.399790 0.553611
O O7 0.708776 0.463918 0.324055
O O8 0.937854 0.206027 0.706146
O O9 0.478212 0.744881 0.765034
O O10 0.865612 0.467423 0.911301
O O11 0.689344 0.042389 0.300334
O O12 0.252208 0.189944 0.134533
O O13 0.212883 0.823515 0.956098
O O14 0.000000 0.000000 0.500000
O O15 0.062100 0.598917 0.331399
O O16 0.219422 0.389929 0.787063
O O17 0.000000 0.000000 0.000000
#
# Coordination Sequence:
#
# PCOD9085633 Si02
#       8
#     2   2   2   2   2   2   2   2
#     4  11  22  40  64 102 121 167 218 272 315 372
#     4  10  19  35  61  96 122 165 212 264 308 369
#     4  11  23  40  62  91 135 169 211 253 333 384
#     4  11  24  40  68  95 129 164 222 264 317 375
#     4  12  24  43  62  92 129 177 206 266 324 391
#     4   9  18  33  64  91 125 162 211 260 315 364
#     4  12  20  37  64  89 124 163 210 265 309 368
#     4  10  20  40  60  95 132 168 206 269 313 385
#
# _framework density 26.169415000000001
#
# number of rings (size 3 to 8) (size 9 to 14) (size 15 to 20)
#    0.000    1.250    3.750    3.750    0.000    2.000 
#    0.000    0.000    0.000   15.750    0.000    0.000 
#    0.000    0.000    0.000    0.000    0.000    0.000 
#
# Total GULP energy -89516.232577 kJ/mol
# GULP energy per Si atom -5594.764536 kJ/mol
# Density = 2.610985 g / cm^3
# Si number density = 26.169415 Si / 1000 Ang^3
#
#
#
# Elastic Constant Matrix: (Units=GPa)
#
#
# Indices 1 2 3 4 5 6 
#
# 1 111.8267 57.8010 21.4130 -2.0875 25.1798 33.5748
# 2 57.8010 128.2990 4.1760 12.4425 0.1954 14.7159
# 3 21.4130 4.1760 52.3564 -0.7963 13.5212 7.4054
# 4 -2.0875 12.4425 -0.7963 36.4842 1.6514 -2.1975
# 5 25.1798 0.1954 13.5212 1.6514 34.0980 6.5049
# 6 33.5748 14.7159 7.4054 -2.1975 6.5049 61.5080
#
#
#
# Elastic Compliance Matrix: (Units=1/GPa)
#
#
# Indices 1 2 3 4 5 6 
#
# 1 0.017821 -0.007550 -0.002917 0.003648 -0.010938 -0.006283
# 2 -0.007550 0.011547 0.000631 -0.004566 0.005375 0.000551
# 3 -0.002917 0.000631 0.021997 0.000361 -0.006492 -0.000507
# 4 0.003648 -0.004566 0.000361 0.029414 -0.004344 0.000568
# 5 -0.010938 0.005375 -0.006492 -0.004344 0.039951 0.001086
# 6 -0.006283 0.000551 -0.000507 0.000568 0.001086 0.019522
#
#
# Mechanical properties :
#
#
# Convention : Reuss Voigt Hill
#
# Bulk Modulus (GPa) = 31.55370 51.02913 41.29142
# Shear Modulus (GPa) = 29.32765 40.35751 34.84258
#
# Velocity S-wave (km/s) = 3.35129 3.93130 3.65283
# Velocity P-wave (km/s) = 5.20178 6.33630 5.79686
#
# Compressibility (1/GPa) = 0.03169200
#
# Stress axis : x y z
#
# Youngs Moduli (GPa) = 56.11395 86.60548 45.46153
#
# Poissons Ratio (x) = 0.65388 0.13263
# Poissons Ratio (y) = 0.42367 -0.02871
# Poissons Ratio (z) = 0.16371 -0.05469
#
# Static dielectric constant tensor:
#      x y z
#    x 2.145610 -0.032340 0.047000 
#    y -0.032340 2.095770 0.019070 
#    z 0.047000 0.019070 2.112500 
# 
# From -- ./inp_files/217051.got.cif
#   From: 2010.05.17/outbox.cif.g08.bks.cpg/sg2_109_cif.got.tgz:217051.got - 2010.06.03 11:33:40.
