data_PCOD9085459
_publ_section_title
;
Structure prediction by ZEFSAII (Michael W. Deem and Ramdas Pophale) SiO2 
 PCOD9085459
Probable space group: P -1
;
_chemical_formula_sum "Si O2"
_cell_formula_units_Z 16
_cell_length_a 10.356123
_cell_length_b 14.896205
_cell_length_c 14.064670
_cell_angle_alpha 151.088845
_cell_angle_beta 135.036337
_cell_angle_gamma 63.295654
_cell_volume 642.981819
_symmetry_space_group_name_H-M "P -1"
_symmetry_group_IT_number 2
_symmetry_cell_setting 'triclinic'
loop_
_space_group_symop_operation_xyz
x,y,z
-x,-y,-z
loop_
_atom_site_type_symbol
_atom_site_label
_atom_site_fract_x
_atom_site_fract_y
_atom_site_fract_z
Si Si1 0.842207 0.384898 0.955603
Si Si2 0.907596 0.160707 0.603581
Si Si3 0.079494 0.958885 0.793247
Si Si4 0.665090 0.139921 0.295965
Si Si5 0.617306 0.780731 0.466051
Si Si6 0.202902 0.848724 0.951407
Si Si7 0.719217 0.524117 0.422694
Si Si8 0.218642 0.430360 0.290879
O O1 0.863899 0.224188 0.743120
O O2 0.600862 0.301683 0.777832
O O3 0.939932 0.610147 0.156852
O O4 0.979718 0.388323 0.120443
O O5 0.690702 0.053672 0.329761
O O6 0.000000 0.000000 0.500000
O O7 0.125036 0.822309 0.615420
O O8 0.195708 0.960226 0.952780
O O9 0.831232 0.855079 0.587074
O O10 0.189548 0.202250 0.040191
O O11 0.665821 0.360203 0.520382
O O12 0.500000 0.000000 0.000000
O O13 0.592378 0.596587 0.356017
O O14 0.665121 0.982438 0.743655
O O15 0.262954 0.669103 0.792734
O O16 0.957184 0.725486 0.738434
O O17 0.666667 0.487395 0.472206
#
# Coordination Sequence:
#
# PCOD9085459 Si02
#       8
#     2   2   2   2   2   2   2   2
#     4  10  25  41  65  93 125 164 212 253 306 379
#     4  10  23  49  65  84 127 169 207 259 311 363
#     4  11  21  39  63  93 130 160 197 260 317 360
#     4  11  26  41  65  93 118 159 217 263 305 368
#     4  11  22  38  63  99 126 165 206 248 312 382
#     4  10  19  35  60  92 126 162 199 249 305 370
#     4  10  19  35  63  87 128 166 199 250 312 359
#     4  11  21  41  61  89 127 162 200 263 309 361
#
# _framework density 24.884060999999999
#
# number of rings (size 3 to 8) (size 9 to 14) (size 15 to 20)
#    0.000    1.500    3.750    1.500    1.750    3.000 
#    0.000    2.500    0.000    0.000    0.000    0.000 
#    0.000    0.000    0.000    0.000    0.000    0.000 
#
# Total GULP energy -89497.243907 kJ/mol
# GULP energy per Si atom -5593.577744 kJ/mol
# Density = 2.482742 g / cm^3
# Si number density = 24.884061 Si / 1000 Ang^3
#
#
#
# Elastic Constant Matrix: (Units=GPa)
#
#
# Indices 1 2 3 4 5 6 
#
# 1 78.6011 10.6097 8.4586 0.2472 -4.0499 -10.3476
# 2 10.6097 123.0382 35.4211 12.0176 -9.0429 -24.1767
# 3 8.4586 35.4211 49.8358 -1.1926 -2.2731 -23.2097
# 4 0.2472 12.0176 -1.1926 41.9083 -9.6526 -1.5448
# 5 -4.0499 -9.0429 -2.2731 -9.6526 36.9169 5.1540
# 6 -10.3476 -24.1767 -23.2097 -1.5448 5.1540 30.3790
#
#
#
# Elastic Compliance Matrix: (Units=1/GPa)
#
#
# Indices 1 2 3 4 5 6 
#
# 1 0.013359 -0.000283 -0.000101 0.000361 0.000910 0.004111
# 2 -0.000283 0.010986 -0.006066 -0.002955 0.000998 0.003693
# 3 -0.000101 -0.006066 0.034671 0.003168 -0.001614 0.022062
# 4 0.000361 -0.002955 0.003168 0.026268 0.006316 0.000456
# 5 0.000910 0.000998 -0.001614 0.006316 0.029660 -0.004839
# 6 0.004111 0.003693 0.022062 0.000456 -0.004839 0.054957
#
#
# Mechanical properties :
#
#
# Convention : Reuss Voigt Hill
#
# Bulk Modulus (GPa) = 21.68448 40.05041 30.86744
# Shear Modulus (GPa) = 25.23054 34.97322 30.10188
#
# Velocity S-wave (km/s) = 3.18767 3.75300 3.48183
# Velocity P-wave (km/s) = 4.72032 5.90844 5.34748
#
# Compressibility (1/GPa) = 0.04611594
#
# Stress axis : x y z
#
# Youngs Moduli (GPa) = 74.85817 91.02670 28.84227
#
# Poissons Ratio (x) = 0.02579 0.00291
# Poissons Ratio (y) = 0.02121 0.17494
# Poissons Ratio (z) = 0.00756 0.55213
#
# Static dielectric constant tensor:
#      x y z
#    x 2.023870 0.029520 0.099270 
#    y 0.029520 1.968960 -0.001780 
#    z 0.099270 -0.001780 1.992260 
# 
# From -- ./inp_files/522713.got.cif
#   From: 2010.05.17/outbox.cif.g08.bks.cpg/sg2_262_cif.got.tgz:522713.got - 2010.06.03 11:33:40.
