data_PCOD9085517
_publ_section_title
;
Structure prediction by ZEFSAII (Michael W. Deem and Ramdas Pophale) SiO2 
 PCOD9085517
Probable space group: P -1
;
_chemical_formula_sum "Si O2"
_cell_formula_units_Z 16
_cell_length_a 5.234043
_cell_length_b 9.597154
_cell_length_c 15.988210
_cell_angle_alpha 102.892322
_cell_angle_beta 71.697019
_cell_angle_gamma 70.788686
_cell_volume 670.595090
_symmetry_space_group_name_H-M "P -1"
_symmetry_group_IT_number 2
_symmetry_cell_setting 'triclinic'
loop_
_space_group_symop_operation_xyz
x,y,z
-x,-y,-z
loop_
_atom_site_type_symbol
_atom_site_label
_atom_site_fract_x
_atom_site_fract_y
_atom_site_fract_z
Si Si1 0.824129 0.355927 0.453239
Si Si2 0.635450 0.353499 0.204508
Si Si3 0.799881 0.403762 0.006715
Si Si4 0.707097 0.823227 0.848775
Si Si5 0.053851 0.008734 0.394893
Si Si6 0.044080 0.574741 0.372800
Si Si7 0.781425 0.098900 0.958847
Si Si8 0.639566 0.882371 0.389197
O O1 0.500000 0.500000 0.500000
O O2 0.934485 0.334015 0.534328
O O3 0.021303 0.420708 0.390286
O O4 0.863215 0.183400 0.402039
O O5 0.719313 0.383197 0.107223
O O6 0.509604 0.217970 0.195389
O O7 0.355061 0.509274 0.284495
O O8 0.947822 0.302802 0.213409
O O9 0.500000 0.500000 0.000000
O O10 0.906511 0.224635 0.936190
O O11 0.000000 0.500000 0.000000
O O12 0.742403 0.986421 0.877068
O O13 0.550435 0.817212 0.953420
O O14 0.405025 0.951198 0.348993
O O15 0.947073 0.892956 0.344088
O O16 0.000000 0.000000 0.500000
O O17 0.744804 0.698094 0.374708
O O18 0.000000 0.000000 0.000000
O O19 0.500000 0.000000 0.500000
#
# Coordination Sequence:
#
# PCOD9085517 Si02
#       8
#     2   2   2   2   2   2   2   2
#     4  11  23  39  63  98 122 173 227 271 321 396
#     4  11  24  41  63  99 132 172 213 276 344 380
#     4  11  23  39  66  98 132 163 213 269 318 391
#     4  10  20  37  65  94 123 166 224 259 308 401
#     4  10  19  35  61  84 119 155 213 258 308 383
#     4  11  25  39  66  93 130 169 222 281 329 391
#     4  10  19  37  70  96 123 176 222 254 312 399
#     4  10  19  37  61  88 114 167 215 251 320 391
#
# _framework density 23.859404000000001
#
# number of rings (size 3 to 8) (size 9 to 14) (size 15 to 20)
#    0.000    1.500    5.000    3.000    5.250    0.000 
#    0.000    0.000    8.250    0.000    0.000    0.000 
#    0.000    0.000    0.000    0.000    0.000    0.000 
#
# Total GULP energy -89242.958884 kJ/mol
# GULP energy per Si atom -5577.684930 kJ/mol
# Density = 2.380510 g / cm^3
# Si number density = 23.859404 Si / 1000 Ang^3
#
#
#
# Elastic Constant Matrix: (Units=GPa)
#
#
# Indices 1 2 3 4 5 6 
#
# 1 163.9662 40.3404 8.8237 0.4145 -17.3198 14.1569
# 2 40.3404 132.9054 3.8029 20.0463 -5.9363 20.1517
# 3 8.8237 3.8029 56.8871 13.6048 -13.6849 4.1388
# 4 0.4145 20.0463 13.6048 17.7448 -4.8418 -8.0101
# 5 -17.3198 -5.9363 -13.6849 -4.8418 29.5766 8.8318
# 6 14.1569 20.1517 4.1388 -8.0101 8.8318 47.3791
#
#
#
# Elastic Compliance Matrix: (Units=1/GPa)
#
#
# Indices 1 2 3 4 5 6 
#
# 1 0.007289 -0.002321 -0.000644 0.003553 0.004496 -0.001372
# 2 -0.002321 0.013372 0.006818 -0.023942 0.003640 -0.010316
# 3 -0.000644 0.006818 0.029056 -0.032334 0.013069 -0.013148
# 4 0.003553 -0.023942 -0.032334 0.121252 -0.007969 0.033931
# 5 0.004496 0.003640 0.013069 -0.007969 0.046088 -0.013972
# 6 -0.001372 -0.010316 -0.013148 0.033931 -0.013972 0.035394
#
#
# Mechanical properties :
#
#
# Convention : Reuss Voigt Hill
#
# Bulk Modulus (GPa) = 17.41445 51.07697 34.24571
# Shear Modulus (GPa) = 18.94773 38.99288 28.97031
#
# Velocity S-wave (km/s) = 2.82111 4.04701 3.48833
# Velocity P-wave (km/s) = 4.23393 6.57964 5.53253
#
# Compressibility (1/GPa) = 0.05742356
#
# Stress axis : x y z
#
# Youngs Moduli (GPa) = 137.19574 74.78566 34.41644
#
# Poissons Ratio (x) = 0.17358 0.02215
# Poissons Ratio (y) = 0.31843 -0.23466
# Poissons Ratio (z) = 0.08831 -0.50991
#
# Static dielectric constant tensor:
#      x y z
#    x 1.862030 0.004110 -0.054140 
#    y 0.004110 2.018080 0.072080 
#    z -0.054140 0.072080 1.987520 
# 
# From -- ./inp_files/582440.got.cif
#   From: 2010.05.17/outbox.cif.g08.bks.cpg/sg2_292_cif.got.tgz:582440.got - 2010.06.03 11:33:40.
