data_PCOD9085326
_publ_section_title
;
Structure prediction by ZEFSAII (Michael W. Deem and Ramdas Pophale) SiO2 
 PCOD9085326
Probable space group: P -1
;
_chemical_formula_sum "Si O2"
_cell_formula_units_Z 14
_cell_length_a 14.185777
_cell_length_b 15.870513
_cell_length_c 17.456289
_cell_angle_alpha 33.114358
_cell_angle_beta 41.656097
_cell_angle_gamma 17.849154
_cell_volume 627.920289
_symmetry_space_group_name_H-M "P -1"
_symmetry_group_IT_number 2
_symmetry_cell_setting 'triclinic'
loop_
_space_group_symop_operation_xyz
x,y,z
-x,-y,-z
loop_
_atom_site_type_symbol
_atom_site_label
_atom_site_fract_x
_atom_site_fract_y
_atom_site_fract_z
Si Si1 0.729815 0.139792 0.535706
Si Si2 0.356427 0.685133 0.123475
Si Si3 0.321560 0.814963 0.216917
Si Si4 0.927725 0.716894 0.430456
Si Si5 0.988571 0.328698 0.152312
Si Si6 0.287412 0.851400 0.884979
Si Si7 0.346098 0.886461 0.561520
O O1 0.421162 0.552822 0.394234
O O2 0.813327 0.978981 0.526444
O O3 0.000000 0.000000 0.500000
O O4 0.743587 0.997944 0.701535
O O5 0.251912 0.852662 0.141158
O O6 0.654269 0.278806 0.268286
O O7 0.380498 0.790817 0.962579
O O8 0.081933 0.841327 0.135725
O O9 0.641264 0.611706 0.178384
O O10 0.055137 0.166718 0.158009
O O11 0.000000 0.500000 0.500000
O O12 0.279660 0.449021 0.429269
O O13 0.676709 0.054156 0.272449
O O14 0.784746 0.857970 0.495246
O O15 0.000000 0.500000 0.000000
O O16 0.500000 0.500000 0.000000
#
# Coordination Sequence:
#
# PCOD9085326 Si02
#       7
#     2   2   2   2   2   2   2
#     4   9  21  40  67  90 116 156 205 247 295 356
#     4   9  20  35  58  90 109 150 198 245 284 334
#     4  10  22  39  64  86 116 157 203 238 288 359
#     4  11  23  40  57  85 122 159 193 236 290 352
#     4  11  23  41  59  88 125 154 187 248 302 348
#     4  10  19  35  60  81 119 148 192 245 288 331
#     4  10  21  39  62  86 116 154 199 242 288 345
#
# _framework density 22.295825000000001
#
# number of rings (size 3 to 8) (size 9 to 14) (size 15 to 20)
#    0.000    2.000    1.429    1.286    2.000    9.143 
#    5.143    0.000    0.000    0.000    0.000    0.000 
#    0.000    0.000    0.000    0.000    0.000    0.000 
#
# Total GULP energy -78123.984803 kJ/mol
# GULP energy per Si atom -5580.284629 kJ/mol
# Density = 2.224508 g / cm^3
# Si number density = 22.295825 Si / 1000 Ang^3
#
#
#
# Elastic Constant Matrix: (Units=GPa)
#
#
# Indices 1 2 3 4 5 6 
#
# 1 96.8295 7.6802 55.6393 3.2666 15.1006 31.3149
# 2 7.6802 70.2220 13.8888 -4.9796 0.3404 14.8908
# 3 55.6393 13.8888 117.4527 2.4166 5.5985 22.7383
# 4 3.2666 -4.9796 2.4166 23.4380 9.4877 -1.8541
# 5 15.1006 0.3404 5.5985 9.4877 41.7796 4.6042
# 6 31.3149 14.8908 22.7383 -1.8541 4.6042 44.5006
#
#
#
# Elastic Compliance Matrix: (Units=1/GPa)
#
#
# Indices 1 2 3 4 5 6 
#
# 1 0.017596 0.001271 -0.006517 -0.000445 -0.004400 -0.009041
# 2 0.001271 0.015725 -0.001492 0.003116 -0.000521 -0.005210
# 3 -0.006517 -0.001492 0.011981 -0.001214 0.001171 -0.001208
# 4 -0.000445 0.003116 -0.001214 0.048201 -0.010982 0.003035
# 5 -0.004400 -0.000521 0.001171 -0.010982 0.027941 -0.000676
# 6 -0.009041 -0.005210 -0.001208 0.003035 -0.000676 0.031391
#
#
# Mechanical properties :
#
#
# Convention : Reuss Voigt Hill
#
# Bulk Modulus (GPa) = 31.42021 48.76897 40.09459
# Shear Modulus (GPa) = 28.26144 35.76337 32.01240
#
# Velocity S-wave (km/s) = 3.56415 4.00939 3.79331
# Velocity P-wave (km/s) = 5.57320 6.58443 6.09981
#
# Compressibility (1/GPa) = 0.03182665
#
# Stress axis : x y z
#
# Youngs Moduli (GPa) = 56.83003 63.59286 83.46744
#
# Poissons Ratio (x) = -0.08085 0.54394
# Poissons Ratio (y) = -0.07226 0.12456
# Poissons Ratio (z) = 0.37035 0.09490
#
# Static dielectric constant tensor:
#      x y z
#    x 1.968300 -0.041510 0.087530 
#    y -0.041510 1.927650 0.054630 
#    z 0.087530 0.054630 1.965210 
# 
# From -- ./inp_files/35568.got.cif
#   From: 2010.05.17/outbox.cif.g08.bks.cpg/sg2_18_cif.got.tgz:35568.got - 2010.06.03 11:33:40.
