data_PCOD9085236
_publ_section_title
;
Structure prediction by ZEFSAII (Michael W. Deem and Ramdas Pophale) SiO2 
 PCOD9085236
Probable space group: P -1
;
_chemical_formula_sum "Si O2"
_cell_formula_units_Z 16
_cell_length_a 10.220767
_cell_length_b 7.862709
_cell_length_c 11.101251
_cell_angle_alpha 67.866995
_cell_angle_beta 54.839319
_cell_angle_gamma 58.055551
_cell_volume 615.550976
_symmetry_space_group_name_H-M "P -1"
_symmetry_group_IT_number 2
_symmetry_cell_setting 'triclinic'
loop_
_space_group_symop_operation_xyz
x,y,z
-x,-y,-z
loop_
_atom_site_type_symbol
_atom_site_label
_atom_site_fract_x
_atom_site_fract_y
_atom_site_fract_z
Si Si1 0.094337 0.314547 0.596520
Si Si2 0.041590 0.699048 0.942063
Si Si3 0.552180 0.348380 0.862289
Si Si4 0.326508 0.174129 0.108448
Si Si5 0.914204 0.390799 0.299476
Si Si6 0.240580 0.883803 0.953777
Si Si7 0.566160 0.774663 0.693993
Si Si8 0.133553 0.821636 0.398379
O O1 0.077954 0.400424 0.717246
O O2 0.297838 0.210517 0.478312
O O3 0.000000 0.500000 0.500000
O O4 0.977862 0.193092 0.655507
O O5 0.127653 0.777666 0.981745
O O6 0.000000 0.500000 0.000000
O O7 0.164713 0.654251 0.768498
O O8 0.857484 0.901682 0.986798
O O9 0.640273 0.271548 0.966313
O O10 0.573263 0.548847 0.758090
O O11 0.684483 0.183051 0.743501
O O12 0.358536 0.356977 0.973978
O O13 0.367117 0.181055 0.225790
O O14 0.118000 0.239360 0.211688
O O15 0.500000 0.000000 0.000000
O O16 0.824428 0.350072 0.476289
O O17 0.359559 0.911380 0.775312
O O18 0.000000 0.000000 0.500000
#
# Coordination Sequence:
#
# PCOD9085236 Si02
#       8
#     2   2   2   2   2   2   2   2
#     4  10  19  35  59  87 129 165 198 248 318 393
#     4  11  26  43  66  88 125 181 220 266 304 374
#     4  11  22  36  64  99 127 161 196 266 336 377
#     4  11  20  31  55  91 128 153 194 261 312 374
#     4  11  21  40  59  91 125 161 214 247 321 381
#     4  10  24  44  62  96 129 163 225 264 310 381
#     4  11  20  39  62  93 130 164 196 266 335 375
#     4  11  20  34  58  93 129 164 198 251 326 387
#
# _framework density 25.992972999999999
#
# number of rings (size 3 to 8) (size 9 to 14) (size 15 to 20)
#    0.000    1.250    5.000    4.500    5.250    0.000 
#    0.000    0.625    0.000    0.750    0.000    0.000 
#    0.000    0.000    0.000    0.000    0.000    0.000 
#
# Total GULP energy -89152.356578 kJ/mol
# GULP energy per Si atom -5572.022286 kJ/mol
# Density = 2.593381 g / cm^3
# Si number density = 25.992973 Si / 1000 Ang^3
#
#
#
# Elastic Constant Matrix: (Units=GPa)
#
#
# Indices 1 2 3 4 5 6 
#
# 1 55.6127 2.6836 34.5002 2.7379 3.5082 22.0086
# 2 2.6836 87.9159 25.0014 33.0532 13.5384 13.9140
# 3 34.5002 25.0014 174.0251 29.2710 -19.4140 15.0971
# 4 2.7379 33.0532 29.2710 46.8271 14.3222 9.2696
# 5 3.5082 13.5384 -19.4140 14.3222 47.1490 12.5733
# 6 22.0086 13.9140 15.0971 9.2696 12.5733 26.8692
#
#
#
# Elastic Compliance Matrix: (Units=1/GPa)
#
#
# Indices 1 2 3 4 5 6 
#
# 1 0.030814 0.002874 -0.004974 0.004227 0.000367 -0.025563
# 2 0.002874 0.016301 -0.000726 -0.009741 -0.000412 -0.006834
# 3 -0.004974 -0.000726 0.008742 -0.006383 0.006459 -0.001282
# 4 0.004227 -0.009741 -0.006383 0.035588 -0.010352 -0.002265
# 5 0.000367 -0.000412 0.006459 -0.010352 0.031013 -0.014657
# 6 -0.025563 -0.006834 -0.001282 -0.002265 -0.014657 0.070056
#
#
# Mechanical properties :
#
#
# Convention : Reuss Voigt Hill
#
# Bulk Modulus (GPa) = 19.91874 49.10268 34.51071
# Shear Modulus (GPa) = 23.26649 41.19362 32.23005
#
# Velocity S-wave (km/s) = 2.99508 3.98527 3.52512
# Velocity P-wave (km/s) = 4.43175 6.33311 5.46574
#
# Compressibility (1/GPa) = 0.05020397
#
# Stress axis : x y z
#
# Youngs Moduli (GPa) = 32.45285 61.34719 114.38867
#
# Poissons Ratio (x) = -0.17631 0.56898
# Poissons Ratio (y) = -0.09327 0.08308
# Poissons Ratio (z) = 0.16142 0.04455
#
# Static dielectric constant tensor:
#      x y z
#    x 2.254690 -0.011570 -0.024660 
#    y -0.011570 2.467040 -0.127780 
#    z -0.024660 -0.127780 2.082840 
# 
# From -- ./inp_files/419342.got.cif
#   From: 2010.05.17/outbox.cif.g08.bks.cpg/sg2_210_cif.got.tgz:419342.got - 2010.06.03 11:33:40.
