data_PCOD9085125
_publ_section_title
;
Structure prediction by ZEFSAII (Michael W. Deem and Ramdas Pophale) SiO2 
 PCOD9085125
Probable space group: P -1
;
_chemical_formula_sum "Si O2"
_cell_formula_units_Z 16
_cell_length_a 15.166626
_cell_length_b 7.780736
_cell_length_c 7.059315
_cell_angle_alpha 59.965873
_cell_angle_beta 115.014294
_cell_angle_gamma 94.940312
_cell_volume 645.130164
_symmetry_space_group_name_H-M "P -1"
_symmetry_group_IT_number 2
_symmetry_cell_setting 'triclinic'
loop_
_space_group_symop_operation_xyz
x,y,z
-x,-y,-z
loop_
_atom_site_type_symbol
_atom_site_label
_atom_site_fract_x
_atom_site_fract_y
_atom_site_fract_z
Si Si1 0.777674 0.520030 0.331861
Si Si2 0.411581 0.190532 0.121219
Si Si3 0.377205 0.947097 0.578311
Si Si4 0.987628 0.840738 0.796724
Si Si5 0.917392 0.822208 0.162499
Si Si6 0.713983 0.127827 0.831424
Si Si7 0.215558 0.271373 0.396328
Si Si8 0.188682 0.627100 0.924748
O O1 0.870420 0.637895 0.302110
O O2 0.772828 0.559549 0.529647
O O3 0.668789 0.619944 0.105886
O O4 0.802943 0.336035 0.311057
O O5 0.410469 0.127157 0.377518
O O6 0.524849 0.179103 0.175783
O O7 0.362483 0.010491 0.085714
O O8 0.299040 0.077164 0.571246
O O9 0.330416 0.814249 0.450025
O O10 0.886599 0.810163 0.625387
O O11 0.974192 0.781414 0.038162
O O12 0.012574 0.066089 0.703983
O O13 0.080706 0.703344 0.865910
O O14 0.819419 0.991666 0.954930
O O15 0.735114 0.272837 0.936427
O O16 0.210943 0.389991 0.127706
#
# Coordination Sequence:
#
# PCOD9085125 Si02
#       8
#     2   2   2   2   2   2   2   2
#     4  11  22  36  54  79 114 140 174 223 266 320
#     4   8  16  36  61  83  98 134 184 229 264 303
#     4   9  16  35  62  83  96 136 191 217 267 312
#     4  10  19  35  59  75 105 146 179 224 259 307
#     4   9  17  35  57  78 102 138 186 223 263 298
#     4   8  15  32  60  78 102 141 175 219 266 310
#     4  12  22  35  55  80 110 146 177 214 269 320
#     4  11  21  36  52  78 116 144 173 210 269 326
#
# _framework density 24.801196000000001
#
# number of rings (size 3 to 8) (size 9 to 14) (size 15 to 20)
#    0.750    1.500    3.750    0.375    0.000    1.500 
#    0.000    6.250    0.000    1.500    0.000    0.000 
#    0.000    0.000    0.000    0.000    0.000    0.000 
#
# Total GULP energy -89299.002506 kJ/mol
# GULP energy per Si atom -5581.187657 kJ/mol
# Density = 2.474475 g / cm^3
# Si number density = 24.801196 Si / 1000 Ang^3
#
#
#
# Elastic Constant Matrix: (Units=GPa)
#
#
# Indices 1 2 3 4 5 6 
#
# 1 63.6958 35.1875 48.3935 15.9691 21.6465 -12.3753
# 2 35.1875 92.7324 40.4470 34.1705 15.9084 -16.4073
# 3 48.3935 40.4470 87.2227 17.7848 25.1933 -17.3091
# 4 15.9691 34.1705 17.7848 34.3227 0.9149 -7.3058
# 5 21.6465 15.9084 25.1933 0.9149 51.9638 -1.1746
# 6 -12.3753 -16.4073 -17.3091 -7.3058 -1.1746 23.4772
#
#
#
# Elastic Compliance Matrix: (Units=1/GPa)
#
#
# Indices 1 2 3 4 5 6 
#
# 1 0.030254 -0.003271 -0.012312 -0.003615 -0.005497 0.003184
# 2 -0.003271 0.020769 -0.002275 -0.016659 -0.003469 0.005755
# 3 -0.012312 -0.002275 0.022754 -0.001998 -0.004994 0.007824
# 4 -0.003615 -0.016659 -0.001998 0.048334 0.006732 0.000357
# 5 -0.005497 -0.003469 -0.004994 0.006732 0.024770 -0.005670
# 6 0.003184 0.005755 0.007824 0.000357 -0.005670 0.053891
#
#
# Mechanical properties :
#
#
# Convention : Reuss Voigt Hill
#
# Bulk Modulus (GPa) = 26.27464 54.63409 40.45437
# Shear Modulus (GPa) = 20.06611 29.92759 24.99685
#
# Velocity S-wave (km/s) = 2.84752 3.47753 3.17817
# Velocity P-wave (km/s) = 4.62906 6.18069 5.46027
#
# Compressibility (1/GPa) = 0.03805951
#
# Stress axis : x y z
#
# Youngs Moduli (GPa) = 33.05346 48.14792 43.94896
#
# Poissons Ratio (x) = 0.15750 0.54111
# Poissons Ratio (y) = 0.10813 0.10000
# Poissons Ratio (z) = 0.40696 0.10955
#
# Static dielectric constant tensor:
#      x y z
#    x 2.025490 0.031510 -0.065890 
#    y 0.031510 2.000990 -0.002650 
#    z -0.065890 -0.002650 2.016900 
# 
# From -- ./inp_files/326211.got.cif
#   From: 2010.05.17/outbox.cif.g08.bks.cpg/sg2_164_cif.got.tgz:326211.got - 2010.06.03 11:33:40.
