data_PCOD9085849
_publ_section_title
;
Structure prediction by ZEFSAII (Michael W. Deem and Ramdas Pophale) SiO2 
 PCOD9085849
Probable space group: P -1
;
_chemical_formula_sum "Si O2"
_cell_formula_units_Z 12
_cell_length_a 10.891895
_cell_length_b 10.682950
_cell_length_c 11.415247
_cell_angle_alpha 123.934585
_cell_angle_beta 32.673532
_cell_angle_gamma 114.056535
_cell_volume 589.147673
_symmetry_space_group_name_H-M "P -1"
_symmetry_group_IT_number 2
_symmetry_cell_setting 'triclinic'
loop_
_space_group_symop_operation_xyz
x,y,z
-x,-y,-z
loop_
_atom_site_type_symbol
_atom_site_label
_atom_site_fract_x
_atom_site_fract_y
_atom_site_fract_z
Si Si1 0.579508 0.848628 0.000191
Si Si2 0.800180 0.892962 0.593306
Si Si3 0.044129 0.376886 0.292934
Si Si4 0.638574 0.433592 0.969858
Si Si5 0.393025 0.598714 0.469568
Si Si6 0.809110 0.607904 0.283202
O O1 0.715387 0.845959 0.765815
O O2 0.768610 0.763878 0.892710
O O3 0.373843 0.744056 0.115445
O O4 0.438004 0.014660 0.219053
O O5 0.883652 0.748486 0.368887
O O6 0.000000 0.000000 0.500000
O O7 0.820471 0.316372 0.388444
O O8 0.000000 0.500000 0.500000
O O9 0.138863 0.483786 0.175001
O O10 0.500000 0.500000 0.000000
O O11 0.511308 0.484758 0.217387
O O12 0.597857 0.674611 0.401897
O O13 0.293471 0.502652 0.600753
O O14 0.000000 0.500000 0.000000
#
# Coordination Sequence:
#
# PCOD9085849 Si02
#       6
#     2   2   2   2   2   2
#     4  10  23  38  61  98 128 162 222 265 322 376
#     4  11  25  41  65  91 134 174 216 266 321 386
#     4  11  20  34  64  99 125 160 214 271 320 375
#     4  10  19  35  63  95 129 158 211 271 315 372
#     4  11  22  38  65  94 130 162 220 269 321 374
#     4  11  25  42  64  93 133 175 218 262 320 390
#
# _framework density 20.368407999999999
#
# number of rings (size 3 to 8) (size 9 to 14) (size 15 to 20)
#    0.000    1.333    5.000    1.000    7.000    1.333 
#    0.000    0.833    0.000   12.000    0.000    0.000 
#    0.000    0.000    0.000    0.000    0.000    0.000 
#
# Total GULP energy -66851.398504 kJ/mol
# GULP energy per Si atom -5570.949875 kJ/mol
# Density = 2.032205 g / cm^3
# Si number density = 20.368408 Si / 1000 Ang^3
#
#
#
# Elastic Constant Matrix: (Units=GPa)
#
#
# Indices 1 2 3 4 5 6 
#
# 1 121.2459 30.4472 44.3275 9.2233 -29.3190 10.5424
# 2 30.4472 77.5552 41.3929 0.7218 0.2099 2.3503
# 3 44.3275 41.3929 121.9129 2.9503 9.0647 -4.6873
# 4 9.2233 0.7218 2.9503 31.9054 -4.5820 1.8033
# 5 -29.3190 0.2099 9.0647 -4.5820 45.5982 -3.1967
# 6 10.5424 2.3503 -4.6873 1.8033 -3.1967 34.2638
#
#
#
# Elastic Compliance Matrix: (Units=1/GPa)
#
#
# Indices 1 2 3 4 5 6 
#
# 1 0.013257 -0.002591 -0.004706 -0.001837 0.009034 -0.003605
# 2 -0.002591 0.016409 -0.004628 0.000749 -0.000822 -0.001078
# 3 -0.004706 -0.004628 0.012002 -0.000564 -0.005241 0.002948
# 4 -0.001837 0.000749 -0.000564 0.032270 0.002095 -0.001066
# 5 0.009034 -0.000822 -0.005241 0.002095 0.028936 -0.000851
# 6 -0.003605 -0.001078 0.002948 -0.001066 -0.000851 0.030749
#
#
# Mechanical properties :
#
#
# Convention : Reuss Voigt Hill
#
# Bulk Modulus (GPa) = 56.12376 61.44990 58.78683
# Shear Modulus (GPa) = 30.59764 35.98991 33.29378
#
# Velocity S-wave (km/s) = 3.88004 4.20807 4.04738
# Velocity P-wave (km/s) = 6.90558 7.33793 7.12504
#
# Compressibility (1/GPa) = 0.01781777
#
# Stress axis : x y z
#
# Youngs Moduli (GPa) = 75.43323 60.94235 83.32088
#
# Poissons Ratio (x) = 0.15788 0.39215
# Poissons Ratio (y) = 0.19542 0.38559
# Poissons Ratio (z) = 0.35502 0.28203
#
# Static dielectric constant tensor:
#      x y z
#    x 1.808830 0.040400 -0.078350 
#    y 0.040400 1.686270 -0.037620 
#    z -0.078350 -0.037620 1.769750 
# 
# From -- ./inp_files/95435.got.cif
#   From: 2010.05.17/outbox.cif.g08.bks.cpg/sg2_48_cif.got.tgz:95435.got - 2010.06.03 11:33:40.
