data_PCOD9085311
_publ_section_title
;
Structure prediction by ZEFSAII (Michael W. Deem and Ramdas Pophale) SiO2 
 PCOD9085311
Probable space group: P -1
;
_chemical_formula_sum "Si O2"
_cell_formula_units_Z 16
_cell_length_a 8.668024
_cell_length_b 9.383851
_cell_length_c 15.268187
_cell_angle_alpha 37.374748
_cell_angle_beta 85.845727
_cell_angle_gamma 90.653189
_cell_volume 746.993467
_symmetry_space_group_name_H-M "P -1"
_symmetry_group_IT_number 2
_symmetry_cell_setting 'triclinic'
loop_
_space_group_symop_operation_xyz
x,y,z
-x,-y,-z
loop_
_atom_site_type_symbol
_atom_site_label
_atom_site_fract_x
_atom_site_fract_y
_atom_site_fract_z
Si Si1 0.877172 0.203049 0.508797
Si Si2 0.603626 0.864417 0.627749
Si Si3 0.357432 0.641699 0.405528
Si Si4 0.559702 0.091548 0.200492
Si Si5 0.452718 0.667526 0.086883
Si Si6 0.255736 0.041807 0.001869
Si Si7 0.035550 0.274238 0.763882
Si Si8 0.836897 0.809194 0.390104
O O1 0.754434 0.281829 0.549241
O O2 0.947437 0.451822 0.342337
O O3 0.024271 0.099007 0.596487
O O4 0.773561 0.010838 0.549842
O O5 0.531847 0.865945 0.727987
O O6 0.595901 0.587653 0.745095
O O7 0.500000 0.000000 0.500000
O O8 0.500000 0.500000 0.500000
O O9 0.255489 0.440887 0.451841
O O10 0.451829 0.886122 0.250595
O O11 0.714899 0.986667 0.279177
O O12 0.585701 0.307768 0.026748
O O13 0.359165 0.857673 0.044842
O O14 0.634851 0.751108 0.055629
O O15 0.128052 0.884239 0.141261
O O16 0.161410 0.155560 0.873655
O O17 0.079813 0.260973 0.667533
#
# Coordination Sequence:
#
# PCOD9085311 Si02
#       8
#     2   2   2   2   2   2   2   2
#     4  10  21  35  61  89 119 163 202 249 308 367
#     4  11  25  45  63  87 123 165 213 259 305 369
#     4   8  16  30  55  91 120 153 193 250 291 354
#     4  10  21  39  64  91 123 167 208 251 306 369
#     4  11  23  43  63  92 122 165 213 250 306 371
#     4  10  23  37  65  91 124 159 199 258 311 364
#     4  10  19  38  58  94 129 155 193 255 316 363
#     4  10  19  35  59  95 127 155 207 249 307 371
#
# _framework density 21.419195999999999
#
# number of rings (size 3 to 8) (size 9 to 14) (size 15 to 20)
#    0.000    2.000    1.250    2.625    5.250    1.000 
#    4.500    5.625    0.000    0.000    0.000    0.000 
#    0.000    0.000    0.000    0.000    0.000    0.000 
#
# Total GULP energy -89313.938311 kJ/mol
# GULP energy per Si atom -5582.121144 kJ/mol
# Density = 2.137045 g / cm^3
# Si number density = 21.419196 Si / 1000 Ang^3
#
#
#
# Elastic Constant Matrix: (Units=GPa)
#
#
# Indices 1 2 3 4 5 6 
#
# 1 106.8593 34.6899 31.2529 -8.8786 0.0391 37.9294
# 2 34.6899 46.3127 33.0260 -4.0899 -6.5338 17.2301
# 3 31.2529 33.0260 113.7774 -18.1480 5.7240 18.3107
# 4 -8.8786 -4.0899 -18.1480 22.6654 7.9221 -10.0449
# 5 0.0391 -6.5338 5.7240 7.9221 20.2333 -2.1800
# 6 37.9294 17.2301 18.3107 -10.0449 -2.1800 38.5659
#
#
#
# Elastic Compliance Matrix: (Units=1/GPa)
#
#
# Indices 1 2 3 4 5 6 
#
# 1 0.016629 -0.008639 0.000440 0.001418 -0.004860 -0.012609
# 2 -0.008639 0.041171 -0.012243 -0.016844 0.022595 -0.007195
# 3 0.000440 -0.012243 0.015267 0.015649 -0.014287 0.001057
# 4 0.001418 -0.016844 0.015649 0.074236 -0.037219 0.015933
# 5 -0.004860 0.022595 -0.014287 -0.037219 0.074914 -0.003991
# 6 -0.012609 -0.007195 0.001057 0.015933 -0.003991 0.044968
#
#
# Mechanical properties :
#
#
# Convention : Reuss Voigt Hill
#
# Bulk Modulus (GPa) = 31.07292 51.65410 41.36351
# Shear Modulus (GPa) = 15.68402 27.49162 21.58782
#
# Velocity S-wave (km/s) = 2.70893 3.58649 3.17814
# Velocity P-wave (km/s) = 4.93183 6.42796 5.72895
#
# Compressibility (1/GPa) = 0.03218236
#
# Stress axis : x y z
#
# Youngs Moduli (GPa) = 60.13546 24.28909 65.50129
#
# Poissons Ratio (x) = 0.20982 -0.02880
# Poissons Ratio (y) = 0.51949 0.80195
# Poissons Ratio (z) = -0.02644 0.29738
#
# Static dielectric constant tensor:
#      x y z
#    x 1.792680 0.007530 -0.016410 
#    y 0.007530 1.807740 -0.004400 
#    z -0.016410 -0.004400 1.795050 
# 
# From -- ./inp_files/331728.got.cif
#   From: 2010.05.17/outbox.cif.g08.bks.cpg/sg2_166_cif.got.tgz:331728.got - 2010.06.03 11:33:40.
