data_PCOD9085903
_publ_section_title
;
Structure prediction by ZEFSAII (Michael W. Deem and Ramdas Pophale) SiO2 
 PCOD9085903
Probable space group: P -1
;
_chemical_formula_sum "Si O2"
_cell_formula_units_Z 16
_cell_length_a 13.787836
_cell_length_b 7.146392
_cell_length_c 10.600613
_cell_angle_alpha 112.479868
_cell_angle_beta 52.927131
_cell_angle_gamma 128.287923
_cell_volume 654.064728
_symmetry_space_group_name_H-M "P -1"
_symmetry_group_IT_number 2
_symmetry_cell_setting 'triclinic'
loop_
_space_group_symop_operation_xyz
x,y,z
-x,-y,-z
loop_
_atom_site_type_symbol
_atom_site_label
_atom_site_fract_x
_atom_site_fract_y
_atom_site_fract_z
Si Si1 0.128354 0.342642 0.933743
Si Si2 0.667402 0.651826 0.617456
Si Si3 0.645367 0.194975 0.502405
Si Si4 0.158348 0.841911 0.986229
Si Si5 0.165594 0.997417 0.638911
Si Si6 0.402586 0.614568 0.919270
Si Si7 0.526210 0.890423 0.139349
Si Si8 0.089929 0.082320 0.319648
O O1 0.178210 0.210078 0.767179
O O2 0.234388 0.423908 0.990354
O O3 0.956056 0.175884 0.030287
O O4 0.151277 0.591736 0.927750
O O5 0.690877 0.454507 0.486248
O O6 0.733897 0.875137 0.529517
O O7 0.501733 0.547337 0.746684
O O8 0.753644 0.732654 0.702334
O O9 0.595692 0.182917 0.681846
O O10 0.500000 0.000000 0.500000
O O11 0.770794 0.143916 0.382350
O O12 0.103549 0.889458 0.175488
O O13 0.324193 0.049032 0.900200
O O14 0.002688 0.847499 0.676752
O O15 0.433217 0.860476 0.894112
O O16 0.464936 0.691441 0.029049
O O17 0.000000 0.000000 0.500000
#
# Coordination Sequence:
#
# PCOD9085903 Si02
#       8
#     2   2   2   2   2   2   2   2
#     4   9  19  32  63  94 119 166 210 259 316 380
#     4  11  22  39  65  95 125 173 212 261 328 376
#     4  12  27  40  63  95 129 170 220 262 317 381
#     4   9  17  35  58  93 125 160 213 255 315 383
#     4  10  22  42  63  92 133 164 216 269 313 383
#     4  10  19  35  64  91 124 162 213 257 325 367
#     4  10  21  38  63  90 130 167 204 269 311 376
#     4   9  19  37  66  94 125 167 210 264 321 384
#
# _framework density 24.462409999999998
#
# number of rings (size 3 to 8) (size 9 to 14) (size 15 to 20)
#    0.000    2.000    2.500    0.750    3.500    2.000 
#    0.000    0.000    2.750    2.250    0.000    0.000 
#    0.000    0.000    0.000    0.000    0.000    0.000 
#
# Total GULP energy -89479.668030 kJ/mol
# GULP energy per Si atom -5592.479252 kJ/mol
# Density = 2.440673 g / cm^3
# Si number density = 24.462410 Si / 1000 Ang^3
#
#
#
# Elastic Constant Matrix: (Units=GPa)
#
#
# Indices 1 2 3 4 5 6 
#
# 1 150.2686 54.5777 32.7156 12.3145 -36.9851 23.5301
# 2 54.5777 64.4147 25.4341 4.6189 0.9885 11.1051
# 3 32.7156 25.4341 123.6774 -0.7611 -22.6209 0.1723
# 4 12.3145 4.6189 -0.7611 37.4672 -3.6050 -6.5784
# 5 -36.9851 0.9885 -22.6209 -3.6050 33.0820 1.8626
# 6 23.5301 11.1051 0.1723 -6.5784 1.8626 46.8193
#
#
#
# Elastic Compliance Matrix: (Units=1/GPa)
#
#
# Indices 1 2 3 4 5 6 
#
# 1 0.019241 -0.016210 0.002591 -0.003252 0.023820 -0.007239
# 2 -0.016210 0.032075 -0.006670 -0.000807 -0.023808 0.001397
# 3 0.002591 -0.006670 0.010709 0.001202 0.010550 -0.000010
# 4 -0.003252 -0.000807 0.001202 0.028919 0.000030 0.005884
# 5 0.023820 -0.023808 0.010550 0.000030 0.065291 -0.008956
# 6 -0.007239 0.001397 -0.000010 0.005884 -0.008956 0.025849
#
#
# Mechanical properties :
#
#
# Convention : Reuss Voigt Hill
#
# Bulk Modulus (GPa) = 46.62701 62.64618 54.63659
# Shear Modulus (GPa) = 21.75720 38.51591 30.13656
#
# Velocity S-wave (km/s) = 2.98554 3.97229 3.51373
# Velocity P-wave (km/s) = 5.56657 6.83400 6.23258
#
# Compressibility (1/GPa) = 0.02144680
#
# Stress axis : x y z
#
# Youngs Moduli (GPa) = 51.97250 31.17735 93.38096
#
# Poissons Ratio (x) = 0.50538 -0.24192
# Poissons Ratio (y) = 0.84246 0.62282
# Poissons Ratio (z) = -0.13464 0.20794
#
# Static dielectric constant tensor:
#      x y z
#    x 1.960590 -0.008470 0.009380 
#    y -0.008470 1.936470 -0.006140 
#    z 0.009380 -0.006140 1.941930 
# 
# From -- ./inp_files/445006.got.cif
#   From: 2010.05.17/outbox.cif.g08.bks.cpg/sg2_223_cif.got.tgz:445006.got - 2010.06.03 11:33:40.
