data_PCOD9085391
_publ_section_title
;
Structure prediction by ZEFSAII (Michael W. Deem and Ramdas Pophale) SiO2 
 PCOD9085391
Probable space group: P -1
;
_chemical_formula_sum "Si O2"
_cell_formula_units_Z 14
_cell_length_a 20.724917
_cell_length_b 6.694703
_cell_length_c 12.246689
_cell_angle_alpha 123.140156
_cell_angle_beta 21.962380
_cell_angle_gamma 124.161887
_cell_volume 523.996832
_symmetry_space_group_name_H-M "P -1"
_symmetry_group_IT_number 2
_symmetry_cell_setting 'triclinic'
loop_
_space_group_symop_operation_xyz
x,y,z
-x,-y,-z
loop_
_atom_site_type_symbol
_atom_site_label
_atom_site_fract_x
_atom_site_fract_y
_atom_site_fract_z
Si Si1 0.325742 0.561315 0.916242
Si Si2 0.344683 0.973783 0.324697
Si Si3 0.816370 0.951511 0.955851
Si Si4 0.030511 0.729408 0.846650
Si Si5 0.339989 0.618502 0.662606
Si Si6 0.346180 0.065805 0.034530
Si Si7 0.176520 0.307227 0.549355
O O1 0.387768 0.661248 0.728846
O O2 0.499272 0.484348 0.672773
O O3 0.193914 0.308748 0.050805
O O4 0.258543 0.796305 0.137826
O O5 0.173687 0.763085 0.533743
O O6 0.254212 0.200599 0.501321
O O7 0.500000 0.000000 0.000000
O O8 0.449293 0.952414 0.267551
O O9 0.745821 0.907743 0.929185
O O10 0.003692 0.122175 0.725502
O O11 0.691336 0.124447 0.257109
O O12 0.130093 0.569237 0.723134
O O13 0.842023 0.562686 0.086841
O O14 0.000000 0.000000 0.000000
O O15 0.308216 0.282470 0.236153
#
# Coordination Sequence:
#
# PCOD9085391 Si02
#       7
#     2   2   2   2   2   2   2
#     4  10  19  35  60  87 123 162 202 255 312 367
#     4  10  23  42  62  89 125 166 207 251 307 369
#     4  10  20  36  62  89 119 161 206 256 311 363
#     4  11  23  41  64  89 124 164 206 261 313 365
#     4   9  20  37  56  89 123 156 207 258 305 366
#     4  10  22  37  58  92 125 158 208 257 305 372
#     4  10  23  41  61  90 124 162 208 254 310 371
#
# _framework density 26.717718000000001
#
# number of rings (size 3 to 8) (size 9 to 14) (size 15 to 20)
#    0.000    2.000    0.000    2.571    0.000    6.857 
#    0.000    4.286    0.000    0.000    0.000    0.000 
#    0.000    0.000    0.000    0.000    0.000    0.000 
#
# Total GULP energy -78037.700650 kJ/mol
# GULP energy per Si atom -5574.121475 kJ/mol
# Density = 2.665691 g / cm^3
# Si number density = 26.717718 Si / 1000 Ang^3
#
#
#
# Elastic Constant Matrix: (Units=GPa)
#
#
# Indices 1 2 3 4 5 6 
#
# 1 113.2120 5.9415 30.3481 -2.9643 -12.9890 2.5752
# 2 5.9415 145.5174 48.2589 17.3936 1.0635 -4.1744
# 3 30.3481 48.2589 112.6303 -2.2502 -13.4331 -2.7316
# 4 -2.9643 17.3936 -2.2502 65.8145 -3.0707 -12.3583
# 5 -12.9890 1.0635 -13.4331 -3.0707 39.6543 -3.1554
# 6 2.5752 -4.1744 -2.7316 -12.3583 -3.1554 32.4018
#
#
#
# Elastic Compliance Matrix: (Units=1/GPa)
#
#
# Indices 1 2 3 4 5 6 
#
# 1 0.009777 0.000376 -0.002531 0.000245 0.002304 -0.000624
# 2 0.000376 0.008484 -0.003997 -0.002515 -0.001685 -0.000397
# 3 -0.002531 -0.003997 0.011775 0.001834 0.003546 0.001724
# 4 0.000245 -0.002515 0.001834 0.017308 0.002640 0.006670
# 5 0.002304 -0.001685 0.003546 0.002640 0.027710 0.003604
# 6 -0.000624 -0.000397 0.001724 0.006670 0.003604 0.033901
#
#
# Mechanical properties :
#
#
# Convention : Reuss Voigt Hill
#
# Bulk Modulus (GPa) = 56.39796 60.05073 58.22434
# Shear Modulus (GPa) = 39.31768 46.69487 43.00628
#
# Velocity S-wave (km/s) = 3.84030 4.18510 4.01640
# Velocity P-wave (km/s) = 6.38894 6.77334 6.58395
#
# Compressibility (1/GPa) = 0.01773114
#
# Stress axis : x y z
#
# Youngs Moduli (GPa) = 102.28436 117.87097 84.92820
#
# Poissons Ratio (x) = -0.04434 0.21495
# Poissons Ratio (y) = -0.03848 0.33948
# Poissons Ratio (z) = 0.25887 0.47116
#
# Static dielectric constant tensor:
#      x y z
#    x 2.196350 0.047780 0.042110 
#    y 0.047780 2.170630 0.037780 
#    z 0.042110 0.037780 2.152160 
# 
# From -- ./inp_files/542231.got.cif
#   From: 2010.05.17/outbox.cif.g08.bks.cpg/sg2_272_cif.got.tgz:542231.got - 2010.06.03 11:33:40.
