data_PCOD9085060
_publ_section_title
;
Structure prediction by ZEFSAII (Michael W. Deem and Ramdas Pophale) SiO2 
 PCOD9085060
Probable space group: P -1
;
_chemical_formula_sum "Si O2"
_cell_formula_units_Z 14
_cell_length_a 9.660861
_cell_length_b 9.951723
_cell_length_c 9.553742
_cell_angle_alpha 128.024049
_cell_angle_beta 46.349348
_cell_angle_gamma 123.019164
_cell_volume 511.863997
_symmetry_space_group_name_H-M "P -1"
_symmetry_group_IT_number 2
_symmetry_cell_setting 'triclinic'
loop_
_space_group_symop_operation_xyz
x,y,z
-x,-y,-z
loop_
_atom_site_type_symbol
_atom_site_label
_atom_site_fract_x
_atom_site_fract_y
_atom_site_fract_z
Si Si1 0.988999 0.091393 0.268433
Si Si2 0.391253 0.004906 0.222513
Si Si3 0.473238 0.547660 0.383115
Si Si4 0.632844 0.358755 0.906418
Si Si5 0.959211 0.559227 0.360611
Si Si6 0.332691 0.080499 0.809610
Si Si7 0.856979 0.769754 0.328841
O O1 0.003153 0.920008 0.240985
O O2 0.768038 0.029612 0.322154
O O3 0.019759 0.272914 0.444817
O O4 0.150091 0.109444 0.047863
O O5 0.554093 0.040011 0.253562
O O6 0.244948 0.132440 0.418326
O O7 0.285421 0.808367 0.204098
O O8 0.500000 0.000000 0.000000
O O9 0.500000 0.500000 0.500000
O O10 0.248459 0.566543 0.538608
O O11 0.670619 0.691543 0.313341
O O12 0.506711 0.405570 0.153594
O O13 0.830350 0.493617 0.812666
O O14 0.487615 0.268516 0.826616
O O15 0.930429 0.615625 0.255914
#
# Coordination Sequence:
#
# PCOD9085060 Si02
#       7
#     2   2   2   2   2   2   2
#     4  11  19  39  61  88 117 159 202 247 290 355
#     4  10  19  35  58  87 115 146 195 250 284 343
#     4  10  22  41  54  86 128 157 188 249 303 350
#     4  10  21  37  60  87 115 162 192 235 304 357
#     4  11  21  37  65  84 122 160 198 238 306 350
#     4   9  22  35  62  87 122 153 199 245 303 343
#     4  11  23  35  59  91 119 152 198 256 288 342
#
# _framework density 27.351015
#
# number of rings (size 3 to 8) (size 9 to 14) (size 15 to 20)
#    0.857    0.857    2.857    3.000    2.000    4.571 
#    2.571    0.714    0.000    1.714    0.000    0.000 
#    0.000    0.000    0.000    0.000    0.000    0.000 
#
# Total GULP energy -78231.107855 kJ/mol
# GULP energy per Si atom -5587.936275 kJ/mol
# Density = 2.728876 g / cm^3
# Si number density = 27.351015 Si / 1000 Ang^3
#
#
#
# Elastic Constant Matrix: (Units=GPa)
#
#
# Indices 1 2 3 4 5 6 
#
# 1 115.6288 35.4995 6.8167 0.3268 7.8330 34.5811
# 2 35.4995 132.9855 21.9835 -16.0059 1.8758 41.6190
# 3 6.8167 21.9835 101.5146 -7.3316 2.0574 11.1985
# 4 0.3268 -16.0059 -7.3316 29.5931 15.5508 -8.7412
# 5 7.8330 1.8758 2.0574 15.5508 31.7555 -0.2053
# 6 34.5811 41.6190 11.1985 -8.7412 -0.2053 56.6059
#
#
#
# Elastic Compliance Matrix: (Units=1/GPa)
#
#
# Indices 1 2 3 4 5 6 
#
# 1 0.010964 -0.001199 0.000124 -0.001517 -0.001938 -0.006082
# 2 -0.001199 0.010573 -0.001114 0.005155 -0.002820 -0.006035
# 3 0.000124 -0.001114 0.010423 0.002763 -0.001999 -0.000899
# 4 -0.001517 0.005155 0.002763 0.052060 -0.025574 0.004536
# 5 -0.001938 -0.002820 -0.001999 -0.025574 0.044787 -0.000134
# 6 -0.006082 -0.006035 -0.000899 0.004536 -0.000134 0.026697
#
#
# Mechanical properties :
#
#
# Convention : Reuss Voigt Hill
#
# Bulk Modulus (GPa) = 36.25567 53.19204 44.72385
# Shear Modulus (GPa) = 29.57273 42.64619 36.10946
#
# Velocity S-wave (km/s) = 3.29177 3.95298 3.63743
# Velocity P-wave (km/s) = 5.26613 6.35018 5.83340
#
# Compressibility (1/GPa) = 0.02758190
#
# Stress axis : x y z
#
# Youngs Moduli (GPa) = 91.20999 94.58340 95.94186
#
# Poissons Ratio (x) = 0.11340 -0.01191
# Poissons Ratio (y) = 0.10936 0.10687
# Poissons Ratio (z) = -0.01132 0.10535
#
# Static dielectric constant tensor:
#      x y z
#    x 2.182840 -0.004630 0.027510 
#    y -0.004630 2.211060 0.006150 
#    z 0.027510 0.006150 2.071660 
# 
# From -- ./inp_files/430461.got.cif
#   From: 2010.05.17/outbox.cif.g08.bks.cpg/sg2_216_cif.got.tgz:430461.got - 2010.06.03 11:33:40.
