data_PCOD9085207
_publ_section_title
;
Structure prediction by ZEFSAII (Michael W. Deem and Ramdas Pophale) SiO2 
 PCOD9085207
Probable space group: P -1
;
_chemical_formula_sum "Si O2"
_cell_formula_units_Z 16
_cell_length_a 17.069283
_cell_length_b 9.312677
_cell_length_c 13.831471
_cell_angle_alpha 51.224137
_cell_angle_beta 132.509244
_cell_angle_gamma 151.705908
_cell_volume 765.159254
_symmetry_space_group_name_H-M "P -1"
_symmetry_group_IT_number 2
_symmetry_cell_setting 'triclinic'
loop_
_space_group_symop_operation_xyz
x,y,z
-x,-y,-z
loop_
_atom_site_type_symbol
_atom_site_label
_atom_site_fract_x
_atom_site_fract_y
_atom_site_fract_z
Si Si1 0.055681 0.114586 0.388905
Si Si2 0.932429 0.354064 0.683999
Si Si3 0.216178 0.014168 0.008477
Si Si4 0.939034 0.351265 0.148305
Si Si5 0.133177 0.309721 0.771933
Si Si6 0.321365 0.768091 0.593581
Si Si7 0.449775 0.550636 0.527786
Si Si8 0.438215 0.224578 0.277275
O O1 0.056977 0.331131 0.269831
O O2 0.245345 0.295158 0.459601
O O3 0.000000 0.000000 0.500000
O O4 0.930273 0.848202 0.319085
O O5 0.087653 0.626901 0.771606
O O6 0.865805 0.410138 0.526418
O O7 0.988888 0.238314 0.733314
O O8 0.754709 0.096655 0.708346
O O9 0.215117 0.933273 0.931497
O O10 0.178843 0.180664 0.915142
O O11 0.048033 0.668393 0.056543
O O12 0.389545 0.217845 0.130909
O O13 0.293169 0.661537 0.724760
O O14 0.416132 0.735201 0.626708
O O15 0.451620 0.119426 0.544231
O O16 0.500000 0.500000 0.500000
O O17 0.496757 0.553133 0.675703
#
# Coordination Sequence:
#
# PCOD9085207 Si02
#       8
#     2   2   2   2   2   2   2   2
#     4  11  21  37  60  88 114 149 200 244 285 337
#     4  10  19  35  59  86 112 147 194 247 295 330
#     4   9  20  37  56  84 116 159 198 227 283 349
#     4   9  18  34  58  83 114 150 196 244 278 337
#     4  11  23  37  60  88 120 152 193 246 286 342
#     4  11  22  39  60  87 119 154 191 238 300 348
#     4  11  22  37  59  88 119 148 185 241 300 343
#     4  10  20  37  59  81 116 156 191 229 284 358
#
# _framework density 20.910679999999999
#
# number of rings (size 3 to 8) (size 9 to 14) (size 15 to 20)
#    0.000    1.750    0.000    7.125    0.000    3.500 
#    0.000    2.500    0.000    1.500    0.000    0.000 
#    0.000    0.000    0.000    0.000    0.000    0.000 
#
# Total GULP energy -89120.935802 kJ/mol
# GULP energy per Si atom -5570.058488 kJ/mol
# Density = 2.086309 g / cm^3
# Si number density = 20.910680 Si / 1000 Ang^3
#
#
#
# Elastic Constant Matrix: (Units=GPa)
#
#
# Indices 1 2 3 4 5 6 
#
# 1 129.4257 27.2575 51.3658 4.4017 -0.5471 -20.4082
# 2 27.2575 5.4399 5.8821 1.1267 2.0218 10.4351
# 3 51.3658 5.8821 92.5782 7.7016 16.0630 -3.7307
# 4 4.4017 1.1267 7.7016 33.3884 -8.9629 -10.6425
# 5 -0.5471 2.0218 16.0630 -8.9629 18.6296 -1.0238
# 6 -20.4082 10.4351 -3.7307 -10.6425 -1.0238 20.4123
#
#
#
# Elastic Compliance Matrix: (Units=1/GPa)
#
#
# Indices 1 2 3 4 5 6 
#
# 1 0.001667 0.022431 -0.001546 -0.006235 -0.004798 -0.013574
# 2 0.022431 -0.037463 -0.016603 0.029717 0.036408 0.055864
# 3 -0.001546 -0.016603 0.015676 -0.004251 -0.013425 0.006918
# 4 -0.006235 0.029717 -0.004251 0.033989 0.016408 -0.003658
# 5 -0.004798 0.036408 -0.013425 0.016408 0.068293 -0.013883
# 6 -0.013574 0.055864 0.006918 -0.003658 -0.013883 0.005521
#
#
# Mechanical properties :
#
#
# Convention : Reuss Voigt Hill
#
# Bulk Modulus (GPa) = -86.53264 44.05052 -21.24106
# Shear Modulus (GPa) = 66.43090 24.01528 45.22309
#
# Velocity S-wave (km/s) = 5.64250 3.39258 4.65551
# Velocity P-wave (km/s) = 0.98924 6.03804 4.32646
#
# Compressibility (1/GPa) = -0.01155633
#
# Stress axis : x y z
#
# Youngs Moduli (GPa) = 599.79174 -26.69268 63.79123
#
# Poissons Ratio (x) = 0.59875 0.09863
# Poissons Ratio (y) = -13.45418 1.05915
# Poissons Ratio (z) = 0.92734 -0.44319
#
# Static dielectric constant tensor:
#      x y z
#    x 1.752570 -0.031220 -0.070020 
#    y -0.031220 1.807660 -0.011710 
#    z -0.070020 -0.011710 1.902790 
# 
# From -- ./inp_files/446979.got.cif
#   From: 2010.05.17/outbox.cif.g08.bks.cpg/sg2_224_cif.got.tgz:446979.got - 2010.06.03 11:33:40.
