data_PCOD9085838
_publ_section_title
;
Structure prediction by ZEFSAII (Michael W. Deem and Ramdas Pophale) SiO2 
 PCOD9085838
Probable space group: P -1
;
_chemical_formula_sum "Si O2"
_cell_formula_units_Z 16
_cell_length_a 18.577003
_cell_length_b 14.642514
_cell_length_c 5.391755
_cell_angle_alpha 95.197135
_cell_angle_beta 83.928659
_cell_angle_gamma 31.569980
_cell_volume 716.066057
_symmetry_space_group_name_H-M "P -1"
_symmetry_group_IT_number 2
_symmetry_cell_setting 'triclinic'
loop_
_space_group_symop_operation_xyz
x,y,z
-x,-y,-z
loop_
_atom_site_type_symbol
_atom_site_label
_atom_site_fract_x
_atom_site_fract_y
_atom_site_fract_z
Si Si1 0.620541 0.923827 0.698121
Si Si2 0.708244 0.920916 0.184036
Si Si3 0.842559 0.322969 0.775654
Si Si4 0.538187 0.663251 0.475984
Si Si5 0.969243 0.425096 0.022486
Si Si6 0.318402 0.311786 0.085343
Si Si7 0.566325 0.525920 0.935505
Si Si8 0.878015 0.351848 0.273908
O O1 0.696943 0.859506 0.395644
O O2 0.628490 0.807882 0.732657
O O3 0.452959 0.143755 0.809845
O O4 0.690555 0.898459 0.907685
O O5 0.578376 0.133302 0.345121
O O6 0.866195 0.793365 0.126224
O O7 0.717794 0.541740 0.842970
O O8 0.744645 0.340401 0.842831
O O9 0.931274 0.240514 0.470609
O O10 0.931853 0.249510 0.970094
O O11 0.534240 0.593842 0.683506
O O12 0.703355 0.522165 0.361246
O O13 0.505423 0.656383 0.215971
O O14 0.912592 0.422720 0.271162
O O15 0.839417 0.550885 0.907890
O O16 0.000000 0.500000 0.000000
O O17 0.500000 0.500000 0.000000
#
# Coordination Sequence:
#
# PCOD9085838 Si02
#       8
#     2   2   2   2   2   2   2   2
#     4  11  24  38  59  81 113 162 215 246 294 337
#     4  12  24  40  58  86 122 162 199 256 297 332
#     4   9  18  32  55  77 110 141 187 230 288 347
#     4  10  20  38  60  86 122 151 195 232 302 367
#     4  11  23  39  56  85 121 161 216 256 289 329
#     4  10  22  39  58  81 115 163 208 248 288 354
#     4  10  19  35  63  94 116 139 183 252 304 356
#     4   9  19  35  54  75 108 154 192 234 281 346
#
# _framework density 22.344308000000002
#
# number of rings (size 3 to 8) (size 9 to 14) (size 15 to 20)
#    0.000    1.750    1.250    4.875    1.750    4.500 
#    0.000    0.000    0.000    0.000    0.000   33.250 
#    0.000    0.000    0.000    0.000    0.000    0.000 
#
# Total GULP energy -89204.230188 kJ/mol
# GULP energy per Si atom -5575.264387 kJ/mol
# Density = 2.229345 g / cm^3
# Si number density = 22.344308 Si / 1000 Ang^3
#
#
#
# Elastic Constant Matrix: (Units=GPa)
#
#
# Indices 1 2 3 4 5 6 
#
# 1 126.6779 7.5880 38.3694 -4.6369 -29.2928 -8.8839
# 2 7.5880 34.7112 15.8637 -0.6341 -6.2006 -21.9563
# 3 38.3694 15.8637 123.5657 -37.8473 -2.4500 -6.5350
# 4 -4.6369 -0.6341 -37.8473 29.4204 0.0148 -4.4113
# 5 -29.2928 -6.2006 -2.4500 0.0148 41.9271 -6.5220
# 6 -8.8839 -21.9563 -6.5350 -4.4113 -6.5220 23.6349
#
#
#
# Elastic Compliance Matrix: (Units=1/GPa)
#
#
# Indices 1 2 3 4 5 6 
#
# 1 0.013612 0.017194 -0.004938 -0.000253 0.015490 0.023951
# 2 0.017194 0.125612 -0.008538 0.015073 0.051525 0.137824
# 3 -0.004938 -0.008538 0.016652 0.020075 -0.004148 -0.002581
# 4 -0.000253 0.015073 0.020075 0.065189 0.008487 0.033967
# 5 0.015490 0.051525 -0.004148 0.008487 0.052731 0.068676
# 6 0.023951 0.137824 -0.002581 0.033967 0.068676 0.203927
#
#
# Mechanical properties :
#
#
# Convention : Reuss Voigt Hill
#
# Bulk Modulus (GPa) = 6.12323 45.39968 25.76146
# Shear Modulus (GPa) = 9.52882 33.87203 21.70042
#
# Velocity S-wave (km/s) = 2.06732 3.89770 3.11976
# Velocity P-wave (km/s) = 2.90598 6.37326 4.95294
#
# Compressibility (1/GPa) = 0.16331247
#
# Stress axis : x y z
#
# Youngs Moduli (GPa) = 73.46394 7.96103 60.05178
#
# Poissons Ratio (x) = -0.13688 0.29652
# Poissons Ratio (y) = -1.26311 0.51271
# Poissons Ratio (z) = 0.36275 0.06797
#
# Static dielectric constant tensor:
#      x y z
#    x 1.898270 -0.004250 0.004910 
#    y -0.004250 1.831280 -0.032620 
#    z 0.004910 -0.032620 1.972210 
# 
# From -- ./inp_files/110836.got.cif
#   From: 2010.05.17/outbox.cif.g08.bks.cpg/sg2_56_cif.got.tgz:110836.got - 2010.06.03 11:33:40.
