data_PCOD9085790
_publ_section_title
;
Structure prediction by ZEFSAII (Michael W. Deem and Ramdas Pophale) SiO2 
 PCOD9085790
Probable space group: P -1
;
_chemical_formula_sum "Si O2"
_cell_formula_units_Z 16
_cell_length_a 8.948978
_cell_length_b 8.060550
_cell_length_c 14.159790
_cell_angle_alpha 85.422439
_cell_angle_beta 65.787758
_cell_angle_gamma 50.656347
_cell_volume 696.512774
_symmetry_space_group_name_H-M "P -1"
_symmetry_group_IT_number 2
_symmetry_cell_setting 'triclinic'
loop_
_space_group_symop_operation_xyz
x,y,z
-x,-y,-z
loop_
_atom_site_type_symbol
_atom_site_label
_atom_site_fract_x
_atom_site_fract_y
_atom_site_fract_z
Si Si1 0.197022 0.012974 0.346196
Si Si2 0.671694 0.783033 0.193410
Si Si3 0.690055 0.979386 0.000587
Si Si4 0.366755 0.407353 0.170394
Si Si5 0.809756 0.738594 0.494027
Si Si6 0.036885 0.323563 0.215250
Si Si7 0.995716 0.142314 0.697152
Si Si8 0.568139 0.178884 0.322506
O O1 0.229949 0.076233 0.435250
O O2 0.025836 0.241023 0.322020
O O3 0.430047 0.869835 0.238393
O O4 0.107727 0.888821 0.361948
O O5 0.765906 0.805738 0.073643
O O6 0.826462 0.548426 0.214370
O O7 0.633551 0.965654 0.262054
O O8 0.582213 0.219304 0.061251
O O9 0.870953 0.867206 0.878216
O O10 0.500000 0.000000 0.000000
O O11 0.214514 0.350225 0.188727
O O12 0.441261 0.359611 0.263452
O O13 0.202644 0.672999 0.190495
O O14 0.896696 0.759409 0.374603
O O15 0.594824 0.767658 0.553864
O O16 0.000000 0.500000 0.500000
O O17 0.201998 0.905981 0.697722
#
# Coordination Sequence:
#
# PCOD9085790 Si02
#       8
#     2   2   2   2   2   2   2   2
#     4  11  24  39  55  92 124 147 190 245 295 347
#     4  10  19  35  63  88 114 155 198 237 285 340
#     4   9  17  33  62  92 113 145 207 248 265 335
#     4  10  19  37  60  87 115 151 200 241 279 343
#     4  11  21  42  64  82 113 154 201 241 282 342
#     4  11  18  37  62  87 117 155 199 242 283 340
#     4  12  23  38  61  84 123 156 184 245 304 337
#     4  10  20  37  61  87 109 151 204 235 278 352
#
# _framework density 22.971578999999998
#
# number of rings (size 3 to 8) (size 9 to 14) (size 15 to 20)
#    0.000    1.500    7.500    1.125    0.000    1.000 
#    0.000    1.250    0.000    3.750    0.000    0.000 
#    0.000    0.000    0.000    0.000    0.000    0.000 
#
# Total GULP energy -89244.919999 kJ/mol
# GULP energy per Si atom -5577.807500 kJ/mol
# Density = 2.291930 g / cm^3
# Si number density = 22.971579 Si / 1000 Ang^3
#
#
#
# Elastic Constant Matrix: (Units=GPa)
#
#
# Indices 1 2 3 4 5 6 
#
# 1 72.4430 11.5809 2.0847 4.2461 -2.5732 -11.7698
# 2 11.5809 85.7583 4.0665 8.8082 -2.3208 -29.4068
# 3 2.0847 4.0665 57.8729 4.5408 1.9762 -2.6342
# 4 4.2461 8.8082 4.5408 31.2630 -2.5017 6.2110
# 5 -2.5732 -2.3208 1.9762 -2.5017 16.1923 -1.3619
# 6 -11.7698 -29.4068 -2.6342 6.2110 -1.3619 27.0294
#
#
#
# Elastic Compliance Matrix: (Units=1/GPa)
#
#
# Indices 1 2 3 4 5 6 
#
# 1 0.015471 0.001812 0.000006 -0.004339 0.002876 0.009851
# 2 0.001812 0.022346 0.000438 -0.011865 0.003965 0.028070
# 3 0.000006 0.000438 0.017733 -0.003464 -0.002393 0.002883
# 4 -0.004339 -0.011865 -0.003464 0.041490 0.002378 -0.024550
# 5 0.002876 0.003965 -0.002393 0.002378 0.064117 0.008017
# 6 0.009851 0.028070 0.002883 -0.024550 0.008017 0.078151
#
#
# Mechanical properties :
#
#
# Convention : Reuss Voigt Hill
#
# Bulk Modulus (GPa) = 16.64954 27.94870 22.29912
# Shear Modulus (GPa) = 19.62194 28.11976 23.87085
#
# Velocity S-wave (km/s) = 2.92581 3.50253 3.22708
# Velocity P-wave (km/s) = 4.32174 5.34322 4.85939
#
# Compressibility (1/GPa) = 0.06006172
#
# Stress axis : x y z
#
# Youngs Moduli (GPa) = 64.63688 44.74992 56.39212
#
# Poissons Ratio (x) = -0.08108 -0.00034
# Poissons Ratio (y) = -0.11711 -0.02469
# Poissons Ratio (z) = -0.00039 -0.01959
#
# Static dielectric constant tensor:
#      x y z
#    x 1.866260 -0.039950 -0.027550 
#    y -0.039950 1.906260 0.000560 
#    z -0.027550 0.000560 1.936240 
# 
# From -- ./inp_files/201634.got.cif
#   From: 2010.05.17/outbox.cif.g08.bks.cpg/sg2_101_cif.got.tgz:201634.got - 2010.06.03 11:33:40.
