data_PCOD9085128
_publ_section_title
;
Structure prediction by ZEFSAII (Michael W. Deem and Ramdas Pophale) SiO2 
 PCOD9085128
Probable space group: P -1
;
_chemical_formula_sum "Si O2"
_cell_formula_units_Z 10
_cell_length_a 12.021476
_cell_length_b 7.474067
_cell_length_c 7.092110
_cell_angle_alpha 77.807146
_cell_angle_beta 64.401798
_cell_angle_gamma 121.597145
_cell_volume 402.298817
_symmetry_space_group_name_H-M "P -1"
_symmetry_group_IT_number 2
_symmetry_cell_setting 'triclinic'
loop_
_space_group_symop_operation_xyz
x,y,z
-x,-y,-z
loop_
_atom_site_type_symbol
_atom_site_label
_atom_site_fract_x
_atom_site_fract_y
_atom_site_fract_z
Si Si1 0.413694 0.485740 0.253806
Si Si2 0.010176 0.314045 0.906980
Si Si3 0.047079 0.004804 0.678336
Si Si4 0.651679 0.996496 0.111990
Si Si5 0.305515 0.771157 0.350753
O O1 0.254870 0.195791 0.496922
O O2 0.563894 0.703755 0.240067
O O3 0.322950 0.591729 0.270312
O O4 0.500000 0.500000 0.000000
O O5 0.000831 0.131034 0.812372
O O6 0.149349 0.588108 0.647257
O O7 0.045935 0.262970 0.095652
O O8 0.819014 0.195592 0.066534
O O9 0.000000 0.000000 0.500000
O O10 0.491836 0.968216 0.271322
O O11 0.707798 0.092663 0.831466
#
# Coordination Sequence:
#
# PCOD9085128 Si02
#       5
#     2   2   2   2   2
#     4   9  17  32  53  79 108 145 173 225 273 313
#     4  10  19  35  59  79 108 149 180 226 276 324
#     4  10  21  35  51  85 114 138 187 230 271 326
#     4   9  17  33  57  83 106 142 187 217 274 331
#     4   8  18  33  55  86 104 143 186 218 270 333
#
# _framework density 24.857146
#
# number of rings (size 3 to 8) (size 9 to 14) (size 15 to 20)
#    1.200    1.600    0.000    1.800    0.000    0.800 
#    3.600    0.000    0.000   21.600    0.000    0.000 
#    0.000    0.000    0.000    0.000    0.000    0.000 
#
# Total GULP energy -55799.665261 kJ/mol
# GULP energy per Si atom -5579.966526 kJ/mol
# Density = 2.480057 g / cm^3
# Si number density = 24.857146 Si / 1000 Ang^3
#
#
#
# Elastic Constant Matrix: (Units=GPa)
#
#
# Indices 1 2 3 4 5 6 
#
# 1 76.3836 22.8508 55.9354 -0.8884 2.5533 23.5179
# 2 22.8508 59.6542 71.1633 3.9056 -6.4721 -4.9853
# 3 55.9354 71.1633 85.5445 -32.8498 34.5641 21.4675
# 4 -0.8884 3.9056 -32.8498 55.1572 2.1945 -9.9833
# 5 2.5533 -6.4721 34.5641 2.1945 37.6864 1.9148
# 6 23.5179 -4.9853 21.4675 -9.9833 1.9148 28.6198
#
#
#
# Elastic Compliance Matrix: (Units=1/GPa)
#
#
# Indices 1 2 3 4 5 6 
#
# 1 0.022860 -0.011831 0.000866 -0.002141 -0.003131 -0.022033
# 2 -0.011831 0.001326 0.015167 0.009817 -0.013601 0.002910
# 3 0.000866 0.015167 -0.010980 -0.006849 0.012663 0.006930
# 4 -0.002141 0.009817 -0.006849 0.015521 0.006518 0.013585
# 5 -0.003131 -0.013601 0.012663 0.006518 0.012818 -0.007878
# 6 -0.022033 0.002910 0.006930 0.013585 -0.007878 0.053621
#
#
# Mechanical properties :
#
#
# Convention : Reuss Voigt Hill
#
# Bulk Modulus (GPa) = 46.26936 57.94236 52.10586
# Shear Modulus (GPa) = 53.21059 29.06820 41.13940
#
# Velocity S-wave (km/s) = 4.63174 3.42337 4.07262
# Velocity P-wave (km/s) = 6.87449 6.24394 6.56678
#
# Compressibility (1/GPa) = 0.02161258
#
# Stress axis : x y z
#
# Youngs Moduli (GPa) = 43.74379 753.93341 -91.07719
#
# Poissons Ratio (x) = 8.91987 0.07891
# Poissons Ratio (y) = 0.51754 1.38141
# Poissons Ratio (z) = -0.03790 -11.43526
#
# Static dielectric constant tensor:
#      x y z
#    x 1.980700 -0.000050 -0.030070 
#    y -0.000050 2.049310 -0.027800 
#    z -0.030070 -0.027800 1.939140 
# 
# From -- ./inp_files/17637.got.cif
#   From: 2010.05.17/outbox.cif.g08.bks.cpg/sg2_9_cif.got.tgz:17637.got - 2010.06.03 11:33:40.
