data_PCOD9085410
_publ_section_title
;
Structure prediction by ZEFSAII (Michael W. Deem and Ramdas Pophale) SiO2 
 PCOD9085410
Probable space group: P -1
;
_chemical_formula_sum "Si O2"
_cell_formula_units_Z 14
_cell_length_a 14.503781
_cell_length_b 8.487789
_cell_length_c 15.533858
_cell_angle_alpha 45.686328
_cell_angle_beta 143.812103
_cell_angle_gamma 135.991667
_cell_volume 751.235221
_symmetry_space_group_name_H-M "P -1"
_symmetry_group_IT_number 2
_symmetry_cell_setting 'triclinic'
loop_
_space_group_symop_operation_xyz
x,y,z
-x,-y,-z
loop_
_atom_site_type_symbol
_atom_site_label
_atom_site_fract_x
_atom_site_fract_y
_atom_site_fract_z
Si Si1 0.282823 0.783754 0.398644
Si Si2 0.510843 0.019671 0.828713
Si Si3 0.936382 0.728129 0.088072
Si Si4 0.497978 0.509334 0.391995
Si Si5 0.824348 0.451855 0.933295
Si Si6 0.518849 0.186346 0.308755
Si Si7 0.413962 0.530474 0.011496
O O1 0.390920 0.630688 0.506445
O O2 0.320110 0.813015 0.517207
O O3 0.090412 0.685571 0.265800
O O4 0.366810 0.026663 0.315608
O O5 0.499583 0.927986 0.756281
O O6 0.431522 0.801848 0.916735
O O7 0.429616 0.219469 0.689876
O O8 0.704298 0.175067 0.939784
O O9 0.775849 0.654764 0.057063
O O10 0.869950 0.553096 0.024142
O O11 0.000000 0.000000 0.000000
O O12 0.500000 0.500000 0.500000
O O13 0.301330 0.426724 0.247440
O O14 0.000000 0.500000 0.000000
O O15 0.507997 0.443655 0.190324
O O16 0.500000 0.500000 0.000000
#
# Coordination Sequence:
#
# PCOD9085410 Si02
#       7
#     2   2   2   2   2   2   2
#     4  11  21  35  60  94 122 153 212 261 309 360
#     4   9  21  38  63  86 123 165 209 242 318 370
#     4  12  24  39  64  95 124 162 216 260 302 373
#     4  10  19  35  60  88 123 160 201 255 311 362
#     4  10  22  38  63  94 123 161 208 259 303 364
#     4  10  19  37  63  88 119 162 203 259 304 367
#     4  10  22  42  64  89 124 169 208 256 314 372
#
# _framework density 18.635974999999998
#
# number of rings (size 3 to 8) (size 9 to 14) (size 15 to 20)
#    0.857    0.857    2.857    2.571    4.000    0.571 
#    0.000    3.571    3.143    0.000    0.000    0.000 
#    0.000    0.000    0.000    0.000    0.000    0.000 
#
# Total GULP energy -77976.087777 kJ/mol
# GULP energy per Si atom -5569.720556 kJ/mol
# Density = 1.859356 g / cm^3
# Si number density = 18.635975 Si / 1000 Ang^3
#
#
#
# Elastic Constant Matrix: (Units=GPa)
#
#
# Indices 1 2 3 4 5 6 
#
# 1 83.0996 36.5952 40.8434 7.1143 10.0994 8.7345
# 2 36.5952 107.0759 56.0961 -12.1615 -7.3401 10.0616
# 3 40.8434 56.0961 146.5224 14.2237 -1.2627 10.5526
# 4 7.1143 -12.1615 14.2237 52.6473 0.7132 -4.4992
# 5 10.0994 -7.3401 -1.2627 0.7132 31.0308 5.3440
# 6 8.7345 10.0616 10.5526 -4.4992 5.3440 29.8823
#
#
#
# Elastic Compliance Matrix: (Units=1/GPa)
#
#
# Indices 1 2 3 4 5 6 
#
# 1 0.016596 -0.005038 -0.002362 -0.002820 -0.006347 -0.001610
# 2 -0.005038 0.014493 -0.004440 0.004988 0.005118 -0.002003
# 3 -0.002362 -0.004440 0.009658 -0.003480 0.000508 -0.001840
# 4 -0.002820 0.004988 -0.003480 0.021755 0.000854 0.003497
# 5 -0.006347 0.005118 0.000508 0.000854 0.036617 -0.006467
# 6 -0.001610 -0.002003 -0.001840 0.003497 -0.006467 0.036942
#
#
# Mechanical properties :
#
#
# Convention : Reuss Voigt Hill
#
# Bulk Modulus (GPa) = 58.59850 67.08525 62.84187
# Shear Modulus (GPa) = 30.22428 36.25631 33.24030
#
# Velocity S-wave (km/s) = 4.03156 4.41557 4.22793
# Velocity P-wave (km/s) = 7.29269 7.87859 7.59129
#
# Compressibility (1/GPa) = 0.01706528
#
# Stress axis : x y z
#
# Youngs Moduli (GPa) = 60.25717 69.00022 103.54303
#
# Poissons Ratio (x) = 0.34766 0.24458
# Poissons Ratio (y) = 0.30360 0.45971
# Poissons Ratio (z) = 0.14233 0.30635
#
# Static dielectric constant tensor:
#      x y z
#    x 1.676100 -0.045380 -0.006260 
#    y -0.045380 1.706090 -0.015520 
#    z -0.006260 -0.015520 1.670190 
# 
# From -- ./inp_files/176001.got.cif
#   From: 2010.05.17/outbox.cif.g08.bks.cpg/sg2_89_cif.got.tgz:176001.got - 2010.06.03 11:33:40.
