data_PCOD9085297
_publ_section_title
;
Structure prediction by ZEFSAII (Michael W. Deem and Ramdas Pophale) SiO2 
 PCOD9085297
Probable space group: P -1
;
_chemical_formula_sum "Si O2"
_cell_formula_units_Z 16
_cell_length_a 16.935101
_cell_length_b 6.692725
_cell_length_c 9.027904
_cell_angle_alpha 101.427250
_cell_angle_beta 45.628209
_cell_angle_gamma 107.874253
_cell_volume 695.920247
_symmetry_space_group_name_H-M "P -1"
_symmetry_group_IT_number 2
_symmetry_cell_setting 'triclinic'
loop_
_space_group_symop_operation_xyz
x,y,z
-x,-y,-z
loop_
_atom_site_type_symbol
_atom_site_label
_atom_site_fract_x
_atom_site_fract_y
_atom_site_fract_z
Si Si1 0.072540 0.725118 0.582008
Si Si2 0.689501 0.717907 0.920232
Si Si3 0.158134 0.527604 0.172287
Si Si4 0.659476 0.050140 0.424361
Si Si5 0.749477 0.845391 0.529768
Si Si6 0.834765 0.114545 0.973834
Si Si7 0.069730 0.388747 0.776780
Si Si8 0.501329 0.675591 0.395552
O O1 0.093180 0.664740 0.377882
O O2 0.106875 0.556858 0.621488
O O3 0.937019 0.679408 0.779004
O O4 0.149968 0.950991 0.538523
O O5 0.748449 0.533366 0.859940
O O6 0.694069 0.753631 0.744330
O O7 0.569005 0.654829 0.152606
O O8 0.770545 0.926395 0.923452
O O9 0.204759 0.677593 0.998322
O O10 0.785639 0.074651 0.197169
O O11 0.613470 0.259509 0.497051
O O12 0.660779 0.935154 0.561943
O O13 0.580174 0.881192 0.397834
O O14 0.818637 0.690442 0.337936
O O15 0.971016 0.193220 0.814954
O O16 0.000000 0.500000 0.000000
O O17 0.500000 0.500000 0.500000
#
# Coordination Sequence:
#
# PCOD9085297 Si02
#       8
#     2   2   2   2   2   2   2   2
#     4  10  21  35  58  90 132 170 209 249 299 364
#     4  11  22  38  68  94 123 165 213 262 322 372
#     4  10  19  35  59  92 125 170 213 251 292 363
#     4  10  24  42  65  93 123 163 210 263 326 382
#     4  12  24  40  62  97 135 165 206 264 319 376
#     4  10  21  39  63  89 124 175 214 255 300 372
#     4  11  24  38  58  93 137 177 213 250 305 374
#     4  10  23  47  69  90 116 161 216 268 322 387
#
# _framework density 22.991140000000001
#
# number of rings (size 3 to 8) (size 9 to 14) (size 15 to 20)
#    0.000    1.500    2.500    2.250    0.000    9.500 
#    0.000    0.625    0.000    0.000    0.000    0.000 
#    0.000    0.000    0.000    0.000    0.000    0.000 
#
# Total GULP energy -89264.761604 kJ/mol
# GULP energy per Si atom -5579.047600 kJ/mol
# Density = 2.293881 g / cm^3
# Si number density = 22.991140 Si / 1000 Ang^3
#
#
#
# Elastic Constant Matrix: (Units=GPa)
#
#
# Indices 1 2 3 4 5 6 
#
# 1 66.4752 7.9688 21.6554 8.0944 7.7062 -35.1418
# 2 7.9688 44.9589 28.9877 -6.1445 -7.6736 -16.0688
# 3 21.6554 28.9877 101.1921 -3.3278 6.9008 -22.6075
# 4 8.0944 -6.1445 -3.3278 28.8648 -5.2693 6.3762
# 5 7.7062 -7.6736 6.9008 -5.2693 25.7212 -4.5215
# 6 -35.1418 -16.0688 -22.6075 6.3762 -4.5215 48.9203
#
#
#
# Elastic Compliance Matrix: (Units=1/GPa)
#
#
# Indices 1 2 3 4 5 6 
#
# 1 0.029825 0.000237 -0.001495 -0.014741 -0.007611 0.022030
# 2 0.000237 0.034426 -0.008984 0.007329 0.015483 0.007802
# 3 -0.001495 -0.008984 0.013547 -0.001411 -0.005825 0.001881
# 4 -0.014741 0.007329 -0.001411 0.045708 0.013972 -0.013500
# 5 -0.007611 0.015483 -0.005825 0.013972 0.050158 -0.000259
# 6 0.022030 0.007802 0.001881 -0.013500 -0.000259 0.041434
#
#
# Mechanical properties :
#
#
# Convention : Reuss Voigt Hill
#
# Bulk Modulus (GPa) = 17.44758 36.65001 27.04880
# Shear Modulus (GPa) = 19.63200 30.96888 25.30044
#
# Velocity S-wave (km/s) = 2.92532 3.67412 3.32089
# Velocity P-wave (km/s) = 4.36065 5.82876 5.14731
#
# Compressibility (1/GPa) = 0.05731453
#
# Stress axis : x y z
#
# Youngs Moduli (GPa) = 33.52901 29.04777 73.81798
#
# Poissons Ratio (x) = -0.00689 0.11033
# Poissons Ratio (y) = -0.00795 0.66320
# Poissons Ratio (z) = 0.05011 0.26097
#
# Static dielectric constant tensor:
#      x y z
#    x 1.883210 0.001700 -0.023500 
#    y 0.001700 1.911870 0.019010 
#    z -0.023500 0.019010 1.890080 
# 
# From -- ./inp_files/101550.got.cif
#   From: 2010.05.17/outbox.cif.g08.bks.cpg/sg2_51_cif.got.tgz:101550.got - 2010.06.03 11:33:40.
