data_PCOD9085249
_publ_section_title
;
Structure prediction by ZEFSAII (Michael W. Deem and Ramdas Pophale) SiO2 
 PCOD9085249
Probable space group: P -1
;
_chemical_formula_sum "Si O2"
_cell_formula_units_Z 16
_cell_length_a 17.722376
_cell_length_b 23.374313
_cell_length_c 9.030038
_cell_angle_alpha 138.560191
_cell_angle_beta 38.588985
_cell_angle_gamma 160.529132
_cell_volume 776.254977
_symmetry_space_group_name_H-M "P -1"
_symmetry_group_IT_number 2
_symmetry_cell_setting 'triclinic'
loop_
_space_group_symop_operation_xyz
x,y,z
-x,-y,-z
loop_
_atom_site_type_symbol
_atom_site_label
_atom_site_fract_x
_atom_site_fract_y
_atom_site_fract_z
Si Si1 0.986283 0.657089 0.029975
Si Si2 0.053266 0.921631 0.085474
Si Si3 0.235595 0.852204 0.548662
Si Si4 0.354455 0.856225 0.067386
Si Si5 0.817964 0.038355 0.708650
Si Si6 0.500123 0.271782 0.923183
Si Si7 0.221640 0.136191 0.807995
Si Si8 0.172180 0.679523 0.519553
O O1 0.111561 0.679451 0.011426
O O2 0.716939 0.459758 0.027566
O O3 0.024037 0.782040 0.239461
O O4 0.149301 0.738907 0.793176
O O5 0.056820 0.921160 0.256730
O O6 0.265120 0.117994 0.087482
O O7 0.818726 0.810942 0.143426
O O8 0.115676 0.864493 0.817993
O O9 0.272144 0.866279 0.346248
O O10 0.098620 0.681595 0.486398
O O11 0.500000 0.000000 0.500000
O O12 0.547966 0.903451 0.908010
O O13 0.500000 0.000000 0.000000
O O14 0.786180 0.952999 0.456630
O O15 0.443119 0.271781 0.846094
O O16 0.585158 0.224584 0.683480
O O17 0.000000 0.000000 0.000000
O O18 0.000000 0.500000 0.500000
#
# Coordination Sequence:
#
# PCOD9085249 Si02
#       8
#     2   2   2   2   2   2   2   2
#     4  10  21  36  59  93 124 159 196 252 311 357
#     4  11  22  38  64  85 123 158 211 246 299 363
#     4  12  19  36  63  93 119 161 201 251 304 367
#     4  10  21  32  61  95 124 152 203 249 305 367
#     4  11  20  39  63  88 120 156 209 249 295 364
#     4  10  21  39  58  88 128 159 199 248 305 358
#     4  10  24  39  62  86 117 167 210 246 293 362
#     4  10  19  35  59  88 124 158 189 247 314 361
#
# _framework density 20.611782000000002
#
# number of rings (size 3 to 8) (size 9 to 14) (size 15 to 20)
#    0.000    1.500    3.750    1.875    7.000    0.000 
#    0.000   11.250    0.000    0.000    0.000    0.000 
#    0.000    0.000    0.000    0.000    0.000    0.000 
#
# Total GULP energy -89187.511634 kJ/mol
# GULP energy per Si atom -5574.219477 kJ/mol
# Density = 2.056487 g / cm^3
# Si number density = 20.611782 Si / 1000 Ang^3
#
#
#
# Elastic Constant Matrix: (Units=GPa)
#
#
# Indices 1 2 3 4 5 6 
#
# 1 119.9519 34.1481 13.6798 22.6638 4.0308 13.0708
# 2 34.1481 61.9389 16.7742 15.0047 -1.1559 4.8575
# 3 13.6798 16.7742 80.6005 15.8921 8.7687 5.7478
# 4 22.6638 15.0047 15.8921 14.5027 -3.6426 6.3467
# 5 4.0308 -1.1559 8.7687 -3.6426 38.6271 -1.0200
# 6 13.0708 4.8575 5.7478 6.3467 -1.0200 28.0231
#
#
#
# Elastic Compliance Matrix: (Units=1/GPa)
#
#
# Indices 1 2 3 4 5 6 
#
# 1 0.013158 -0.002876 0.003164 -0.021423 -0.004240 -0.001590
# 2 -0.002876 0.022318 -0.000452 -0.019088 -0.000680 0.001864
# 3 0.003164 -0.000452 0.017773 -0.025915 -0.006807 0.000579
# 4 -0.021423 -0.019088 -0.025915 0.163987 0.022544 -0.017703
# 5 -0.004240 -0.000680 -0.006807 0.022544 0.029968 -0.000523
# 6 -0.001590 0.001864 0.000579 -0.017703 -0.000523 0.039975
#
#
# Mechanical properties :
#
#
# Convention : Reuss Voigt Hill
#
# Bulk Modulus (GPa) = 18.89605 43.52172 31.20889
# Shear Modulus (GPa) = 16.38556 29.42319 22.90438
#
# Velocity S-wave (km/s) = 2.82256 3.78232 3.33712
# Velocity P-wave (km/s) = 4.45084 6.34314 5.47930
#
# Compressibility (1/GPa) = 0.05292111
#
# Stress axis : x y z
#
# Youngs Moduli (GPa) = 75.99977 44.80702 56.26517
#
# Poissons Ratio (x) = 0.12885 -0.17802
# Poissons Ratio (y) = 0.21856 0.02543
# Poissons Ratio (z) = -0.24046 0.02025
#
# Static dielectric constant tensor:
#      x y z
#    x 1.826390 0.004890 -0.028690 
#    y 0.004890 1.825950 -0.009330 
#    z -0.028690 -0.009330 1.770000 
# 
# From -- ./inp_files/328784.got.cif
#   From: 2010.05.17/outbox.cif.g08.bks.cpg/sg2_165_cif.got.tgz:328784.got - 2010.06.03 11:33:40.
