data_PCOD9085181
_publ_section_title
;
Structure prediction by ZEFSAII (Michael W. Deem and Ramdas Pophale) SiO2 
 PCOD9085181
Probable space group: P -1
;
_chemical_formula_sum "Si O2"
_cell_formula_units_Z 14
_cell_length_a 7.894010
_cell_length_b 8.414928
_cell_length_c 9.956477
_cell_angle_alpha 75.432936
_cell_angle_beta 50.469918
_cell_angle_gamma 72.845614
_cell_volume 485.596903
_symmetry_space_group_name_H-M "P -1"
_symmetry_group_IT_number 2
_symmetry_cell_setting 'triclinic'
loop_
_space_group_symop_operation_xyz
x,y,z
-x,-y,-z
loop_
_atom_site_type_symbol
_atom_site_label
_atom_site_fract_x
_atom_site_fract_y
_atom_site_fract_z
Si Si1 0.916540 0.498302 0.699177
Si Si2 0.826354 0.788264 0.202880
Si Si3 0.591061 0.417154 0.330131
Si Si4 0.300741 0.859356 0.499387
Si Si5 0.653765 0.799416 0.684917
Si Si6 0.235650 0.963491 0.032305
Si Si7 0.404036 0.711006 0.206532
O O1 0.808116 0.689616 0.740190
O O2 0.716737 0.393035 0.814183
O O3 0.000000 0.500000 0.500000
O O4 0.077559 0.398566 0.751720
O O5 0.572958 0.842293 0.372373
O O6 0.001832 0.897299 0.151058
O O7 0.805525 0.848239 0.044586
O O8 0.500000 0.500000 0.500000
O O9 0.764082 0.251222 0.322692
O O10 0.408241 0.331015 0.363676
O O11 0.610200 0.570912 0.188421
O O12 0.266690 0.759373 0.403042
O O13 0.230508 0.055800 0.467879
O O14 0.415984 0.872480 0.853398
O O15 0.357852 0.894619 0.123324
#
# Coordination Sequence:
#
# PCOD9085181 Si02
#       7
#     2   2   2   2   2   2   2
#     4  10  20  36  56  78 107 147 184 224 276 321
#     4   9  18  32  55  80 111 142 178 222 266 327
#     4   9  18  32  52  79 106 137 179 225 269 311
#     4  10  19  35  59  85 106 141 184 226 273 319
#     4  10  20  33  58  81 108 143 185 225 264 333
#     4   9  19  35  55  83 108 146 185 215 269 325
#     4   9  19  34  57  80 113 145 175 222 274 333
#
# _framework density 28.830500000000001
#
# number of rings (size 3 to 8) (size 9 to 14) (size 15 to 20)
#    0.000    2.571    0.000    2.143    0.000    8.571 
#    0.000    0.714    0.000   60.857    0.000    0.000 
#    0.000    0.000    0.000    0.000    0.000    0.000 
#
# Total GULP energy -78078.842698 kJ/mol
# GULP energy per Si atom -5577.060193 kJ/mol
# Density = 2.876488 g / cm^3
# Si number density = 28.830500 Si / 1000 Ang^3
#
#
#
# Elastic Constant Matrix: (Units=GPa)
#
#
# Indices 1 2 3 4 5 6 
#
# 1 127.3182 73.9022 43.1408 -25.4430 15.9163 -29.6801
# 2 73.9022 213.3308 50.3851 -70.5806 7.5758 -34.0757
# 3 43.1408 50.3851 95.0632 -24.2452 5.3559 -26.8976
# 4 -25.4430 -70.5806 -24.2452 73.4747 -13.3196 18.5920
# 5 15.9163 7.5758 5.3559 -13.3196 49.8576 -20.9422
# 6 -29.6801 -34.0757 -26.8976 18.5920 -20.9422 58.5818
#
#
#
# Elastic Compliance Matrix: (Units=1/GPa)
#
#
# Indices 1 2 3 4 5 6 
#
# 1 0.011225 -0.003108 -0.003004 -0.001004 -0.002204 0.002030
# 2 -0.003108 0.008368 -0.001028 0.006647 0.002242 0.001513
# 3 -0.003004 -0.001028 0.014044 0.001838 0.001966 0.004448
# 4 -0.001004 0.006647 0.001838 0.021300 0.004388 -0.000990
# 5 -0.002204 0.002242 0.001966 0.004388 0.025009 0.008639
# 6 0.002030 0.001513 0.004448 -0.000990 0.008639 0.024424
#
#
# Mechanical properties :
#
#
# Convention : Reuss Voigt Hill
#
# Bulk Modulus (GPa) = 51.66123 85.61871 68.63997
# Shear Modulus (GPa) = 39.96769 54.26842 47.11805
#
# Velocity S-wave (km/s) = 3.72734 4.34329 4.04705
# Velocity P-wave (km/s) = 6.04003 7.41039 6.76003
#
# Compressibility (1/GPa) = 0.01935688
#
# Stress axis : x y z
#
# Youngs Moduli (GPa) = 89.08933 119.49922 71.20709
#
# Poissons Ratio (x) = 0.37146 0.21388
# Poissons Ratio (y) = 0.27693 0.07318
# Poissons Ratio (z) = 0.26759 0.12281
#
# Static dielectric constant tensor:
#      x y z
#    x 2.290230 -0.034190 -0.019020 
#    y -0.034190 2.374550 -0.088530 
#    z -0.019020 -0.088530 2.281890 
# 
# From -- ./inp_files/237887.got.cif
#   From: 2010.05.17/outbox.cif.g08.bks.cpg/sg2_119_cif.got.tgz:237887.got - 2010.06.03 11:33:40.
