data_PCOD9085795
_publ_section_title
;
Structure prediction by ZEFSAII (Michael W. Deem and Ramdas Pophale) SiO2 
 PCOD9085795
Probable space group: P -1
;
_chemical_formula_sum "Si O2"
_cell_formula_units_Z 16
_cell_length_a 17.875179
_cell_length_b 7.122382
_cell_length_c 19.881347
_cell_angle_alpha 116.417872
_cell_angle_beta 157.219323
_cell_angle_gamma 52.362798
_cell_volume 716.231297
_symmetry_space_group_name_H-M "P -1"
_symmetry_group_IT_number 2
_symmetry_cell_setting 'triclinic'
loop_
_space_group_symop_operation_xyz
x,y,z
-x,-y,-z
loop_
_atom_site_type_symbol
_atom_site_label
_atom_site_fract_x
_atom_site_fract_y
_atom_site_fract_z
Si Si1 0.671801 0.340326 0.413807
Si Si2 0.758486 0.929250 0.621273
Si Si3 0.107973 0.669599 0.533066
Si Si4 0.911052 0.636735 0.019676
Si Si5 0.348831 0.414446 0.430746
Si Si6 0.606646 0.085060 0.160632
Si Si7 0.620266 0.916114 0.351700
Si Si8 0.239306 0.564693 0.018727
O O1 0.883195 0.289554 0.534794
O O2 0.628518 0.429187 0.468238
O O3 0.452066 0.568471 0.224773
O O4 0.676986 0.087108 0.382170
O O5 0.707288 0.756169 0.597377
O O6 0.710515 0.902520 0.500298
O O7 0.574689 0.216182 0.541813
O O8 0.032921 0.801881 0.843849
O O9 0.250783 0.774159 0.704192
O O10 0.248272 0.368494 0.613003
O O11 0.827066 0.825426 0.336580
O O12 0.861686 0.472760 0.002599
O O13 0.665403 0.913900 0.855842
O O14 0.000000 0.500000 0.000000
O O15 0.128108 0.610177 0.232464
O O16 0.374591 0.302151 0.045272
O O17 0.500000 0.000000 0.000000
#
# Coordination Sequence:
#
# PCOD9085795 Si02
#       8
#     2   2   2   2   2   2   2   2
#     4  10  22  40  61  93 131 171 213 267 320 384
#     4  10  19  35  63  88 124 173 217 258 313 386
#     4  10  22  43  69  92 130 171 208 275 339 376
#     4  10  20  38  59  89 135 171 207 266 318 370
#     4  10  20  36  59  90 128 174 213 257 320 372
#     4  10  21  41  69  96 124 166 218 271 334 394
#     4  11  21  40  64  93 129 172 219 260 321 394
#     4   9  21  38  61  93 124 165 213 267 319 386
#
# _framework density 22.339151000000001
#
# number of rings (size 3 to 8) (size 9 to 14) (size 15 to 20)
#    0.000    2.000    2.500    0.750    1.750    1.000 
#    6.750   10.000    0.000    9.750    0.000    0.000 
#    0.000    0.000    0.000    0.000    0.000    0.000 
#
# Total GULP energy -89193.116650 kJ/mol
# GULP energy per Si atom -5574.569791 kJ/mol
# Density = 2.228831 g / cm^3
# Si number density = 22.339151 Si / 1000 Ang^3
#
#
#
# Elastic Constant Matrix: (Units=GPa)
#
#
# Indices 1 2 3 4 5 6 
#
# 1 74.1761 21.1140 33.5799 -5.2181 -6.8377 -10.3155
# 2 21.1140 135.4996 60.8531 -17.9571 -10.1472 -9.2778
# 3 33.5799 60.8531 160.4959 -19.9512 -29.7135 -17.9707
# 4 -5.2181 -17.9571 -19.9512 46.1025 -6.0027 -4.6342
# 5 -6.8377 -10.1472 -29.7135 -6.0027 32.6562 5.5834
# 6 -10.3155 -9.2778 -17.9707 -4.6342 5.5834 43.8967
#
#
#
# Elastic Compliance Matrix: (Units=1/GPa)
#
#
# Indices 1 2 3 4 5 6 
#
# 1 0.015269 -0.001035 -0.002386 0.000586 0.000401 0.002403
# 2 -0.001035 0.009204 -0.002824 0.002370 0.000381 0.000748
# 3 -0.002386 -0.002824 0.010130 0.004326 0.008225 0.002400
# 4 0.000586 0.002370 0.004326 0.026118 0.008906 0.004034
# 5 0.000401 0.000381 0.008225 0.008906 0.040050 -0.000612
# 6 0.002403 0.000748 0.002400 0.004034 -0.000612 0.024990
#
#
# Mechanical properties :
#
#
# Convention : Reuss Voigt Hill
#
# Bulk Modulus (GPa) = 45.22498 66.80730 56.01614
# Shear Modulus (GPa) = 34.33589 41.50605 37.92097
#
# Velocity S-wave (km/s) = 3.92475 4.31512 4.12456
# Velocity P-wave (km/s) = 6.38959 7.40256 6.91465
#
# Compressibility (1/GPa) = 0.02211167
#
# Stress axis : x y z
#
# Youngs Moduli (GPa) = 65.49361 108.65342 98.71924
#
# Poissons Ratio (x) = 0.11251 0.23551
# Poissons Ratio (y) = 0.06782 0.27878
# Poissons Ratio (z) = 0.15625 0.30684
#
# Static dielectric constant tensor:
#      x y z
#    x 1.895750 0.013070 0.086400 
#    y 0.013070 1.864600 0.034560 
#    z 0.086400 0.034560 1.930010 
# 
# From -- ./inp_files/601196.got.cif
#   From: 2010.05.17/outbox.cif.g08.bks.cpg/sg2_301_cif.got.tgz:601196.got - 2010.06.03 11:33:40.
