data_PCOD9085746
_publ_section_title
;
Structure prediction by ZEFSAII (Michael W. Deem and Ramdas Pophale) SiO2 
 PCOD9085746
Probable space group: P -1
;
_chemical_formula_sum "Si O2"
_cell_formula_units_Z 16
_cell_length_a 14.133675
_cell_length_b 5.286308
_cell_length_c 11.312094
_cell_angle_alpha 114.789691
_cell_angle_beta 81.854602
_cell_angle_gamma 86.120567
_cell_volume 751.930454
_symmetry_space_group_name_H-M "P -1"
_symmetry_group_IT_number 2
_symmetry_cell_setting 'triclinic'
loop_
_space_group_symop_operation_xyz
x,y,z
-x,-y,-z
loop_
_atom_site_type_symbol
_atom_site_label
_atom_site_fract_x
_atom_site_fract_y
_atom_site_fract_z
Si Si1 0.447266 0.221823 0.464256
Si Si2 0.114601 0.397987 0.326404
Si Si3 0.772082 0.108338 0.544516
Si Si4 0.449735 0.887156 0.808536
Si Si5 0.709136 0.017298 0.788283
Si Si6 0.289559 0.661173 0.644917
Si Si7 0.100155 0.433456 0.621290
Si Si8 0.595146 0.631680 0.900925
O O1 0.500000 0.500000 0.500000
O O2 0.472420 0.095844 0.305379
O O3 0.348092 0.348890 0.570532
O O4 0.500000 0.000000 0.500000
O O5 0.177212 0.652953 0.350740
O O6 0.100710 0.413871 0.474230
O O7 0.009024 0.466104 0.301852
O O8 0.177856 0.101143 0.224406
O O9 0.715456 0.984087 0.637380
O O10 0.707877 0.244613 0.474719
O O11 0.853908 0.887119 0.423437
O O12 0.349252 0.832824 0.755771
O O13 0.498479 0.636909 0.838447
O O14 0.433957 0.168692 0.943389
O O15 0.655590 0.336684 0.872197
O O16 0.657568 0.809311 0.839025
O O17 0.178674 0.630202 0.685477
#
# Coordination Sequence:
#
# PCOD9085746 Si02
#       8
#     2   2   2   2   2   2   2   2
#     4  10  23  38  60  87 123 161 194 244 312 365
#     4   9  18  36  59  96 127 160 197 256 308 380
#     4  10  19  35  62  95 128 159 199 250 317 372
#     4  10  25  43  62  88 127 166 215 259 300 365
#     4  11  22  41  66  92 124 162 212 260 304 363
#     4  10  22  39  57  95 128 164 195 255 317 375
#     4   9  19  32  62  94 128 161 196 246 322 379
#     4  11  25  43  63  90 119 173 219 256 298 355
#
# _framework density 21.278563999999999
#
# number of rings (size 3 to 8) (size 9 to 14) (size 15 to 20)
#    0.000    2.000    1.250    1.125    7.000    7.000 
#    0.000    0.000    0.000    1.500    0.000    0.000 
#    0.000    0.000    0.000    0.000    0.000    0.000 
#
# Total GULP energy -89167.788322 kJ/mol
# GULP energy per Si atom -5572.986770 kJ/mol
# Density = 2.123013 g / cm^3
# Si number density = 21.278564 Si / 1000 Ang^3
#
#
#
# Elastic Constant Matrix: (Units=GPa)
#
#
# Indices 1 2 3 4 5 6 
#
# 1 140.9079 50.4886 43.7851 5.3702 0.8785 -24.6832
# 2 50.4886 124.8392 23.7869 12.0712 -12.6706 -11.0478
# 3 43.7851 23.7869 75.6329 1.7346 -1.5326 -9.9345
# 4 5.3702 12.0712 1.7346 26.2469 -5.5488 -6.4854
# 5 0.8785 -12.6706 -1.5326 -5.5488 22.4443 1.9925
# 6 -24.6832 -11.0478 -9.9345 -6.4854 1.9925 28.6584
#
#
#
# Elastic Compliance Matrix: (Units=1/GPa)
#
#
# Indices 1 2 3 4 5 6 
#
# 1 0.010859 -0.003312 -0.004415 0.000655 -0.003047 0.006906
# 2 -0.003312 0.010369 -0.001211 -0.002991 0.005189 -0.000313
# 3 -0.004415 -0.001211 0.016356 0.000911 0.000693 0.001559
# 4 0.000655 -0.002991 0.000911 0.043232 0.008242 0.008937
# 5 -0.003047 0.005189 0.000693 0.008242 0.049864 -0.001986
# 6 0.006906 -0.000313 0.001559 0.008937 -0.001986 0.043422
#
#
# Mechanical properties :
#
#
# Convention : Reuss Voigt Hill
#
# Bulk Modulus (GPa) = 50.73868 64.16678 57.45273
# Shear Modulus (GPa) = 25.18291 30.35789 27.77040
#
# Velocity S-wave (km/s) = 3.44392 3.78125 3.61652
# Velocity P-wave (km/s) = 6.30165 7.02032 6.67067
#
# Compressibility (1/GPa) = 0.01970883
#
# Stress axis : x y z
#
# Youngs Moduli (GPa) = 92.08879 96.44394 61.13912
#
# Poissons Ratio (x) = 0.31943 0.26990
# Poissons Ratio (y) = 0.30501 0.07404
# Poissons Ratio (z) = 0.40653 0.11679
#
# Static dielectric constant tensor:
#      x y z
#    x 1.946560 0.027420 0.024770 
#    y 0.027420 1.856660 0.013710 
#    z 0.024770 0.013710 1.768620 
# 
# From -- ./inp_files/441424.got.cif
#   From: 2010.05.17/outbox.cif.g08.bks.cpg/sg2_221_cif.got.tgz:441424.got - 2010.06.03 11:33:40.
