data_PCOD9085893
_publ_section_title
;
Structure prediction by ZEFSAII (Michael W. Deem and Ramdas Pophale) SiO2 
 PCOD9085893
Probable space group: P -1
;
_chemical_formula_sum "Si O2"
_cell_formula_units_Z 12
_cell_length_a 14.059957
_cell_length_b 12.056397
_cell_length_c 9.639622
_cell_angle_alpha 103.781454
_cell_angle_beta 137.807115
_cell_angle_gamma 44.905806
_cell_volume 617.272812
_symmetry_space_group_name_H-M "P -1"
_symmetry_group_IT_number 2
_symmetry_cell_setting 'triclinic'
loop_
_space_group_symop_operation_xyz
x,y,z
-x,-y,-z
loop_
_atom_site_type_symbol
_atom_site_label
_atom_site_fract_x
_atom_site_fract_y
_atom_site_fract_z
Si Si1 0.795514 0.696228 0.747317
Si Si2 0.721753 0.323178 0.289779
Si Si3 0.866788 0.477783 0.532176
Si Si4 0.658804 0.763753 0.162850
Si Si5 0.321244 0.059918 0.520160
Si Si6 0.228198 0.934519 0.588972
O O1 0.727993 0.643888 0.545834
O O2 0.856150 0.764555 0.733581
O O3 0.579334 0.877059 0.667863
O O4 0.000000 0.500000 0.000000
O O5 0.821018 0.375842 0.475907
O O6 0.675710 0.256672 0.336285
O O7 0.500000 0.500000 0.000000
O O8 0.945062 0.127320 0.381371
O O9 0.764450 0.583559 0.303000
O O10 0.152018 0.325811 0.781246
O O11 0.661425 0.862868 0.309143
O O12 0.603891 0.098355 0.137263
O O13 0.252224 0.981987 0.482282
#
# Coordination Sequence:
#
# PCOD9085893 Si02
#       6
#     2   2   2   2   2   2
#     4  10  22  36  58  87 119 153 188 243 294 336
#     4  11  23  38  55  89 124 151 191 241 290 351
#     4  10  20  37  61  91 117 150 196 245 286 343
#     4  10  19  35  64  90 115 148 195 249 295 334
#     4  10  21  37  56  90 118 145 194 240 288 350
#     4  11  22  36  61  87 117 158 189 240 299 341
#
# _framework density 19.440349999999999
#
# number of rings (size 3 to 8) (size 9 to 14) (size 15 to 20)
#    0.000    1.667    3.333    1.500    2.333    1.333 
#    0.000    0.833    0.000    2.000    0.000    0.000 
#    0.000    0.000    0.000    0.000    0.000    0.000 
#
# Total GULP energy -66881.814234 kJ/mol
# GULP energy per Si atom -5573.484520 kJ/mol
# Density = 1.939610 g / cm^3
# Si number density = 19.440350 Si / 1000 Ang^3
#
#
#
# Elastic Constant Matrix: (Units=GPa)
#
#
# Indices 1 2 3 4 5 6 
#
# 1 126.8439 43.0782 23.7141 -5.6221 -17.5283 41.7259
# 2 43.0782 80.9383 1.3519 -9.0579 -2.2788 19.9596
# 3 23.7141 1.3519 77.5992 -24.9851 -9.6950 14.9666
# 4 -5.6221 -9.0579 -24.9851 26.3067 8.5317 -5.3110
# 5 -17.5283 -2.2788 -9.6950 8.5317 24.7726 -13.3477
# 6 41.7259 19.9596 14.9666 -5.3110 -13.3477 51.9728
#
#
#
# Elastic Compliance Matrix: (Units=1/GPa)
#
#
# Indices 1 2 3 4 5 6 
#
# 1 0.013299 -0.005984 -0.004000 -0.006253 0.006046 -0.006313
# 2 -0.005984 0.017429 0.004909 0.010705 -0.006484 -0.003874
# 3 -0.004000 0.004909 0.021123 0.021270 -0.003284 -0.003426
# 4 -0.006253 0.010705 0.021270 0.066288 -0.019853 -0.003541
# 5 0.006046 -0.006484 -0.003284 -0.019853 0.055411 0.010784
# 6 -0.006313 -0.003874 -0.003426 -0.003541 0.010784 0.029191
#
#
# Mechanical properties :
#
#
# Convention : Reuss Voigt Hill
#
# Bulk Modulus (GPa) = 23.98064 46.85218 35.41641
# Shear Modulus (GPa) = 22.04672 35.09291 28.56982
#
# Velocity S-wave (km/s) = 3.37125 4.25332 3.83771
# Velocity P-wave (km/s) = 5.24557 6.94794 6.15589
#
# Compressibility (1/GPa) = 0.04170030
#
# Stress axis : x y z
#
# Youngs Moduli (GPa) = 75.19453 57.37622 47.34249
#
# Poissons Ratio (x) = 0.34334 0.18937
# Poissons Ratio (y) = 0.44996 -0.23241
# Poissons Ratio (z) = 0.30078 -0.28166
#
# Static dielectric constant tensor:
#      x y z
#    x 1.737810 0.034780 -0.035730 
#    y 0.034780 1.703860 -0.033160 
#    z -0.035730 -0.033160 1.720250 
# 
# From -- ./inp_files/449123.got.cif
#   From: 2010.05.17/outbox.cif.g08.bks.cpg/sg2_225_cif.got.tgz:449123.got - 2010.06.03 11:33:40.
