data_PCOD9085334
_publ_section_title
;
Structure prediction by ZEFSAII (Michael W. Deem and Ramdas Pophale) SiO2 
 PCOD9085334
Probable space group: P -1
;
_chemical_formula_sum "Si O2"
_cell_formula_units_Z 14
_cell_length_a 17.775501
_cell_length_b 8.238891
_cell_length_c 8.845976
_cell_angle_alpha 115.378946
_cell_angle_beta 39.241051
_cell_angle_gamma 112.074642
_cell_volume 738.238478
_symmetry_space_group_name_H-M "P -1"
_symmetry_group_IT_number 2
_symmetry_cell_setting 'triclinic'
loop_
_space_group_symop_operation_xyz
x,y,z
-x,-y,-z
loop_
_atom_site_type_symbol
_atom_site_label
_atom_site_fract_x
_atom_site_fract_y
_atom_site_fract_z
Si Si1 0.487020 0.863681 0.827021
Si Si2 0.750150 0.058444 0.895436
Si Si3 0.115420 0.232642 0.625940
Si Si4 0.921077 0.615407 0.560804
Si Si5 0.284641 0.576393 0.034375
Si Si6 0.892135 0.975372 0.922589
Si Si7 0.260470 0.262672 0.702839
O O1 0.615527 0.825128 0.551811
O O2 0.414193 0.673209 0.908114
O O3 0.500000 0.000000 0.000000
O O4 0.393605 0.949882 0.893515
O O5 0.806873 0.904364 0.646602
O O6 0.796112 0.055011 0.992547
O O7 0.785305 0.252205 0.841528
O O8 0.064531 0.366188 0.633989
O O9 0.199911 0.312127 0.659175
O O10 0.002757 0.119184 0.830343
O O11 0.785901 0.530269 0.765631
O O12 0.936816 0.813726 0.686764
O O13 0.000000 0.500000 0.500000
O O14 0.284922 0.435343 0.841040
O O15 0.829414 0.882395 0.128062
#
# Coordination Sequence:
#
# PCOD9085334 Si02
#       7
#     2   2   2   2   2   2   2
#     4  10  20  38  64  81 112 150 198 230 274 344
#     4   9  19  37  61  79 114 150 196 220 281 334
#     4  11  20  36  60  87 115 149 193 230 278 342
#     4  10  19  35  60  83 115 152 189 232 282 335
#     4   9  20  36  57  85 114 151 183 236 288 324
#     4  10  21  35  58  86 116 153 188 229 282 341
#     4  11  21  37  56  88 119 147 184 241 286 325
#
# _framework density 18.964061999999998
#
# number of rings (size 3 to 8) (size 9 to 14) (size 15 to 20)
#    0.857    1.143    1.429    4.286    0.000    0.571 
#    0.000   11.429    0.000    0.000    0.000    0.000 
#    0.000    0.000    0.000    0.000    0.000    0.000 
#
# Total GULP energy -77986.243450 kJ/mol
# GULP energy per Si atom -5570.445961 kJ/mol
# Density = 1.892090 g / cm^3
# Si number density = 18.964062 Si / 1000 Ang^3
#
#
#
# Elastic Constant Matrix: (Units=GPa)
#
#
# Indices 1 2 3 4 5 6 
#
# 1 96.6441 35.9652 31.9663 -10.7199 -14.7727 12.4593
# 2 35.9652 70.2907 23.0635 -4.1900 13.1902 12.4592
# 3 31.9663 23.0635 55.8430 -12.9646 0.1026 16.2427
# 4 -10.7199 -4.1900 -12.9646 17.7841 -3.9237 -5.2309
# 5 -14.7727 13.1902 0.1026 -3.9237 22.7515 -0.4021
# 6 12.4593 12.4592 16.2427 -5.2309 -0.4021 24.5580
#
#
#
# Elastic Compliance Matrix: (Units=1/GPa)
#
#
# Indices 1 2 3 4 5 6 
#
# 1 0.021927 -0.013967 -0.004472 0.012684 0.024578 0.002023
# 2 -0.013967 0.028787 -0.004750 -0.013601 -0.028219 -0.007737
# 3 -0.004472 -0.004750 0.029124 0.014489 0.002014 -0.011465
# 4 0.012684 -0.013601 0.014489 0.080365 0.030065 0.008492
# 5 0.024578 -0.028219 0.002014 0.030065 0.081594 0.008255
# 6 0.002023 -0.007737 -0.011465 0.008492 0.008255 0.053145
#
#
# Mechanical properties :
#
#
# Convention : Reuss Voigt Hill
#
# Bulk Modulus (GPa) = 29.88590 44.97418 37.43004
# Shear Modulus (GPa) = 14.18549 21.80424 17.99487
#
# Velocity S-wave (km/s) = 2.73796 3.39450 3.08375
# Velocity P-wave (km/s) = 5.07826 6.25543 5.69733
#
# Compressibility (1/GPa) = 0.03346060
#
# Stress axis : x y z
#
# Youngs Moduli (GPa) = 45.60575 34.73757 34.33611
#
# Poissons Ratio (x) = 0.48516 0.15357
# Poissons Ratio (y) = 0.63695 0.16309
# Poissons Ratio (z) = 0.20397 0.16500
#
# Static dielectric constant tensor:
#      x y z
#    x 1.678870 -0.012250 -0.033320 
#    y -0.012250 1.671310 -0.012430 
#    z -0.033320 -0.012430 1.664000 
# 
# From -- ./inp_files/170013.got.cif
#   From: 2010.05.17/outbox.cif.g08.bks.cpg/sg2_86_cif.got.tgz:170013.got - 2010.06.03 11:33:40.
