data_PCOD9085656
_publ_section_title
;
Structure prediction by ZEFSAII (Michael W. Deem and Ramdas Pophale) SiO2 
 PCOD9085656
Probable space group: P -1
;
_chemical_formula_sum "Si O2"
_cell_formula_units_Z 14
_cell_length_a 16.238178
_cell_length_b 6.806293
_cell_length_c 6.664959
_cell_angle_alpha 69.203239
_cell_angle_beta 125.634951
_cell_angle_gamma 89.247066
_cell_volume 535.704167
_symmetry_space_group_name_H-M "P -1"
_symmetry_group_IT_number 2
_symmetry_cell_setting 'triclinic'
loop_
_space_group_symop_operation_xyz
x,y,z
-x,-y,-z
loop_
_atom_site_type_symbol
_atom_site_label
_atom_site_fract_x
_atom_site_fract_y
_atom_site_fract_z
Si Si1 0.857342 0.514887 0.368347
Si Si2 0.478588 0.793510 0.930901
Si Si3 0.338524 0.484494 0.467282
Si Si4 0.131059 0.842888 0.165912
Si Si5 0.367367 0.297538 0.164072
Si Si6 0.989532 0.342300 0.226538
Si Si7 0.272019 0.073522 0.426852
O O1 0.895330 0.298459 0.637899
O O2 0.901349 0.462774 0.223685
O O3 0.904494 0.695084 0.476227
O O4 0.731619 0.581687 0.157209
O O5 0.529313 0.791808 0.785533
O O6 0.351653 0.860152 0.722127
O O7 0.555796 0.580825 0.225125
O O8 0.500000 0.000000 0.000000
O O9 0.246911 0.704026 0.298648
O O10 0.375757 0.457437 0.299378
O O11 0.279505 0.290908 0.474238
O O12 0.157346 0.051745 0.223826
O O13 0.050446 0.846764 0.868966
O O14 0.327257 0.110313 0.283961
O O15 0.000000 0.500000 0.000000
#
# Coordination Sequence:
#
# PCOD9085656 Si02
#       7
#     2   2   2   2   2   2   2
#     4  10  19  35  62  85 110 151 190 229 284 349
#     4  10  19  37  57  80 114 161 186 230 284 329
#     4   9  20  35  57  77 118 150 184 232 284 322
#     4  11  19  39  57  87 114 147 188 238 284 332
#     4  10  19  37  57  84 113 150 194 228 278 341
#     4   9  19  35  60  84 113 148 186 230 290 341
#     4   9  22  35  57  83 118 147 195 233 275 337
#
# _framework density 26.133825999999999
#
# number of rings (size 3 to 8) (size 9 to 14) (size 15 to 20)
#    0.857    1.429    2.857    0.429    0.000    0.571 
#    5.143    1.429    0.000   29.143    0.000    0.000 
#    0.000    0.000    0.000    0.000    0.000    0.000 
#
# Total GULP energy -78252.978526 kJ/mol
# GULP energy per Si atom -5589.498466 kJ/mol
# Density = 2.607434 g / cm^3
# Si number density = 26.133826 Si / 1000 Ang^3
#
#
#
# Elastic Constant Matrix: (Units=GPa)
#
#
# Indices 1 2 3 4 5 6 
#
# 1 91.6993 30.3193 25.9484 10.6569 -11.9359 -8.4746
# 2 30.3193 81.9773 27.3032 16.7448 10.5588 14.0527
# 3 25.9484 27.3032 125.3246 32.4082 2.7081 5.9692
# 4 10.6569 16.7448 32.4082 29.3570 5.2184 11.8368
# 5 -11.9359 10.5588 2.7081 5.2184 50.4566 4.8328
# 6 -8.4746 14.0527 5.9692 11.8368 4.8328 40.7950
#
#
#
# Elastic Compliance Matrix: (Units=1/GPa)
#
#
# Indices 1 2 3 4 5 6 
#
# 1 0.014773 -0.005881 -0.001139 -0.003935 0.004633 0.005854
# 2 -0.005881 0.016905 -0.001303 -0.003153 -0.004009 -0.005464
# 3 -0.001139 -0.001303 0.011660 -0.012657 0.000483 0.002121
# 4 -0.003935 -0.003153 -0.012657 0.057706 -0.004207 -0.014124
# 5 0.004633 -0.004009 0.000483 -0.004207 0.022079 0.000878
# 6 0.005854 -0.005464 0.002121 -0.014124 0.000878 0.031295
#
#
# Mechanical properties :
#
#
# Convention : Reuss Voigt Hill
#
# Bulk Modulus (GPa) = 37.46340 51.79367 44.62854
# Shear Modulus (GPa) = 27.78365 38.48375 33.13370
#
# Velocity S-wave (km/s) = 3.26410 3.84156 3.56455
# Velocity P-wave (km/s) = 5.34529 6.28796 5.83569
#
# Compressibility (1/GPa) = 0.02669272
#
# Stress axis : x y z
#
# Youngs Moduli (GPa) = 67.68913 59.15489 85.75971
#
# Poissons Ratio (x) = 0.34790 0.09767
# Poissons Ratio (y) = 0.39809 0.11174
# Poissons Ratio (z) = 0.07709 0.07707
#
# Static dielectric constant tensor:
#      x y z
#    x 2.025820 0.016760 0.001680 
#    y 0.016760 2.082990 -0.013820 
#    z 0.001680 -0.013820 2.092770 
# 
# From -- ./inp_files/105060.got.cif
#   From: 2010.05.17/outbox.cif.g08.bks.cpg/sg2_53_cif.got.tgz:105060.got - 2010.06.03 11:33:40.
