data_PCOD9085170
_publ_section_title
;
Structure prediction by ZEFSAII (Michael W. Deem and Ramdas Pophale) SiO2 
 PCOD9085170
Probable space group: P -1
;
_chemical_formula_sum "Si O2"
_cell_formula_units_Z 16
_cell_length_a 22.917867
_cell_length_b 14.593562
_cell_length_c 9.219772
_cell_angle_alpha 133.192878
_cell_angle_beta 142.040810
_cell_angle_gamma 20.966776
_cell_volume 659.639227
_symmetry_space_group_name_H-M "P -1"
_symmetry_group_IT_number 2
_symmetry_cell_setting 'triclinic'
loop_
_space_group_symop_operation_xyz
x,y,z
-x,-y,-z
loop_
_atom_site_type_symbol
_atom_site_label
_atom_site_fract_x
_atom_site_fract_y
_atom_site_fract_z
Si Si1 0.325893 0.572940 0.149029
Si Si2 0.497712 0.379883 0.966742
Si Si3 0.707006 0.901657 0.749665
Si Si4 0.348354 0.289365 0.007810
Si Si5 0.936277 0.202203 0.519593
Si Si6 0.727497 0.662284 0.761021
Si Si7 0.894007 0.959214 0.619394
Si Si8 0.948383 0.485539 0.528168
O O1 0.272397 0.767482 0.329055
O O2 0.469547 0.427826 0.136285
O O3 0.405992 0.367953 0.188195
O O4 0.105284 0.773566 0.889968
O O5 0.286069 0.560645 0.716911
O O6 0.669724 0.086847 0.929966
O O7 0.500000 0.500000 0.000000
O O8 0.733964 0.787434 0.824889
O O9 0.878706 0.653662 0.706732
O O10 0.498938 0.115472 0.486434
O O11 0.239493 0.379764 0.742524
O O12 0.243266 0.390603 0.066858
O O13 0.500000 0.000000 0.000000
O O14 0.897351 0.374780 0.716966
O O15 0.093154 0.031759 0.515169
O O16 0.000000 0.000000 0.500000
O O17 0.888889 0.813728 0.461108
O O18 0.000000 0.500000 0.500000
#
# Coordination Sequence:
#
# PCOD9085170 Si02
#       8
#     2   2   2   2   2   2   2   2
#     4   9  19  34  57  85 110 147 195 235 275 335
#     4  10  22  37  58  83 114 155 189 233 288 343
#     4  10  20  38  60  85 116 150 197 234 287 343
#     4  11  20  36  61  89 113 145 199 239 281 336
#     4  10  19  35  59  84 113 145 191 234 283 335
#     4  10  19  35  64  87 109 149 196 246 273 332
#     4   9  18  36  56  80 112 150 191 230 276 342
#     4  11  23  38  59  85 118 156 185 236 295 344
#
# _framework density 24.255685
#
# number of rings (size 3 to 8) (size 9 to 14) (size 15 to 20)
#    0.000    2.000    2.500    1.500    5.250    1.000 
#    0.000    3.125    0.000    3.000    0.000    0.000 
#    0.000    0.000    0.000    0.000    0.000    0.000 
#
# Total GULP energy -89266.311037 kJ/mol
# GULP energy per Si atom -5579.144440 kJ/mol
# Density = 2.420048 g / cm^3
# Si number density = 24.255685 Si / 1000 Ang^3
#
#
#
# Elastic Constant Matrix: (Units=GPa)
#
#
# Indices 1 2 3 4 5 6 
#
# 1 181.5739 88.0435 41.2249 57.3152 -22.5022 23.7514
# 2 88.0435 188.1884 67.7934 62.2390 -3.3951 8.0210
# 3 41.2249 67.7934 95.9367 35.9055 -15.9073 -2.1285
# 4 57.3152 62.2390 35.9055 66.5135 -7.2473 14.8247
# 5 -22.5022 -3.3951 -15.9073 -7.2473 28.5015 0.5876
# 6 23.7514 8.0210 -2.1285 14.8247 0.5876 52.4034
#
#
#
# Elastic Compliance Matrix: (Units=1/GPa)
#
#
# Indices 1 2 3 4 5 6 
#
# 1 0.009256 -0.002916 0.000708 -0.004374 0.006295 -0.002553
# 2 -0.002916 0.009874 -0.004661 -0.005001 -0.005022 0.001092
# 3 0.000708 -0.004661 0.016613 -0.004871 0.007988 0.002356
# 4 -0.004374 -0.005001 -0.004871 0.027297 0.000280 -0.005175
# 5 0.006295 -0.005022 0.007988 0.000280 0.044036 -0.002333
# 6 -0.002553 0.001092 0.002356 -0.005175 -0.002333 0.021659
#
#
# Mechanical properties :
#
#
# Convention : Reuss Voigt Hill
#
# Bulk Modulus (GPa) = 45.44737 95.53583 70.49160
# Shear Modulus (GPa) = 33.37616 47.39284 40.38450
#
# Velocity S-wave (km/s) = 3.71349 4.42507 4.08481
# Velocity P-wave (km/s) = 6.09624 8.09820 7.16746
#
# Compressibility (1/GPa) = 0.02200347
#
# Stress axis : x y z
#
# Youngs Moduli (GPa) = 108.04349 101.27483 60.19352
#
# Poissons Ratio (x) = 0.29533 -0.04260
# Poissons Ratio (y) = 0.31507 0.28057
# Poissons Ratio (z) = -0.07646 0.47206
#
# Static dielectric constant tensor:
#      x y z
#    x 1.958460 -0.107840 -0.101590 
#    y -0.107840 2.212140 0.211310 
#    z -0.101590 0.211310 2.506630 
# 
# From -- ./inp_files/279394.got.cif
#   From: 2010.05.17/outbox.cif.g08.bks.cpg/sg2_140_cif.got.tgz:279394.got - 2010.06.03 11:33:40.
