data_PCOD9085395
_publ_section_title
;
Structure prediction by ZEFSAII (Michael W. Deem and Ramdas Pophale) SiO2 
 PCOD9085395
Probable space group: P -1
;
_chemical_formula_sum "Si O2"
_cell_formula_units_Z 12
_cell_length_a 11.471153
_cell_length_b 23.669677
_cell_length_c 18.630670
_cell_angle_alpha 162.778872
_cell_angle_beta 150.574076
_cell_angle_gamma 22.039792
_cell_volume 557.265060
_symmetry_space_group_name_H-M "P -1"
_symmetry_group_IT_number 2
_symmetry_cell_setting 'triclinic'
loop_
_space_group_symop_operation_xyz
x,y,z
-x,-y,-z
loop_
_atom_site_type_symbol
_atom_site_label
_atom_site_fract_x
_atom_site_fract_y
_atom_site_fract_z
Si Si1 0.218962 0.491501 0.470907
Si Si2 0.262360 0.576687 0.899964
Si Si3 0.107824 0.231906 0.714921
Si Si4 0.914274 0.152468 0.375555
Si Si5 0.777295 0.000941 0.797342
Si Si6 0.508922 0.568447 0.313268
O O1 0.543143 0.342787 0.421058
O O2 0.314625 0.394395 0.487227
O O3 0.996589 0.453518 0.267743
O O4 0.028155 0.790735 0.733309
O O5 0.432376 0.436224 0.745005
O O6 0.500000 0.500000 0.000000
O O7 0.063334 0.872594 0.138328
O O8 0.056349 0.228913 0.599650
O O9 0.859864 0.228980 0.619401
O O10 0.472723 0.027779 0.678388
O O11 0.000000 0.500000 0.000000
O O12 0.034797 0.134086 0.339266
O O13 0.635785 0.287416 0.058933
#
# Coordination Sequence:
#
# PCOD9085395 Si02
#       6
#     2   2   2   2   2   2
#     4  11  21  37  59  86 116 151 187 230 284 339
#     4  11  23  40  59  82 112 153 194 233 281 336
#     4   9  18  34  57  83 114 149 186 230 279 329
#     4  10  21  37  56  85 119 148 186 235 281 333
#     4  10  19  35  60  88 113 147 187 232 280 336
#     4   9  21  39  58  84 117 148 187 236 282 331
#
# _framework density 21.533738
#
# number of rings (size 3 to 8) (size 9 to 14) (size 15 to 20)
#    0.000    2.000    0.000    3.500    0.000    2.667 
#    0.000   14.167    0.000    0.000    0.000    0.000 
#    0.000    0.000    0.000    0.000    0.000    0.000 
#
# Total GULP energy -66911.751785 kJ/mol
# GULP energy per Si atom -5575.979315 kJ/mol
# Density = 2.148473 g / cm^3
# Si number density = 21.533738 Si / 1000 Ang^3
#
#
#
# Elastic Constant Matrix: (Units=GPa)
#
#
# Indices 1 2 3 4 5 6 
#
# 1 67.3423 39.7579 12.8306 26.8859 -26.8602 -6.6332
# 2 39.7579 17.3111 69.5887 140.7872 -59.3196 -24.3410
# 3 12.8306 69.5887 39.7669 -59.3417 16.3293 7.4016
# 4 26.8859 140.7872 -59.3417 -109.2914 51.4908 3.5771
# 5 -26.8602 -59.3196 16.3293 51.4908 14.4718 4.0707
# 6 -6.6332 -24.3410 7.4016 3.5771 4.0707 23.9122
#
#
#
# Elastic Compliance Matrix: (Units=1/GPa)
#
#
# Indices 1 2 3 4 5 6 
#
# 1 0.026787 -0.011063 0.002263 -0.002763 0.013451 -0.006408
# 2 -0.011063 0.010164 -0.001078 0.007740 -0.007363 0.007707
# 3 0.002263 -0.001078 0.015285 -0.006287 0.006409 -0.005351
# 4 -0.002763 0.007740 -0.006287 0.007004 0.006846 0.006845
# 5 0.013451 -0.007363 0.006409 0.006846 0.035920 -0.012886
# 6 -0.006408 0.007707 -0.005351 0.006845 -0.012886 0.050713
#
#
# Mechanical properties :
#
#
# Convention : Reuss Voigt Hill
#
# Bulk Modulus (GPa) = 30.78764 40.97497 35.88130
# Shear Modulus (GPa) = 28.33557 -14.03196 7.15181
#
# Velocity S-wave (km/s) = 3.63143 -2.55547 1.82440
# Velocity P-wave (km/s) = 5.64902 3.21906 4.59749
#
# Compressibility (1/GPa) = 0.03248057
#
# Stress axis : x y z
#
# Youngs Moduli (GPa) = 37.33159 98.38470 65.42214
#
# Poissons Ratio (x) = 1.08846 -0.14805
# Poissons Ratio (y) = 0.41301 0.07051
# Poissons Ratio (z) = -0.08448 0.10603
#
# Static dielectric constant tensor:
#      x y z
#    x 1.766550 -0.003930 0.006740 
#    y -0.003930 1.786750 -0.021240 
#    z 0.006740 -0.021240 1.822990 
# 
# From -- ./inp_files/146793.got.cif
#   From: 2010.05.17/outbox.cif.g08.bks.cpg/sg2_74_cif.got.tgz:146793.got - 2010.06.03 11:33:40.
