data_PCOD9085090
_publ_section_title
;
Structure prediction by ZEFSAII (Michael W. Deem and Ramdas Pophale) SiO2 
 PCOD9085090
Probable space group: P -1
;
_chemical_formula_sum "Si O2"
_cell_formula_units_Z 14
_cell_length_a 11.988871
_cell_length_b 5.911459
_cell_length_c 15.528951
_cell_angle_alpha 127.285623
_cell_angle_beta 130.582731
_cell_angle_gamma 84.912169
_cell_volume 573.819684
_symmetry_space_group_name_H-M "P -1"
_symmetry_group_IT_number 2
_symmetry_cell_setting 'triclinic'
loop_
_space_group_symop_operation_xyz
x,y,z
-x,-y,-z
loop_
_atom_site_type_symbol
_atom_site_label
_atom_site_fract_x
_atom_site_fract_y
_atom_site_fract_z
Si Si1 0.780089 0.227606 0.550575
Si Si2 0.043212 0.381613 0.585195
Si Si3 0.371951 0.449283 0.003738
Si Si4 0.384145 0.528469 0.745095
Si Si5 0.989159 0.747726 0.175025
Si Si6 0.489505 0.177602 0.302724
Si Si7 0.870190 0.034119 0.881513
O O1 0.937617 0.448362 0.618075
O O2 0.615587 0.264755 0.466859
O O3 0.866070 0.233977 0.685235
O O4 0.698345 0.862667 0.384802
O O5 0.000000 0.500000 0.500000
O O6 0.247522 0.592091 0.738263
O O7 0.000000 0.000000 0.500000
O O8 0.435639 0.307100 0.079791
O O9 0.421586 0.813499 0.144420
O O10 0.500000 0.500000 0.000000
O O11 0.165170 0.249051 0.848966
O O12 0.399974 0.603228 0.670172
O O13 0.081365 0.990999 0.197733
O O14 0.900556 0.395843 0.000925
O O15 0.325439 0.204518 0.247417
O O16 0.000000 0.000000 0.000000
#
# Coordination Sequence:
#
# PCOD9085090 Si02
#       7
#     2   2   2   2   2   2   2
#     4  10  21  37  59  90 120 160 206 259 320 379
#     4  10  19  35  58  89 131 173 205 255 320 388
#     4  10  21  38  60  88 121 158 206 252 316 380
#     4  10  20  36  58  85 123 162 204 256 310 380
#     4  10  22  41  62  87 121 158 208 261 315 382
#     4  10  21  38  61  87 119 158 205 257 316 374
#     4  10  22  42  63  83 116 163 209 260 316 376
#
# _framework density 24.397908000000001
#
# number of rings (size 3 to 8) (size 9 to 14) (size 15 to 20)
#    0.000    2.000    1.429    1.714    0.000    4.571 
#    0.000    1.429    0.000    0.000    0.000    0.000 
#    0.000    0.000    0.000    0.000    0.000    0.000 
#
# Total GULP energy -78070.318425 kJ/mol
# GULP energy per Si atom -5576.451316 kJ/mol
# Density = 2.434238 g / cm^3
# Si number density = 24.397908 Si / 1000 Ang^3
#
#
#
# Elastic Constant Matrix: (Units=GPa)
#
#
# Indices 1 2 3 4 5 6 
#
# 1 165.9949 50.3447 61.9748 -16.2300 29.1790 3.5028
# 2 50.3447 63.9922 15.4347 -29.5241 3.4989 7.3102
# 3 61.9748 15.4347 66.1462 -21.1967 9.3271 -6.9503
# 4 -16.2300 -29.5241 -21.1967 53.7812 -12.7116 -11.1579
# 5 29.1790 3.4989 9.3271 -12.7116 51.7143 -2.7247
# 6 3.5028 7.3102 -6.9503 -11.1579 -2.7247 35.6595
#
#
#
# Elastic Compliance Matrix: (Units=1/GPa)
#
#
# Indices 1 2 3 4 5 6 
#
# 1 0.016398 -0.013477 -0.015456 -0.011924 -0.008814 -0.006265
# 2 -0.013477 0.032280 0.010979 0.020900 0.008791 0.004058
# 3 -0.015456 0.010979 0.033295 0.018714 0.007214 0.012164
# 4 -0.011924 0.020900 0.018714 0.039663 0.012420 0.013894
# 5 -0.008814 0.008791 0.007214 0.012420 0.025801 0.006327
# 6 -0.006265 0.004058 0.012164 0.013894 0.006327 0.035028
#
#
# Mechanical properties :
#
#
# Convention : Reuss Voigt Hill
#
# Bulk Modulus (GPa) = 21.70802 61.29353 41.50078
# Shear Modulus (GPa) = 21.39257 39.45628 30.42442
#
# Velocity S-wave (km/s) = 2.96433 4.02580 3.53513
# Velocity P-wave (km/s) = 4.54237 6.84006 5.80601
#
# Compressibility (1/GPa) = 0.04606592
#
# Stress axis : x y z
#
# Youngs Moduli (GPa) = 60.98442 30.97898 30.03464
#
# Poissons Ratio (x) = 0.41749 0.46420
# Poissons Ratio (y) = 0.82186 -0.32975
# Poissons Ratio (z) = 0.94255 -0.34011
#
# Static dielectric constant tensor:
#      x y z
#    x 1.977640 -0.015190 0.016930 
#    y -0.015190 2.141780 0.053360 
#    z 0.016930 0.053360 1.946900 
# 
# From -- ./inp_files/55550.got.cif
#   From: 2010.05.17/outbox.cif.g08.bks.cpg/sg2_28_cif.got.tgz:55550.got - 2010.06.03 11:33:40.
