data_PCOD9085570
_publ_section_title
;
Structure prediction by ZEFSAII (Michael W. Deem and Ramdas Pophale) SiO2 
 PCOD9085570
Probable space group: P -1
;
_chemical_formula_sum "Si O2"
_cell_formula_units_Z 16
_cell_length_a 18.252583
_cell_length_b 30.149003
_cell_length_c 11.390056
_cell_angle_alpha 20.725323
_cell_angle_beta 149.089453
_cell_angle_gamma 159.125185
_cell_volume 784.055371
_symmetry_space_group_name_H-M "P -1"
_symmetry_group_IT_number 2
_symmetry_cell_setting 'triclinic'
loop_
_space_group_symop_operation_xyz
x,y,z
-x,-y,-z
loop_
_atom_site_type_symbol
_atom_site_label
_atom_site_fract_x
_atom_site_fract_y
_atom_site_fract_z
Si Si1 0.789734 0.441674 0.376875
Si Si2 0.453805 0.339565 0.991747
Si Si3 0.981944 0.529526 0.037507
Si Si4 0.821756 0.818600 0.782833
Si Si5 0.552389 0.164625 0.108199
Si Si6 0.570443 0.387694 0.780499
Si Si7 0.977328 0.280539 0.791517
Si Si8 0.411659 0.128217 0.759628
O O1 0.630398 0.247011 0.705561
O O2 0.000000 0.500000 0.500000
O O3 0.873275 0.601049 0.186255
O O4 0.653923 0.409576 0.161683
O O5 0.442421 0.281206 0.987732
O O6 0.476787 0.504440 0.599923
O O7 0.248845 0.189192 0.163473
O O8 0.916054 0.371318 0.420300
O O9 0.810415 0.527985 0.806063
O O10 0.000000 0.500000 0.000000
O O11 0.220149 0.706087 0.956365
O O12 0.624307 0.745804 0.621421
O O13 0.000000 0.000000 0.500000
O O14 0.886729 0.716212 0.119928
O O15 0.500000 0.000000 0.500000
O O16 0.543485 0.267096 0.940495
O O17 0.402885 0.097389 0.961105
O O18 0.769094 0.070723 0.053673
#
# Coordination Sequence:
#
# PCOD9085570 Si02
#       8
#     2   2   2   2   2   2   2   2
#     4  11  24  40  65  96 129 170 215 265 328 391
#     4  10  22  39  66  94 128 175 218 265 327 392
#     4  10  19  35  61  88 122 170 213 257 318 373
#     4   9  20  37  62  93 125 162 214 262 319 384
#     4  11  22  37  62  98 128 170 219 267 316 393
#     4  10  22  40  64  92 130 173 216 267 326 385
#     4  11  21  39  64  94 128 166 209 277 320 375
#     4  10  22  38  62  99 125 164 216 264 326 382
#
# _framework density 20.406721999999998
#
# number of rings (size 3 to 8) (size 9 to 14) (size 15 to 20)
#    0.000    1.750    1.250    3.750    1.750    2.500 
#    0.000    3.750    0.000    4.500    0.000    0.000 
#    0.000    0.000    0.000    0.000    0.000    0.000 
#
# Total GULP energy -89081.433579 kJ/mol
# GULP energy per Si atom -5567.589599 kJ/mol
# Density = 2.036028 g / cm^3
# Si number density = 20.406722 Si / 1000 Ang^3
#
#
#
# Elastic Constant Matrix: (Units=GPa)
#
#
# Indices 1 2 3 4 5 6 
#
# 1 86.4222 15.9902 27.2541 -4.9297 -23.9770 19.4016
# 2 15.9902 52.7763 29.3129 -8.4289 -10.0610 12.4204
# 3 27.2541 29.3129 88.1658 12.9652 -11.7023 -0.9534
# 4 -4.9297 -8.4289 12.9652 39.8551 -0.7612 -2.7391
# 5 -23.9770 -10.0610 -11.7023 -0.7612 25.0588 8.7962
# 6 19.4016 12.4204 -0.9534 -2.7391 8.7962 38.1259
#
#
#
# Elastic Compliance Matrix: (Units=1/GPa)
#
#
# Indices 1 2 3 4 5 6 
#
# 1 0.029555 0.011071 -0.009196 0.007854 0.038189 -0.027123
# 2 0.011071 0.035778 -0.013808 0.012364 0.026946 -0.022963
# 3 -0.009196 -0.013808 0.019034 -0.009665 -0.009677 0.011192
# 4 0.007854 0.012364 -0.009665 0.031447 0.012001 -0.008776
# 5 0.038189 0.026946 -0.009677 0.012001 0.100974 -0.050888
# 6 -0.027123 -0.022963 0.011192 -0.008776 -0.050888 0.058902
#
#
# Mechanical properties :
#
#
# Convention : Reuss Voigt Hill
#
# Bulk Modulus (GPa) = 16.52868 41.38651 28.95759
# Shear Modulus (GPa) = 15.63850 30.92843 23.28346
#
# Velocity S-wave (km/s) = 2.77129 3.89729 3.38149
# Velocity P-wave (km/s) = 4.28454 6.36999 5.42835
#
# Compressibility (1/GPa) = 0.06050091
#
# Stress axis : x y z
#
# Youngs Moduli (GPa) = 33.83503 27.94981 52.53833
#
# Poissons Ratio (x) = -0.30943 0.48316
# Poissons Ratio (y) = -0.37458 0.72543
# Poissons Ratio (z) = 0.31116 0.38592
#
# Static dielectric constant tensor:
#      x y z
#    x 0.000570 3.266370 4.443260 
#    y 3.266370 -3.856360 -7.756530 
#    z 4.443260 -7.756530 -8.948670 
# 
# From -- ./inp_files/467680.got.cif
#   From: 2010.05.17/outbox.cif.g08.bks.cpg/sg2_234_cif.got.tgz:467680.got - 2010.06.03 11:33:40.
