data_PCOD9085635
_publ_section_title
;
Structure prediction by ZEFSAII (Michael W. Deem and Ramdas Pophale) SiO2 
 PCOD9085635
Probable space group: P -1
;
_chemical_formula_sum "Si O2"
_cell_formula_units_Z 14
_cell_length_a 12.534718
_cell_length_b 18.830618
_cell_length_c 9.594706
_cell_angle_alpha 33.893721
_cell_angle_beta 136.449921
_cell_angle_gamma 152.388650
_cell_volume 584.819428
_symmetry_space_group_name_H-M "P -1"
_symmetry_group_IT_number 2
_symmetry_cell_setting 'triclinic'
loop_
_space_group_symop_operation_xyz
x,y,z
-x,-y,-z
loop_
_atom_site_type_symbol
_atom_site_label
_atom_site_fract_x
_atom_site_fract_y
_atom_site_fract_z
Si Si1 0.308778 0.478950 0.134954
Si Si2 0.134063 0.610038 0.131320
Si Si3 0.079179 0.169424 0.206700
Si Si4 0.799112 0.824472 0.996174
Si Si5 0.709068 0.174758 0.816415
Si Si6 0.405545 0.967740 0.616384
Si Si7 0.906036 0.694266 0.515076
O O1 0.537513 0.702294 0.980053
O O2 0.268418 0.381675 0.401241
O O3 0.277638 0.363623 0.164966
O O4 0.087278 0.434562 0.000408
O O5 0.203700 0.652117 0.291971
O O6 0.074764 0.442299 0.278304
O O7 0.324763 0.794856 0.912104
O O8 0.887499 0.163960 0.004186
O O9 0.000000 0.000000 0.500000
O O10 0.150896 0.154680 0.151804
O O11 0.806728 0.686205 0.290948
O O12 0.000000 0.000000 0.000000
O O13 0.604797 0.145171 0.615466
O O14 0.500000 0.000000 0.000000
O O15 0.162708 0.893764 0.482827
O O16 0.500000 0.000000 0.500000
#
# Coordination Sequence:
#
# PCOD9085635 Si02
#       7
#     2   2   2   2   2   2   2
#     4  10  22  44  66  92 133 174 217 270 326 391
#     4   9  21  41  64  92 130 173 213 263 327 387
#     4  11  24  45  67  95 132 173 218 270 330 398
#     4  12  27  44  65  96 128 173 226 276 332 393
#     4   9  20  39  64  93 125 163 209 257 317 384
#     4  10  19  35  61  96 130 164 207 260 313 379
#     4  11  23  42  66  96 131 172 215 268 330 392
#
# _framework density 23.939012999999999
#
# number of rings (size 3 to 8) (size 9 to 14) (size 15 to 20)
#    0.000    1.714    0.000    5.143    0.000    8.000 
#    0.000   10.714    0.000    0.000    0.000    0.000 
#    0.000    0.000    0.000    0.000    0.000    0.000 
#
# Total GULP energy -78186.005959 kJ/mol
# GULP energy per Si atom -5584.714711 kJ/mol
# Density = 2.388453 g / cm^3
# Si number density = 23.939013 Si / 1000 Ang^3
#
#
#
# Elastic Constant Matrix: (Units=GPa)
#
#
# Indices 1 2 3 4 5 6 
#
# 1 138.5801 65.8422 33.4903 1.3564 -44.5573 -24.6198
# 2 65.8422 152.9860 22.9661 8.8063 -30.3677 -22.9504
# 3 33.4903 22.9661 58.0580 24.3743 -33.8392 -11.0646
# 4 1.3564 8.8063 24.3743 41.3890 -8.5887 -10.4692
# 5 -44.5573 -30.3677 -33.8392 -8.5887 49.2339 2.0190
# 6 -24.6198 -22.9504 -11.0646 -10.4692 2.0190 47.4938
#
#
#
# Elastic Compliance Matrix: (Units=1/GPa)
#
#
# Indices 1 2 3 4 5 6 
#
# 1 0.012934 -0.002897 -0.001778 0.004554 0.009265 0.005500
# 2 -0.002897 0.008704 0.000978 -0.001032 0.003133 0.002571
# 3 -0.001778 0.000978 0.039210 -0.017552 0.022724 0.003851
# 4 0.004554 -0.001032 -0.017552 0.035465 -0.002626 0.005702
# 5 0.009265 0.003133 0.022724 -0.002626 0.045415 0.009101
# 6 0.005500 0.002571 0.003851 0.005702 0.009101 0.026916
#
#
# Mechanical properties :
#
#
# Convention : Reuss Voigt Hill
#
# Bulk Modulus (GPa) = 18.70842 66.02457 42.36650
# Shear Modulus (GPa) = 25.79220 42.77839 34.28529
#
# Velocity S-wave (km/s) = 3.28596 4.23185 3.78854
# Velocity P-wave (km/s) = 4.71473 7.17762 6.07235
#
# Compressibility (1/GPa) = 0.05345187
#
# Stress axis : x y z
#
# Youngs Moduli (GPa) = 77.31641 114.89298 25.50362
#
# Poissons Ratio (x) = 0.33290 0.04535
# Poissons Ratio (y) = 0.22402 -0.02494
# Poissons Ratio (z) = 0.13748 -0.11234
#
# Static dielectric constant tensor:
#      x y z
#    x 1.885640 -0.049390 0.001200 
#    y -0.049390 2.139090 0.000800 
#    z 0.001200 0.000800 2.080030 
# 
# From -- ./inp_files/278839.got.cif
#   From: 2010.05.17/outbox.cif.g08.bks.cpg/sg2_140_cif.got.tgz:278839.got - 2010.06.03 11:33:40.
