data_PCOD9085521
_publ_section_title
;
Structure prediction by ZEFSAII (Michael W. Deem and Ramdas Pophale) SiO2 
 PCOD9085521
Probable space group: P -1
;
_chemical_formula_sum "Si O2"
_cell_formula_units_Z 16
_cell_length_a 16.171561
_cell_length_b 22.574958
_cell_length_c 9.512168
_cell_angle_alpha 36.423748
_cell_angle_beta 141.983547
_cell_angle_gamma 155.512018
_cell_volume 832.587546
_symmetry_space_group_name_H-M "P -1"
_symmetry_group_IT_number 2
_symmetry_cell_setting 'triclinic'
loop_
_space_group_symop_operation_xyz
x,y,z
-x,-y,-z
loop_
_atom_site_type_symbol
_atom_site_label
_atom_site_fract_x
_atom_site_fract_y
_atom_site_fract_z
Si Si1 0.708500 0.126266 0.630605
Si Si2 0.888826 0.322402 0.024584
Si Si3 0.416561 0.868627 0.244730
Si Si4 0.822825 0.676208 0.540577
Si Si5 0.467538 0.322773 0.831057
Si Si6 0.743257 0.319062 0.115559
Si Si7 0.307167 0.145416 0.226287
Si Si8 0.993581 0.853700 0.156235
O O1 0.653606 0.115510 0.737878
O O2 0.793981 0.276531 0.393807
O O3 0.872853 0.132873 0.801926
O O4 0.500000 0.000000 0.500000
O O5 0.773624 0.285940 0.799066
O O6 0.082918 0.499052 0.988030
O O7 0.748875 0.259648 0.093696
O O8 0.973295 0.257364 0.250329
O O9 0.574219 0.868938 0.495062
O O10 0.500000 0.000000 0.000000
O O11 0.639585 0.499335 0.678493
O O12 0.748601 0.744165 0.357917
O O13 0.867108 0.709928 0.368176
O O14 0.527659 0.254849 0.964239
O O15 0.461822 0.290538 0.050016
O O16 0.156767 0.999931 0.198103
O O17 0.165824 0.150828 0.099025
#
# Coordination Sequence:
#
# PCOD9085521 Si02
#       8
#     2   2   2   2   2   2   2   2
#     4  12  21  37  60  85 112 149 197 236 285 347
#     4  10  21  35  56  86 117 150 186 240 287 339
#     4  12  24  38  56  85 120 150 188 245 295 334
#     4   9  17  32  56  83 115 143 191 232 283 332
#     4   9  17  32  56  85 109 149 190 235 272 343
#     4  10  19  36  58  84 111 151 199 228 281 345
#     4  10  20  36  57  85 115 149 191 235 289 338
#     4  10  19  35  61  85 110 149 195 237 277 348
#
# _framework density 19.217198
#
# number of rings (size 3 to 8) (size 9 to 14) (size 15 to 20)
#    0.000    1.750    3.750    1.500    0.000    0.500 
#    0.000    1.875    0.000    0.750    0.000    0.000 
#    0.000    0.000    0.000    0.000    0.000    0.000 
#
# Total GULP energy -89110.599610 kJ/mol
# GULP energy per Si atom -5569.412476 kJ/mol
# Density = 1.917346 g / cm^3
# Si number density = 19.217198 Si / 1000 Ang^3
#
#
#
# Elastic Constant Matrix: (Units=GPa)
#
#
# Indices 1 2 3 4 5 6 
#
# 1 165.0911 30.8108 83.8304 19.0345 21.5173 19.1200
# 2 30.8108 36.0790 26.0032 6.8763 1.2626 4.8025
# 3 83.8304 26.0032 147.2077 16.4849 27.0711 13.1736
# 4 19.0345 6.8763 16.4849 34.4596 12.7276 -2.3454
# 5 21.5173 1.2626 27.0711 12.7276 45.1126 7.8905
# 6 19.1200 4.8025 13.1736 -2.3454 7.8905 16.8532
#
#
#
# Elastic Compliance Matrix: (Units=1/GPa)
#
#
# Indices 1 2 3 4 5 6 
#
# 1 0.010122 -0.004121 -0.003965 -0.003378 -0.000040 -0.007661
# 2 -0.004121 0.035693 -0.003884 -0.005585 0.005925 -0.006011
# 3 -0.003965 -0.003884 0.010638 -0.000700 -0.004025 -0.000924
# 4 -0.003378 -0.005585 -0.000700 0.037639 -0.011319 0.016509
# 5 -0.000040 0.005925 -0.004025 -0.011319 0.030107 -0.014167
# 6 -0.007661 -0.006011 -0.000924 0.016509 -0.014167 0.079392
#
#
# Mechanical properties :
#
#
# Convention : Reuss Voigt Hill
#
# Bulk Modulus (GPa) = 30.75715 69.96296 50.36006
# Shear Modulus (GPa) = 20.97588 33.13397 27.05493
#
# Velocity S-wave (km/s) = 3.30739 4.15683 3.75620
# Velocity P-wave (km/s) = 5.53398 7.71521 6.71377
#
# Compressibility (1/GPa) = 0.03251276
#
# Stress axis : x y z
#
# Youngs Moduli (GPa) = 98.79882 28.01671 94.00006
#
# Poissons Ratio (x) = 0.11546 0.37268
# Poissons Ratio (y) = 0.40716 0.36512
# Poissons Ratio (z) = 0.39171 0.10882
#
# Static dielectric constant tensor:
#      x y z
#    x 1.705880 0.072250 0.023100 
#    y 0.072250 1.752780 -0.070090 
#    z 0.023100 -0.070090 1.708000 
# 
# From -- ./inp_files/267911.got.cif
#   From: 2010.05.17/outbox.cif.g08.bks.cpg/sg2_134_cif.got.tgz:267911.got - 2010.06.03 11:33:40.
