data_PCOD9085813
_publ_section_title
;
Structure prediction by ZEFSAII (Michael W. Deem and Ramdas Pophale) SiO2 
 PCOD9085813
Probable space group: P -1
;
_chemical_formula_sum "Si O2"
_cell_formula_units_Z 16
_cell_length_a 15.089539
_cell_length_b 8.900688
_cell_length_c 15.089952
_cell_angle_alpha 147.638590
_cell_angle_beta 41.335356
_cell_angle_gamma 133.512135
_cell_volume 707.981970
_symmetry_space_group_name_H-M "P -1"
_symmetry_group_IT_number 2
_symmetry_cell_setting 'triclinic'
loop_
_space_group_symop_operation_xyz
x,y,z
-x,-y,-z
loop_
_atom_site_type_symbol
_atom_site_label
_atom_site_fract_x
_atom_site_fract_y
_atom_site_fract_z
Si Si1 0.473126 0.399768 0.799798
Si Si2 0.597400 0.099883 0.260974
Si Si3 0.958726 0.756018 0.978907
Si Si4 0.745209 0.680384 0.819003
Si Si5 0.282029 0.345720 0.761791
Si Si6 0.227410 0.677290 0.209163
Si Si7 0.322470 0.258220 0.484326
Si Si8 0.880499 0.234927 0.975995
O O1 0.628309 0.537726 0.769400
O O2 0.420780 0.363178 0.720340
O O3 0.448720 0.099740 0.720254
O O4 0.366327 0.584916 0.018215
O O5 0.471505 0.168597 0.331071
O O6 0.666364 0.417724 0.392823
O O7 0.675072 0.900801 0.042023
O O8 0.837764 0.814489 0.165685
O O9 0.092715 0.748698 0.931009
O O10 0.894018 0.476253 0.836254
O O11 0.000000 0.000000 0.000000
O O12 0.783567 0.452816 0.747647
O O13 0.870351 0.900931 0.794516
O O14 0.280412 0.233381 0.607407
O O15 0.243559 0.659074 0.929115
O O16 0.233222 0.013131 0.374634
O O17 0.000000 0.500000 0.000000
#
# Coordination Sequence:
#
# PCOD9085813 Si02
#       8
#     2   2   2   2   2   2   2   2
#     4  10  20  37  60  91 114 159 206 228 289 361
#     4  10  20  34  60  84 126 164 184 230 300 377
#     4  10  20  39  66  85 106 159 215 243 286 346
#     4  11  17  36  63  87 115 155 204 236 278 360
#     4  10  23  36  59  86 125 152 192 250 298 350
#     4  10  19  35  63  91 112 152 202 246 276 363
#     4  11  20  37  56  90 128 153 182 245 317 340
#     4  10  21  38  58  86 117 151 202 250 293 326
#
# _framework density 22.599446
#
# number of rings (size 3 to 8) (size 9 to 14) (size 15 to 20)
#    0.000    1.750    5.000    0.750    0.000    1.000 
#    0.000    2.500    0.000    0.000    0.000    0.000 
#    0.000    0.000    0.000    0.000    0.000    0.000 
#
# Total GULP energy -89169.772123 kJ/mol
# GULP energy per Si atom -5573.110758 kJ/mol
# Density = 2.254801 g / cm^3
# Si number density = 22.599446 Si / 1000 Ang^3
#
#
#
# Elastic Constant Matrix: (Units=GPa)
#
#
# Indices 1 2 3 4 5 6 
#
# 1 113.8222 34.6666 5.8917 20.5309 14.2038 8.7019
# 2 34.6666 113.4051 37.4194 34.1044 17.6882 3.1615
# 3 5.8917 37.4194 61.4062 33.9778 17.7265 7.6653
# 4 20.5309 34.1044 33.9778 36.2201 4.6209 1.9185
# 5 14.2038 17.6882 17.7265 4.6209 25.8280 11.3352
# 6 8.7019 3.1615 7.6653 1.9185 11.3352 34.6297
#
#
#
# Elastic Compliance Matrix: (Units=1/GPa)
#
#
# Indices 1 2 3 4 5 6 
#
# 1 0.012696 -0.001410 0.010943 -0.014749 -0.010322 -0.001288
# 2 -0.001410 0.013774 -0.000212 -0.011133 -0.007491 0.002213
# 3 0.010943 -0.000212 0.054097 -0.052466 -0.033207 -0.000929
# 4 -0.014749 -0.011133 -0.052466 0.091147 0.035597 -0.000366
# 5 -0.010322 -0.007491 -0.033207 0.035597 0.072573 -0.015099
# 6 -0.001288 0.002213 -0.000929 -0.000366 -0.015099 0.034167
#
#
# Mechanical properties :
#
#
# Convention : Reuss Voigt Hill
#
# Bulk Modulus (GPa) = 10.07986 49.39878 29.73932
# Shear Modulus (GPa) = 17.07178 33.37926 25.22552
#
# Velocity S-wave (km/s) = 2.75145 3.84734 3.34458
# Velocity P-wave (km/s) = 3.81626 6.45305 5.30121
#
# Compressibility (1/GPa) = 0.09920769
#
# Stress axis : x y z
#
# Youngs Moduli (GPa) = 78.76722 72.60299 18.48536
#
# Poissons Ratio (x) = 0.10239 -0.20228
# Poissons Ratio (y) = 0.11109 0.00391
# Poissons Ratio (z) = -0.86193 0.01537
#
# Static dielectric constant tensor:
#      x y z
#    x 1.833650 0.058220 -0.018520 
#    y 0.058220 2.060710 -0.082930 
#    z -0.018520 -0.082930 1.855610 
# 
# From -- ./inp_files/206075.got.cif
#   From: 2010.05.17/outbox.cif.g08.bks.cpg/sg2_104_cif.got.tgz:206075.got - 2010.06.03 11:33:40.
