data_PCOD9085109
_publ_section_title
;
Structure prediction by ZEFSAII (Michael W. Deem and Ramdas Pophale) SiO2 
 PCOD9085109
Probable space group: P -1
;
_chemical_formula_sum "Si O2"
_cell_formula_units_Z 16
_cell_length_a 11.673521
_cell_length_b 25.299722
_cell_length_c 10.079161
_cell_angle_alpha 145.635902
_cell_angle_beta 49.003372
_cell_angle_gamma 151.702701
_cell_volume 768.109114
_symmetry_space_group_name_H-M "P -1"
_symmetry_group_IT_number 2
_symmetry_cell_setting 'triclinic'
loop_
_space_group_symop_operation_xyz
x,y,z
-x,-y,-z
loop_
_atom_site_type_symbol
_atom_site_label
_atom_site_fract_x
_atom_site_fract_y
_atom_site_fract_z
Si Si1 0.180953 0.215958 0.925486
Si Si2 0.724707 0.951373 0.095775
Si Si3 0.519646 0.003009 0.758591
Si Si4 0.671353 0.510278 0.654652
Si Si5 0.142387 0.989338 0.475537
Si Si6 0.596574 0.771296 0.552728
Si Si7 0.248924 0.759798 0.689310
Si Si8 0.729340 0.761610 0.797960
O O1 0.910391 0.073769 0.765632
O O2 0.275120 0.155230 0.715766
O O3 0.311262 0.370165 0.083356
O O4 0.185877 0.234972 0.117588
O O5 0.587556 0.981706 0.240589
O O6 0.673878 0.873038 0.831514
O O7 0.654459 0.835410 0.012848
O O8 0.019147 0.116020 0.227506
O O9 0.323358 0.849300 0.681762
O O10 0.703668 0.016027 0.584377
O O11 0.663974 0.136997 0.035285
O O12 0.553243 0.391735 0.616617
O O13 0.490553 0.403032 0.444654
O O14 0.949007 0.608087 0.613964
O O15 0.862291 0.867579 0.491173
O O16 0.404485 0.739689 0.546386
#
# Coordination Sequence:
#
# PCOD9085109 Si02
#       8
#     2   2   2   2   2   2   2   2
#     4  11  21  36  58  87 116 158 199 236 293 350
#     4   9  19  37  63  90 112 156 206 247 286 343
#     4  10  20  35  62  89 117 153 205 247 287 346
#     4  11  22  36  61  92 121 155 195 250 299 345
#     4  11  22  38  62  88 120 160 194 247 294 358
#     4  10  21  37  62  91 123 152 194 251 302 346
#     4  10  19  35  58  92 120 149 201 251 292 343
#     4  10  20  37  62  87 120 153 201 248 289 349
#
# _framework density 20.830375
#
# number of rings (size 3 to 8) (size 9 to 14) (size 15 to 20)
#    0.000    1.750    2.500    3.000    3.500    0.500 
#    0.000    0.625    0.000    3.750    0.000    0.000 
#    0.000    0.000    0.000    0.000    0.000    0.000 
#
# Total GULP energy -89231.867774 kJ/mol
# GULP energy per Si atom -5576.991736 kJ/mol
# Density = 2.078296 g / cm^3
# Si number density = 20.830375 Si / 1000 Ang^3
#
#
#
# Elastic Constant Matrix: (Units=GPa)
#
#
# Indices 1 2 3 4 5 6 
#
# 1 121.9169 28.2331 48.5035 0.7306 -35.5508 22.0346
# 2 28.2331 84.1111 44.7769 16.1694 -17.1354 15.2060
# 3 48.5035 44.7769 108.0008 20.9306 -27.4278 10.4211
# 4 0.7306 16.1694 20.9306 29.8844 1.2521 -2.7772
# 5 -35.5508 -17.1354 -27.4278 1.2521 45.6942 -5.9090
# 6 22.0346 15.2060 10.4211 -2.7772 -5.9090 28.1769
#
#
#
# Elastic Compliance Matrix: (Units=1/GPa)
#
#
# Indices 1 2 3 4 5 6 
#
# 1 0.012960 0.000074 -0.003615 0.001209 0.006969 -0.007257
# 2 0.000074 0.017726 -0.004331 -0.007446 0.003265 -0.008071
# 3 -0.003615 -0.004331 0.015764 -0.008869 0.005210 -0.000447
# 4 0.001209 -0.007446 -0.008869 0.044835 -0.007206 0.009261
# 5 0.006969 0.003265 0.005210 -0.007206 0.031435 -0.003257
# 6 -0.007257 -0.008071 -0.000447 0.009261 -0.003257 0.045916
#
#
# Mechanical properties :
#
#
# Convention : Reuss Voigt Hill
#
# Bulk Modulus (GPa) = 32.56897 61.89510 47.23203
# Shear Modulus (GPa) = 25.69174 33.58544 29.63859
#
# Velocity S-wave (km/s) = 3.51576 4.01974 3.77617
# Velocity P-wave (km/s) = 5.67010 7.16399 6.46037
#
# Compressibility (1/GPa) = 0.03070408
#
# Stress axis : x y z
#
# Youngs Moduli (GPa) = 77.16037 56.41544 63.43750
#
# Poissons Ratio (x) = -0.00415 0.22933
# Poissons Ratio (y) = -0.00568 0.27476
# Poissons Ratio (z) = 0.27894 0.24434
#
# Static dielectric constant tensor:
#      x y z
#    x 1.799880 -0.037760 -0.012300 
#    y -0.037760 1.788630 -0.045730 
#    z -0.012300 -0.045730 1.771550 
# 
# From -- ./inp_files/279512.got.cif
#   From: 2010.05.17/outbox.cif.g08.bks.cpg/sg2_140_cif.got.tgz:279512.got - 2010.06.03 11:33:40.
