data_PCOD9085610
_publ_section_title
;
Structure prediction by ZEFSAII (Michael W. Deem and Ramdas Pophale) SiO2 
 PCOD9085610
Probable space group: P -1
;
_chemical_formula_sum "Si O2"
_cell_formula_units_Z 16
_cell_length_a 10.621426
_cell_length_b 10.890031
_cell_length_c 10.246222
_cell_angle_alpha 36.460871
_cell_angle_beta 66.963005
_cell_angle_gamma 57.331139
_cell_volume 590.714832
_symmetry_space_group_name_H-M "P -1"
_symmetry_group_IT_number 2
_symmetry_cell_setting 'triclinic'
loop_
_space_group_symop_operation_xyz
x,y,z
-x,-y,-z
loop_
_atom_site_type_symbol
_atom_site_label
_atom_site_fract_x
_atom_site_fract_y
_atom_site_fract_z
Si Si1 0.750513 0.268932 0.792319
Si Si2 0.934996 0.572867 0.817681
Si Si3 0.032813 0.963111 0.338175
Si Si4 0.240231 0.769849 0.642435
Si Si5 0.019687 0.298592 0.769134
Si Si6 0.420232 0.275606 0.872822
Si Si7 0.616456 0.918415 0.687977
Si Si8 0.335721 0.198152 0.678545
O O1 0.863327 0.131582 0.747345
O O2 0.881206 0.227382 0.882979
O O3 0.590727 0.249148 0.855570
O O4 0.697804 0.544737 0.568550
O O5 0.022015 0.375710 0.849520
O O6 0.751948 0.690196 0.777971
O O7 0.980186 0.766644 0.570848
O O8 0.000000 0.500000 0.000000
O O9 0.147817 0.952289 0.414180
O O10 0.880872 0.190244 0.228662
O O11 0.315836 0.533193 0.739738
O O12 0.358377 0.865488 0.556801
O O13 0.000000 0.500000 0.500000
O O14 0.191131 0.140296 0.801021
O O15 0.394104 0.213532 0.790054
O O16 0.371122 0.130916 0.118687
O O17 0.435508 0.024265 0.674105
#
# Coordination Sequence:
#
# PCOD9085610 Si02
#       8
#     2   2   2   2   2   2   2   2
#     4  11  21  39  67  94 132 174 224 278 332 397
#     4  11  21  39  64  98 138 174 221 282 334 394
#     4  10  19  35  61  92 129 170 221 272 330 392
#     4  10  20  36  59  94 131 166 224 276 326 392
#     4  10  21  40  67  96 131 180 227 270 335 406
#     4  12  22  40  65  97 135 176 219 282 331 396
#     4  11  24  36  61  99 130 170 223 279 334 390
#     4  11  20  39  62  95 131 170 226 271 326 395
#
# _framework density 27.085829
#
# number of rings (size 3 to 8) (size 9 to 14) (size 15 to 20)
#    0.000    1.250    5.000    3.000    0.000    0.000 
#    0.000    6.250    0.000    0.000    0.000    0.000 
#    0.000    0.000    0.000    0.000    0.000    0.000 
#
# Total GULP energy -89196.454003 kJ/mol
# GULP energy per Si atom -5574.778375 kJ/mol
# Density = 2.702418 g / cm^3
# Si number density = 27.085829 Si / 1000 Ang^3
#
#
#
# Elastic Constant Matrix: (Units=GPa)
#
#
# Indices 1 2 3 4 5 6 
#
# 1 142.8211 45.0326 22.3135 7.9734 -27.8435 -28.2885
# 2 45.0326 180.5940 17.2955 -7.1929 -13.4789 -44.3222
# 3 22.3135 17.2955 53.1062 1.1808 -16.4528 -11.1842
# 4 7.9734 -7.1929 1.1808 44.7290 -6.9126 -0.4709
# 5 -27.8435 -13.4789 -16.4528 -6.9126 42.8365 3.0336
# 6 -28.2885 -44.3222 -11.1842 -0.4709 3.0336 54.9158
#
#
#
# Elastic Compliance Matrix: (Units=1/GPa)
#
#
# Indices 1 2 3 4 5 6 
#
# 1 0.009176 -0.001023 -0.001326 -0.000998 0.004734 0.003361
# 2 -0.001023 0.007276 -0.000468 0.001626 0.001340 0.005190
# 3 -0.001326 -0.000468 0.022515 0.000765 0.007542 0.003115
# 4 -0.000998 0.001626 0.000765 0.023383 0.003864 0.000941
# 5 0.004734 0.001340 0.007542 0.003864 0.030121 0.003425
# 6 0.003361 0.005190 0.003115 0.000941 0.003425 0.024583
#
#
# Mechanical properties :
#
#
# Convention : Reuss Voigt Hill
#
# Bulk Modulus (GPa) = 29.99910 60.64496 45.32203
# Shear Modulus (GPa) = 37.37003 47.95490 42.66247
#
# Velocity S-wave (km/s) = 3.71845 4.21227 3.97304
# Velocity P-wave (km/s) = 5.43465 6.78942 6.14945
#
# Compressibility (1/GPa) = 0.03333433
#
# Stress axis : x y z
#
# Youngs Moduli (GPa) = 108.98325 137.44556 44.41483
#
# Poissons Ratio (x) = 0.14055 0.05887
# Poissons Ratio (y) = 0.11144 0.02078
# Poissons Ratio (z) = 0.14446 0.06431
#
# Static dielectric constant tensor:
#      x y z
#    x 2.311820 -0.036010 -0.041010 
#    y -0.036010 2.158140 -0.192060 
#    z -0.041010 -0.192060 2.425390 
# 
# From -- ./inp_files/427363.got.cif
#   From: 2010.05.17/outbox.cif.g08.bks.cpg/sg2_214_cif.got.tgz:427363.got - 2010.06.03 11:33:40.
