data_PCOD9085730
_publ_section_title
;
Structure prediction by ZEFSAII (Michael W. Deem and Ramdas Pophale) SiO2 
 PCOD9085730
Probable space group: P -1
;
_chemical_formula_sum "Si O2"
_cell_formula_units_Z 12
_cell_length_a 9.208944
_cell_length_b 9.301854
_cell_length_c 10.111061
_cell_angle_alpha 56.543136
_cell_angle_beta 98.777679
_cell_angle_gamma 129.972662
_cell_volume 525.525849
_symmetry_space_group_name_H-M "P -1"
_symmetry_group_IT_number 2
_symmetry_cell_setting 'triclinic'
loop_
_space_group_symop_operation_xyz
x,y,z
-x,-y,-z
loop_
_atom_site_type_symbol
_atom_site_label
_atom_site_fract_x
_atom_site_fract_y
_atom_site_fract_z
Si Si1 0.683956 0.096886 0.882671
Si Si2 0.928186 0.073371 0.274539
Si Si3 0.260774 0.247869 0.834265
Si Si4 0.922362 0.583152 0.104523
Si Si5 0.499501 0.905498 0.687367
Si Si6 0.676615 0.752855 0.631632
O O1 0.894934 0.350412 0.820532
O O2 0.617495 0.085661 0.731106
O O3 0.500000 0.000000 0.000000
O O4 0.718397 0.918811 0.002964
O O5 0.978124 0.276903 0.088712
O O6 0.129870 0.196694 0.320174
O O7 0.866246 0.883789 0.250138
O O8 0.749327 0.925946 0.430091
O O9 0.160312 0.313646 0.879032
O O10 0.483502 0.486460 0.706694
O O11 0.726635 0.315587 0.193180
O O12 0.610460 0.814960 0.715276
O O13 0.500000 0.000000 0.500000
#
# Coordination Sequence:
#
# PCOD9085730 Si02
#       6
#     2   2   2   2   2   2
#     4  11  24  41  64  95 124 160 204 252 308 366
#     4  10  19  35  62  93 117 150 205 258 298 351
#     4  10  20  39  65  86 120 160 207 249 297 362
#     4  10  22  42  67  86 119 168 211 244 303 364
#     4  11  25  42  61  88 128 165 201 251 306 367
#     4  10  21  37  60  93 119 156 205 253 301 352
#
# _framework density 22.834274000000001
#
# number of rings (size 3 to 8) (size 9 to 14) (size 15 to 20)
#    0.000    1.667    0.000    5.500    4.667    4.000 
#    6.000    0.000    0.000    0.000    0.000    0.000 
#    0.000    0.000    0.000    0.000    0.000    0.000 
#
# Total GULP energy -67107.717742 kJ/mol
# GULP energy per Si atom -5592.309812 kJ/mol
# Density = 2.278230 g / cm^3
# Si number density = 22.834274 Si / 1000 Ang^3
#
#
#
# Elastic Constant Matrix: (Units=GPa)
#
#
# Indices 1 2 3 4 5 6 
#
# 1 99.4035 29.8247 20.5465 0.1925 -18.9030 19.3461
# 2 29.8247 71.3543 46.2376 5.1211 -10.3053 38.7842
# 3 20.5465 46.2376 104.7076 14.3485 -23.2376 22.6888
# 4 0.1925 5.1211 14.3485 34.1806 2.8522 -6.2029
# 5 -18.9030 -10.3053 -23.2376 2.8522 32.7143 -5.0281
# 6 19.3461 38.7842 22.6888 -6.2029 -5.0281 46.0115
#
#
#
# Elastic Compliance Matrix: (Units=1/GPa)
#
#
# Indices 1 2 3 4 5 6 
#
# 1 0.012674 -0.004072 0.001378 -0.000963 0.006802 -0.001962
# 2 -0.004072 0.034842 -0.008698 -0.005882 -0.000769 -0.024245
# 3 0.001378 -0.008698 0.016578 -0.006738 0.010233 -0.001212
# 4 -0.000963 -0.005882 -0.006738 0.035961 -0.008392 0.012616
# 5 0.006802 -0.000769 0.010233 -0.008392 0.041666 -0.003835
# 6 -0.001962 -0.024245 -0.001212 0.012616 -0.003835 0.044875
#
#
# Mechanical properties :
#
#
# Convention : Reuss Voigt Hill
#
# Bulk Modulus (GPa) = 24.20736 52.07590 38.14163
# Shear Modulus (GPa) = 22.40627 34.50504 28.45565
#
# Velocity S-wave (km/s) = 3.13590 3.89151 3.53396
# Velocity P-wave (km/s) = 4.87198 6.56105 5.77856
#
# Compressibility (1/GPa) = 0.04130975
#
# Stress axis : x y z
#
# Youngs Moduli (GPa) = 78.89965 28.70078 60.32107
#
# Poissons Ratio (x) = 0.11688 -0.08313
# Poissons Ratio (y) = 0.32131 0.52468
# Poissons Ratio (z) = -0.10873 0.24964
#
# Static dielectric constant tensor:
#      x y z
#    x 1.863390 -0.044610 0.027170 
#    y -0.044610 1.858380 -0.019630 
#    z 0.027170 -0.019630 1.837370 
# 
# From -- ./inp_files/381428.got.cif
#   From: 2010.05.17/outbox.cif.g08.bks.cpg/sg2_191_cif.got.tgz:381428.got - 2010.06.03 11:33:40.
