data_PCOD9085447
_publ_section_title
;
Structure prediction by ZEFSAII (Michael W. Deem and Ramdas Pophale) SiO2 
 PCOD9085447
Probable space group: P -1
;
_chemical_formula_sum "Si O2"
_cell_formula_units_Z 16
_cell_length_a 18.821220
_cell_length_b 12.454902
_cell_length_c 12.809037
_cell_angle_alpha 48.437684
_cell_angle_beta 140.804058
_cell_angle_gamma 154.477074
_cell_volume 810.474556
_symmetry_space_group_name_H-M "P -1"
_symmetry_group_IT_number 2
_symmetry_cell_setting 'triclinic'
loop_
_space_group_symop_operation_xyz
x,y,z
-x,-y,-z
loop_
_atom_site_type_symbol
_atom_site_label
_atom_site_fract_x
_atom_site_fract_y
_atom_site_fract_z
Si Si1 0.898329 0.035978 0.904745
Si Si2 0.063536 0.795236 0.373426
Si Si3 0.717995 0.198118 0.872215
Si Si4 0.705784 0.295263 0.573879
Si Si5 0.284895 0.777258 0.738248
Si Si6 0.324306 0.165168 0.008775
Si Si7 0.240612 0.373955 0.725174
Si Si8 0.088225 0.512100 0.884039
O O1 0.831569 0.040018 0.718291
O O2 0.054430 0.308283 0.959484
O O3 0.738069 0.855580 0.930256
O O4 0.000000 0.000000 0.000000
O O5 0.878790 0.502791 0.315096
O O6 0.955548 0.798622 0.320752
O O7 0.214530 0.859156 0.568800
O O8 0.715895 0.306271 0.703545
O O9 0.498154 0.966596 0.816899
O O10 0.755124 0.076097 0.950508
O O11 0.861948 0.391143 0.004843
O O12 0.733647 0.476836 0.430717
O O13 0.892234 0.388712 0.698274
O O14 0.500000 0.000000 0.500000
O O15 0.263808 0.743075 0.859748
O O16 0.560426 0.401585 0.124202
O O17 0.247557 0.210541 0.815900
#
# Coordination Sequence:
#
# PCOD9085447 Si02
#       8
#     2   2   2   2   2   2   2   2
#     4  11  22  37  61  90 121 164 208 256 310 371
#     4  10  19  35  60  91 116 154 213 262 295 357
#     4  12  24  40  64  95 130 164 205 262 320 369
#     4  12  22  39  64  94 123 163 216 256 302 368
#     4  10  21  36  62  89 122 158 209 258 307 360
#     4  11  23  37  61  93 130 157 206 258 320 365
#     4  11  21  38  59  95 121 162 209 262 305 363
#     4  11  24  40  64  93 125 164 211 258 314 377
#
# _framework density 19.741520000000001
#
# number of rings (size 3 to 8) (size 9 to 14) (size 15 to 20)
#    0.000    1.000    6.250    0.750    5.250    0.000 
#    0.000    0.625    2.750    0.750    0.000    0.000 
#    0.000    0.000    0.000    0.000    0.000    0.000 
#
# Total GULP energy -89277.127109 kJ/mol
# GULP energy per Si atom -5579.820444 kJ/mol
# Density = 1.969659 g / cm^3
# Si number density = 19.741520 Si / 1000 Ang^3
#
#
#
# Elastic Constant Matrix: (Units=GPa)
#
#
# Indices 1 2 3 4 5 6 
#
# 1 116.5538 33.7745 49.2522 -9.8261 5.0401 6.9930
# 2 33.7745 61.3518 42.1184 -11.5370 2.8211 9.2159
# 3 49.2522 42.1184 106.1978 -20.9017 2.0103 -6.9745
# 4 -9.8261 -11.5370 -20.9017 32.2684 7.5747 0.1391
# 5 5.0401 2.8211 2.0103 7.5747 36.5758 -3.5271
# 6 6.9930 9.2159 -6.9745 0.1391 -3.5271 35.8583
#
#
#
# Elastic Compliance Matrix: (Units=1/GPa)
#
#
# Indices 1 2 3 4 5 6 
#
# 1 0.011443 -0.002934 -0.004280 -0.000010 -0.001349 -0.002443
# 2 -0.002934 0.025849 -0.008712 0.003346 -0.002578 -0.008032
# 3 -0.004280 -0.008712 0.016520 0.006340 -0.000359 0.006227
# 4 -0.000010 0.003346 0.006340 0.038311 -0.008599 -0.000619
# 5 -0.001349 -0.002578 -0.000359 -0.008599 0.029895 0.003830
# 6 -0.002443 -0.008032 0.006227 -0.000619 0.003830 0.032018
#
#
# Mechanical properties :
#
#
# Convention : Reuss Voigt Hill
#
# Bulk Modulus (GPa) = 45.53518 59.37708 52.45613
# Shear Modulus (GPa) = 25.87890 31.53773 28.70831
#
# Velocity S-wave (km/s) = 3.62454 4.00125 3.81755
# Velocity P-wave (km/s) = 6.37434 7.17560 6.78680
#
# Compressibility (1/GPa) = 0.02196104
#
# Stress axis : x y z
#
# Youngs Moduli (GPa) = 87.39315 38.68585 60.53259
#
# Poissons Ratio (x) = 0.11350 0.25908
# Poissons Ratio (y) = 0.25639 0.52733
# Poissons Ratio (z) = 0.37405 0.33701
#
# Static dielectric constant tensor:
#      x y z
#    x 1.732480 0.024220 -0.002640 
#    y 0.024220 1.719990 -0.042520 
#    z -0.002640 -0.042520 1.707890 
# 
# From -- ./inp_files/284747.got.cif
#   From: 2010.05.17/outbox.cif.g08.bks.cpg/sg2_143_cif.got.tgz:284747.got - 2010.06.03 11:33:40.
