data_PCOD9085501
_publ_section_title
;
Structure prediction by ZEFSAII (Michael W. Deem and Ramdas Pophale) SiO2 
 PCOD9085501
Probable space group: P -1
;
_chemical_formula_sum "Si O2"
_cell_formula_units_Z 16
_cell_length_a 12.871521
_cell_length_b 8.994764
_cell_length_c 15.511432
_cell_angle_alpha 63.942456
_cell_angle_beta 141.147557
_cell_angle_gamma 135.321408
_cell_volume 764.981914
_symmetry_space_group_name_H-M "P -1"
_symmetry_group_IT_number 2
_symmetry_cell_setting 'triclinic'
loop_
_space_group_symop_operation_xyz
x,y,z
-x,-y,-z
loop_
_atom_site_type_symbol
_atom_site_label
_atom_site_fract_x
_atom_site_fract_y
_atom_site_fract_z
Si Si1 0.201218 0.503062 0.883679
Si Si2 0.922390 0.988105 0.828968
Si Si3 0.912604 0.455400 0.857911
Si Si4 0.381634 0.143260 0.846076
Si Si5 0.285512 0.012603 0.144728
Si Si6 0.338684 0.837314 0.765658
Si Si7 0.757424 0.869380 0.412368
Si Si8 0.122921 0.210155 0.322009
O O1 0.086365 0.252294 0.865263
O O2 0.104050 0.526410 0.899276
O O3 0.162093 0.598188 0.753204
O O4 0.459840 0.674695 0.027153
O O5 0.842933 0.895384 0.706429
O O6 0.735222 0.906383 0.798877
O O7 0.069658 0.933052 0.974009
O O8 0.732833 0.195273 0.798205
O O9 0.835675 0.583295 0.744367
O O10 0.000000 0.500000 0.000000
O O11 0.435359 0.000330 0.870867
O O12 0.390321 0.261360 0.734162
O O13 0.134483 0.966492 0.768829
O O14 0.492772 0.162714 0.178936
O O15 0.259501 0.943008 0.632349
O O16 0.000000 0.000000 0.500000
O O17 0.734987 0.746628 0.514121
#
# Coordination Sequence:
#
# PCOD9085501 Si02
#       8
#     2   2   2   2   2   2   2   2
#     4  11  20  34  57  89 108 145 180 231 286 327
#     4  10  23  35  53  81 125 144 175 224 289 339
#     4  11  20  32  59  82 109 147 186 227 279 329
#     4   9  19  31  60  86 107 133 188 241 266 314
#     4  10  21  38  51  82 115 150 180 228 279 329
#     4  10  19  35  61  83 109 141 193 235 269 321
#     4   8  18  34  56  84 110 141 184 240 272 310
#     4  11  19  37  56  83 111 149 182 228 278 332
#
# _framework density 20.915528999999999
#
# number of rings (size 3 to 8) (size 9 to 14) (size 15 to 20)
#    0.750    1.250    2.500    1.875    0.000    2.000 
#    0.000    1.875    0.000    3.000    0.000    0.000 
#    0.000    0.000    0.000    0.000    0.000    0.000 
#
# Total GULP energy -89152.214290 kJ/mol
# GULP energy per Si atom -5572.013393 kJ/mol
# Density = 2.086792 g / cm^3
# Si number density = 20.915529 Si / 1000 Ang^3
#
#
#
# Elastic Constant Matrix: (Units=GPa)
#
#
# Indices 1 2 3 4 5 6 
#
# 1 123.4825 20.5294 24.2914 -12.7023 -10.5286 3.2442
# 2 20.5294 53.1919 22.8889 -26.9279 -2.5904 -4.2719
# 3 24.2914 22.8889 83.1775 -36.5022 -16.3616 -5.8320
# 4 -12.7023 -26.9279 -36.5022 28.2520 9.2888 -1.9347
# 5 -10.5286 -2.5904 -16.3616 9.2888 26.6606 -2.9719
# 6 3.2442 -4.2719 -5.8320 -1.9347 -2.9719 25.7753
#
#
#
# Elastic Compliance Matrix: (Units=1/GPa)
#
#
# Indices 1 2 3 4 5 6 
#
# 1 0.009503 -0.006439 -0.004686 -0.009168 0.003037 -0.003661
# 2 -0.006439 0.055095 0.023099 0.084166 -0.010072 0.020324
# 3 -0.004686 0.023099 0.041202 0.073773 0.002153 0.019526
# 4 -0.009168 0.084166 0.073773 0.216705 -0.020577 0.045689
# 5 0.003037 -0.010072 0.002153 -0.020577 0.046471 0.002249
# 6 -0.003661 0.020324 0.019526 0.045689 0.002249 0.050733
#
#
# Mechanical properties :
#
#
# Convention : Reuss Voigt Hill
#
# Bulk Modulus (GPa) = 7.70723 43.91903 25.81313
# Shear Modulus (GPa) = 11.38925 28.94706 20.16816
#
# Velocity S-wave (km/s) = 2.33606 3.72425 3.10863
# Velocity P-wave (km/s) = 3.31197 6.28787 5.02526
#
# Compressibility (1/GPa) = 0.12974830
#
# Stress axis : x y z
#
# Youngs Moduli (GPa) = 105.23355 18.15045 24.27040
#
# Poissons Ratio (x) = 0.11686 0.11374
# Poissons Ratio (y) = 0.67756 -0.56062
# Poissons Ratio (z) = 0.49314 -0.41926
#
# Static dielectric constant tensor:
#      x y z
#    x 1.822850 0.054680 0.000500 
#    y 0.054680 1.789080 -0.031720 
#    z 0.000500 -0.031720 1.821200 
# 
# From -- ./inp_files/497785.got.cif
#   From: 2010.05.17/outbox.cif.g08.bks.cpg/sg2_249_cif.got.tgz:497785.got - 2010.06.03 11:33:40.
