data_PCOD9085586
_publ_section_title
;
Structure prediction by ZEFSAII (Michael W. Deem and Ramdas Pophale) SiO2 
 PCOD9085586
Probable space group: P -1
;
_chemical_formula_sum "Si O2"
_cell_formula_units_Z 16
_cell_length_a 9.363889
_cell_length_b 9.302810
_cell_length_c 15.693718
_cell_angle_alpha 140.908284
_cell_angle_beta 59.492888
_cell_angle_gamma 128.029141
_cell_volume 677.824838
_symmetry_space_group_name_H-M "P -1"
_symmetry_group_IT_number 2
_symmetry_cell_setting 'triclinic'
loop_
_space_group_symop_operation_xyz
x,y,z
-x,-y,-z
loop_
_atom_site_type_symbol
_atom_site_label
_atom_site_fract_x
_atom_site_fract_y
_atom_site_fract_z
Si Si1 0.419882 0.651446 0.446052
Si Si2 0.260572 0.454704 0.228260
Si Si3 0.341389 0.920897 0.302358
Si Si4 0.082965 0.544527 0.609783
Si Si5 0.492840 0.296382 0.977596
Si Si6 0.168511 0.466367 0.893282
Si Si7 0.285300 0.521972 0.700656
Si Si8 0.015893 0.025007 0.625655
O O1 0.404335 0.615345 0.331996
O O2 0.547415 0.900514 0.572186
O O3 0.220087 0.604558 0.517382
O O4 0.510994 0.461654 0.360081
O O5 0.324060 0.258628 0.073063
O O6 0.065249 0.343423 0.281519
O O7 0.253352 0.645525 0.245282
O O8 0.152916 0.222923 0.608933
O O9 0.182488 0.981003 0.334989
O O10 0.211344 0.613470 0.685284
O O11 0.981227 0.242846 0.500795
O O12 0.667460 0.429046 0.044338
O O13 0.524225 0.086822 0.817285
O O14 0.500000 0.500000 0.000000
O O15 0.240308 0.604240 0.843961
O O16 0.098045 0.173601 0.756367
O O17 0.000000 0.500000 0.000000
#
# Coordination Sequence:
#
# PCOD9085586 Si02
#       8
#     2   2   2   2   2   2   2   2
#     4  12  24  37  60  90 124 155 197 249 293 352
#     4  11  22  41  60  85 121 159 200 243 294 356
#     4  11  21  38  64  90 116 154 201 247 298 344
#     4  12  23  38  59  89 123 158 193 244 305 342
#     4  10  21  37  60  91 116 153 194 250 298 346
#     4  10  19  35  61  90 114 148 202 251 286 340
#     4  10  20  36  60  87 115 151 201 243 288 343
#     4  10  20  35  64  89 114 148 201 246 288 347
#
# _framework density 23.604917
#
# number of rings (size 3 to 8) (size 9 to 14) (size 15 to 20)
#    0.750    0.500    5.000    2.250    1.750    2.000 
#    0.000    0.625    2.750    2.250    0.000    0.000 
#    0.000    0.000    0.000    0.000    0.000    0.000 
#
# Total GULP energy -89325.179595 kJ/mol
# GULP energy per Si atom -5582.823725 kJ/mol
# Density = 2.355119 g / cm^3
# Si number density = 23.604917 Si / 1000 Ang^3
#
#
#
# Elastic Constant Matrix: (Units=GPa)
#
#
# Indices 1 2 3 4 5 6 
#
# 1 97.0378 6.8618 41.1727 -12.8401 -8.1647 8.7460
# 2 6.8618 43.5431 12.5812 -3.3509 -7.6853 17.6231
# 3 41.1727 12.5812 141.5160 -27.4540 -12.5081 6.3621
# 4 -12.8401 -3.3509 -27.4540 32.2044 11.7970 -6.6394
# 5 -8.1647 -7.6853 -12.5081 11.7970 51.0446 -20.4900
# 6 8.7460 17.6231 6.3621 -6.6394 -20.4900 17.9384
#
#
#
# Elastic Compliance Matrix: (Units=1/GPa)
#
#
# Indices 1 2 3 4 5 6 
#
# 1 0.012421 0.002900 -0.003416 0.001238 -0.002962 -0.010619
# 2 0.002900 0.051273 -0.004981 -0.005420 -0.023395 -0.078748
# 3 -0.003416 -0.004981 0.009762 0.007209 0.003220 0.009443
# 4 0.001238 -0.005420 0.007209 0.041035 -0.002529 0.014463
# 5 -0.002962 -0.023395 0.003220 -0.002529 0.047904 0.077068
# 6 -0.010619 -0.078748 0.009443 0.014463 0.077068 0.228321
#
#
# Mechanical properties :
#
#
# Convention : Reuss Voigt Hill
#
# Bulk Modulus (GPa) = 16.00992 44.81427 30.41210
# Shear Modulus (GPa) = 11.83345 35.00289 23.41817
#
# Velocity S-wave (km/s) = 2.24143 3.85498 3.15316
# Velocity P-wave (km/s) = 3.67367 6.23224 5.11550
#
# Compressibility (1/GPa) = 0.06246127
#
# Stress axis : x y z
#
# Youngs Moduli (GPa) = 80.50757 19.50342 102.44286
#
# Poissons Ratio (x) = -0.05655 0.34993
# Poissons Ratio (y) = -0.23344 0.51027
# Poissons Ratio (z) = 0.27500 0.09715
#
# Static dielectric constant tensor:
#      x y z
#    x 1.874390 0.018590 -0.010670 
#    y 0.018590 1.941250 -0.028110 
#    z -0.010670 -0.028110 1.963210 
# 
# From -- ./inp_files/499394.got.cif
#   From: 2010.05.17/outbox.cif.g08.bks.cpg/sg2_250_cif.got.tgz:499394.got - 2010.06.03 11:33:40.
