data_PCOD9085023
_publ_section_title
;
Structure prediction by ZEFSAII (Michael W. Deem and Ramdas Pophale) SiO2 
 PCOD9085023
Probable space group: P -1
;
_chemical_formula_sum "Si O2"
_cell_formula_units_Z 16
_cell_length_a 11.581622
_cell_length_b 14.581625
_cell_length_c 20.910963
_cell_angle_alpha 152.009695
_cell_angle_beta 145.978787
_cell_angle_gamma 51.605638
_cell_volume 840.689912
_symmetry_space_group_name_H-M "P -1"
_symmetry_group_IT_number 2
_symmetry_cell_setting 'triclinic'
loop_
_space_group_symop_operation_xyz
x,y,z
-x,-y,-z
loop_
_atom_site_type_symbol
_atom_site_label
_atom_site_fract_x
_atom_site_fract_y
_atom_site_fract_z
Si Si1 0.511436 0.627697 0.781118
Si Si2 0.769181 0.133922 0.698469
Si Si3 0.775774 0.253754 0.175079
Si Si4 0.914052 0.077012 0.244384
Si Si5 0.137363 0.572517 0.191971
Si Si6 0.835892 0.379101 0.485525
Si Si7 0.711497 0.420908 0.596880
Si Si8 0.759905 0.870676 0.846938
O O1 0.397300 0.678551 0.823008
O O2 0.646685 0.479722 0.761378
O O3 0.337275 0.564126 0.602865
O O4 0.708527 0.857467 0.994359
O O5 0.838561 0.222742 0.712771
O O6 0.500000 0.000000 0.500000
O O7 0.877810 0.975247 0.674395
O O8 0.905018 0.360668 0.938867
O O9 0.942470 0.237185 0.297515
O O10 0.916143 0.440394 0.305617
O O11 0.701094 0.034861 0.964925
O O12 0.828995 0.162389 0.318993
O O13 0.164319 0.609056 0.302331
O O14 0.789072 0.371146 0.533379
O O15 0.760288 0.673101 0.768146
O O16 0.444640 0.257204 0.374951
O O17 0.000000 0.000000 0.000000
#
# Coordination Sequence:
#
# PCOD9085023 Si02
#       8
#     2   2   2   2   2   2   2   2
#     4  10  19  35  58  84 121 149 192 238 285 344
#     4  10  23  41  63  84 110 146 202 253 285 334
#     4  11  21  33  56  90 121 151 190 232 288 352
#     4  10  20  36  58  84 113 154 199 238 289 333
#     4  10  23  40  61  89 110 153 196 241 296 333
#     4  11  21  34  55  91 121 155 184 229 293 359
#     4  11  22  38  57  81 127 154 187 238 284 358
#     4  11  21  35  52  87 124 161 190 220 290 357
#
# _framework density 19.031987000000001
#
# number of rings (size 3 to 8) (size 9 to 14) (size 15 to 20)
#    0.000    1.500    1.250    7.500    3.500    1.000 
#    0.000    0.625    0.000    0.750    0.000    0.000 
#    0.000    0.000    0.000    0.000    0.000    0.000 
#
# Total GULP energy -89268.161592 kJ/mol
# GULP energy per Si atom -5579.260099 kJ/mol
# Density = 1.898867 g / cm^3
# Si number density = 19.031987 Si / 1000 Ang^3
#
#
#
# Elastic Constant Matrix: (Units=GPa)
#
#
# Indices 1 2 3 4 5 6 
#
# 1 110.5352 9.8315 51.3133 -6.5365 -4.5220 0.2461
# 2 9.8315 27.9585 12.7197 -3.8757 8.3898 0.9768
# 3 51.3133 12.7197 76.3401 -14.5654 4.1753 10.5012
# 4 -6.5365 -3.8757 -14.5654 22.2285 -4.3902 -4.0040
# 5 -4.5220 8.3898 4.1753 -4.3902 38.3481 1.1588
# 6 0.2461 0.9768 10.5012 -4.0040 1.1588 30.0617
#
#
#
# Elastic Compliance Matrix: (Units=1/GPa)
#
#
# Indices 1 2 3 4 5 6 
#
# 1 0.013785 -0.001502 -0.009893 -0.001593 0.002756 0.003073
# 2 -0.001502 0.041441 -0.005219 0.001879 -0.008493 0.001067
# 3 -0.009893 -0.005219 0.023530 0.010175 -0.001223 -0.006567
# 4 -0.001593 0.001879 0.010175 0.052946 0.004255 0.003286
# 5 0.002756 -0.008493 -0.001223 0.004255 0.028876 0.000134
# 6 0.003073 0.001067 -0.006567 0.003286 0.000134 0.035931
#
#
# Mechanical properties :
#
#
# Convention : Reuss Voigt Hill
#
# Bulk Modulus (GPa) = 21.96421 40.28475 31.12448
# Shear Modulus (GPa) = 20.41538 27.52560 23.97049
#
# Velocity S-wave (km/s) = 3.27874 3.80713 3.55277
# Velocity P-wave (km/s) = 5.08913 6.36698 5.76358
#
# Compressibility (1/GPa) = 0.04552860
#
# Stress axis : x y z
#
# Youngs Moduli (GPa) = 72.54443 24.13040 42.49903
#
# Poissons Ratio (x) = 0.03624 0.42043
# Poissons Ratio (y) = 0.10895 0.22181
# Poissons Ratio (z) = 0.71766 0.12594
#
# Static dielectric constant tensor:
#      x y z
#    x 1.692900 -0.021850 0.002460 
#    y -0.021850 1.681150 0.011540 
#    z 0.002460 0.011540 1.690300 
# 
# From -- ./inp_files/524098.got.cif
#   From: 2010.05.17/outbox.cif.g08.bks.cpg/sg2_263_cif.got.tgz:524098.got - 2010.06.03 11:33:40.
