data_PCOD9085698
_publ_section_title
;
Structure prediction by ZEFSAII (Michael W. Deem and Ramdas Pophale) SiO2 
 PCOD9085698
Probable space group: P -1
;
_chemical_formula_sum "Si O2"
_cell_formula_units_Z 14
_cell_length_a 7.118152
_cell_length_b 10.816377
_cell_length_c 11.575484
_cell_angle_alpha 86.616895
_cell_angle_beta 40.226183
_cell_angle_gamma 82.803173
_cell_volume 570.091371
_symmetry_space_group_name_H-M "P -1"
_symmetry_group_IT_number 2
_symmetry_cell_setting 'triclinic'
loop_
_space_group_symop_operation_xyz
x,y,z
-x,-y,-z
loop_
_atom_site_type_symbol
_atom_site_label
_atom_site_fract_x
_atom_site_fract_y
_atom_site_fract_z
Si Si1 0.095250 0.622465 0.888334
Si Si2 0.770343 0.171802 0.724527
Si Si3 0.210953 0.181559 0.815894
Si Si4 0.168461 0.976683 0.683696
Si Si5 0.429967 0.357800 0.046193
Si Si6 0.602751 0.299726 0.450005
Si Si7 0.033987 0.363966 0.436251
O O1 0.849397 0.644588 0.904187
O O2 0.393883 0.620701 0.673831
O O3 0.033942 0.731300 0.004683
O O4 0.000000 0.500000 0.000000
O O5 0.497349 0.158383 0.767178
O O6 0.940418 0.041253 0.693742
O O7 0.987658 0.253788 0.551996
O O8 0.659679 0.253914 0.884203
O O9 0.108559 0.053734 0.825372
O O10 0.317711 0.257863 0.649803
O O11 0.500000 0.000000 0.500000
O O12 0.196553 0.829029 0.673508
O O13 0.326687 0.335564 0.224973
O O14 0.500000 0.500000 0.000000
O O15 0.767095 0.363252 0.470613
O O16 0.000000 0.500000 0.500000
#
# Coordination Sequence:
#
# PCOD9085698 Si02
#       7
#     2   2   2   2   2   2   2
#     4  10  22  38  60  87 122 159 199 253 309 364
#     4  10  21  40  64  88 126 162 197 257 307 355
#     4   9  21  40  62  90 120 160 203 247 309 358
#     4  10  22  42  64  89 123 162 212 254 297 367
#     4  10  20  37  58  91 123 152 205 250 296 370
#     4   9  21  40  57  86 123 155 204 260 293 362
#     4  10  19  35  62  90 120 162 202 245 313 368
#
# _framework density 24.557468
#
# number of rings (size 3 to 8) (size 9 to 14) (size 15 to 20)
#    0.000    2.286    1.429    0.000    2.000    6.286 
#    5.143    9.286    0.000    0.000    0.000    0.000 
#    0.000    0.000    0.000    0.000    0.000    0.000 
#
# Total GULP energy -78299.774174 kJ/mol
# GULP energy per Si atom -5592.841012 kJ/mol
# Density = 2.450157 g / cm^3
# Si number density = 24.557468 Si / 1000 Ang^3
#
#
#
# Elastic Constant Matrix: (Units=GPa)
#
#
# Indices 1 2 3 4 5 6 
#
# 1 103.3073 38.8823 37.2919 3.0524 9.2556 5.8913
# 2 38.8823 120.5075 33.3753 10.4456 8.4850 18.7569
# 3 37.2919 33.3753 142.3936 -1.4576 26.7266 -10.5810
# 4 3.0524 10.4456 -1.4576 34.0530 4.8374 5.3788
# 5 9.2556 8.4850 26.7266 4.8374 35.4833 12.5423
# 6 5.8913 18.7569 -10.5810 5.3788 12.5423 41.2672
#
#
#
# Elastic Compliance Matrix: (Units=1/GPa)
#
#
# Indices 1 2 3 4 5 6 
#
# 1 0.011734 -0.002964 -0.002401 -0.000076 -0.000228 -0.000864
# 2 -0.002964 0.010944 -0.002723 -0.002677 0.002582 -0.005685
# 3 -0.002401 -0.002723 0.010581 0.001743 -0.009374 0.006916
# 4 -0.000076 -0.002677 0.001743 0.031070 -0.004536 -0.000997
# 5 -0.000228 0.002582 -0.009374 -0.004536 0.040722 -0.015330
# 6 -0.000864 -0.005685 0.006916 -0.000997 -0.015330 0.033502
#
#
# Mechanical properties :
#
#
# Convention : Reuss Voigt Hill
#
# Bulk Modulus (GPa) = 58.53695 65.03414 61.78555
# Shear Modulus (GPa) = 31.16742 39.27130 35.21936
#
# Velocity S-wave (km/s) = 3.56640 4.00329 3.79114
# Velocity P-wave (km/s) = 6.39119 6.92158 6.66167
#
# Compressibility (1/GPa) = 0.01708323
#
# Stress axis : x y z
#
# Youngs Moduli (GPa) = 85.22286 91.37472 94.50855
#
# Poissons Ratio (x) = 0.27083 0.22687
# Poissons Ratio (y) = 0.25260 0.25738
# Poissons Ratio (z) = 0.20458 0.24884
#
# Static dielectric constant tensor:
#      x y z
#    x 1.999600 -0.024730 0.008780 
#    y -0.024730 1.964690 -0.034910 
#    z 0.008780 -0.034910 2.017460 
# 
# From -- ./inp_files/155393.got.cif
#   From: 2010.05.17/outbox.cif.g08.bks.cpg/sg2_78_cif.got.tgz:155393.got - 2010.06.03 11:33:40.
