data_PCOD9085957
_publ_section_title
;
Structure prediction by ZEFSAII (Michael W. Deem and Ramdas Pophale) SiO2 
 PCOD9085957
Probable space group: P -1
;
_chemical_formula_sum "Si O2"
_cell_formula_units_Z 13
_cell_length_a 5.063829
_cell_length_b 7.087031
_cell_length_c 15.629575
_cell_angle_alpha 78.075944
_cell_angle_beta 76.983339
_cell_angle_gamma 109.744897
_cell_volume 489.310327
_symmetry_space_group_name_H-M "P -1"
_symmetry_group_IT_number 2
_symmetry_cell_setting 'triclinic'
loop_
_space_group_symop_operation_xyz
x,y,z
-x,-y,-z
loop_
_atom_site_type_symbol
_atom_site_label
_atom_site_fract_x
_atom_site_fract_y
_atom_site_fract_z
Si Si1 0.648720 0.279505 0.501871
Si Si2 0.563841 0.842051 0.198842
Si Si3 0.877867 0.770948 0.941331
Si Si4 0.246968 0.677157 0.066528
Si Si5 0.178783 0.948509 0.346387
Si Si6 0.000000 0.000000 0.500000
Si Si7 0.637605 0.575979 0.346669
O O1 0.848639 0.173470 0.544499
O O2 0.751166 0.410578 0.395394
O O3 0.614364 0.424581 0.567746
O O4 0.321856 0.109976 0.522321
O O5 0.336155 0.781365 0.142322
O O6 0.455341 0.951024 0.273971
O O7 0.561022 0.620639 0.253540
O O8 0.878809 0.012947 0.130620
O O9 0.848471 0.574443 0.901862
O O10 0.553794 0.765274 0.981069
O O11 0.002660 0.723194 0.026720
O O12 0.169291 0.142397 0.379890
O O13 0.910916 0.801827 0.323207
#
# Coordination Sequence:
#
# PCOD9085957 Si02
#       7
#     2   2   2   2   2   1   2
#     4   8  18  37  59  90 127 192 242 291 357 430
#     4  11  23  38  69 108 138 185 239 308 366 427
#     4  10  23  44  73 102 145 185 238 295 377 462
#     4  10  23  44  73 103 142 191 233 296 379 459
#     4   9  20  36  63  93 134 184 246 291 350 429
#     4   8  18  38  58  88 136 190 240 292 356 414
#     4  10  19  35  65  92 134 182 250 296 355 435
#
# _framework density 26.568007000000001
#
# number of rings (size 3 to 8) (size 9 to 14) (size 15 to 20)
#    0.923    1.538    0.000    1.385    4.308    0.615 
#    0.000    1.538    3.385    0.000    0.000    0.000 
#    0.000    0.000    0.000    0.000    0.000    0.000 
#
# Total GULP energy -72516.939662 kJ/mol
# GULP energy per Si atom -5578.226128 kJ/mol
# Density = 2.650754 g / cm^3
# Si number density = 26.568007 Si / 1000 Ang^3
#
#
#
# Elastic Constant Matrix: (Units=GPa)
#
#
# Indices 1 2 3 4 5 6 
#
# 1 127.8657 30.0882 11.7833 1.8181 10.3305 -7.0293
# 2 30.0882 82.4640 52.6392 9.2639 -1.8981 3.4367
# 3 11.7833 52.6392 88.0446 6.2804 12.1870 -10.7994
# 4 1.8181 9.2639 6.2804 26.8655 -10.4365 -0.8061
# 5 10.3305 -1.8981 12.1870 -10.4365 45.4457 5.2067
# 6 -7.0293 3.4367 -10.7994 -0.8061 5.2067 45.5888
#
#
#
# Elastic Compliance Matrix: (Units=1/GPa)
#
#
# Indices 1 2 3 4 5 6 
#
# 1 0.009271 -0.005319 0.002849 -0.000772 -0.003604 0.002903
# 2 -0.005319 0.024884 -0.015860 -0.002066 0.006860 -0.007273
# 3 0.002849 -0.015860 0.022961 -0.003414 -0.009175 0.008062
# 4 -0.000772 -0.002066 -0.003414 0.043033 0.011033 -0.001271
# 5 -0.003604 0.006860 -0.009175 0.011033 0.028831 -0.006344
# 6 0.002903 -0.007273 0.008062 -0.001271 -0.006344 0.025543
#
#
# Mechanical properties :
#
#
# Convention : Reuss Voigt Hill
#
# Bulk Modulus (GPa) = 48.88152 54.15508 51.51830
# Shear Modulus (GPa) = 25.25231 37.17091 31.21161
#
# Velocity S-wave (km/s) = 3.08633 3.74449 3.43123
# Velocity P-wave (km/s) = 5.58025 6.25482 5.92714
#
# Compressibility (1/GPa) = 0.02045763
#
# Stress axis : x y z
#
# Youngs Moduli (GPa) = 107.85836 40.18644 43.55199
#
# Poissons Ratio (x) = 0.21374 -0.12408
# Poissons Ratio (y) = 0.57366 0.69073
# Poissons Ratio (z) = -0.30729 0.63735
#
# Static dielectric constant tensor:
#      x y z
#    x 2.211990 -0.134920 -0.026790 
#    y -0.134920 2.155460 -0.013270 
#    z -0.026790 -0.013270 2.116340 
# 
# From -- ./inp_files/32372.got.cif
#   From: 2010.05.17/outbox.cif.g08.bks.cpg/sg2_17_cif.got.tgz:32372.got - 2010.06.03 11:33:40.
