data_PCOD9085699
_publ_section_title
;
Structure prediction by ZEFSAII (Michael W. Deem and Ramdas Pophale) SiO2 
 PCOD9085699
Probable space group: P -1
;
_chemical_formula_sum "Si O2"
_cell_formula_units_Z 16
_cell_length_a 11.594052
_cell_length_b 26.599454
_cell_length_c 29.885001
_cell_angle_alpha 9.079640
_cell_angle_beta 152.766373
_cell_angle_gamma 152.549926
_cell_volume 659.898933
_symmetry_space_group_name_H-M "P -1"
_symmetry_group_IT_number 2
_symmetry_cell_setting 'triclinic'
loop_
_space_group_symop_operation_xyz
x,y,z
-x,-y,-z
loop_
_atom_site_type_symbol
_atom_site_label
_atom_site_fract_x
_atom_site_fract_y
_atom_site_fract_z
Si Si1 0.194740 0.227047 0.449886
Si Si2 0.307747 0.761102 0.698430
Si Si3 0.591175 0.102803 0.016577
Si Si4 0.896427 0.644565 0.382128
Si Si5 0.319624 0.706544 0.609473
Si Si6 0.523658 0.935959 0.228679
Si Si7 0.587465 0.401857 0.360167
Si Si8 0.950109 0.724395 0.031648
O O1 0.307475 0.571921 0.206688
O O2 0.357902 0.197536 0.487527
O O3 0.894516 0.218144 0.349350
O O4 0.270028 0.009548 0.708031
O O5 0.127691 0.607036 0.732203
O O6 0.470204 0.110445 0.445147
O O7 0.500000 0.500000 0.000000
O O8 0.287340 0.081574 0.927059
O O9 0.755315 0.136890 0.998496
O O10 0.643146 0.866742 0.282330
O O11 0.000000 0.500000 0.500000
O O12 0.144156 0.727847 0.424237
O O13 0.694650 0.359397 0.581642
O O14 0.447328 0.576894 0.723362
O O15 0.148365 0.417193 0.829908
O O16 0.184099 0.001287 0.282556
O O17 0.382605 0.248079 0.914220
#
# Coordination Sequence:
#
# PCOD9085699 Si02
#       8
#     2   2   2   2   2   2   2   2
#     4   9  19  36  62  91 122 155 201 258 311 365
#     4   9  20  43  68  91 119 160 215 255 307 370
#     4   9  20  35  61  91 116 158 211 263 300 358
#     4  11  19  35  59  93 120 160 209 251 308 366
#     4  11  25  42  63  90 129 169 203 260 315 368
#     4  10  19  35  62  90 121 158 204 258 311 359
#     4  11  23  37  58  91 129 161 201 253 315 375
#     4  10  23  43  66  89 121 166 216 255 308 367
#
# _framework density 24.246137999999998
#
# number of rings (size 3 to 8) (size 9 to 14) (size 15 to 20)
#    0.000    2.000    3.750    0.750    7.000    0.500 
#    9.000    1.875    0.000    0.000    0.000    0.000 
#    0.000    0.000    0.000    0.000    0.000    0.000 
#
# Total GULP energy -89077.108901 kJ/mol
# GULP energy per Si atom -5567.319306 kJ/mol
# Density = 2.419095 g / cm^3
# Si number density = 24.246138 Si / 1000 Ang^3
#
#
#
# Elastic Constant Matrix: (Units=GPa)
#
#
# Indices 1 2 3 4 5 6 
#
# 1 170.2684 51.9324 28.4358 7.2371 -32.5025 19.2984
# 2 51.9324 74.4543 16.7563 4.6310 0.9103 18.8424
# 3 28.4358 16.7563 67.5577 4.1876 -14.7083 9.9401
# 4 7.2371 4.6310 4.1876 29.1405 1.7408 9.0023
# 5 -32.5025 0.9103 -14.7083 1.7408 24.9733 0.3968
# 6 19.2984 18.8424 9.9401 9.0023 0.3968 40.0243
#
#
#
# Elastic Compliance Matrix: (Units=1/GPa)
#
#
# Indices 1 2 3 4 5 6 
#
# 1 0.011410 -0.007798 0.000981 -0.002144 0.015889 -0.001750
# 2 -0.007798 0.021257 -0.004217 0.001647 -0.013435 -0.005437
# 3 0.000981 -0.004217 0.018734 -0.002163 0.012659 -0.002779
# 4 -0.002144 0.001647 -0.002163 0.037644 -0.006628 -0.007605
# 5 0.015889 -0.013435 0.012659 -0.006628 0.069188 -0.003675
# 6 -0.001750 -0.005437 -0.002779 -0.007605 -0.003675 0.030825
#
#
# Mechanical properties :
#
#
# Convention : Reuss Voigt Hill
#
# Bulk Modulus (GPa) = 34.09061 56.28104 45.18583
# Shear Modulus (GPa) = 22.63422 33.17135 27.90279
#
# Velocity S-wave (km/s) = 3.05867 3.70281 3.39604
# Velocity P-wave (km/s) = 5.15409 6.44545 5.83560
#
# Compressibility (1/GPa) = 0.02933359
#
# Stress axis : x y z
#
# Youngs Moduli (GPa) = 87.64206 47.04357 53.37776
#
# Poissons Ratio (x) = 0.36682 -0.05237
# Poissons Ratio (y) = 0.68339 0.22512
# Poissons Ratio (z) = -0.08598 0.19840
#
# Static dielectric constant tensor:
#      x y z
#    x 2.139790 -0.003720 -0.112360 
#    y -0.003720 2.059860 0.100880 
#    z -0.112360 0.100880 2.137180 
# 
# From -- ./inp_files/366962.got.cif
#   From: 2010.05.17/outbox.cif.g08.bks.cpg/sg2_184_cif.got.tgz:366962.got - 2010.06.03 11:33:40.
