data_PCOD9085208
_publ_section_title
;
Structure prediction by ZEFSAII (Michael W. Deem and Ramdas Pophale) SiO2 
 PCOD9085208
Probable space group: P -1
;
_chemical_formula_sum "Si O2"
_cell_formula_units_Z 16
_cell_length_a 27.224470
_cell_length_b 14.258598
_cell_length_c 9.275954
_cell_angle_alpha 145.391771
_cell_angle_beta 135.391157
_cell_angle_gamma 20.822029
_cell_volume 696.981673
_symmetry_space_group_name_H-M "P -1"
_symmetry_group_IT_number 2
_symmetry_cell_setting 'triclinic'
loop_
_space_group_symop_operation_xyz
x,y,z
-x,-y,-z
loop_
_atom_site_type_symbol
_atom_site_label
_atom_site_fract_x
_atom_site_fract_y
_atom_site_fract_z
Si Si1 0.895336 0.818136 0.474932
Si Si2 0.182949 0.089159 0.087325
Si Si3 0.530671 0.938502 0.318215
Si Si4 0.048795 0.934071 0.183094
Si Si5 0.421701 0.780030 0.308963
Si Si6 0.190351 0.811196 0.963017
Si Si7 0.324739 0.752461 0.661441
Si Si8 0.652882 0.682617 0.834562
O O1 0.014425 0.438466 0.205210
O O2 0.945071 0.879904 0.567424
O O3 0.882765 0.904967 0.722416
O O4 0.744159 0.071602 0.413443
O O5 0.255444 0.080126 0.326417
O O6 0.243859 0.795153 0.912460
O O7 0.230319 0.019834 0.934495
O O8 0.500000 0.000000 0.500000
O O9 0.558479 0.069350 0.494143
O O10 0.397733 0.142549 0.204552
O O11 0.679468 0.530305 0.101044
O O12 0.205752 0.544788 0.072971
O O13 0.000000 0.000000 0.000000
O O14 0.920463 0.102484 0.207550
O O15 0.507533 0.556793 0.350838
O O16 0.500000 0.500000 0.000000
O O17 0.313172 0.580202 0.444652
O O18 0.500000 0.000000 0.000000
#
# Coordination Sequence:
#
# PCOD9085208 Si02
#       8
#     2   2   2   2   2   2   2   2
#     4  10  20  37  57  78 107 147 184 228 280 331
#     4  11  21  37  56  78 111 151 186 225 276 334
#     4  11  21  37  60  86 115 149 186 236 284 331
#     4   9  19  36  58  84 111 144 187 235 282 335
#     4   9  19  36  57  80 108 146 185 223 276 337
#     4  11  22  37  55  84 115 145 187 233 279 334
#     4   9  19  35  55  80 106 140 187 231 272 330
#     4  10  19  35  59  86 113 146 185 231 284 338
#
# _framework density 22.956128
#
# number of rings (size 3 to 8) (size 9 to 14) (size 15 to 20)
#    0.000    2.000    0.000    6.000    0.000    3.000 
#    0.000   11.250    0.000    0.000    0.000    0.000 
#    0.000    0.000    0.000    0.000    0.000    0.000 
#
# Total GULP energy -89195.879438 kJ/mol
# GULP energy per Si atom -5574.742465 kJ/mol
# Density = 2.290388 g / cm^3
# Si number density = 22.956128 Si / 1000 Ang^3
#
#
#
# Elastic Constant Matrix: (Units=GPa)
#
#
# Indices 1 2 3 4 5 6 
#
# 1 44.4214 9.6247 -8.7869 -7.4490 -2.2392 3.4690
# 2 9.6247 167.8861 13.2808 -10.8207 -0.9843 8.8059
# 3 -8.7869 13.2808 49.6458 4.7922 -3.9768 5.6174
# 4 -7.4490 -10.8207 4.7922 34.1365 2.3696 3.6722
# 5 -2.2392 -0.9843 -3.9768 2.3696 23.2072 -0.5600
# 6 3.4690 8.8059 5.6174 3.6722 -0.5600 23.1295
#
#
#
# Elastic Compliance Matrix: (Units=1/GPa)
#
#
# Indices 1 2 3 4 5 6 
#
# 1 0.025135 -0.001251 0.005128 0.004747 0.002640 -0.005229
# 2 -0.001251 0.006443 -0.001961 0.002311 -0.000472 -0.002168
# 3 0.005128 -0.001961 0.022739 -0.002460 0.004438 -0.005047
# 4 0.004747 0.002311 -0.002460 0.032305 -0.003314 -0.006204
# 5 0.002640 -0.000472 0.004438 -0.003314 0.044431 0.000308
# 6 -0.005229 -0.002168 -0.005047 -0.006204 0.000308 0.047063
#
#
# Mechanical properties :
#
#
# Convention : Reuss Voigt Hill
#
# Bulk Modulus (GPa) = 17.19694 32.24337 24.72016
# Shear Modulus (GPa) = 25.81777 32.61695 29.21736
#
# Velocity S-wave (km/s) = 3.35723 3.77349 3.57143
# Velocity P-wave (km/s) = 4.74715 5.74994 5.27244
#
# Compressibility (1/GPa) = 0.05814987
#
# Stress axis : x y z
#
# Youngs Moduli (GPa) = 39.78578 155.20562 43.97768
#
# Poissons Ratio (x) = 0.19414 -0.22552
# Poissons Ratio (y) = 0.04977 0.08622
# Poissons Ratio (z) = -0.20403 0.30429
#
# Static dielectric constant tensor:
#      x y z
#    x 1.920000 -0.021280 -0.044640 
#    y -0.021280 1.965090 0.012030 
#    z -0.044640 0.012030 1.927210 
# 
# From -- ./inp_files/225653.got.cif
#   From: 2010.05.17/outbox.cif.g08.bks.cpg/sg2_113_cif.got.tgz:225653.got - 2010.06.03 11:33:40.
