data_PCOD9085269
_publ_section_title
;
Structure prediction by ZEFSAII (Michael W. Deem and Ramdas Pophale) SiO2 
 PCOD9085269
Probable space group: P -1
;
_chemical_formula_sum "Si O2"
_cell_formula_units_Z 14
_cell_length_a 4.848514
_cell_length_b 16.885528
_cell_length_c 11.541558
_cell_angle_alpha 124.970274
_cell_angle_beta 54.763981
_cell_angle_gamma 96.540156
_cell_volume 598.345798
_symmetry_space_group_name_H-M "P -1"
_symmetry_group_IT_number 2
_symmetry_cell_setting 'triclinic'
loop_
_space_group_symop_operation_xyz
x,y,z
-x,-y,-z
loop_
_atom_site_type_symbol
_atom_site_label
_atom_site_fract_x
_atom_site_fract_y
_atom_site_fract_z
Si Si1 0.077120 0.224705 0.061349
Si Si2 0.614814 0.744625 0.302613
Si Si3 0.665316 0.889640 0.617979
Si Si4 0.560187 0.070205 0.647614
Si Si5 0.130040 0.094475 0.168756
Si Si6 0.621550 0.341126 0.085486
Si Si7 0.422690 0.467561 0.864271
O O1 0.089137 0.172852 0.139097
O O2 0.207685 0.133619 0.859420
O O3 0.361915 0.285187 0.048751
O O4 0.715510 0.303436 0.162993
O O5 0.689738 0.800074 0.445505
O O6 0.373872 0.832984 0.349768
O O7 0.454980 0.653563 0.285373
O O8 0.998199 0.698123 0.106781
O O9 0.843073 0.857608 0.672019
O O10 0.231110 0.934437 0.775321
O O11 0.770254 0.986099 0.621073
O O12 0.500000 0.000000 0.500000
O O13 0.500000 0.000000 0.000000
O O14 0.472941 0.461898 0.196688
O O15 0.500000 0.500000 0.000000
O O16 0.000000 0.500000 0.000000
#
# Coordination Sequence:
#
# PCOD9085269 Si02
#       7
#     2   2   2   2   2   2   2
#     4  11  22  38  60  84 115 154 197 241 284 343
#     4   9  21  37  60  89 123 149 187 239 303 350
#     4  11  24  39  58  87 119 158 192 243 289 343
#     4   9  19  35  55  85 117 147 181 232 297 347
#     4  12  25  40  61  80 117 160 209 237 277 341
#     4  10  21  37  63  89 117 149 191 241 296 348
#     4  10  19  35  59  90 120 151 188 233 293 358
#
# _framework density 23.397842000000001
#
# number of rings (size 3 to 8) (size 9 to 14) (size 15 to 20)
#    0.000    1.714    1.429    3.857    4.000    5.714 
#    0.000    7.143    0.000    5.143    0.000    0.000 
#    0.000    0.000    0.000    0.000    0.000    0.000 
#
# Total GULP energy -78203.262185 kJ/mol
# GULP energy per Si atom -5585.947299 kJ/mol
# Density = 2.334459 g / cm^3
# Si number density = 23.397842 Si / 1000 Ang^3
#
#
#
# Elastic Constant Matrix: (Units=GPa)
#
#
# Indices 1 2 3 4 5 6 
#
# 1 112.1823 39.7371 17.4806 6.4095 28.5276 -11.3783
# 2 39.7371 215.7747 76.2592 23.1590 21.9203 -17.1201
# 3 17.4806 76.2592 72.1187 1.8021 16.2543 -8.0151
# 4 6.4095 23.1590 1.8021 44.5358 -7.9609 8.3885
# 5 28.5276 21.9203 16.2543 -7.9609 32.6567 -3.5093
# 6 -11.3783 -17.1201 -8.0151 8.3885 -3.5093 42.7094
#
#
#
# Elastic Compliance Matrix: (Units=1/GPa)
#
#
# Indices 1 2 3 4 5 6 
#
# 1 0.012518 -0.000729 0.000768 -0.004082 -0.011496 0.003044
# 2 -0.000729 0.008504 -0.007963 -0.004827 -0.002016 0.002503
# 3 0.000768 -0.007963 0.023598 0.001797 -0.006575 0.000548
# 4 -0.004082 -0.004827 0.001797 0.029051 0.012199 -0.007388
# 5 -0.011496 -0.002016 -0.006575 0.012199 0.047880 -0.003566
# 6 0.003044 0.002503 0.000548 -0.007388 -0.003566 0.026489
#
#
# Mechanical properties :
#
#
# Convention : Reuss Voigt Hill
#
# Bulk Modulus (GPa) = 34.75564 74.11439 54.43502
# Shear Modulus (GPa) = 28.82199 41.75363 35.28781
#
# Velocity S-wave (km/s) = 3.51354 4.22893 3.88772
# Velocity P-wave (km/s) = 5.59879 7.45584 6.59303
#
# Compressibility (1/GPa) = 0.02877231
#
# Stress axis : x y z
#
# Youngs Moduli (GPa) = 79.88486 117.58569 42.37711
#
# Poissons Ratio (x) = 0.08577 -0.03256
# Poissons Ratio (y) = 0.05827 0.33744
# Poissons Ratio (z) = -0.06138 0.93632
#
# Static dielectric constant tensor:
#      x y z
#    x 1.948280 0.008810 -0.099250 
#    y 0.008810 1.989700 0.001950 
#    z -0.099250 0.001950 1.938750 
# 
# From -- ./inp_files/368723.got.cif
#   From: 2010.05.17/outbox.cif.g08.bks.cpg/sg2_185_cif.got.tgz:368723.got - 2010.06.03 11:33:40.
