data_PCOD9085785
_publ_section_title
;
Structure prediction by ZEFSAII (Michael W. Deem and Ramdas Pophale) SiO2 
 PCOD9085785
Probable space group: P -1
;
_chemical_formula_sum "Si O2"
_cell_formula_units_Z 15
_cell_length_a 13.121172
_cell_length_b 12.867651
_cell_length_c 22.248348
_cell_angle_alpha 156.248810
_cell_angle_beta 155.299718
_cell_angle_gamma 36.404258
_cell_volume 624.203735
_symmetry_space_group_name_H-M "P -1"
_symmetry_group_IT_number 2
_symmetry_cell_setting 'triclinic'
loop_
_space_group_symop_operation_xyz
x,y,z
-x,-y,-z
loop_
_atom_site_type_symbol
_atom_site_label
_atom_site_fract_x
_atom_site_fract_y
_atom_site_fract_z
Si Si1 0.788452 0.604283 0.145018
Si Si2 0.435055 0.267132 0.427145
Si Si3 0.025708 0.895674 0.675451
Si Si4 0.174677 0.088336 0.556421
Si Si5 0.830386 0.738397 0.835695
Si Si6 0.803107 0.603826 0.511098
Si Si7 0.346441 0.788321 0.940005
Si Si8 0.500000 0.000000 0.000000
O O1 0.806340 0.665251 0.258330
O O2 0.528352 0.627735 0.987787
O O3 0.905821 0.347532 0.056177
O O4 0.970424 0.857102 0.350723
O O5 0.633564 0.507941 0.637453
O O6 0.210501 0.257400 0.255475
O O7 0.354345 0.312667 0.475512
O O8 0.566651 0.016298 0.357479
O O9 0.255171 0.708597 0.699363
O O10 0.225653 0.136314 0.930151
O O11 0.906010 0.897151 0.547899
O O12 0.829445 0.785278 0.562681
O O13 0.751403 0.996271 0.956920
O O14 0.088822 0.618885 0.691472
O O15 0.481634 0.924518 0.026259
#
# Coordination Sequence:
#
# PCOD9085785 Si02
#       8
#     2   2   2   2   2   2   2   1
#     4  10  20  36  62  96 114 153 204 251 286 355
#     4  10  20  37  58  91 116 159 195 251 295 355
#     4  10  20  39  59  88 113 164 197 245 295 355
#     4  10  19  35  63  87 120 150 204 251 294 342
#     4  10  21  37  64  86 120 154 206 244 295 342
#     4  10  23  37  59  84 125 159 197 235 311 352
#     4  11  21  40  59  91 120 161 194 247 293 358
#     4  10  20  36  70  80 118 154 204 246 286 348
#
# _framework density 24.030616999999999
#
# number of rings (size 3 to 8) (size 9 to 14) (size 15 to 20)
#    0.000    1.867    2.667    1.600    1.867    1.067 
#    2.400    2.000    8.800    0.000    0.000    0.000 
#    0.000    0.000    0.000    0.000    0.000    0.000 
#
# Total GULP energy -83701.236578 kJ/mol
# GULP energy per Si atom -5580.082439 kJ/mol
# Density = 2.397592 g / cm^3
# Si number density = 24.030617 Si / 1000 Ang^3
#
#
#
# Elastic Constant Matrix: (Units=GPa)
#
#
# Indices 1 2 3 4 5 6 
#
# 1 171.5398 48.6056 27.1361 -5.3122 2.4577 19.8737
# 2 48.6056 125.6792 21.6734 -29.2836 -11.4822 -0.1357
# 3 27.1361 21.6734 77.4951 -22.3942 10.9076 9.5004
# 4 -5.3122 -29.2836 -22.3942 30.3345 6.7201 -11.9349
# 5 2.4577 -11.4822 10.9076 6.7201 39.1710 2.3137
# 6 19.8737 -0.1357 9.5004 -11.9349 2.3137 45.2447
#
#
#
# Elastic Compliance Matrix: (Units=1/GPa)
#
#
# Indices 1 2 3 4 5 6 
#
# 1 0.007753 -0.003973 -0.003057 -0.006667 0.000613 -0.004565
# 2 -0.003973 0.012714 0.001218 0.014359 0.000862 0.005271
# 3 -0.003057 0.001218 0.019656 0.017877 -0.008131 0.002350
# 4 -0.006667 0.014359 0.017877 0.068900 -0.013238 0.018069
# 5 0.000613 0.000862 -0.008131 -0.013238 0.030492 -0.003611
# 6 -0.004565 0.005271 0.002350 0.018069 -0.003611 0.028581
#
#
# Mechanical properties :
#
#
# Convention : Reuss Voigt Hill
#
# Bulk Modulus (GPa) = 35.09084 63.28270 49.18677
# Shear Modulus (GPa) = 26.42442 41.43664 33.93053
#
# Velocity S-wave (km/s) = 3.31964 4.15701 3.76170
# Velocity P-wave (km/s) = 5.41550 7.03081 6.27535
#
# Compressibility (1/GPa) = 0.02849746
#
# Stress axis : x y z
#
# Youngs Moduli (GPa) = 128.98851 78.65519 50.87467
#
# Poissons Ratio (x) = 0.31253 0.15550
# Poissons Ratio (y) = 0.51253 -0.06194
# Poissons Ratio (z) = 0.39427 -0.09576
#
# Static dielectric constant tensor:
#      x y z
#    x 1.907290 0.007740 0.026690 
#    y 0.007740 1.949250 0.078050 
#    z 0.026690 0.078050 2.135710 
# 
# From -- ./inp_files/176976.got.cif
#   From: 2010.05.17/outbox.cif.g08.bks.cpg/sg2_89_cif.got.tgz:176976.got - 2010.06.03 11:33:40.
