data_PCOD9085394
_publ_section_title
;
Structure prediction by ZEFSAII (Michael W. Deem and Ramdas Pophale) SiO2 
 PCOD9085394
Probable space group: P -1
;
_chemical_formula_sum "Si O2"
_cell_formula_units_Z 16
_cell_length_a 5.678118
_cell_length_b 14.572870
_cell_length_c 11.239636
_cell_angle_alpha 77.064848
_cell_angle_beta 80.688377
_cell_angle_gamma 127.750463
_cell_volume 660.619828
_symmetry_space_group_name_H-M "P -1"
_symmetry_group_IT_number 2
_symmetry_cell_setting 'triclinic'
loop_
_space_group_symop_operation_xyz
x,y,z
-x,-y,-z
loop_
_atom_site_type_symbol
_atom_site_label
_atom_site_fract_x
_atom_site_fract_y
_atom_site_fract_z
Si Si1 0.218082 0.343175 0.918169
Si Si2 0.366154 0.673907 0.237290
Si Si3 0.728353 0.759010 0.834008
Si Si4 0.611806 0.120191 0.380465
Si Si5 0.854412 0.066832 0.720935
Si Si6 0.156690 0.533034 0.847057
Si Si7 0.608834 0.204578 0.598817
Si Si8 0.535760 0.870218 0.981174
O O1 0.354321 0.342188 0.031040
O O2 0.834414 0.233556 0.000509
O O3 0.323366 0.309707 0.806207
O O4 0.326481 0.476824 0.845097
O O5 0.232640 0.668036 0.376791
O O6 0.107732 0.550945 0.210333
O O7 0.492124 0.806606 0.129522
O O8 0.434963 0.684884 0.785538
O O9 0.749236 0.852994 0.892654
O O10 0.054642 0.818416 0.726489
O O11 0.658989 0.210768 0.451793
O O12 0.500000 0.000000 0.500000
O O13 0.339783 0.053167 0.320612
O O14 0.754437 0.145232 0.659804
O O15 0.226062 0.130949 0.666815
O O16 0.700249 0.009958 0.882356
O O17 0.000000 0.500000 0.000000
#
# Coordination Sequence:
#
# PCOD9085394 Si02
#       8
#     2   2   2   2   2   2   2   2
#     4  10  19  35  60  87 130 154 208 261 325 372
#     4  10  24  38  58  91 133 166 206 258 327 391
#     4  11  20  36  63  96 121 163 211 267 320 366
#     4  10  22  43  67  92 124 166 222 268 303 373
#     4  11  23  42  67  92 124 168 222 266 316 372
#     4  11  20  36  61  95 124 162 207 264 323 380
#     4  11  26  43  63  90 130 178 209 261 321 372
#     4  10  20  35  62  94 127 155 212 266 323 384
#
# _framework density 24.219677999999998
#
# number of rings (size 3 to 8) (size 9 to 14) (size 15 to 20)
#    0.000    1.500    5.000    2.250    5.250    2.000 
#    0.000    0.625    0.000    0.750    0.000    0.000 
#    0.000    0.000    0.000    0.000    0.000    0.000 
#
# Total GULP energy -89210.438448 kJ/mol
# GULP energy per Si atom -5575.652403 kJ/mol
# Density = 2.416455 g / cm^3
# Si number density = 24.219678 Si / 1000 Ang^3
#
#
#
# Elastic Constant Matrix: (Units=GPa)
#
#
# Indices 1 2 3 4 5 6 
#
# 1 91.3742 11.4775 17.8742 7.9517 -11.0831 8.0351
# 2 11.4775 73.5413 9.5672 27.8190 -10.4154 10.5286
# 3 17.8742 9.5672 62.3074 32.9637 -16.0201 0.6262
# 4 7.9517 27.8190 32.9637 39.2435 -11.5864 -1.1350
# 5 -11.0831 -10.4154 -16.0201 -11.5864 31.4361 -1.1119
# 6 8.0351 10.5286 0.6262 -1.1350 -1.1119 36.4333
#
#
#
# Elastic Compliance Matrix: (Units=1/GPa)
#
#
# Indices 1 2 3 4 5 6 
#
# 1 0.012209 -0.001875 -0.004130 0.003048 0.002634 -0.001904
# 2 -0.001875 0.023180 0.010769 -0.024334 0.003286 -0.007128
# 3 -0.004130 0.010769 0.036037 -0.034972 0.007457 -0.003682
# 4 0.003048 -0.024334 -0.034972 0.072410 0.002207 0.009284
# 5 0.002634 0.003286 0.007457 0.002207 0.038426 -0.000417
# 6 -0.001904 -0.007128 -0.003682 0.009284 -0.000417 0.030267
#
#
# Mechanical properties :
#
#
# Convention : Reuss Voigt Hill
#
# Bulk Modulus (GPa) = 12.35276 33.89560 23.12418
# Shear Modulus (GPa) = 21.74022 33.97618 27.85820
#
# Velocity S-wave (km/s) = 2.99929 3.74951 3.39518
# Velocity P-wave (km/s) = 4.13590 5.72455 4.99381
#
# Compressibility (1/GPa) = 0.08095354
#
# Stress axis : x y z
#
# Youngs Moduli (GPa) = 81.90474 43.13997 27.74915
#
# Poissons Ratio (x) = 0.08090 0.11462
# Poissons Ratio (y) = 0.15359 -0.29883
# Poissons Ratio (z) = 0.33830 -0.46457
#
# Static dielectric constant tensor:
#      x y z
#    x 2.482030 -0.352320 -0.180150 
#    y -0.352320 2.249240 0.197740 
#    z -0.180150 0.197740 2.072060 
# 
# From -- ./inp_files/66248.got.cif
#   From: 2010.05.17/outbox.cif.g08.bks.cpg/sg2_34_cif.got.tgz:66248.got - 2010.06.03 11:33:40.
