data_PCOD9085580
_publ_section_title
;
Structure prediction by ZEFSAII (Michael W. Deem and Ramdas Pophale) SiO2 
 PCOD9085580
Probable space group: P -1
;
_chemical_formula_sum "Si O2"
_cell_formula_units_Z 16
_cell_length_a 21.510570
_cell_length_b 9.303203
_cell_length_c 8.269251
_cell_angle_alpha 74.460772
_cell_angle_beta 107.857749
_cell_angle_gamma 151.840582
_cell_volume 743.316141
_symmetry_space_group_name_H-M "P -1"
_symmetry_group_IT_number 2
_symmetry_cell_setting 'triclinic'
loop_
_space_group_symop_operation_xyz
x,y,z
-x,-y,-z
loop_
_atom_site_type_symbol
_atom_site_label
_atom_site_fract_x
_atom_site_fract_y
_atom_site_fract_z
Si Si1 0.852241 0.101542 0.123272
Si Si2 0.391416 0.317612 0.329458
Si Si3 0.841747 0.744707 0.111942
Si Si4 0.143059 0.653522 0.233605
Si Si5 0.447081 0.842519 0.834389
Si Si6 0.624138 0.413947 0.604566
Si Si7 0.860712 0.693701 0.768410
Si Si8 0.432531 0.513072 0.782394
O O1 0.989811 0.368868 0.253446
O O2 0.852634 0.947225 0.067262
O O3 0.716715 0.836949 0.195754
O O4 0.852723 0.240713 0.959533
O O5 0.500000 0.500000 0.500000
O O6 0.359477 0.427393 0.291365
O O7 0.463144 0.409590 0.193522
O O8 0.258196 0.953133 0.346248
O O9 0.711831 0.449188 0.201928
O O10 0.829259 0.657103 0.945797
O O11 0.981709 0.964580 0.226644
O O12 0.168134 0.531547 0.245593
O O13 0.475847 0.723877 0.880382
O O14 0.521624 0.086633 0.685055
O O15 0.500000 0.000000 0.000000
O O16 0.764977 0.616519 0.623920
O O17 0.574883 0.400364 0.411415
#
# Coordination Sequence:
#
# PCOD9085580 Si02
#       8
#     2   2   2   2   2   2   2   2
#     4   9  20  39  61  89 117 156 198 248 303 350
#     4  10  23  40  58  85 121 165 200 243 299 356
#     4   9  19  35  56  91 123 145 196 249 292 362
#     4  10  20  36  63  89 119 153 201 252 294 358
#     4  11  21  36  61  91 118 151 196 245 300 355
#     4  11  22  40  59  83 123 162 195 244 303 349
#     4  10  19  35  61  89 119 154 194 247 306 346
#     4  10  23  42  60  86 121 158 201 245 300 364
#
# _framework density 21.525162000000002
#
# number of rings (size 3 to 8) (size 9 to 14) (size 15 to 20)
#    0.000    2.000    1.250    1.875    1.750    3.500 
#    0.000   10.625    0.000    0.000    0.000    0.000 
#    0.000    0.000    0.000    0.000    0.000    0.000 
#
# Total GULP energy -89382.956451 kJ/mol
# GULP energy per Si atom -5586.434778 kJ/mol
# Density = 2.147617 g / cm^3
# Si number density = 21.525162 Si / 1000 Ang^3
#
#
#
# Elastic Constant Matrix: (Units=GPa)
#
#
# Indices 1 2 3 4 5 6 
#
# 1 126.9764 43.4536 3.4861 11.1637 0.9953 -2.4413
# 2 43.4536 122.7249 12.5907 14.8380 -3.5341 -2.6979
# 3 3.4861 12.5907 31.0287 7.1242 3.3631 -1.7299
# 4 11.1637 14.8380 7.1242 31.4870 -1.2859 -3.5462
# 5 0.9953 -3.5341 3.3631 -1.2859 28.2941 2.3923
# 6 -2.4413 -2.6979 -1.7299 -3.5462 2.3923 27.0372
#
#
#
# Elastic Compliance Matrix: (Units=1/GPa)
#
#
# Indices 1 2 3 4 5 6 
#
# 1 0.009095 -0.003085 0.000798 -0.001945 -0.000922 0.000391
# 2 -0.003085 0.009957 -0.003224 -0.002803 0.001608 -0.000001
# 3 0.000798 -0.003224 0.035666 -0.006864 -0.005116 0.001585
# 4 -0.001945 -0.002803 -0.006864 0.035808 0.001854 0.003638
# 5 -0.000922 0.001608 -0.005116 0.001854 0.036543 -0.003240
# 6 0.000391 -0.000001 0.001585 0.003638 -0.003240 0.037886
#
#
# Mechanical properties :
#
#
# Convention : Reuss Voigt Hill
#
# Bulk Modulus (GPa) = 22.88576 44.42118 33.65347
# Shear Modulus (GPa) = 26.24096 32.11032 29.17564
#
# Velocity S-wave (km/s) = 3.49532 3.86652 3.68560
# Velocity P-wave (km/s) = 5.19085 6.37298 5.81205
#
# Compressibility (1/GPa) = 0.04369530
#
# Stress axis : x y z
#
# Youngs Moduli (GPa) = 109.94993 100.43595 28.03813
#
# Poissons Ratio (x) = 0.30984 -0.02238
# Poissons Ratio (y) = 0.33919 0.09040
# Poissons Ratio (z) = -0.08777 0.32384
#
# Static dielectric constant tensor:
#      x y z
#    x 1.811690 0.010790 -0.025800 
#    y 0.010790 1.798430 0.039710 
#    z -0.025800 0.039710 1.822680 
# 
# From -- ./inp_files/208743.got.cif
#   From: 2010.05.17/outbox.cif.g08.bks.cpg/sg2_105_cif.got.tgz:208743.got - 2010.06.03 11:33:40.
