data_PCOD9085646
_publ_section_title
;
Structure prediction by ZEFSAII (Michael W. Deem and Ramdas Pophale) SiO2 
 PCOD9085646
Probable space group: P -1
;
_chemical_formula_sum "Si O2"
_cell_formula_units_Z 14
_cell_length_a 7.174579
_cell_length_b 12.686455
_cell_length_c 8.548191
_cell_angle_alpha 91.296899
_cell_angle_beta 50.179510
_cell_angle_gamma 88.063491
_cell_volume 596.254048
_symmetry_space_group_name_H-M "P -1"
_symmetry_group_IT_number 2
_symmetry_cell_setting 'triclinic'
loop_
_space_group_symop_operation_xyz
x,y,z
-x,-y,-z
loop_
_atom_site_type_symbol
_atom_site_label
_atom_site_fract_x
_atom_site_fract_y
_atom_site_fract_z
Si Si1 0.382131 0.204610 0.443368
Si Si2 0.539725 0.627192 0.168417
Si Si3 0.621853 0.156853 0.632536
Si Si4 0.078078 0.107350 0.038750
Si Si5 0.489783 0.390268 0.163654
Si Si6 0.012476 0.297777 0.883376
Si Si7 0.274970 0.034107 0.237725
O O1 0.573968 0.162120 0.472285
O O2 0.430569 0.312772 0.331903
O O3 0.131323 0.232234 0.673042
O O4 0.359233 0.115669 0.323061
O O5 0.351479 0.723889 0.320149
O O6 0.435993 0.512835 0.234680
O O7 0.771706 0.638985 0.155505
O O8 0.622736 0.639719 0.943811
O O9 0.786418 0.070857 0.638026
O O10 0.351480 0.129433 0.837495
O O11 0.085545 0.090375 0.219736
O O12 0.934815 0.209569 0.046237
O O13 0.000000 0.000000 0.000000
O O14 0.778835 0.372776 0.974715
O O15 0.500000 0.000000 0.000000
#
# Coordination Sequence:
#
# PCOD9085646 Si02
#       7
#     2   2   2   2   2   2   2
#     4  10  21  39  61  93 119 159 205 246 304 366
#     4   9  21  41  60  97 117 158 215 245 296 372
#     4   9  20  36  57  85 126 153 196 256 295 351
#     4   9  19  33  56  85 115 157 197 238 295 366
#     4  11  21  39  72  82 122 170 197 249 315 354
#     4  10  23  40  59  92 129 150 205 261 292 363
#     4  10  19  35  62  81 121 162 188 252 304 349
#
# _framework density 23.479925999999999
#
# number of rings (size 3 to 8) (size 9 to 14) (size 15 to 20)
#    0.000    2.571    0.000    3.429    6.000    2.286 
#    0.000   11.429    0.000    0.000    0.000    0.000 
#    0.000    0.000    0.000    0.000    0.000    0.000 
#
# Total GULP energy -78262.751336 kJ/mol
# GULP energy per Si atom -5590.196524 kJ/mol
# Density = 2.342648 g / cm^3
# Si number density = 23.479926 Si / 1000 Ang^3
#
#
#
# Elastic Constant Matrix: (Units=GPa)
#
#
# Indices 1 2 3 4 5 6 
#
# 1 73.4332 47.6044 33.0657 10.7319 28.1647 -9.5517
# 2 47.6044 154.6650 48.7292 8.6884 41.7405 -10.8361
# 3 33.0657 48.7292 139.1147 -11.9812 41.4360 -0.1198
# 4 10.7319 8.6884 -11.9812 37.4850 0.7535 14.4289
# 5 28.1647 41.7405 41.4360 0.7535 43.5445 7.0387
# 6 -9.5517 -10.8361 -0.1198 14.4289 7.0387 34.2870
#
#
#
# Elastic Compliance Matrix: (Units=1/GPa)
#
#
# Indices 1 2 3 4 5 6 
#
# 1 0.025146 -0.001068 -0.002117 -0.013251 -0.015488 0.015416
# 2 -0.001068 0.010409 -0.001025 -0.004935 -0.009355 0.006986
# 3 -0.002117 -0.001025 0.010798 0.004980 -0.007788 -0.001373
# 4 -0.013251 -0.004935 0.004980 0.042872 0.011981 -0.025735
# 5 -0.015488 -0.009355 -0.007788 0.011981 0.052904 -0.023201
# 6 0.015416 0.006986 -0.001373 -0.025735 -0.023201 0.051256
#
#
# Mechanical properties :
#
#
# Convention : Reuss Voigt Hill
#
# Bulk Modulus (GPa) = 26.36292 69.55682 47.95987
# Shear Modulus (GPa) = 23.31566 38.91756 31.11661
#
# Velocity S-wave (km/s) = 3.15462 4.07564 3.64434
# Velocity P-wave (km/s) = 4.95187 7.19972 6.17888
#
# Compressibility (1/GPa) = 0.03793207
#
# Stress axis : x y z
#
# Youngs Moduli (GPa) = 39.76792 96.07429 92.61206
#
# Poissons Ratio (x) = 0.10262 0.19610
# Poissons Ratio (y) = 0.04248 0.09488
# Poissons Ratio (z) = 0.08421 0.09843
#
# Static dielectric constant tensor:
#      x y z
#    x 1.955590 -0.102170 -0.049220 
#    y -0.102170 1.924130 0.028290 
#    z -0.049220 0.028290 1.920850 
# 
# From -- ./inp_files/178696.got.cif
#   From: 2010.05.17/outbox.cif.g08.bks.cpg/sg2_90_cif.got.tgz:178696.got - 2010.06.03 11:33:40.
