data_PCOD9085046
_publ_section_title
;
Structure prediction by ZEFSAII (Michael W. Deem and Ramdas Pophale) SiO2 
 PCOD9085046
Probable space group: P -1
;
_chemical_formula_sum "Si O2"
_cell_formula_units_Z 14
_cell_length_a 13.650016
_cell_length_b 9.997764
_cell_length_c 19.664950
_cell_angle_alpha 31.953269
_cell_angle_beta 157.800549
_cell_angle_gamma 139.074812
_cell_volume 530.541615
_symmetry_space_group_name_H-M "P -1"
_symmetry_group_IT_number 2
_symmetry_cell_setting 'triclinic'
loop_
_space_group_symop_operation_xyz
x,y,z
-x,-y,-z
loop_
_atom_site_type_symbol
_atom_site_label
_atom_site_fract_x
_atom_site_fract_y
_atom_site_fract_z
Si Si1 0.818520 0.764682 0.938760
Si Si2 0.950941 0.692781 0.321312
Si Si3 0.099971 0.008540 0.386623
Si Si4 0.345503 0.651199 0.399819
Si Si5 0.211251 0.658084 0.735031
Si Si6 0.351154 0.761580 0.923507
Si Si7 0.826416 0.453412 0.845139
O O1 0.651897 0.531312 0.925994
O O2 0.033335 0.675271 0.174256
O O3 0.014990 0.778933 0.994770
O O4 0.652311 0.042396 0.722191
O O5 0.120182 0.900487 0.369221
O O6 0.976002 0.529486 0.338535
O O7 0.000000 0.500000 0.500000
O O8 0.642784 0.806169 0.074712
O O9 0.234399 0.848276 0.605024
O O10 0.794349 0.047096 0.197377
O O11 0.154352 0.295526 0.296187
O O12 0.500000 0.500000 0.500000
O O13 0.513184 0.485272 0.638446
O O14 0.176334 0.786462 0.731293
O O15 0.500000 0.500000 0.000000
O O16 0.000000 0.500000 0.000000
#
# Coordination Sequence:
#
# PCOD9085046 Si02
#       7
#     2   2   2   2   2   2   2
#     4   9  20  38  61  89 113 156 198 252 298 341
#     4   9  19  34  52  83 116 151 188 228 291 355
#     4  10  20  37  57  82 120 155 184 240 298 340
#     4   9  19  39  61  83 118 152 204 250 294 344
#     4   9  19  34  55  86 109 147 197 231 285 353
#     4  10  19  35  58  86 115 147 192 242 289 356
#     4  10  22  39  59  89 119 161 198 239 296 353
#
# _framework density 26.388128999999999
#
# number of rings (size 3 to 8) (size 9 to 14) (size 15 to 20)
#    0.000    2.571    0.000    0.857    6.000    0.571 
#    7.714   10.000    0.000    0.000    0.000    0.000 
#    0.000    0.000    0.000    0.000    0.000    0.000 
#
# Total GULP energy -77997.306595 kJ/mol
# GULP energy per Si atom -5571.236185 kJ/mol
# Density = 2.632807 g / cm^3
# Si number density = 26.388129 Si / 1000 Ang^3
#
#
#
# Elastic Constant Matrix: (Units=GPa)
#
#
# Indices 1 2 3 4 5 6 
#
# 1 78.8465 16.1501 46.5108 5.8857 -5.0398 -30.8456
# 2 16.1501 85.1669 12.4063 5.8891 -18.0538 -33.9944
# 3 46.5108 12.4063 163.8462 -2.8563 5.5010 -18.0221
# 4 5.8857 5.8891 -2.8563 43.8623 -11.2320 -7.5605
# 5 -5.0398 -18.0538 5.5010 -11.2320 44.2450 12.8680
# 6 -30.8456 -33.9944 -18.0221 -7.5605 12.8680 42.0678
#
#
#
# Elastic Compliance Matrix: (Units=1/GPa)
#
#
# Indices 1 2 3 4 5 6 
#
# 1 0.020910 0.002915 -0.004404 -0.000938 -0.000731 0.015856
# 2 0.002915 0.018215 -0.000586 0.000713 0.003459 0.015676
# 3 -0.004404 -0.000586 0.007473 0.000790 -0.001498 0.000098
# 4 -0.000938 0.000713 0.000790 0.024809 0.005511 0.002999
# 5 -0.000731 0.003459 -0.001498 0.005511 0.027174 -0.005704
# 6 0.015856 0.015676 0.000098 0.002999 -0.005704 0.050391
#
#
# Mechanical properties :
#
#
# Convention : Reuss Voigt Hill
#
# Bulk Modulus (GPa) = 23.55831 53.11043 38.33437
# Shear Modulus (GPa) = 29.89156 42.88784 36.38970
#
# Velocity S-wave (km/s) = 3.36931 4.03584 3.71754
# Velocity P-wave (km/s) = 4.90748 6.47207 5.74330
#
# Compressibility (1/GPa) = 0.04244786
#
# Stress axis : x y z
#
# Youngs Moduli (GPa) = 47.82375 54.89879 133.81874
#
# Poissons Ratio (x) = -0.16005 0.58937
# Poissons Ratio (y) = -0.13942 0.07845
# Poissons Ratio (z) = 0.21063 0.03219
#
# Static dielectric constant tensor:
#      x y z
#    x 2.227680 0.003680 0.066590 
#    y 0.003680 2.222110 0.037710 
#    z 0.066590 0.037710 2.177830 
# 
# From -- ./inp_files/274241.got.cif
#   From: 2010.05.17/outbox.cif.g08.bks.cpg/sg2_138_cif.got.tgz:274241.got - 2010.06.03 11:33:40.
