data_PCOD9085582
_publ_section_title
;
Structure prediction by ZEFSAII (Michael W. Deem and Ramdas Pophale) SiO2 
 PCOD9085582
Probable space group: P -1
;
_chemical_formula_sum "Si O2"
_cell_formula_units_Z 15
_cell_length_a 18.112407
_cell_length_b 16.625122
_cell_length_c 10.856914
_cell_angle_alpha 20.289966
_cell_angle_beta 40.035608
_cell_angle_gamma 32.606999
_cell_volume 605.649466
_symmetry_space_group_name_H-M "P -1"
_symmetry_group_IT_number 2
_symmetry_cell_setting 'triclinic'
loop_
_space_group_symop_operation_xyz
x,y,z
-x,-y,-z
loop_
_atom_site_type_symbol
_atom_site_label
_atom_site_fract_x
_atom_site_fract_y
_atom_site_fract_z
Si Si1 0.436294 0.443768 0.548100
Si Si2 0.500000 0.500000 0.000000
Si Si3 0.700776 0.053037 0.189598
Si Si4 0.176265 0.649954 0.721178
Si Si5 0.725640 0.492229 0.937453
Si Si6 0.386059 0.847724 0.472522
Si Si7 0.974824 0.944375 0.898472
Si Si8 0.080678 0.297546 0.299547
O O1 0.500000 0.500000 0.500000
O O2 0.308088 0.440438 0.766987
O O3 0.550904 0.184072 0.695118
O O4 0.373448 0.718823 0.150580
O O5 0.646399 0.234396 0.121597
O O6 0.496046 0.244755 0.446366
O O7 0.671593 0.811384 0.568218
O O8 0.862298 0.916894 0.149955
O O9 0.082245 0.914163 0.370624
O O10 0.238845 0.667167 0.745808
O O11 0.102740 0.491629 0.080826
O O12 0.614585 0.443958 0.081550
O O13 0.872778 0.333341 0.910096
O O14 0.228719 0.070375 0.378226
O O15 0.999208 0.157347 0.635896
O O16 0.000000 0.500000 0.000000
#
# Coordination Sequence:
#
# PCOD9085582 Si02
#       8
#     2   1   2   2   2   2   2   2
#     4  10  20  38  58  86 121 152 196 253 294 353
#     4  10  22  40  58  82 120 164 196 240 296 358
#     4  10  22  39  62  87 121 158 202 243 303 354
#     4  10  19  35  61  89 121 159 197 246 300 352
#     4  11  20  36  61  91 120 156 201 245 303 359
#     4  10  21  38  61  85 122 160 196 248 302 348
#     4   9  20  38  61  85 127 153 198 252 297 355
#     4   9  19  37  58  86 118 157 200 243 295 358
#
# _framework density 24.766801000000001
#
# number of rings (size 3 to 8) (size 9 to 14) (size 15 to 20)
#    0.000    2.133    1.333    1.600    0.000    2.667 
#    2.400   10.000    0.000    0.000    0.000    0.000 
#    0.000    0.000    0.000    0.000    0.000    0.000 
#
# Total GULP energy -83535.495369 kJ/mol
# GULP energy per Si atom -5569.033025 kJ/mol
# Density = 2.471043 g / cm^3
# Si number density = 24.766801 Si / 1000 Ang^3
#
#
#
# Elastic Constant Matrix: (Units=GPa)
#
#
# Indices 1 2 3 4 5 6 
#
# 1 90.6698 12.2316 27.0195 11.2800 3.3615 4.7787
# 2 12.2316 114.8355 15.0664 -4.1816 6.8215 -15.5468
# 3 27.0195 15.0664 80.9557 11.7528 -15.0757 -9.4850
# 4 11.2800 -4.1816 11.7528 24.0575 -4.1830 10.5229
# 5 3.3615 6.8215 -15.0757 -4.1830 37.4624 2.5541
# 6 4.7787 -15.5468 -9.4850 10.5229 2.5541 35.8388
#
#
#
# Elastic Compliance Matrix: (Units=1/GPa)
#
#
# Indices 1 2 3 4 5 6 
#
# 1 0.013201 -0.001055 -0.004469 -0.003825 -0.003078 -0.002058
# 2 -0.001055 0.009732 -0.001590 0.000836 -0.002488 0.003873
# 3 -0.004469 -0.001590 0.017284 -0.008375 0.006268 0.006493
# 4 -0.003825 0.000836 -0.008375 0.056308 0.004348 -0.018187
# 5 -0.003078 -0.002488 0.006268 0.004348 0.030599 -0.002467
# 6 -0.002058 0.003873 0.006493 -0.018187 -0.002467 0.037091
#
#
# Mechanical properties :
#
#
# Convention : Reuss Voigt Hill
#
# Bulk Modulus (GPa) = 38.47707 43.89957 41.18832
# Shear Modulus (GPa) = 26.72295 34.94798 30.83546
#
# Velocity S-wave (km/s) = 3.28835 3.76051 3.53233
# Velocity P-wave (km/s) = 5.47605 6.05136 5.77088
#
# Compressibility (1/GPa) = 0.02598950
#
# Stress axis : x y z
#
# Youngs Moduli (GPa) = 75.74930 102.75719 57.85864
#
# Poissons Ratio (x) = 0.10841 0.25855
# Poissons Ratio (y) = 0.07991 0.09199
# Poissons Ratio (z) = 0.33850 0.16337
#
# Static dielectric constant tensor:
#      x y z
#    x 1.992220 0.036520 -0.074650 
#    y 0.036520 1.979160 -0.016320 
#    z -0.074650 -0.016320 2.097150 
# 
# From -- ./inp_files/173072.got.cif
#   From: 2010.05.17/outbox.cif.g08.bks.cpg/sg2_87_cif.got.tgz:173072.got - 2010.06.03 11:33:40.
