data_PCOD9085965
_publ_section_title
;
Structure prediction by ZEFSAII (Michael W. Deem and Ramdas Pophale) SiO2 
 PCOD9085965
Probable space group: P -1
;
_chemical_formula_sum "Si O2"
_cell_formula_units_Z 14
_cell_length_a 14.659812
_cell_length_b 5.683813
_cell_length_c 20.584480
_cell_angle_alpha 124.270098
_cell_angle_beta 154.683896
_cell_angle_gamma 70.683988
_cell_volume 523.353144
_symmetry_space_group_name_H-M "P -1"
_symmetry_group_IT_number 2
_symmetry_cell_setting 'triclinic'
loop_
_space_group_symop_operation_xyz
x,y,z
-x,-y,-z
loop_
_atom_site_type_symbol
_atom_site_label
_atom_site_fract_x
_atom_site_fract_y
_atom_site_fract_z
Si Si1 0.071887 0.217555 0.703113
Si Si2 0.349917 0.610712 0.337956
Si Si3 0.449394 0.725815 0.126404
Si Si4 0.413103 0.234534 0.114568
Si Si5 0.186685 0.617840 0.071305
Si Si6 0.635896 0.298289 0.494124
Si Si7 0.209338 0.784524 0.794718
O O1 0.120315 0.404064 0.694263
O O2 0.835968 0.223088 0.581049
O O3 0.070166 0.881598 0.666656
O O4 0.308841 0.477078 0.938793
O O5 0.539879 0.496254 0.419945
O O6 0.281930 0.514676 0.355415
O O7 0.500000 0.000000 0.500000
O O8 0.092476 0.471536 0.113771
O O9 0.572820 0.562629 0.224314
O O10 0.252359 0.703123 0.049478
O O11 0.559274 0.082913 0.220984
O O12 0.257577 0.333091 0.077276
O O13 0.210588 0.955626 0.891835
O O14 0.389053 0.944472 0.287417
O O15 0.500000 0.000000 0.000000
#
# Coordination Sequence:
#
# PCOD9085965 Si02
#       7
#     2   2   2   2   2   2   2
#     4  10  20  37  60  91 127 161 215 253 316 387
#     4  11  25  39  60  90 128 164 219 275 310 371
#     4   8  16  32  56  79 112 153 200 247 291 362
#     4   8  17  31  57  84 116 155 203 246 302 370
#     4  10  21  39  59  88 125 171 217 254 324 373
#     4  11  24  39  61  89 126 172 212 267 319 377
#     4  10  19  35  65  96 124 163 209 262 320 385
#
# _framework density 26.750582000000001
#
# number of rings (size 3 to 8) (size 9 to 14) (size 15 to 20)
#    0.857    1.429    1.429    0.857    6.000    1.714 
#    0.000    0.000    0.000    1.714    0.000    0.000 
#    0.000    0.000    0.000    0.000    0.000    0.000 
#
# Total GULP energy -78155.441338 kJ/mol
# GULP energy per Si atom -5582.531524 kJ/mol
# Density = 2.668970 g / cm^3
# Si number density = 26.750582 Si / 1000 Ang^3
#
#
#
# Elastic Constant Matrix: (Units=GPa)
#
#
# Indices 1 2 3 4 5 6 
#
# 1 62.4495 15.3140 14.9451 -9.7322 12.2939 6.0244
# 2 15.3140 217.6690 37.4836 -27.8335 10.9689 47.7750
# 3 14.9451 37.4836 122.0652 -33.9957 7.1054 -0.6656
# 4 -9.7322 -27.8335 -33.9957 33.2864 -5.9703 -9.2356
# 5 12.2939 10.9689 7.1054 -5.9703 29.7757 3.1054
# 6 6.0244 47.7750 -0.6656 -9.2356 3.1054 36.9823
#
#
#
# Elastic Compliance Matrix: (Units=1/GPa)
#
#
# Indices 1 2 3 4 5 6 
#
# 1 0.018134 -0.000053 -0.001161 0.002414 -0.006523 -0.001756
# 2 -0.000053 0.007037 -0.001715 0.001547 -0.000949 -0.008646
# 3 -0.001161 -0.001715 0.012355 0.012445 0.000061 0.005730
# 4 0.002414 0.001547 0.012445 0.048129 0.004122 0.009505
# 5 -0.006523 -0.000949 0.000061 0.004122 0.037421 0.000177
# 6 -0.001756 -0.008646 0.005730 0.009505 0.000177 0.040957
#
#
# Mechanical properties :
#
#
# Convention : Reuss Voigt Hill
#
# Bulk Modulus (GPa) = 31.57955 59.74102 45.66028
# Shear Modulus (GPa) = 27.70886 42.30495 35.00690
#
# Velocity S-wave (km/s) = 3.22191 3.98107 3.62144
# Velocity P-wave (km/s) = 5.06673 6.59644 5.88153
#
# Compressibility (1/GPa) = 0.03166606
#
# Stress axis : x y z
#
# Youngs Moduli (GPa) = 55.14600 142.11288 80.93860
#
# Poissons Ratio (x) = 0.00753 0.09400
# Poissons Ratio (y) = 0.00292 0.13883
# Poissons Ratio (z) = 0.06405 0.24376
#
# Static dielectric constant tensor:
#      x y z
#    x 2.200970 0.083310 -0.056310 
#    y 0.083310 2.241230 -0.019120 
#    z -0.056310 -0.019120 2.010690 
# 
# From -- ./inp_files/612601.got.cif
#   From: 2010.05.17/outbox.cif.g08.bks.cpg/sg2_307_cif.got.tgz:612601.got - 2010.06.03 11:33:40.
