data_PCOD9085027
_publ_section_title
;
Structure prediction by ZEFSAII (Michael W. Deem and Ramdas Pophale) SiO2 
 PCOD9085027
Probable space group: P -1
;
_chemical_formula_sum "Si O2"
_cell_formula_units_Z 16
_cell_length_a 17.098439
_cell_length_b 9.683742
_cell_length_c 7.806034
_cell_angle_alpha 92.952877
_cell_angle_beta 116.950963
_cell_angle_gamma 43.004371
_cell_volume 697.563061
_symmetry_space_group_name_H-M "P -1"
_symmetry_group_IT_number 2
_symmetry_cell_setting 'triclinic'
loop_
_space_group_symop_operation_xyz
x,y,z
-x,-y,-z
loop_
_atom_site_type_symbol
_atom_site_label
_atom_site_fract_x
_atom_site_fract_y
_atom_site_fract_z
Si Si1 0.417075 0.657345 0.692806
Si Si2 0.839600 0.034145 0.763630
Si Si3 0.649655 0.953604 0.281925
Si Si4 0.064385 0.568946 0.420555
Si Si5 0.648689 0.753505 0.963501
Si Si6 0.019977 0.035211 0.755568
Si Si7 0.688057 0.410387 0.131900
Si Si8 0.951467 0.448295 0.189120
O O1 0.331090 0.754818 0.434884
O O2 0.586087 0.476615 0.881469
O O3 0.343191 0.890451 0.711178
O O4 0.378828 0.572229 0.763552
O O5 0.886835 0.038671 0.989692
O O6 0.917692 0.037206 0.704017
O O7 0.921043 0.785948 0.801229
O O8 0.788917 0.701561 0.474119
O O9 0.506906 0.089845 0.256473
O O10 0.632446 0.910942 0.072123
O O11 0.031124 0.609690 0.593739
O O12 0.952344 0.613345 0.207437
O O13 0.066690 0.720500 0.367727
O O14 0.676687 0.589042 0.109170
O O15 0.794112 0.587503 0.987837
O O16 0.145251 0.839278 0.734699
#
# Coordination Sequence:
#
# PCOD9085027 Si02
#       8
#     2   2   2   2   2   2   2   2
#     4  10  21  37  61  85 113 140 191 238 279 334
#     4  11  23  40  55  80 115 156 190 230 271 333
#     4   9  18  34  53  84 113 139 174 228 288 326
#     4  10  21  35  58  85 109 141 185 238 279 331
#     4   9  18  32  56  82 113 140 174 227 285 331
#     4  11  25  38  55  81 117 153 192 226 276 334
#     4  10  21  37  59  88 110 146 186 235 284 330
#     4  10  19  35  58  85 107 143 184 232 284 323
#
# _framework density 22.936993999999999
#
# number of rings (size 3 to 8) (size 9 to 14) (size 15 to 20)
#    0.000    2.000    2.500    0.750    7.000    2.000 
#    0.000    0.000    0.000    0.750    0.000    0.000 
#    0.000    0.000    0.000    0.000    0.000    0.000 
#
# Total GULP energy -89326.581279 kJ/mol
# GULP energy per Si atom -5582.911330 kJ/mol
# Density = 2.288479 g / cm^3
# Si number density = 22.936994 Si / 1000 Ang^3
#
#
#
# Elastic Constant Matrix: (Units=GPa)
#
#
# Indices 1 2 3 4 5 6 
#
# 1 37.8043 18.7582 1.8281 -6.7510 7.2519 9.2078
# 2 18.7582 63.6259 0.4408 -14.7512 -3.7000 15.5237
# 3 1.8281 0.4408 69.6593 -5.9749 12.5341 -9.8737
# 4 -6.7510 -14.7512 -5.9749 36.7100 -3.8622 13.2635
# 5 7.2519 -3.7000 12.5341 -3.8622 29.5141 -8.1466
# 6 9.2078 15.5237 -9.8737 13.2635 -8.1466 31.9863
#
#
#
# Elastic Compliance Matrix: (Units=1/GPa)
#
#
# Indices 1 2 3 4 5 6 
#
# 1 0.036889 -0.006320 0.000049 0.008007 -0.012720 -0.014097
# 2 -0.006320 0.025205 -0.001537 0.014922 0.002802 -0.016362
# 3 0.000049 -0.001537 0.016005 -0.000153 -0.005850 0.004246
# 4 0.008007 0.014922 -0.000153 0.044841 -0.002092 -0.028721
# 5 -0.012720 0.002802 -0.005850 -0.002092 0.042967 0.012307
# 6 -0.014097 -0.016362 0.004246 -0.028721 0.012307 0.059617
#
#
# Mechanical properties :
#
#
# Convention : Reuss Voigt Hill
#
# Bulk Modulus (GPa) = 16.00387 23.68264 19.84326
# Shear Modulus (GPa) = 19.08630 29.64625 24.36627
#
# Velocity S-wave (km/s) = 2.88778 3.59905 3.26285
# Velocity P-wave (km/s) = 4.25576 5.25532 4.78173
#
# Compressibility (1/GPa) = 0.06248488
#
# Stress axis : x y z
#
# Youngs Moduli (GPa) = 27.10830 39.67399 62.47917
#
# Poissons Ratio (x) = 0.25073 -0.00309
# Poissons Ratio (y) = 0.17132 0.09603
# Poissons Ratio (z) = -0.00134 0.06098
#
# Static dielectric constant tensor:
#      x y z
#    x 1.862520 -0.026630 0.052360 
#    y -0.026630 1.825990 0.013720 
#    z 0.052360 0.013720 1.939030 
# 
# From -- ./inp_files/174986.got.cif
#   From: 2010.05.17/outbox.cif.g08.bks.cpg/sg2_88_cif.got.tgz:174986.got - 2010.06.03 11:33:40.
