data_PCOD9085697
_publ_section_title
;
Structure prediction by ZEFSAII (Michael W. Deem and Ramdas Pophale) SiO2 
 PCOD9085697
Probable space group: P -1
;
_chemical_formula_sum "Si O2"
_cell_formula_units_Z 16
_cell_length_a 9.450498
_cell_length_b 10.632418
_cell_length_c 9.956502
_cell_angle_alpha 113.788892
_cell_angle_beta 72.462052
_cell_angle_gamma 129.198334
_cell_volume 707.915679
_symmetry_space_group_name_H-M "P -1"
_symmetry_group_IT_number 2
_symmetry_cell_setting 'triclinic'
loop_
_space_group_symop_operation_xyz
x,y,z
-x,-y,-z
loop_
_atom_site_type_symbol
_atom_site_label
_atom_site_fract_x
_atom_site_fract_y
_atom_site_fract_z
Si Si1 0.642900 0.191275 0.687279
Si Si2 0.959899 0.363747 0.339526
Si Si3 0.766842 0.832003 0.622393
Si Si4 0.025070 0.948861 0.821757
Si Si5 0.571425 0.199445 0.392363
Si Si6 0.724707 0.674533 0.171586
Si Si7 0.005683 0.231084 0.649390
Si Si8 0.653536 0.481858 0.838353
O O1 0.600311 0.205570 0.549276
O O2 0.855607 0.262168 0.668732
O O3 0.592701 0.299409 0.831802
O O4 0.527448 0.999952 0.689870
O O5 0.913292 0.173947 0.281636
O O6 0.154373 0.449847 0.251957
O O7 0.000000 0.500000 0.500000
O O8 0.768181 0.315315 0.315409
O O9 0.824440 0.854400 0.770349
O O10 0.563483 0.755076 0.600323
O O11 0.851420 0.741606 0.492015
O O12 0.882587 0.028136 0.623748
O O13 0.175492 0.124014 0.777664
O O14 0.000000 0.000000 0.000000
O O15 0.513019 0.562599 0.229185
O O16 0.867683 0.665862 0.214781
O O17 0.698819 0.608284 0.999489
#
# Coordination Sequence:
#
# PCOD9085697 Si02
#       8
#     2   2   2   2   2   2   2   2
#     4  10  19  35  62  90 119 161 204 253 309 367
#     4  12  24  39  62  94 126 163 203 261 310 365
#     4   9  19  35  61  93 117 156 211 255 294 369
#     4  11  22  43  67  89 125 168 205 247 316 372
#     4  10  20  37  61  88 123 160 203 254 306 363
#     4  10  22  41  65  88 122 169 208 257 296 378
#     4   9  18  34  60  92 119 154 210 258 300 353
#     4  11  22  38  61  92 124 162 209 252 314 360
#
# _framework density 22.601559999999999
#
# number of rings (size 3 to 8) (size 9 to 14) (size 15 to 20)
#    0.000    1.750    2.500    2.250    0.000    4.500 
#    0.000    2.500    2.750    0.000    0.000    0.000 
#    0.000    0.000    0.000    0.000    0.000    0.000 
#
# Total GULP energy -89144.638352 kJ/mol
# GULP energy per Si atom -5571.539897 kJ/mol
# Density = 2.255012 g / cm^3
# Si number density = 22.601560 Si / 1000 Ang^3
#
#
#
# Elastic Constant Matrix: (Units=GPa)
#
#
# Indices 1 2 3 4 5 6 
#
# 1 188.5461 26.9065 46.1285 11.5713 9.3130 45.2809
# 2 26.9065 55.8752 12.8146 14.7983 -1.1650 26.8480
# 3 46.1285 12.8146 62.6671 18.0941 1.3678 4.0193
# 4 11.5713 14.7983 18.0941 33.6187 -1.1183 -9.8371
# 5 9.3130 -1.1650 1.3678 -1.1183 32.5596 5.6869
# 6 45.2809 26.8480 4.0193 -9.8371 5.6869 50.0098
#
#
#
# Elastic Compliance Matrix: (Units=1/GPa)
#
#
# Indices 1 2 3 4 5 6 
#
# 1 0.008850 0.002869 -0.005161 -0.004462 -0.000628 -0.009945
# 2 0.002869 0.036453 -0.000845 -0.024453 0.004468 -0.027418
# 3 -0.005161 -0.000845 0.022613 -0.009607 -0.000083 0.001429
# 4 -0.004462 -0.024453 -0.009607 0.055669 -0.002376 0.029161
# 5 -0.000628 0.004468 -0.000083 -0.002376 0.032010 -0.005931
# 6 -0.009945 -0.027418 0.001429 0.029161 -0.005931 0.050016
#
#
# Mechanical properties :
#
#
# Convention : Reuss Voigt Hill
#
# Bulk Modulus (GPa) = 16.22251 53.19861 34.71056
# Shear Modulus (GPa) = 21.51152 37.98686 29.74919
#
# Velocity S-wave (km/s) = 3.08843 4.10410 3.63195
# Velocity P-wave (km/s) = 4.46218 6.78579 5.74273
#
# Compressibility (1/GPa) = 0.06164276
#
# Stress axis : x y z
#
# Youngs Moduli (GPa) = 112.98924 27.43273 44.22166
#
# Poissons Ratio (x) = -0.07871 0.22825
# Poissons Ratio (y) = -0.32421 0.03736
# Poissons Ratio (z) = 0.58318 0.02318
#
# Static dielectric constant tensor:
#      x y z
#    x 1.867000 -0.004500 -0.000780 
#    y -0.004500 1.945460 -0.008680 
#    z -0.000780 -0.008680 1.872220 
# 
# From -- ./inp_files/331802.got.cif
#   From: 2010.05.17/outbox.cif.g08.bks.cpg/sg2_166_cif.got.tgz:331802.got - 2010.06.03 11:33:40.
