data_PCOD9085885
_publ_section_title
;
Structure prediction by ZEFSAII (Michael W. Deem and Ramdas Pophale) SiO2 
 PCOD9085885
Probable space group: P -1
;
_chemical_formula_sum "Si O2"
_cell_formula_units_Z 14
_cell_length_a 16.247723
_cell_length_b 9.092880
_cell_length_c 4.981222
_cell_angle_alpha 69.046000
_cell_angle_beta 106.184168
_cell_angle_gamma 126.580185
_cell_volume 549.762832
_symmetry_space_group_name_H-M "P -1"
_symmetry_group_IT_number 2
_symmetry_cell_setting 'triclinic'
loop_
_space_group_symop_operation_xyz
x,y,z
-x,-y,-z
loop_
_atom_site_type_symbol
_atom_site_label
_atom_site_fract_x
_atom_site_fract_y
_atom_site_fract_z
Si Si1 0.045631 0.680377 0.231031
Si Si2 0.452624 0.543440 0.678437
Si Si3 0.163602 0.419211 0.023458
Si Si4 0.902304 0.973189 0.575445
Si Si5 0.376828 0.068088 0.486928
Si Si6 0.238447 0.667418 0.404459
Si Si7 0.712788 0.850786 0.144757
O O1 0.154629 0.718150 0.221357
O O2 0.000000 0.500000 0.500000
O O3 0.065564 0.855837 0.309121
O O4 0.951099 0.627178 0.983161
O O5 0.500000 0.500000 0.500000
O O6 0.503458 0.767078 0.561916
O O7 0.334713 0.372127 0.702030
O O8 0.500000 0.500000 0.000000
O O9 0.152918 0.222793 0.181799
O O10 0.246552 0.577417 0.198465
O O11 0.191602 0.506556 0.695916
O O12 0.827611 0.962237 0.283977
O O13 0.000000 0.000000 0.500000
O O14 0.345449 0.084663 0.749828
O O15 0.334963 0.856691 0.496376
O O16 0.314005 0.123657 0.196406
#
# Coordination Sequence:
#
# PCOD9085885 Si02
#       7
#     2   2   2   2   2   2   2
#     4  10  22  39  59  82 113 153 206 246 285 337
#     4   8  16  32  55  88 118 141 186 252 302 339
#     4  11  25  40  55  85 122 162 197 242 296 353
#     4  12  25  40  61  87 126 165 198 239 298 362
#     4  10  19  35  64  89 114 149 199 251 298 342
#     4  11  22  40  62  85 116 155 204 252 290 344
#     4  10  21  36  58  90 119 153 195 246 298 350
#
# _framework density 25.465527999999999
#
# number of rings (size 3 to 8) (size 9 to 14) (size 15 to 20)
#    0.000    1.714    1.429    3.429    4.000    2.286 
#    0.000    0.000    0.000    1.714    0.000    0.000 
#    0.000    0.000    0.000    0.000    0.000    0.000 
#
# Total GULP energy -78380.885486 kJ/mol
# GULP energy per Si atom -5598.634678 kJ/mol
# Density = 2.540757 g / cm^3
# Si number density = 25.465528 Si / 1000 Ang^3
#
#
#
# Elastic Constant Matrix: (Units=GPa)
#
#
# Indices 1 2 3 4 5 6 
#
# 1 46.7242 20.9279 4.4441 -3.5063 0.8819 -12.2702
# 2 20.9279 188.5352 13.3671 -0.8746 1.9239 -0.9037
# 3 4.4441 13.3671 109.1312 -3.4518 -6.9808 -15.7900
# 4 -3.5063 -0.8746 -3.4518 48.6314 -3.3762 1.3875
# 5 0.8819 1.9239 -6.9808 -3.3762 19.4419 -4.1444
# 6 -12.2702 -0.9037 -15.7900 1.3875 -4.1444 33.5779
#
#
#
# Elastic Compliance Matrix: (Units=1/GPa)
#
#
# Indices 1 2 3 4 5 6 
#
# 1 0.025228 -0.002828 0.000895 0.001681 0.001820 0.009719
# 2 -0.002828 0.005682 -0.000860 -0.000197 -0.001078 -0.001410
# 3 0.000895 -0.000860 0.010437 0.000985 0.005202 0.005813
# 4 0.001681 -0.000197 0.000985 0.021015 0.004098 0.000710
# 5 0.001820 -0.001078 0.005202 0.004098 0.056137 0.009842
# 6 0.009719 -0.001410 0.005813 0.000710 0.009842 0.037214
#
#
# Mechanical properties :
#
#
# Convention : Reuss Voigt Hill
#
# Bulk Modulus (GPa) = 27.96341 46.87431 37.41886
# Shear Modulus (GPa) = 28.86508 40.70699 34.78603
#
# Velocity S-wave (km/s) = 3.37040 4.00248 3.69996
# Velocity P-wave (km/s) = 5.11379 6.30926 5.74271
#
# Compressibility (1/GPa) = 0.03576102
#
# Stress axis : x y z
#
# Youngs Moduli (GPa) = 39.63888 175.98630 95.81068
#
# Poissons Ratio (x) = 0.49769 -0.08574
# Poissons Ratio (y) = 0.11210 0.08240
# Poissons Ratio (z) = -0.03547 0.15134
#
# Static dielectric constant tensor:
#      x y z
#    x 2.022670 0.039600 -0.003620 
#    y 0.039600 2.055070 -0.035030 
#    z -0.003620 -0.035030 1.930000 
# 
# From -- ./inp_files/115433.got.cif
#   From: 2010.05.17/outbox.cif.g08.bks.cpg/sg2_58_cif.got.tgz:115433.got - 2010.06.03 11:33:40.
