data_PCOD9085387
_publ_section_title
;
Structure prediction by ZEFSAII (Michael W. Deem and Ramdas Pophale) SiO2 
 PCOD9085387
Probable space group: P -1
;
_chemical_formula_sum "Si O2"
_cell_formula_units_Z 12
_cell_length_a 16.322759
_cell_length_b 9.635953
_cell_length_c 8.021283
_cell_angle_alpha 83.373268
_cell_angle_beta 115.842447
_cell_angle_gamma 148.486095
_cell_volume 497.767789
_symmetry_space_group_name_H-M "P -1"
_symmetry_group_IT_number 2
_symmetry_cell_setting 'triclinic'
loop_
_space_group_symop_operation_xyz
x,y,z
-x,-y,-z
loop_
_atom_site_type_symbol
_atom_site_label
_atom_site_fract_x
_atom_site_fract_y
_atom_site_fract_z
Si Si1 0.673535 0.234594 0.266915
Si Si2 0.295462 0.643553 0.172732
Si Si3 0.962054 0.485967 0.247083
Si Si4 0.260600 0.129747 0.341461
Si Si5 0.892003 0.777251 0.235760
Si Si6 0.951039 0.154941 0.167557
O O1 0.841003 0.358706 0.326578
O O2 0.789016 0.540904 0.319558
O O3 0.537131 0.004651 0.334062
O O4 0.500000 0.000000 0.000000
O O5 0.182784 0.447428 0.267638
O O6 0.176092 0.618430 0.000786
O O7 0.239751 0.445985 0.016253
O O8 0.948972 0.304791 0.223869
O O9 0.181768 0.867820 0.369938
O O10 0.500000 0.500000 0.500000
O O11 0.118133 0.034444 0.344399
O O12 0.182575 0.031077 0.095147
O O13 0.878319 0.921175 0.238528
#
# Coordination Sequence:
#
# PCOD9085387 Si02
#       6
#     2   2   2   2   2   2
#     4   7  13  26  41  60  84 115 140 163 204 258
#     4   8  13  25  41  62  83 113 141 166 202 255
#     4   8  15  26  42  63  84 108 139 175 206 241
#     4   9  16  27  42  62  86 115 140 163 204 260
#     4   8  15  26  42  63  84 108 139 175 206 241
#     4  10  16  26  46  70  85  99 139 190 209 223
#
# _framework density 24.107624000000001
#
# number of rings (size 3 to 8) (size 9 to 14) (size 15 to 20)
#    0.000    4.667    0.000    4.000    0.000    0.000 
#    0.000    8.333    0.000    0.000    0.000  189.000 
#    0.000    0.000    0.000    0.000    0.000    0.000 
#
# Total GULP energy -66983.424915 kJ/mol
# GULP energy per Si atom -5581.952076 kJ/mol
# Density = 2.405275 g / cm^3
# Si number density = 24.107624 Si / 1000 Ang^3
#
#
#
# Elastic Constant Matrix: (Units=GPa)
#
#
# Indices 1 2 3 4 5 6 
#
# 1 97.6747 99.8569 41.5499 24.6717 -10.9693 -38.1998
# 2 99.8569 180.4258 47.2168 52.3495 14.0030 -16.4327
# 3 41.5499 47.2168 120.1990 37.8920 -1.5650 7.2057
# 4 24.6717 52.3495 37.8920 43.8012 7.9390 1.5713
# 5 -10.9693 14.0030 -1.5650 7.9390 31.4655 7.6611
# 6 -38.1998 -16.4327 7.2057 1.5713 7.6611 56.8994
#
#
#
# Elastic Compliance Matrix: (Units=1/GPa)
#
#
# Indices 1 2 3 4 5 6 
#
# 1 0.060323 -0.032243 -0.012757 0.009994 0.025127 0.029143
# 2 -0.032243 0.026333 0.006169 -0.015345 -0.015793 -0.012273
# 3 -0.012757 0.006169 0.014662 -0.012330 -0.001377 -0.008114
# 4 0.009994 -0.015345 -0.012330 0.046605 -0.002771 0.002925
# 5 0.025127 -0.015793 -0.001377 -0.002771 0.046672 0.006275
# 6 0.029143 -0.012273 -0.008114 0.002925 0.006275 0.033698
#
#
# Mechanical properties :
#
#
# Convention : Reuss Voigt Hill
#
# Bulk Modulus (GPa) = 42.27293 86.17186 64.22239
# Shear Modulus (GPa) = 15.93170 40.41162 28.17166
#
# Velocity S-wave (km/s) = 2.57350 4.09871 3.42216
# Velocity P-wave (km/s) = 5.13845 7.63030 6.50481
#
# Compressibility (1/GPa) = 0.02365580
#
# Stress axis : x y z
#
# Youngs Moduli (GPa) = 16.57736 37.97484 68.20575
#
# Poissons Ratio (x) = 1.22442 0.87010
# Poissons Ratio (y) = 0.53450 -0.42075
# Poissons Ratio (z) = 0.21148 -0.23426
#
# Static dielectric constant tensor:
#      x y z
#    x 1.927230 0.023110 -0.014500 
#    y 0.023110 1.991850 -0.090570 
#    z -0.014500 -0.090570 2.055530 
# 
# From -- ./inp_files/191824.got.cif
#   From: 2010.05.17/outbox.cif.g08.bks.cpg/sg2_96_cif.got.tgz:191824.got - 2010.06.03 11:33:40.
