data_PCOD9085919
_publ_section_title
;
Structure prediction by ZEFSAII (Michael W. Deem and Ramdas Pophale) SiO2 
 PCOD9085919
Probable space group: P -1
;
_chemical_formula_sum "Si O2"
_cell_formula_units_Z 16
_cell_length_a 25.252549
_cell_length_b 9.474062
_cell_length_c 19.027497
_cell_angle_alpha 134.253416
_cell_angle_beta 157.413083
_cell_angle_gamma 31.363060
_cell_volume 811.257140
_symmetry_space_group_name_H-M "P -1"
_symmetry_group_IT_number 2
_symmetry_cell_setting 'triclinic'
loop_
_space_group_symop_operation_xyz
x,y,z
-x,-y,-z
loop_
_atom_site_type_symbol
_atom_site_label
_atom_site_fract_x
_atom_site_fract_y
_atom_site_fract_z
Si Si1 0.394235 0.488538 0.624530
Si Si2 0.577671 0.750833 0.282547
Si Si3 0.821155 0.526751 0.290823
Si Si4 0.008102 0.779270 0.467260
Si Si5 0.627208 0.948626 0.005727
Si Si6 0.314676 0.161322 0.220599
Si Si7 0.948901 0.246007 0.810313
Si Si8 0.254919 0.580086 0.991151
O O1 0.393872 0.457412 0.698076
O O2 0.173966 0.712400 0.391902
O O3 0.524232 0.540552 0.782490
O O4 0.531798 0.145119 0.650819
O O5 0.809759 0.542130 0.463280
O O6 0.431886 0.880072 0.080306
O O7 0.458080 0.041000 0.285489
O O8 0.000000 0.500000 0.500000
O O9 0.910851 0.284926 0.376617
O O10 0.591949 0.845738 0.149131
O O11 0.787945 0.468361 0.154482
O O12 0.787733 0.906113 0.232465
O O13 0.000000 0.000000 0.500000
O O14 0.729792 0.620733 0.007516
O O15 0.215946 0.455716 0.239362
O O16 0.121438 0.220120 0.986746
O O17 0.072365 0.943902 0.900318
#
# Coordination Sequence:
#
# PCOD9085919 Si02
#       8
#     2   2   2   2   2   2   2   2
#     4   9  21  35  63  87 119 157 193 251 296 348
#     4   9  23  38  57  86 121 157 192 241 305 354
#     4  11  25  42  61  87 116 162 203 246 299 356
#     4  11  26  37  61  87 119 161 199 248 300 353
#     4  11  25  42  56  86 126 156 202 243 297 367
#     4   8  19  37  59  95 119 155 193 252 300 349
#     4  10  19  35  64  94 119 147 207 249 295 352
#     4  11  24  37  62  89 119 157 204 249 296 351
#
# _framework density 19.722477000000001
#
# number of rings (size 3 to 8) (size 9 to 14) (size 15 to 20)
#    0.750    1.250    1.250    0.750    8.750    1.000 
#    0.000    0.625    0.000    1.500    0.000    0.000 
#    0.000    0.000    0.000    0.000    0.000    0.000 
#
# Total GULP energy -89157.496471 kJ/mol
# GULP energy per Si atom -5572.343529 kJ/mol
# Density = 1.967759 g / cm^3
# Si number density = 19.722477 Si / 1000 Ang^3
#
#
#
# Elastic Constant Matrix: (Units=GPa)
#
#
# Indices 1 2 3 4 5 6 
#
# 1 42.0170 15.4819 21.6575 -8.8926 -0.2471 -6.4993
# 2 15.4819 74.2417 29.6959 -2.4071 4.2361 -5.7990
# 3 21.6575 29.6959 103.3137 -12.5463 -5.1562 1.7009
# 4 -8.8926 -2.4071 -12.5463 23.6079 1.8022 0.9095
# 5 -0.2471 4.2361 -5.1562 1.8022 23.3250 -9.8301
# 6 -6.4993 -5.7990 1.7009 0.9095 -9.8301 36.7658
#
#
#
# Elastic Compliance Matrix: (Units=1/GPa)
#
#
# Indices 1 2 3 4 5 6 
#
# 1 0.029972 -0.004031 -0.004109 0.008374 0.001636 0.005083
# 2 -0.004031 0.016223 -0.004233 -0.001912 -0.003264 0.001217
# 3 -0.004109 -0.004233 0.012454 0.004499 0.002539 -0.001403
# 4 0.008374 -0.001912 0.004499 0.047948 -0.002666 -0.000928
# 5 0.001636 -0.003264 0.002539 -0.002666 0.049738 0.013021
# 6 0.005083 0.001217 -0.001403 -0.000928 0.013021 0.031859
#
#
# Mechanical properties :
#
#
# Convention : Reuss Voigt Hill
#
# Bulk Modulus (GPa) = 29.49785 39.24921 34.37353
# Shear Modulus (GPa) = 22.29755 26.92220 24.60988
#
# Velocity S-wave (km/s) = 3.36604 3.69867 3.53627
# Velocity P-wave (km/s) = 5.48597 6.17933 5.84295
#
# Compressibility (1/GPa) = 0.03390078
#
# Stress axis : x y z
#
# Youngs Moduli (GPa) = 33.36500 61.64244 80.29823
#
# Poissons Ratio (x) = 0.24850 0.32997
# Poissons Ratio (y) = 0.13450 0.33990
# Poissons Ratio (z) = 0.13711 0.26093
#
# Static dielectric constant tensor:
#      x y z
#    x 1.719410 -0.006580 0.002440 
#    y -0.006580 1.739070 -0.040170 
#    z 0.002440 -0.040170 1.678470 
# 
# From -- ./inp_files/602307.got.cif
#   From: 2010.05.17/outbox.cif.g08.bks.cpg/sg2_302_cif.got.tgz:602307.got - 2010.06.03 11:33:40.
