data_PCOD9085436
_publ_section_title
;
Structure prediction by ZEFSAII (Michael W. Deem and Ramdas Pophale) SiO2 
 PCOD9085436
Probable space group: P -1
;
_chemical_formula_sum "Si O2"
_cell_formula_units_Z 15
_cell_length_a 16.333195
_cell_length_b 9.364324
_cell_length_c 5.308222
_cell_angle_alpha 111.005220
_cell_angle_beta 79.261832
_cell_angle_gamma 68.238893
_cell_volume 654.479441
_symmetry_space_group_name_H-M "P -1"
_symmetry_group_IT_number 2
_symmetry_cell_setting 'triclinic'
loop_
_space_group_symop_operation_xyz
x,y,z
-x,-y,-z
loop_
_atom_site_type_symbol
_atom_site_label
_atom_site_fract_x
_atom_site_fract_y
_atom_site_fract_z
Si Si1 0.500000 0.500000 0.500000
Si Si2 0.886054 0.578286 0.597709
Si Si3 0.096221 0.316735 0.846950
Si Si4 0.326025 0.491629 0.844515
Si Si5 0.585420 0.081927 0.229860
Si Si6 0.622451 0.891557 0.586129
Si Si7 0.054753 0.003436 0.720967
Si Si8 0.782720 0.354626 0.490135
O O1 0.427038 0.481175 0.729715
O O2 0.561770 0.280231 0.314662
O O3 0.852864 0.704258 0.459058
O O4 0.857030 0.429432 0.487441
O O5 0.000000 0.500000 0.500000
O O6 0.846787 0.671447 0.941936
O O7 0.063940 0.175321 0.820488
O O8 0.000000 0.500000 0.000000
O O9 0.327668 0.311854 0.647085
O O10 0.258094 0.625685 0.754609
O O11 0.294773 0.538340 0.182286
O O12 0.486324 0.074421 0.303518
O O13 0.631812 0.005612 0.426626
O O14 0.640937 0.955299 0.884638
O O15 0.158814 0.840632 0.572452
O O16 0.000000 0.000000 0.500000
O O17 0.000000 0.000000 0.000000
#
# Coordination Sequence:
#
# PCOD9085436 Si02
#       8
#     1   2   2   2   2   2   2   2
#     4  10  24  44  70  96 136 182 218 272 340 396
#     4  10  20  38  61  85 117 159 205 255 314 378
#     4  10  19  35  60  90 119 160 213 253 306 387
#     4  11  25  44  66  95 133 175 221 276 334 393
#     4   9  18  34  63  90 116 158 215 254 306 390
#     4   9  18  36  59  89 120 159 206 258 315 377
#     4  12  23  40  66  95 133 177 218 269 339 405
#     4  12  25  43  65  97 133 170 223 279 331 396
#
# _framework density 22.918977000000002
#
# number of rings (size 3 to 8) (size 9 to 14) (size 15 to 20)
#    0.000    1.600    0.000    6.400    0.000    5.333 
#    0.000    8.000    0.000    0.000    0.000    0.000 
#    0.000    0.000    0.000    0.000    0.000    0.000 
#
# Total GULP energy -83578.905474 kJ/mol
# GULP energy per Si atom -5571.927032 kJ/mol
# Density = 2.286681 g / cm^3
# Si number density = 22.918977 Si / 1000 Ang^3
#
#
#
# Elastic Constant Matrix: (Units=GPa)
#
#
# Indices 1 2 3 4 5 6 
#
# 1 32.1178 -3.6828 1.1504 -10.6038 -12.5468 13.6948
# 2 -3.6828 151.1480 51.1013 1.0471 6.7611 20.6156
# 3 1.1504 51.1013 86.6603 -24.6536 -1.0884 -0.5533
# 4 -10.6038 1.0471 -24.6536 48.6608 -7.2093 6.4311
# 5 -12.5468 6.7611 -1.0884 -7.2093 38.2086 -9.1043
# 6 13.6948 20.6156 -0.5533 6.4311 -9.1043 36.6076
#
#
#
# Elastic Compliance Matrix: (Units=1/GPa)
#
#
# Indices 1 2 3 4 5 6 
#
# 1 0.051413 0.002047 0.003193 0.017634 0.015259 -0.019641
# 2 0.002047 0.010123 -0.006901 -0.002871 -0.003511 -0.006940
# 3 0.003193 -0.006901 0.018727 0.010815 0.005421 0.002423
# 4 0.017634 -0.002871 0.010815 0.032582 0.010888 -0.007832
# 5 0.015259 -0.003511 0.005421 0.010888 0.034746 0.003080
# 6 -0.019641 -0.006940 0.002423 -0.007832 0.003080 0.040751
#
#
# Mechanical properties :
#
#
# Convention : Reuss Voigt Hill
#
# Bulk Modulus (GPa) = 12.99709 40.78488 26.89098
# Shear Modulus (GPa) = 23.00846 39.45254 31.23050
#
# Velocity S-wave (km/s) = 3.17188 4.15347 3.69541
# Velocity P-wave (km/s) = 4.37009 6.39027 5.47418
#
# Compressibility (1/GPa) = 0.07694031
#
# Stress axis : x y z
#
# Youngs Moduli (GPa) = 19.45030 98.78811 53.39934
#
# Poissons Ratio (x) = -0.20226 -0.17050
# Poissons Ratio (y) = -0.03982 0.36853
# Poissons Ratio (z) = -0.06210 0.68178
#
# Static dielectric constant tensor:
#      x y z
#    x 1.872160 -0.022910 -0.007760 
#    y -0.022910 1.797000 -0.019440 
#    z -0.007760 -0.019440 1.886710 
# 
# From -- ./inp_files/105738.got.cif
#   From: 2010.05.17/outbox.cif.g08.bks.cpg/sg2_53_cif.got.tgz:105738.got - 2010.06.03 11:33:40.
