data_PCOD9085364
_publ_section_title
;
Structure prediction by ZEFSAII (Michael W. Deem and Ramdas Pophale) SiO2 
 PCOD9085364
Probable space group: P -1
;
_chemical_formula_sum "Si O2"
_cell_formula_units_Z 14
_cell_length_a 11.606663
_cell_length_b 12.654602
_cell_length_c 7.913970
_cell_angle_alpha 117.539627
_cell_angle_beta 68.305443
_cell_angle_gamma 140.527100
_cell_volume 655.047501
_symmetry_space_group_name_H-M "P -1"
_symmetry_group_IT_number 2
_symmetry_cell_setting 'triclinic'
loop_
_space_group_symop_operation_xyz
x,y,z
-x,-y,-z
loop_
_atom_site_type_symbol
_atom_site_label
_atom_site_fract_x
_atom_site_fract_y
_atom_site_fract_z
Si Si1 0.773337 0.110655 0.500886
Si Si2 0.895222 0.334378 0.315373
Si Si3 0.029656 0.260645 0.943141
Si Si4 0.143033 0.092684 0.649002
Si Si5 0.136987 0.468504 0.712697
Si Si6 0.506550 0.367179 0.450990
Si Si7 0.608912 0.966123 0.833119
O O1 0.744644 0.160609 0.379074
O O2 0.934438 0.296069 0.640055
O O3 0.856433 0.037872 0.368861
O O4 0.623532 0.994314 0.642026
O O5 0.835105 0.371502 0.214333
O O6 0.000000 0.500000 0.500000
O O7 0.032020 0.332320 0.168881
O O8 0.096660 0.172725 0.847169
O O9 0.144360 0.414764 0.854210
O O10 0.816759 0.108843 0.892429
O O11 0.347575 0.248402 0.585487
O O12 0.000000 0.000000 0.500000
O O13 0.282051 0.509043 0.540101
O O14 0.500000 0.500000 0.500000
O O15 0.464025 0.221833 0.244554
O O16 0.500000 0.000000 0.000000
#
# Coordination Sequence:
#
# PCOD9085364 Si02
#       7
#     2   2   2   2   2   2   2
#     4   9  20  38  59  80 120 153 183 237 292 345
#     4  10  22  37  56  85 116 156 189 237 292 341
#     4  11  20  36  61  82 114 153 194 236 284 347
#     4  11  18  37  59  86 113 148 191 238 289 344
#     4  10  19  35  60  86 114 146 195 235 287 336
#     4  11  19  32  58  92 114 141 187 250 290 327
#     4  10  21  36  58  89 112 149 200 238 282 347
#
# _framework density 21.372495000000001
#
# number of rings (size 3 to 8) (size 9 to 14) (size 15 to 20)
#    0.000    1.714    5.714    1.286    0.000    2.857 
#    0.000    6.429    0.000    3.429    0.000    0.000 
#    0.000    0.000    0.000    0.000    0.000    0.000 
#
# Total GULP energy -77941.041428 kJ/mol
# GULP energy per Si atom -5567.217245 kJ/mol
# Density = 2.132385 g / cm^3
# Si number density = 21.372495 Si / 1000 Ang^3
#
#
#
# Elastic Constant Matrix: (Units=GPa)
#
#
# Indices 1 2 3 4 5 6 
#
# 1 68.3287 38.4530 35.8689 4.1597 -31.5858 -13.2904
# 2 38.4530 98.1650 26.9241 0.9788 -4.1231 -36.6643
# 3 35.8689 26.9241 123.1321 12.5106 -42.0019 -18.4402
# 4 4.1597 0.9788 12.5106 29.5776 -3.7176 -12.4205
# 5 -31.5858 -4.1231 -42.0019 -3.7176 39.3424 5.6682
# 6 -13.2904 -36.6643 -18.4402 -12.4205 5.6682 45.9051
#
#
#
# Elastic Compliance Matrix: (Units=1/GPa)
#
#
# Indices 1 2 3 4 5 6 
#
# 1 0.034496 -0.015202 0.002980 -0.004307 0.029711 -0.005791
# 2 -0.015202 0.022569 -0.004412 0.007949 -0.016103 0.015991
# 3 0.002980 -0.004412 0.014409 -0.004293 0.016926 -0.000124
# 4 -0.004307 0.007949 -0.004293 0.041722 -0.005475 0.015342
# 5 0.029711 -0.016103 0.016926 -0.005475 0.066160 -0.007111
# 6 -0.005791 0.015991 -0.000124 0.015342 -0.007111 0.037859
#
#
# Mechanical properties :
#
#
# Convention : Reuss Voigt Hill
#
# Bulk Modulus (GPa) = 26.17424 54.67976 40.42700
# Shear Modulus (GPa) = 18.99562 35.52368 27.25965
#
# Velocity S-wave (km/s) = 2.98449 4.08133 3.57523
# Velocity P-wave (km/s) = 4.91422 6.91733 5.99996
#
# Compressibility (1/GPa) = 0.03820550
#
# Stress axis : x y z
#
# Youngs Moduli (GPa) = 28.98907 44.30830 69.40082
#
# Poissons Ratio (x) = 0.67359 -0.20684
# Poissons Ratio (y) = 0.44070 0.30621
# Poissons Ratio (z) = -0.08640 0.19550
#
# Static dielectric constant tensor:
#      x y z
#    x 1.883620 -0.006480 0.021690 
#    y -0.006480 1.848770 -0.003000 
#    z 0.021690 -0.003000 1.830070 
# 
# From -- ./inp_files/167725.got.cif
#   From: 2010.05.17/outbox.cif.g08.bks.cpg/sg2_84_cif.got.tgz:167725.got - 2010.06.03 11:33:40.
