data_PCOD9085104
_publ_section_title
;
Structure prediction by ZEFSAII (Michael W. Deem and Ramdas Pophale) SiO2 
 PCOD9085104
Probable space group: P -1
;
_chemical_formula_sum "Si O2"
_cell_formula_units_Z 12
_cell_length_a 7.036926
_cell_length_b 8.387735
_cell_length_c 14.042185
_cell_angle_alpha 74.202674
_cell_angle_beta 39.318018
_cell_angle_gamma 74.092409
_cell_volume 502.581986
_symmetry_space_group_name_H-M "P -1"
_symmetry_group_IT_number 2
_symmetry_cell_setting 'triclinic'
loop_
_space_group_symop_operation_xyz
x,y,z
-x,-y,-z
loop_
_atom_site_type_symbol
_atom_site_label
_atom_site_fract_x
_atom_site_fract_y
_atom_site_fract_z
Si Si1 0.011490 0.271798 0.447378
Si Si2 0.628278 0.022574 0.719917
Si Si3 0.948388 0.390927 0.665122
Si Si4 0.343182 0.501448 0.958067
Si Si5 0.845236 0.046340 0.833795
Si Si6 0.057922 0.208498 0.021328
O O1 0.911724 0.436887 0.397243
O O2 0.751330 0.148834 0.576559
O O3 0.055992 0.326680 0.530656
O O4 0.312780 0.162763 0.313266
O O5 0.324873 0.112029 0.869933
O O6 0.858476 0.004235 0.724468
O O7 0.597281 0.465781 0.784143
O O8 0.927152 0.236840 0.770126
O O9 0.156744 0.344317 0.037564
O O10 0.500000 0.500000 0.000000
O O11 0.153270 0.676584 0.985224
O O12 0.049249 0.935304 0.846574
O O13 0.500000 0.000000 0.000000
#
# Coordination Sequence:
#
# PCOD9085104 Si02
#       6
#     2   2   2   2   2   2
#     4   9  18  32  60  90 122 168 204 249 305 366
#     4   9  17  35  63  91 119 170 202 245 323 361
#     4  10  19  35  58  91 123 162 205 255 301 365
#     4  11  23  38  63  95 123 162 206 259 314 366
#     4   9  16  33  57  84 122 161 193 250 315 353
#     4  10  21  40  63  92 127 159 203 261 315 367
#
# _framework density 23.876704
#
# number of rings (size 3 to 8) (size 9 to 14) (size 15 to 20)
#    0.000    2.333    5.000    0.000    2.333    0.000 
#    0.000    3.333    0.000   24.000    0.000    0.000 
#    0.000    0.000    0.000    0.000    0.000    0.000 
#
# Total GULP energy -66835.877288 kJ/mol
# GULP energy per Si atom -5569.656441 kJ/mol
# Density = 2.382236 g / cm^3
# Si number density = 23.876704 Si / 1000 Ang^3
#
#
#
# Elastic Constant Matrix: (Units=GPa)
#
#
# Indices 1 2 3 4 5 6 
#
# 1 93.4074 60.6134 26.3005 2.8988 22.8232 -20.1708
# 2 60.6134 241.3630 89.5482 -19.0940 21.3633 -30.8699
# 3 26.3005 89.5482 89.9226 -8.3924 17.0119 -9.3049
# 4 2.8988 -19.0940 -8.3924 62.2404 0.1156 -4.1157
# 5 22.8232 21.3633 17.0119 0.1156 13.2492 -3.2937
# 6 -20.1708 -30.8699 -9.3049 -4.1157 -3.2937 37.6105
#
#
#
# Elastic Compliance Matrix: (Units=1/GPa)
#
#
# Indices 1 2 3 4 5 6 
#
# 1 0.021953 -0.002961 0.004091 -0.000844 -0.036532 0.007064
# 2 -0.002961 0.007813 -0.006764 0.001853 0.002049 0.003534
# 3 0.004091 -0.006764 0.021110 0.000617 -0.023278 -0.000106
# 4 -0.000844 0.001853 0.000617 0.016954 -0.001747 0.002923
# 5 -0.036532 0.002049 -0.023278 -0.001747 0.162616 -0.009620
# 6 0.007064 0.003534 -0.000106 0.002923 -0.009620 0.032729
#
#
# Mechanical properties :
#
#
# Convention : Reuss Voigt Hill
#
# Bulk Modulus (GPa) = 25.24645 86.40192 55.82418
# Shear Modulus (GPa) = 17.38251 39.16875 28.27563
#
# Velocity S-wave (km/s) = 2.70110 4.05465 3.44501
# Velocity P-wave (km/s) = 4.50827 7.62794 6.26538
#
# Compressibility (1/GPa) = 0.03960953
#
# Stress axis : x y z
#
# Youngs Moduli (GPa) = 45.55186 127.98652 47.37013
#
# Poissons Ratio (x) = 0.37893 -0.19379
# Poissons Ratio (y) = 0.13486 0.32041
# Poissons Ratio (z) = -0.18635 0.86568
#
# Static dielectric constant tensor:
#      x y z
#    x 2.033090 0.047410 -0.097910 
#    y 0.047410 2.015740 -0.076960 
#    z -0.097910 -0.076960 1.973760 
# 
# From -- ./inp_files/373471.got.cif
#   From: 2010.05.17/outbox.cif.g08.bks.cpg/sg2_187_cif.got.tgz:373471.got - 2010.06.03 11:33:40.
