data_PCOD9085379
_publ_section_title
;
Structure prediction by ZEFSAII (Michael W. Deem and Ramdas Pophale) SiO2 
 PCOD9085379
Probable space group: P -1
;
_chemical_formula_sum "Si O2"
_cell_formula_units_Z 14
_cell_length_a 8.393489
_cell_length_b 11.878201
_cell_length_c 10.345475
_cell_angle_alpha 119.151159
_cell_angle_beta 76.156498
_cell_angle_gamma 142.829214
_cell_volume 522.140619
_symmetry_space_group_name_H-M "P -1"
_symmetry_group_IT_number 2
_symmetry_cell_setting 'triclinic'
loop_
_space_group_symop_operation_xyz
x,y,z
-x,-y,-z
loop_
_atom_site_type_symbol
_atom_site_label
_atom_site_fract_x
_atom_site_fract_y
_atom_site_fract_z
Si Si1 0.243003 0.099159 0.422354
Si Si2 0.452682 0.005792 0.223247
Si Si3 0.540257 0.291166 0.730366
Si Si4 0.050737 0.190805 0.359239
Si Si5 0.875030 0.330957 0.540983
Si Si6 0.585973 0.853310 0.932404
Si Si7 0.780046 0.706195 0.901378
O O1 0.195441 0.925564 0.282678
O O2 0.485686 0.257918 0.566880
O O3 0.269111 0.220935 0.374750
O O4 0.000000 0.000000 0.500000
O O5 0.632855 0.112749 0.378243
O O6 0.465023 0.878330 0.076289
O O7 0.548726 0.172652 0.188079
O O8 0.784899 0.340904 0.698428
O O9 0.632412 0.489195 0.868159
O O10 0.247125 0.067950 0.721516
O O11 0.055260 0.316838 0.521512
O O12 0.117601 0.274467 0.249422
O O13 0.000000 0.500000 0.500000
O O14 0.589474 0.711009 0.911778
O O15 0.920424 0.079131 0.973740
#
# Coordination Sequence:
#
# PCOD9085379 Si02
#       7
#     2   2   2   2   2   2   2
#     4   9  20  36  59  88 119 150 188 245 298 350
#     4  10  19  35  60  87 116 158 192 240 296 338
#     4  10  22  37  59  89 118 149 195 243 299 349
#     4  11  20  37  58  87 118 151 189 242 296 342
#     4  11  20  35  60  91 117 149 196 240 297 354
#     4  10  21  36  59  86 117 155 203 239 278 354
#     4  11  21  39  61  87 112 158 202 236 290 345
#
# _framework density 26.812702000000002
#
# number of rings (size 3 to 8) (size 9 to 14) (size 15 to 20)
#    0.000    1.714    4.286    0.429    0.000    1.714 
#    0.000    2.857    0.000    4.286    0.000    0.000 
#    0.000    0.000    0.000    0.000    0.000    0.000 
#
# Total GULP energy -78077.549972 kJ/mol
# GULP energy per Si atom -5576.967855 kJ/mol
# Density = 2.675167 g / cm^3
# Si number density = 26.812702 Si / 1000 Ang^3
#
#
#
# Elastic Constant Matrix: (Units=GPa)
#
#
# Indices 1 2 3 4 5 6 
#
# 1 112.8070 6.8041 40.2413 -0.4926 -51.6161 -13.2517
# 2 6.8041 99.7040 8.5789 5.8496 -27.6667 -7.0687
# 3 40.2413 8.5789 83.6028 -11.8635 -38.5775 -4.1937
# 4 -0.4926 5.8496 -11.8635 30.6461 -8.8387 -11.5945
# 5 -51.6161 -27.6667 -38.5775 -8.8387 75.9394 -6.0317
# 6 -13.2517 -7.0687 -4.1937 -11.5945 -6.0317 31.8781
#
#
#
# Elastic Compliance Matrix: (Units=1/GPa)
#
#
# Indices 1 2 3 4 5 6 
#
# 1 0.017442 0.003618 0.000743 0.010071 0.015900 0.014822
# 2 0.003618 0.012465 0.002225 0.004164 0.009236 0.007823
# 3 0.000743 0.002225 0.021463 0.017100 0.015220 0.012725
# 4 0.010071 0.004164 0.017100 0.059121 0.026622 0.033899
# 5 0.015900 0.009236 0.015220 0.026622 0.040394 0.027986
# 6 0.014822 0.007823 0.012725 0.033899 0.027986 0.058564
#
#
# Mechanical properties :
#
#
# Convention : Reuss Voigt Hill
#
# Bulk Modulus (GPa) = 15.49414 45.26248 30.37831
# Shear Modulus (GPa) = 22.95774 43.72538 33.34156
#
# Velocity S-wave (km/s) = 2.92931 4.04266 3.53015
# Velocity P-wave (km/s) = 4.15119 6.22161 5.28870
#
# Compressibility (1/GPa) = 0.06454052
#
# Stress axis : x y z
#
# Youngs Moduli (GPa) = 57.33329 80.22675 46.59108
#
# Poissons Ratio (x) = -0.29025 -0.03460
# Poissons Ratio (y) = -0.20742 -0.10365
# Poissons Ratio (z) = -0.04258 -0.17848
#
# Static dielectric constant tensor:
#      x y z
#    x 2.484810 0.012250 0.009580 
#    y 0.012250 2.158070 0.007910 
#    z 0.009580 0.007910 2.198820 
# 
# From -- ./inp_files/172830.got.cif
#   From: 2010.05.17/outbox.cif.g08.bks.cpg/sg2_87_cif.got.tgz:172830.got - 2010.06.03 11:33:40.
