data_PCOD9085760
_publ_section_title
;
Structure prediction by ZEFSAII (Michael W. Deem and Ramdas Pophale) SiO2 
 PCOD9085760
Probable space group: P -1
;
_chemical_formula_sum "Si O2"
_cell_formula_units_Z 16
_cell_length_a 5.300413
_cell_length_b 10.516641
_cell_length_c 20.658480
_cell_angle_alpha 134.088548
_cell_angle_beta 82.593833
_cell_angle_gamma 118.030001
_cell_volume 693.562666
_symmetry_space_group_name_H-M "P -1"
_symmetry_group_IT_number 2
_symmetry_cell_setting 'triclinic'
loop_
_space_group_symop_operation_xyz
x,y,z
-x,-y,-z
loop_
_atom_site_type_symbol
_atom_site_label
_atom_site_fract_x
_atom_site_fract_y
_atom_site_fract_z
Si Si1 0.907330 0.483434 0.423472
Si Si2 0.458498 0.274515 0.074185
Si Si3 0.011749 0.965877 0.220285
Si Si4 0.520866 0.105044 0.605210
Si Si5 0.214539 0.368774 0.711054
Si Si6 0.877496 0.123441 0.960026
Si Si7 0.516118 0.010420 0.294034
Si Si8 0.581944 0.540684 0.635686
O O1 0.681193 0.234583 0.332140
O O2 0.699594 0.573664 0.445255
O O3 0.000000 0.500000 0.500000
O O4 0.210551 0.555488 0.399744
O O5 0.667427 0.493960 0.180071
O O6 0.293966 0.095910 0.072242
O O7 0.664758 0.215251 0.005956
O O8 0.195420 0.261950 0.035397
O O9 0.172730 0.904626 0.246768
O O10 0.185074 0.219899 0.306827
O O11 0.670686 0.888785 0.220992
O O12 0.062131 0.906805 0.126632
O O13 0.303404 0.194757 0.644738
O O14 0.869025 0.276669 0.671950
O O15 0.500000 0.000000 0.500000
O O16 0.431418 0.958016 0.619777
O O17 0.418892 0.524651 0.701759
#
# Coordination Sequence:
#
# PCOD9085760 Si02
#       8
#     2   2   2   2   2   2   2   2
#     4  10  21  36  58  86 119 148 196 268 314 378
#     4  10  21  35  61  97 131 162 192 255 309 385
#     4  10  19  39  63  91 128 156 196 251 312 378
#     4  12  28  46  64  88 118 179 221 261 300 358
#     4  12  24  43  66  87 132 162 212 264 306 374
#     4  10  19  35  62  99 132 155 198 241 324 385
#     4  10  23  39  61  85 120 164 213 250 308 369
#     4  10  21  35  58  93 114 160 193 245 329 357
#
# _framework density 23.069291
#
# number of rings (size 3 to 8) (size 9 to 14) (size 15 to 20)
#    0.000    1.500    1.250    3.750    3.500    0.000 
#    0.000    0.000    0.000   15.000    0.000    0.000 
#    0.000    0.000    0.000    0.000    0.000    0.000 
#
# Total GULP energy -89418.558785 kJ/mol
# GULP energy per Si atom -5588.659924 kJ/mol
# Density = 2.301678 g / cm^3
# Si number density = 23.069291 Si / 1000 Ang^3
#
#
#
# Elastic Constant Matrix: (Units=GPa)
#
#
# Indices 1 2 3 4 5 6 
#
# 1 117.6445 26.2457 17.7631 4.4352 11.3811 4.3448
# 2 26.2457 43.3705 6.8171 -5.5391 -0.5520 0.6297
# 3 17.7631 6.8171 103.0137 -6.7900 2.7731 -0.2571
# 4 4.4352 -5.5391 -6.7900 24.8195 5.7924 6.8231
# 5 11.3811 -0.5520 2.7731 5.7924 33.1214 -7.4547
# 6 4.3448 0.6297 -0.2571 6.8231 -7.4547 27.2039
#
#
#
# Elastic Compliance Matrix: (Units=1/GPa)
#
#
# Indices 1 2 3 4 5 6 
#
# 1 0.010709 -0.006570 -0.001474 -0.002373 -0.003699 -0.001991
# 2 -0.006570 0.028051 -0.000272 0.007389 0.001202 -0.001126
# 3 -0.001474 -0.000272 0.010240 0.003513 -0.001164 -0.000861
# 4 -0.002373 0.007389 0.003513 0.050330 -0.011664 -0.015578
# 5 -0.003699 0.001202 -0.001164 -0.011664 0.036664 0.013525
# 6 -0.001991 -0.001126 -0.000861 -0.015578 0.013525 0.044709
#
#
# Mechanical properties :
#
#
# Convention : Reuss Voigt Hill
#
# Bulk Modulus (GPa) = 30.89290 40.63116 35.76203
# Shear Modulus (GPa) = 24.02408 31.24248 27.63328
#
# Velocity S-wave (km/s) = 3.23055 3.68406 3.46473
# Velocity P-wave (km/s) = 5.22836 5.97890 5.61618
#
# Compressibility (1/GPa) = 0.03236989
#
# Stress axis : x y z
#
# Youngs Moduli (GPa) = 93.37664 35.64899 97.65411
#
# Poissons Ratio (x) = 0.23423 0.14391
# Poissons Ratio (y) = 0.61351 0.02651
# Poissons Ratio (z) = 0.13760 0.00968
#
# Static dielectric constant tensor:
#      x y z
#    x 1.895010 0.000230 0.000210 
#    y 0.000230 1.912120 -0.001990 
#    z 0.000210 -0.001990 1.811530 
# 
# From -- ./inp_files/549246.got.cif
#   From: 2010.05.17/outbox.cif.g08.bks.cpg/sg2_275_cif.got.tgz:549246.got - 2010.06.03 11:33:40.
