data_PCOD9085563
_publ_section_title
;
Structure prediction by ZEFSAII (Michael W. Deem and Ramdas Pophale) SiO2 
 PCOD9085563
Probable space group: P -1
;
_chemical_formula_sum "Si O2"
_cell_formula_units_Z 16
_cell_length_a 16.222671
_cell_length_b 12.070223
_cell_length_c 19.439456
_cell_angle_alpha 35.256081
_cell_angle_beta 158.458734
_cell_angle_gamma 143.162401
_cell_volume 791.668855
_symmetry_space_group_name_H-M "P -1"
_symmetry_group_IT_number 2
_symmetry_cell_setting 'triclinic'
loop_
_space_group_symop_operation_xyz
x,y,z
-x,-y,-z
loop_
_atom_site_type_symbol
_atom_site_label
_atom_site_fract_x
_atom_site_fract_y
_atom_site_fract_z
Si Si1 0.142543 0.269680 0.664314
Si Si2 0.277685 0.253924 0.061955
Si Si3 0.827696 0.625237 0.879710
Si Si4 0.226860 0.715282 0.525717
Si Si5 0.033603 0.938863 0.634996
Si Si6 0.347502 0.629805 0.007415
Si Si7 0.123730 0.975389 0.209846
Si Si8 0.745801 0.600886 0.668938
O O1 0.129093 0.498184 0.531871
O O2 0.408789 0.279476 0.881784
O O3 0.962191 0.202418 0.618803
O O4 0.092340 0.132192 0.629048
O O5 0.552438 0.289997 0.252891
O O6 0.222967 0.457225 0.947173
O O7 0.217050 0.078484 0.159286
O O8 0.116515 0.173211 0.914664
O O9 0.638134 0.495453 0.847994
O O10 0.739586 0.634063 0.729319
O O11 0.898540 0.842246 0.852919
O O12 0.052147 0.526791 0.112815
O O13 0.285768 0.851408 0.436440
O O14 0.830731 0.794689 0.590911
O O15 0.225465 0.805113 0.844907
O O16 0.000000 0.000000 0.500000
O O17 0.500000 0.500000 0.500000
#
# Coordination Sequence:
#
# PCOD9085563 Si02
#       8
#     2   2   2   2   2   2   2   2
#     4  10  22  40  58  85 120 163 202 245 305 366
#     4   9  20  37  60  92 118 153 207 248 302 365
#     4   9  20  38  62  87 119 159 207 249 308 360
#     4  10  21  39  59  86 124 159 200 249 304 360
#     4  11  24  39  61  94 122 159 208 252 306 374
#     4   9  20  41  61  85 122 164 202 254 304 365
#     4  10  19  35  61  88 118 158 195 254 304 357
#     4  10  22  41  62  89 122 158 203 259 306 359
#
# _framework density 20.210470999999998
#
# number of rings (size 3 to 8) (size 9 to 14) (size 15 to 20)
#    0.000    2.250    0.000    1.500    3.500    2.000 
#    6.750    1.875    0.000    0.000    0.000    0.000 
#    0.000    0.000    0.000    0.000    0.000    0.000 
#
# Total GULP energy -89142.794207 kJ/mol
# GULP energy per Si atom -5571.424638 kJ/mol
# Density = 2.016447 g / cm^3
# Si number density = 20.210471 Si / 1000 Ang^3
#
#
#
# Elastic Constant Matrix: (Units=GPa)
#
#
# Indices 1 2 3 4 5 6 
#
# 1 69.8853 42.4565 34.9473 2.2509 -1.4849 -9.8708
# 2 42.4565 96.5323 39.1979 8.3689 -6.5468 -5.7329
# 3 34.9473 39.1979 61.6138 12.0979 -8.6086 -5.8458
# 4 2.2509 8.3689 12.0979 34.4069 1.4769 2.1438
# 5 -1.4849 -6.5468 -8.6086 1.4769 30.4298 3.6306
# 6 -9.8708 -5.7329 -5.8458 2.1438 3.6306 22.5146
#
#
#
# Elastic Compliance Matrix: (Units=1/GPa)
#
#
# Indices 1 2 3 4 5 6 
#
# 1 0.024139 -0.006724 -0.010008 0.003337 -0.004050 0.006608
# 2 -0.006724 0.015888 -0.005851 -0.001401 0.001567 -0.000541
# 3 -0.010008 -0.005851 0.028264 -0.008214 0.006505 0.001194
# 4 0.003337 -0.001401 -0.008214 0.032450 -0.003616 -0.003533
# 5 -0.004050 0.001567 0.006505 -0.003616 0.035625 -0.005088
# 6 0.006608 -0.000541 0.001194 -0.003533 -0.005088 0.048642
#
#
# Mechanical properties :
#
#
# Convention : Reuss Voigt Hill
#
# Bulk Modulus (GPa) = 43.24479 51.24831 47.24655
# Shear Modulus (GPa) = 21.01888 24.89891 22.95890
#
# Velocity S-wave (km/s) = 3.22840 3.51377 3.37410
# Velocity P-wave (km/s) = 5.94478 6.47105 6.21349
#
# Compressibility (1/GPa) = 0.02312417
#
# Stress axis : x y z
#
# Youngs Moduli (GPa) = 41.42737 62.93957 35.38100
#
# Poissons Ratio (x) = 0.42323 0.35408
# Poissons Ratio (y) = 0.27858 0.20702
# Poissons Ratio (z) = 0.41459 0.36826
#
# Static dielectric constant tensor:
#      x y z
#    x 1.760500 0.026980 0.013830 
#    y 0.026980 1.728250 0.004330 
#    z 0.013830 0.004330 1.735520 
# 
# From -- ./inp_files/600044.got.cif
#   From: 2010.05.17/outbox.cif.g08.bks.cpg/sg2_301_cif.got.tgz:600044.got - 2010.06.03 11:33:40.
