data_PCOD9085847
_publ_section_title
;
Structure prediction by ZEFSAII (Michael W. Deem and Ramdas Pophale) SiO2 
 PCOD9085847
Probable space group: P -1
;
_chemical_formula_sum "Si O2"
_cell_formula_units_Z 14
_cell_length_a 9.199314
_cell_length_b 8.033593
_cell_length_c 18.387738
_cell_angle_alpha 119.075524
_cell_angle_beta 30.181046
_cell_angle_gamma 111.396351
_cell_volume 592.338609
_symmetry_space_group_name_H-M "P -1"
_symmetry_group_IT_number 2
_symmetry_cell_setting 'triclinic'
loop_
_space_group_symop_operation_xyz
x,y,z
-x,-y,-z
loop_
_atom_site_type_symbol
_atom_site_label
_atom_site_fract_x
_atom_site_fract_y
_atom_site_fract_z
Si Si1 0.770637 0.901180 0.676334
Si Si2 0.347614 0.346707 0.461090
Si Si3 0.738947 0.569408 0.729120
Si Si4 0.407651 0.808243 0.367946
Si Si5 0.666007 0.711795 0.387842
Si Si6 0.233832 0.148307 0.919200
Si Si7 0.271908 0.553632 0.045829
O O1 0.647000 0.782488 0.639328
O O2 0.801173 0.760408 0.701939
O O3 0.094022 0.933428 0.520901
O O4 0.527394 0.081796 0.825012
O O5 0.576283 0.496658 0.384244
O O6 0.408607 0.230049 0.484661
O O7 0.024167 0.470001 0.627650
O O8 0.663679 0.407502 0.669550
O O9 0.463494 0.618279 0.910664
O O10 0.499550 0.811771 0.412532
O O11 0.653528 0.846719 0.211809
O O12 0.006144 0.701565 0.220668
O O13 0.140163 0.365087 0.032073
O O14 0.000000 0.000000 0.000000
O O15 0.500000 0.500000 0.000000
#
# Coordination Sequence:
#
# PCOD9085847 Si02
#       7
#     2   2   2   2   2   2   2
#     4  11  20  41  63  95 126 163 212 265 323 371
#     4  10  19  35  63  95 125 160 207 270 307 372
#     4  10  19  37  65  93 122 167 216 256 315 380
#     4  10  21  38  64  95 120 170 218 259 307 385
#     4  11  20  35  64  95 123 158 221 257 308 365
#     4  11  26  41  64  94 133 171 209 265 321 373
#     4  11  24  42  65  91 131 171 212 258 322 386
#
# _framework density 23.63513
#
# number of rings (size 3 to 8) (size 9 to 14) (size 15 to 20)
#    0.000    1.429    4.286    2.143    2.000    1.143 
#    0.000    1.429    0.000    0.000    0.000    0.000 
#    0.000    0.000    0.000    0.000    0.000    0.000 
#
# Total GULP energy -78343.416006 kJ/mol
# GULP energy per Si atom -5595.958286 kJ/mol
# Density = 2.358134 g / cm^3
# Si number density = 23.635130 Si / 1000 Ang^3
#
#
#
# Elastic Constant Matrix: (Units=GPa)
#
#
# Indices 1 2 3 4 5 6 
#
# 1 121.6728 15.8907 11.0693 -15.3524 2.5735 -19.2076
# 2 15.8907 67.0487 7.0963 -27.8433 19.8992 -5.4844
# 3 11.0693 7.0963 89.9312 -22.3004 -4.7180 -5.2152
# 4 -15.3524 -27.8433 -22.3004 29.0178 -6.0185 -3.0171
# 5 2.5735 19.8992 -4.7180 -6.0185 25.4907 -0.2053
# 6 -19.2076 -5.4844 -5.2152 -3.0171 -0.2053 45.2855
#
#
#
# Elastic Compliance Matrix: (Units=1/GPa)
#
#
# Indices 1 2 3 4 5 6 
#
# 1 0.009681 0.000942 0.000799 0.007173 0.000167 0.004791
# 2 0.000942 0.034373 0.005253 0.034609 -0.017725 0.007393
# 3 0.000799 0.005253 0.015592 0.018508 0.003107 0.004018
# 4 0.007173 0.034609 0.018508 0.086476 -0.003777 0.015109
# 5 0.000167 -0.017725 0.003107 -0.003777 0.052719 -0.001730
# 6 0.004791 0.007393 0.004018 0.015109 -0.001730 0.026471
#
#
# Mechanical properties :
#
#
# Convention : Reuss Voigt Hill
#
# Bulk Modulus (GPa) = 13.58085 38.52948 26.05516
# Shear Modulus (GPa) = 21.19827 36.26523 28.73175
#
# Velocity S-wave (km/s) = 2.99807 3.92136 3.49038
# Velocity P-wave (km/s) = 4.21226 6.06959 5.22413
#
# Compressibility (1/GPa) = 0.07363311
#
# Stress axis : x y z
#
# Youngs Moduli (GPa) = 103.29703 29.09294 64.13477
#
# Poissons Ratio (x) = -0.02740 -0.05127
# Poissons Ratio (y) = -0.09728 -0.33688
# Poissons Ratio (z) = -0.08257 -0.15281
#
# Static dielectric constant tensor:
#      x y z
#    x 1.885110 0.008370 0.006150 
#    y 0.008370 1.927910 0.039230 
#    z 0.006150 0.039230 1.870330 
# 
# From -- ./inp_files/155247.got.cif
#   From: 2010.05.17/outbox.cif.g08.bks.cpg/sg2_78_cif.got.tgz:155247.got - 2010.06.03 11:33:40.
