data_PCOD9085239
_publ_section_title
;
Structure prediction by ZEFSAII (Michael W. Deem and Ramdas Pophale) SiO2 
 PCOD9085239
Probable space group: P -1
;
_chemical_formula_sum "Si O2"
_cell_formula_units_Z 14
_cell_length_a 17.994469
_cell_length_b 11.543228
_cell_length_c 7.835021
_cell_angle_alpha 55.898426
_cell_angle_beta 135.216863
_cell_angle_gamma 147.038318
_cell_volume 621.152183
_symmetry_space_group_name_H-M "P -1"
_symmetry_group_IT_number 2
_symmetry_cell_setting 'triclinic'
loop_
_space_group_symop_operation_xyz
x,y,z
-x,-y,-z
loop_
_atom_site_type_symbol
_atom_site_label
_atom_site_fract_x
_atom_site_fract_y
_atom_site_fract_z
Si Si1 0.690834 0.072114 0.568080
Si Si2 0.342658 0.762619 0.128049
Si Si3 0.390626 0.571216 0.117743
Si Si4 0.878903 0.481975 0.715531
Si Si5 0.736131 0.843146 0.641698
Si Si6 0.622927 0.911343 0.967271
Si Si7 0.079267 0.954511 0.565153
O O1 0.809282 0.319516 0.582866
O O2 0.535876 0.955455 0.301991
O O3 0.770219 0.010982 0.676619
O O4 0.622411 0.972854 0.727845
O O5 0.306963 0.615882 0.043402
O O6 0.256813 0.622043 0.276793
O O7 0.309747 0.896316 0.957785
O O8 0.561376 0.704330 0.382828
O O9 0.288844 0.327424 0.159258
O O10 0.452324 0.685691 0.941200
O O11 0.965592 0.706054 0.605117
O O12 0.000000 0.500000 0.000000
O O13 0.869052 0.961116 0.613834
O O14 0.751776 0.917662 0.176820
O O15 0.000000 0.000000 0.500000
#
# Coordination Sequence:
#
# PCOD9085239 Si02
#       7
#     2   2   2   2   2   2   2
#     4  10  21  38  62  88 121 146 198 254 288 341
#     4  10  19  36  62  90 116 147 201 249 287 345
#     4   9  18  34  59  85 115 156 195 239 296 345
#     4  11  20  37  63  85 117 161 193 234 296 350
#     4   9  20  37  55  86 120 154 195 244 289 345
#     4  10  19  35  59  88 114 153 200 243 288 350
#     4  11  22  38  61  84 119 162 199 232 294 361
#
# _framework density 22.538758999999999
#
# number of rings (size 3 to 8) (size 9 to 14) (size 15 to 20)
#    0.000    2.000    2.857    3.000    0.000    2.286 
#    0.000    2.143    3.143    0.000    0.000    0.000 
#    0.000    0.000    0.000    0.000    0.000    0.000 
#
# Total GULP energy -78248.778260 kJ/mol
# GULP energy per Si atom -5589.198447 kJ/mol
# Density = 2.248746 g / cm^3
# Si number density = 22.538759 Si / 1000 Ang^3
#
#
#
# Elastic Constant Matrix: (Units=GPa)
#
#
# Indices 1 2 3 4 5 6 
#
# 1 165.9643 75.7714 23.3141 -20.8043 29.6161 -4.9679
# 2 75.7714 156.0090 14.1770 -35.3441 7.3095 -1.3983
# 3 23.3141 14.1770 28.8901 -11.2129 16.9381 -9.8853
# 4 -20.8043 -35.3441 -11.2129 35.2204 0.1635 -2.9836
# 5 29.6161 7.3095 16.9381 0.1635 29.8328 -7.4086
# 6 -4.9679 -1.3983 -9.8853 -2.9836 -7.4086 30.3419
#
#
#
# Elastic Compliance Matrix: (Units=1/GPa)
#
#
# Indices 1 2 3 4 5 6 
#
# 1 0.009526 -0.003828 -0.000468 0.001619 -0.008428 -0.000668
# 2 -0.003828 0.010001 0.001345 0.008309 0.000864 0.001300
# 3 -0.000468 0.001345 0.071147 0.025317 -0.036225 0.016809
# 4 0.001619 0.008309 0.025317 0.046634 -0.015887 0.009602
# 5 -0.008428 0.000864 -0.036225 -0.015887 0.062466 0.000548
# 6 -0.000668 0.001300 0.016809 0.009602 0.000548 0.039463
#
#
# Mechanical properties :
#
#
# Convention : Reuss Voigt Hill
#
# Bulk Modulus (GPa) = 11.79638 64.15426 37.97532
# Shear Modulus (GPa) = 18.28856 34.91908 26.60382
#
# Velocity S-wave (km/s) = 2.85165 3.94037 3.43936
# Velocity P-wave (km/s) = 4.01095 7.01625 5.71470
#
# Compressibility (1/GPa) = 0.08477176
#
# Stress axis : x y z
#
# Youngs Moduli (GPa) = 104.97790 99.99390 14.05535
#
# Poissons Ratio (x) = 0.38283 0.00657
# Poissons Ratio (y) = 0.40191 -0.01891
# Poissons Ratio (z) = 0.04910 -0.13451
#
# Static dielectric constant tensor:
#      x y z
#    x 1.838730 0.005530 -0.006560 
#    y 0.005530 1.830110 0.016760 
#    z -0.006560 0.016760 1.881620 
# 
# From -- ./inp_files/154897.got.cif
#   From: 2010.05.17/outbox.cif.g08.bks.cpg/sg2_78_cif.got.tgz:154897.got - 2010.06.03 11:33:40.
