data_PCOD9085347
_publ_section_title
;
Structure prediction by ZEFSAII (Michael W. Deem and Ramdas Pophale) SiO2 
 PCOD9085347
Probable space group: P -1
;
_chemical_formula_sum "Si O2"
_cell_formula_units_Z 16
_cell_length_a 12.045706
_cell_length_b 8.842049
_cell_length_c 9.514431
_cell_angle_alpha 128.705840
_cell_angle_beta 113.614806
_cell_angle_gamma 62.597246
_cell_volume 692.701208
_symmetry_space_group_name_H-M "P -1"
_symmetry_group_IT_number 2
_symmetry_cell_setting 'triclinic'
loop_
_space_group_symop_operation_xyz
x,y,z
-x,-y,-z
loop_
_atom_site_type_symbol
_atom_site_label
_atom_site_fract_x
_atom_site_fract_y
_atom_site_fract_z
Si Si1 0.286022 0.388210 0.435177
Si Si2 0.770263 0.569348 0.883089
Si Si3 0.365769 0.026593 0.801482
Si Si4 0.537157 0.387212 0.689550
Si Si5 0.166560 0.837885 0.594959
Si Si6 0.414697 0.807328 0.999908
Si Si7 0.271551 0.975556 0.282527
Si Si8 0.944708 0.167109 0.762489
O O1 0.231213 0.357713 0.236011
O O2 0.435498 0.372003 0.511861
O O3 0.216732 0.623032 0.572235
O O4 0.266067 0.210271 0.417837
O O5 0.655665 0.466612 0.754643
O O6 0.892319 0.403603 0.912160
O O7 0.724581 0.756690 0.071239
O O8 0.482716 0.083821 0.825815
O O9 0.279496 0.905448 0.616455
O O10 0.402807 0.893119 0.884828
O O11 0.603067 0.170601 0.665216
O O12 0.462289 0.564699 0.864063
O O13 0.081477 0.810994 0.405939
O O14 0.086170 0.019041 0.758084
O O15 0.293095 0.889247 0.083311
O O16 0.147988 0.939279 0.268338
#
# Coordination Sequence:
#
# PCOD9085347 Si02
#       8
#     2   2   2   2   2   2   2   2
#     4  11  20  32  56  81 112 147 186 226 271 330
#     4   9  19  35  57  82 110 144 185 229 271 325
#     4  10  19  35  60  85 108 147 184 225 272 333
#     4  10  20  34  53  83 114 148 180 222 281 330
#     4  10  21  40  62  77 109 148 195 223 271 326
#     4  10  20  35  56  85 117 142 179 225 281 333
#     4  11  22  36  54  82 120 142 179 233 278 323
#     4   9  22  41  57  82 108 148 187 236 267 320
#
# _framework density 23.097985000000001
#
# number of rings (size 3 to 8) (size 9 to 14) (size 15 to 20)
#    0.000    2.000    2.500    1.125    0.000    5.000 
#    0.000    0.625    0.000    0.000    0.000    0.000 
#    0.000    0.000    0.000    0.000    0.000    0.000 
#
# Total GULP energy -89248.683172 kJ/mol
# GULP energy per Si atom -5578.042698 kJ/mol
# Density = 2.304541 g / cm^3
# Si number density = 23.097985 Si / 1000 Ang^3
#
#
#
# Elastic Constant Matrix: (Units=GPa)
#
#
# Indices 1 2 3 4 5 6 
#
# 1 89.9825 34.1584 8.6099 14.3952 -2.2488 6.6944
# 2 34.1584 128.9232 22.2419 35.1208 1.9358 8.6943
# 3 8.6099 22.2419 54.4712 21.1286 3.5690 -0.6875
# 4 14.3952 35.1208 21.1286 31.8291 5.9575 0.4744
# 5 -2.2488 1.9358 3.5690 5.9575 23.9371 5.3104
# 6 6.6944 8.6943 -0.6875 0.4744 5.3104 21.7591
#
#
#
# Elastic Compliance Matrix: (Units=1/GPa)
#
#
# Indices 1 2 3 4 5 6 
#
# 1 0.012933 -0.002104 0.000183 -0.004201 0.003254 -0.003835
# 2 -0.002104 0.012098 0.000186 -0.013025 0.003069 -0.004646
# 3 0.000183 0.000186 0.024760 -0.016790 0.000278 0.000950
# 4 -0.004201 -0.013025 -0.016790 0.061313 -0.013876 0.008016
# 5 0.003254 0.003069 0.000278 -0.013876 0.048285 -0.013700
# 6 -0.003835 -0.004646 0.000950 0.008016 -0.013700 0.052193
#
#
# Mechanical properties :
#
#
# Convention : Reuss Voigt Hill
#
# Bulk Modulus (GPa) = 21.58946 44.82193 33.20569
# Shear Modulus (GPa) = 21.69267 29.39618 25.54442
#
# Velocity S-wave (km/s) = 3.06789 3.57132 3.32914
# Velocity P-wave (km/s) = 4.68150 6.03764 5.40229
#
# Compressibility (1/GPa) = 0.04631891
#
# Stress axis : x y z
#
# Youngs Moduli (GPa) = 77.32031 82.66140 40.38794
#
# Poissons Ratio (x) = 0.17392 -0.00738
# Poissons Ratio (y) = 0.16269 -0.00749
# Poissons Ratio (z) = -0.01412 -0.01533
#
# Static dielectric constant tensor:
#      x y z
#    x 1.888260 -0.062170 -0.001970 
#    y -0.062170 1.926680 -0.014960 
#    z -0.001970 -0.014960 1.966910 
# 
# From -- ./inp_files/170479.got.cif
#   From: 2010.05.17/outbox.cif.g08.bks.cpg/sg2_86_cif.got.tgz:170479.got - 2010.06.03 11:33:40.
