data_PCOD9085489
_publ_section_title
;
Structure prediction by ZEFSAII (Michael W. Deem and Ramdas Pophale) SiO2 
 PCOD9085489
Probable space group: P -1
;
_chemical_formula_sum "Si O2"
_cell_formula_units_Z 13
_cell_length_a 10.408614
_cell_length_b 6.994069
_cell_length_c 16.160352
_cell_angle_alpha 63.603661
_cell_angle_beta 151.839622
_cell_angle_gamma 109.240452
_cell_volume 491.877369
_symmetry_space_group_name_H-M "P -1"
_symmetry_group_IT_number 2
_symmetry_cell_setting 'triclinic'
loop_
_space_group_symop_operation_xyz
x,y,z
-x,-y,-z
loop_
_atom_site_type_symbol
_atom_site_label
_atom_site_fract_x
_atom_site_fract_y
_atom_site_fract_z
Si Si1 0.323036 0.992948 0.589556
Si Si2 0.000000 0.000000 0.000000
Si Si3 0.555083 0.206603 0.541883
Si Si4 0.438627 0.919243 0.123248
Si Si5 0.960363 0.429905 0.806041
Si Si6 0.291447 0.531607 0.697320
Si Si7 0.252609 0.737509 0.817354
O O1 0.340113 0.061150 0.680933
O O2 0.376788 0.738617 0.658133
O O3 0.559434 0.109179 0.657867
O O4 0.029201 0.091638 0.367752
O O5 0.045047 0.252772 0.957151
O O6 0.843958 0.066340 0.990218
O O7 0.827905 0.316191 0.673796
O O8 0.298221 0.393323 0.348181
O O9 0.500000 0.000000 0.500000
O O10 0.494189 0.126080 0.060924
O O11 0.518123 0.693831 0.167155
O O12 0.200568 0.554688 0.887831
O O13 0.249650 0.618626 0.750255
O O14 0.000000 0.500000 0.500000
#
# Coordination Sequence:
#
# PCOD9085489 Si02
#       7
#     2   1   2   2   2   2   2
#     4  10  19  35  60  99 126 154 213 276 322 370
#     4  12  26  46  64  88 140 192 204 256 338 400
#     4  10  22  38  66  97 127 168 221 276 323 376
#     4  11  22  40  61  93 132 170 213 258 323 390
#     4  10  24  43  64  92 134 172 219 269 324 387
#     4  11  19  32  66  97 124 161 210 273 327 370
#     4  10  21  38  62  96 124 160 217 277 318 373
#
# _framework density 26.429351
#
# number of rings (size 3 to 8) (size 9 to 14) (size 15 to 20)
#    0.000    1.538    4.615    0.923    4.308    0.615 
#    0.000    7.692    0.000    0.000    0.000    0.000 
#    0.000    0.000    0.000    0.000    0.000    0.000 
#
# Total GULP energy -72568.837925 kJ/mol
# GULP energy per Si atom -5582.218302 kJ/mol
# Density = 2.636920 g / cm^3
# Si number density = 26.429351 Si / 1000 Ang^3
#
#
#
# Elastic Constant Matrix: (Units=GPa)
#
#
# Indices 1 2 3 4 5 6 
#
# 1 114.6056 80.2053 34.4458 -15.7119 12.7867 36.4638
# 2 80.2053 217.8078 75.6885 -37.3012 7.4214 2.4684
# 3 34.4458 75.6885 93.0080 -16.2660 18.4500 9.8528
# 4 -15.7119 -37.3012 -16.2660 57.0604 4.8684 -9.4409
# 5 12.7867 7.4214 18.4500 4.8684 37.4357 -3.2132
# 6 36.4638 2.4684 9.8528 -9.4409 -3.2132 64.0940
#
#
#
# Elastic Compliance Matrix: (Units=1/GPa)
#
#
# Indices 1 2 3 4 5 6 
#
# 1 0.016320 -0.006111 0.001002 -0.000312 -0.005634 -0.009532
# 2 -0.006111 0.009253 -0.005811 0.003213 0.003097 0.004642
# 3 0.001002 -0.005811 0.017360 0.001600 -0.008228 -0.003192
# 4 -0.000312 0.003213 0.001600 0.020762 -0.003789 0.002676
# 5 -0.005634 0.003097 -0.008228 -0.003789 0.033038 0.005449
# 6 -0.009532 0.004642 -0.003192 0.002676 0.005449 0.022004
#
#
# Mechanical properties :
#
#
# Convention : Reuss Voigt Hill
#
# Bulk Modulus (GPa) = 47.41138 89.56671 68.48905
# Shear Modulus (GPa) = 33.87360 47.39015 40.63188
#
# Velocity S-wave (km/s) = 3.58392 4.23908 3.92519
# Velocity P-wave (km/s) = 5.92485 7.61068 6.82005
#
# Compressibility (1/GPa) = 0.02109198
#
# Stress axis : x y z
#
# Youngs Moduli (GPa) = 61.27565 108.07270 57.60506
#
# Poissons Ratio (x) = 0.66045 -0.05771
# Poissons Ratio (y) = 0.37446 0.33474
# Poissons Ratio (z) = -0.06139 0.62800
#
# Static dielectric constant tensor:
#      x y z
#    x 2.101720 0.019320 0.031180 
#    y 0.019320 2.025640 -0.048880 
#    z 0.031180 -0.048880 1.519380 
# 
# From -- ./inp_files/130806.got.cif
#   From: 2010.05.17/outbox.cif.g08.bks.cpg/sg2_66_cif.got.tgz:130806.got - 2010.06.03 11:33:40.
