data_PCOD9085594
_publ_section_title
;
Structure prediction by ZEFSAII (Michael W. Deem and Ramdas Pophale) SiO2 
 PCOD9085594
Probable space group: P -1
;
_chemical_formula_sum "Si O2"
_cell_formula_units_Z 16
_cell_length_a 14.574510
_cell_length_b 24.095353
_cell_length_c 14.729491
_cell_angle_alpha 15.994268
_cell_angle_beta 153.593667
_cell_angle_gamma 151.610069
_cell_volume 626.415761
_symmetry_space_group_name_H-M "P -1"
_symmetry_group_IT_number 2
_symmetry_cell_setting 'triclinic'
loop_
_space_group_symop_operation_xyz
x,y,z
-x,-y,-z
loop_
_atom_site_type_symbol
_atom_site_label
_atom_site_fract_x
_atom_site_fract_y
_atom_site_fract_z
Si Si1 0.799443 0.653886 0.736495
Si Si2 0.600570 0.846050 0.003567
Si Si3 0.035576 0.991618 0.813675
Si Si4 0.256871 0.338582 0.031968
Si Si5 0.192027 0.099125 0.075899
Si Si6 0.458621 0.684924 0.534800
Si Si7 0.068064 0.538139 0.316548
Si Si8 0.755684 0.456492 0.833508
O O1 0.625457 0.700516 0.578326
O O2 0.683149 0.489483 0.821037
O O3 0.894639 0.839903 0.464946
O O4 0.984424 0.592076 0.059097
O O5 0.620603 0.904075 0.824322
O O6 0.706183 0.640438 0.437075
O O7 0.371082 0.756075 0.977881
O O8 0.750263 0.013022 0.932478
O O9 0.929030 0.796951 0.971947
O O10 0.860765 0.022917 0.685260
O O11 0.390746 0.471251 0.864978
O O12 0.136665 0.473018 0.782741
O O13 0.400922 0.208838 0.423800
O O14 0.161497 0.329148 0.713882
O O15 0.000000 0.000000 0.000000
O O16 0.244628 0.702569 0.263717
O O17 0.000000 0.500000 0.000000
#
# Coordination Sequence:
#
# PCOD9085594 Si02
#       8
#     2   2   2   2   2   2   2   2
#     4  10  23  38  63  93 130 169 211 266 323 383
#     4   9  20  37  61  89 121 170 205 253 321 372
#     4  10  21  40  62  94 136 166 207 274 327 362
#     4  10  22  40  66  94 126 168 218 271 315 377
#     4  10  20  37  67  93 125 170 211 264 323 373
#     4  10  21  39  65  93 122 171 221 258 319 386
#     4  11  21  39  69  91 122 170 223 253 315 398
#     4  10  19  35  61  90 125 161 215 256 306 384
#
# _framework density 25.542141000000001
#
# number of rings (size 3 to 8) (size 9 to 14) (size 15 to 20)
#    0.000    2.000    1.250    1.875    0.000    4.000 
#    0.000    5.000   11.000   12.000    0.000    0.000 
#    0.000    0.000    0.000    0.000    0.000    0.000 
#
# Total GULP energy -89201.115772 kJ/mol
# GULP energy per Si atom -5575.069736 kJ/mol
# Density = 2.548401 g / cm^3
# Si number density = 25.542141 Si / 1000 Ang^3
#
#
#
# Elastic Constant Matrix: (Units=GPa)
#
#
# Indices 1 2 3 4 5 6 
#
# 1 121.4926 36.3434 29.3397 -0.6679 -34.4099 5.5430
# 2 36.3434 137.5900 28.9116 7.1737 -11.7466 1.8226
# 3 29.3397 28.9116 71.1309 30.3743 -30.6411 -3.8586
# 4 -0.6679 7.1737 30.3743 36.9914 -1.3798 -6.4987
# 5 -34.4099 -11.7466 -30.6411 -1.3798 38.9512 4.4878
# 6 5.5430 1.8226 -3.8586 -6.4987 4.4878 49.4245
#
#
#
# Elastic Compliance Matrix: (Units=1/GPa)
#
#
# Indices 1 2 3 4 5 6 
#
# 1 0.011858 -0.002271 -0.000104 0.000750 0.009973 -0.002061
# 2 -0.002271 0.008489 -0.004772 0.002137 -0.003139 0.000135
# 3 -0.000104 -0.004772 0.045688 -0.036048 0.033598 -0.004036
# 4 0.000750 0.002137 -0.036048 0.056461 -0.025832 0.006792
# 5 0.009973 -0.003139 0.033598 -0.025832 0.059882 -0.007214
# 6 -0.002061 0.000135 -0.004036 0.006792 -0.007214 0.021692
#
#
# Mechanical properties :
#
#
# Convention : Reuss Voigt Hill
#
# Bulk Modulus (GPa) = 19.32661 57.71143 38.51902
# Shear Modulus (GPa) = 21.22138 40.78134 31.00136
#
# Velocity S-wave (km/s) = 2.88555 4.00012 3.48765
# Velocity P-wave (km/s) = 4.32260 6.63161 5.59746
#
# Compressibility (1/GPa) = 0.05174212
#
# Stress axis : x y z
#
# Youngs Moduli (GPa) = 84.33034 117.79730 21.88761
#
# Poissons Ratio (x) = 0.26748 0.00228
# Poissons Ratio (y) = 0.19149 0.10444
# Poissons Ratio (z) = 0.00880 0.56208
#
# Static dielectric constant tensor:
#      x y z
#    x 2.096080 -0.011670 0.096410 
#    y -0.011670 2.088200 0.022160 
#    z 0.096410 0.022160 2.117530 
# 
# From -- ./inp_files/535523.got.cif
#   From: 2010.05.17/outbox.cif.g08.bks.cpg/sg2_268_cif.got.tgz:535523.got - 2010.06.03 11:33:40.
