data_PCOD9085952
_publ_section_title
;
Structure prediction by ZEFSAII (Michael W. Deem and Ramdas Pophale) SiO2 
 PCOD9085952
Probable space group: P -1
;
_chemical_formula_sum "Si O2"
_cell_formula_units_Z 16
_cell_length_a 26.172524
_cell_length_b 19.803142
_cell_length_c 14.132055
_cell_angle_alpha 158.840049
_cell_angle_beta 160.038274
_cell_angle_gamma 20.957397
_cell_volume 799.133122
_symmetry_space_group_name_H-M "P -1"
_symmetry_group_IT_number 2
_symmetry_cell_setting 'triclinic'
loop_
_space_group_symop_operation_xyz
x,y,z
-x,-y,-z
loop_
_atom_site_type_symbol
_atom_site_label
_atom_site_fract_x
_atom_site_fract_y
_atom_site_fract_z
Si Si1 0.228647 0.436176 0.266770
Si Si2 0.053879 0.687441 0.455371
Si Si3 0.552885 0.758805 0.766581
Si Si4 0.944641 0.248137 0.236723
Si Si5 0.618767 0.510247 0.888739
Si Si6 0.759015 0.177555 0.303983
Si Si7 0.009533 0.087518 0.788849
Si Si8 0.821159 0.560915 0.137957
O O1 0.407949 0.292781 0.343895
O O2 0.179573 0.659092 0.420295
O O3 0.208277 0.494555 0.417607
O O4 0.106495 0.338332 0.895710
O O5 0.060022 0.687103 0.577483
O O6 0.043695 0.906506 0.687917
O O7 0.423534 0.674966 0.463513
O O8 0.717607 0.632732 0.953310
O O9 0.500000 0.000000 0.000000
O O10 0.082391 0.302288 0.498474
O O11 0.764464 0.396362 0.070276
O O12 0.000000 0.000000 0.000000
O O13 0.441366 0.693726 0.859691
O O14 0.692096 0.587833 0.032026
O O15 0.854989 0.106710 0.477973
O O16 0.832081 0.989611 0.108949
O O17 0.953219 0.313999 0.033212
#
# Coordination Sequence:
#
# PCOD9085952 Si02
#       8
#     2   2   2   2   2   2   2   2
#     4   9  18  37  59  91 124 156 217 259 307 368
#     4  10  20  35  64  92 121 170 212 259 313 378
#     4  11  22  38  63  96 129 163 212 273 316 371
#     4  12  25  44  62  92 133 176 214 260 329 395
#     4  11  24  40  62  95 132 167 214 268 320 379
#     4   9  19  38  59  93 127 165 204 269 320 371
#     4  10  19  35  65  91 124 161 217 261 319 379
#     4  12  23  41  64  93 125 171 220 263 322 380
#
# _framework density 20.021695999999999
#
# number of rings (size 3 to 8) (size 9 to 14) (size 15 to 20)
#    0.000    1.500    3.750    2.250    1.750    0.000 
#    0.000    6.250    0.000    1.500    0.000    0.000 
#    0.000    0.000    0.000    0.000    0.000    0.000 
#
# Total GULP energy -89303.457636 kJ/mol
# GULP energy per Si atom -5581.466102 kJ/mol
# Density = 1.997613 g / cm^3
# Si number density = 20.021696 Si / 1000 Ang^3
#
#
#
# Elastic Constant Matrix: (Units=GPa)
#
#
# Indices 1 2 3 4 5 6 
#
# 1 88.6460 56.3556 30.3344 1.1632 10.1106 -19.8721
# 2 56.3556 70.0870 44.7902 2.9637 9.3421 -14.5149
# 3 30.3344 44.7902 97.2482 2.8113 17.2371 -10.9646
# 4 1.1632 2.9637 2.8113 27.8396 0.3826 -5.8071
# 5 10.1106 9.3421 17.2371 0.3826 28.9859 -4.0099
# 6 -19.8721 -14.5149 -10.9646 -5.8071 -4.0099 19.7907
#
#
#
# Elastic Compliance Matrix: (Units=1/GPa)
#
#
# Indices 1 2 3 4 5 6 
#
# 1 0.026367 -0.019968 0.002905 0.003685 -0.002601 0.013994
# 2 -0.019968 0.037556 -0.011192 -0.001827 0.001693 0.001100
# 3 0.002905 -0.011192 0.015948 0.000012 -0.006584 0.002213
# 4 0.003685 -0.001827 0.000012 0.038851 0.000708 0.013910
# 5 -0.002601 0.001693 -0.006584 0.000708 0.039200 0.003132
# 6 0.013994 0.001100 0.002213 0.013910 0.003132 0.071329
#
#
# Mechanical properties :
#
#
# Convention : Reuss Voigt Hill
#
# Bulk Modulus (GPa) = 42.80918 57.66019 50.23468
# Shear Modulus (GPa) = 17.03293 23.62331 20.32812
#
# Velocity S-wave (km/s) = 2.91988 3.43867 3.18984
# Velocity P-wave (km/s) = 5.72673 6.68037 6.22185
#
# Compressibility (1/GPa) = 0.02335948
#
# Stress axis : x y z
#
# Youngs Moduli (GPa) = 37.92641 26.62684 62.70462
#
# Poissons Ratio (x) = 0.53170 -0.18214
# Poissons Ratio (y) = 0.75733 0.70178
# Poissons Ratio (z) = -0.11017 0.29801
#
# Static dielectric constant tensor:
#      x y z
#    x 1.739870 -0.038050 0.015640 
#    y -0.038050 1.742280 0.017090 
#    z 0.015640 0.017090 1.713140 
# 
# From -- ./inp_files/544474.got.cif
#   From: 2010.05.17/outbox.cif.g08.bks.cpg/sg2_273_cif.got.tgz:544474.got - 2010.06.03 11:33:40.
