data_PCOD9085360
_publ_section_title
;
Structure prediction by ZEFSAII (Michael W. Deem and Ramdas Pophale) SiO2 
 PCOD9085360
Probable space group: P -1
;
_chemical_formula_sum "Si O2"
_cell_formula_units_Z 16
_cell_length_a 8.324884
_cell_length_b 11.484750
_cell_length_c 7.772290
_cell_angle_alpha 95.904397
_cell_angle_beta 101.102615
_cell_angle_gamma 103.066934
_cell_volume 701.932006
_symmetry_space_group_name_H-M "P -1"
_symmetry_group_IT_number 2
_symmetry_cell_setting 'triclinic'
loop_
_space_group_symop_operation_xyz
x,y,z
-x,-y,-z
loop_
_atom_site_type_symbol
_atom_site_label
_atom_site_fract_x
_atom_site_fract_y
_atom_site_fract_z
Si Si1 0.299892 0.812706 0.947159
Si Si2 0.401785 0.573177 0.611634
Si Si3 0.170769 0.518154 0.256307
Si Si4 0.783746 0.461976 0.121845
Si Si5 0.237623 0.036756 0.384531
Si Si6 0.444025 0.029861 0.754303
Si Si7 0.997034 0.878940 0.090406
Si Si8 0.249459 0.267060 0.215678
O O1 0.251714 0.677783 0.847028
O O2 0.342541 0.921317 0.836234
O O3 0.138520 0.821344 0.027161
O O4 0.466974 0.849050 0.105822
O O5 0.500000 0.500000 0.500000
O O6 0.261430 0.593651 0.449881
O O7 0.324518 0.492910 0.748887
O O8 0.549070 0.685473 0.723714
O O9 0.170271 0.377977 0.264124
O O10 0.980224 0.528227 0.193678
O O11 0.258615 0.543213 0.089971
O O12 0.394866 0.010868 0.300470
O O13 0.199474 0.158095 0.323077
O O14 0.313486 0.050459 0.590194
O O15 0.072011 0.927601 0.297959
O O16 0.820870 0.785641 0.993404
O O17 0.000000 0.000000 0.000000
#
# Coordination Sequence:
#
# PCOD9085360 Si02
#       8
#     2   2   2   2   2   2   2   2
#     4  10  19  35  60  85 123 160 201 260 310 374
#     4  10  23  40  64  89 126 162 212 267 311 372
#     4  10  23  41  65  92 126 165 217 260 322 372
#     4  11  22  41  66  93 124 169 212 266 315 378
#     4   9  18  34  60  86 122 159 200 255 304 379
#     4   9  19  34  56  94 119 152 209 248 312 374
#     4   9  18  35  58  79 120 161 199 246 308 367
#     4  10  19  37  59  85 123 168 200 255 316 367
#
# _framework density 22.794232000000001
#
# number of rings (size 3 to 8) (size 9 to 14) (size 15 to 20)
#    0.000    2.250    1.250    1.125    1.750    3.000 
#    2.250    3.750   16.500    0.000    0.000    0.000 
#    0.000    0.000    0.000    0.000    0.000    0.000 
#
# Total GULP energy -89264.170252 kJ/mol
# GULP energy per Si atom -5579.010641 kJ/mol
# Density = 2.274235 g / cm^3
# Si number density = 22.794232 Si / 1000 Ang^3
#
#
#
# Elastic Constant Matrix: (Units=GPa)
#
#
# Indices 1 2 3 4 5 6 
#
# 1 51.0687 19.1853 40.9702 9.9295 -0.6627 12.0955
# 2 19.1853 32.8897 24.6308 7.6218 11.9519 14.6055
# 3 40.9702 24.6308 156.5793 5.8841 29.6730 37.9843
# 4 9.9295 7.6218 5.8841 16.0343 10.8282 10.4674
# 5 -0.6627 11.9519 29.6730 10.8282 38.0851 3.2105
# 6 12.0955 14.6055 37.9843 10.4674 3.2105 27.3436
#
#
#
# Elastic Compliance Matrix: (Units=1/GPa)
#
#
# Indices 1 2 3 4 5 6 
#
# 1 0.082692 -0.058064 -0.048541 -0.130138 0.085916 0.101596
# 2 -0.058064 0.086039 0.036523 0.097934 -0.075917 -0.099585
# 3 -0.048541 0.036523 0.044437 0.101617 -0.068177 -0.090661
# 4 -0.130138 0.097934 0.101617 0.349223 -0.190622 -0.247210
# 5 0.085916 -0.075917 -0.068177 -0.190622 0.145987 0.153085
# 6 0.101596 -0.099585 -0.090661 -0.247210 0.153085 0.247425
#
#
# Mechanical properties :
#
#
# Convention : Reuss Voigt Hill
#
# Bulk Modulus (GPa) = 13.69767 45.56780 29.63273
# Shear Modulus (GPa) = 4.46308 26.67603 15.56956
#
# Velocity S-wave (km/s) = 1.40080 3.42467 2.61635
# Velocity P-wave (km/s) = 2.93915 5.97262 4.70695
#
# Compressibility (1/GPa) = 0.07300514
#
# Stress axis : x y z
#
# Youngs Moduli (GPa) = 12.09304 11.62269 22.50372
#
# Poissons Ratio (x) = 0.67486 1.09234
# Poissons Ratio (y) = 0.70217 -0.82191
# Poissons Ratio (z) = 0.58700 -0.42450
#
# Static dielectric constant tensor:
#      x y z
#    x 1.948610 -0.019190 -0.029110 
#    y -0.019190 1.845580 0.032960 
#    z -0.029110 0.032960 1.938910 
# 
# From -- ./inp_files/179366.got.cif
#   From: 2010.05.17/outbox.cif.g08.bks.cpg/sg2_90_cif.got.tgz:179366.got - 2010.06.03 11:33:40.
