data_PCOD9085244
_publ_section_title
;
Structure prediction by ZEFSAII (Michael W. Deem and Ramdas Pophale) SiO2 
 PCOD9085244
Probable space group: P -1
;
_chemical_formula_sum "Si O2"
_cell_formula_units_Z 14
_cell_length_a 19.210244
_cell_length_b 22.561829
_cell_length_c 12.875026
_cell_angle_alpha 153.105583
_cell_angle_beta 27.686108
_cell_angle_gamma 161.909506
_cell_volume 754.979460
_symmetry_space_group_name_H-M "P -1"
_symmetry_group_IT_number 2
_symmetry_cell_setting 'triclinic'
loop_
_space_group_symop_operation_xyz
x,y,z
-x,-y,-z
loop_
_atom_site_type_symbol
_atom_site_label
_atom_site_fract_x
_atom_site_fract_y
_atom_site_fract_z
Si Si1 0.013344 0.566931 0.895568
Si Si2 0.529833 0.190119 0.202177
Si Si3 0.927507 0.617215 0.865300
Si Si4 0.857300 0.874473 0.388043
Si Si5 0.068650 0.832485 0.372278
Si Si6 0.636371 0.179095 0.515844
Si Si7 0.701536 0.136394 0.698900
O O1 0.240132 0.657468 0.793337
O O2 0.041542 0.651284 0.878231
O O3 0.835187 0.328274 0.749448
O O4 0.922059 0.620507 0.178340
O O5 0.406381 0.248381 0.441048
O O6 0.320188 0.980706 0.214705
O O7 0.578145 0.147651 0.964880
O O8 0.708661 0.373807 0.758071
O O9 0.117628 0.720529 0.685955
O O10 0.864307 0.726891 0.124229
O O11 0.975938 0.047888 0.414175
O O12 0.000000 0.000000 0.500000
O O13 0.116434 0.829550 0.423000
O O14 0.500000 0.000000 0.500000
O O15 0.475578 0.067753 0.451798
#
# Coordination Sequence:
#
# PCOD9085244 Si02
#       7
#     2   2   2   2   2   2   2
#     4  11  18  33  59  89 117 150 194 244 289 346
#     4   9  19  32  58  88 114 148 187 235 302 344
#     4  11  22  40  63  86 117 151 198 241 293 344
#     4  10  19  35  59  88 120 149 185 238 308 353
#     4   9  18  31  57  84 117 147 186 232 298 344
#     4  11  23  40  60  86 112 159 203 243 275 340
#     4  11  19  34  57  88 119 150 204 238 278 349
#
# _framework density 18.543551000000001
#
# number of rings (size 3 to 8) (size 9 to 14) (size 15 to 20)
#    0.857    0.857    2.857    6.000    0.000    0.000 
#    0.000    4.286    0.000    1.714    0.000    0.000 
#    0.000    0.000    0.000    0.000    0.000    0.000 
#
# Total GULP energy -77952.780041 kJ/mol
# GULP energy per Si atom -5568.055717 kJ/mol
# Density = 1.850135 g / cm^3
# Si number density = 18.543551 Si / 1000 Ang^3
#
#
#
# Elastic Constant Matrix: (Units=GPa)
#
#
# Indices 1 2 3 4 5 6 
#
# 1 88.9850 30.2132 51.6525 16.8065 -13.4968 -7.8752
# 2 30.2132 73.5358 35.8032 28.5620 -5.7310 -1.2365
# 3 51.6525 35.8032 108.5545 33.1689 -21.4104 2.6044
# 4 16.8065 28.5620 33.1689 33.2457 -2.4232 6.3380
# 5 -13.4968 -5.7310 -21.4104 -2.4232 27.4717 8.4699
# 6 -7.8752 -1.2365 2.6044 6.3380 8.4699 31.0146
#
#
#
# Elastic Compliance Matrix: (Units=1/GPa)
#
#
# Indices 1 2 3 4 5 6 
#
# 1 0.016933 -0.003749 -0.007054 0.000929 0.000784 0.004339
# 2 -0.003749 0.022134 -0.000251 -0.017552 -0.000065 0.003556
# 3 -0.007054 -0.000251 0.019218 -0.013860 0.011375 -0.003689
# 4 0.000929 -0.017552 -0.013860 0.060019 -0.005620 -0.010031
# 5 0.000784 -0.000065 0.011375 -0.005620 0.049161 -0.013036
# 6 0.004339 0.003556 -0.003689 -0.010031 -0.013036 0.039406
#
#
# Mechanical properties :
#
#
# Convention : Reuss Voigt Hill
#
# Bulk Modulus (GPa) = 27.64251 56.26814 41.95532
# Shear Modulus (GPa) = 20.74369 28.57349 24.65859
#
# Velocity S-wave (km/s) = 3.34825 3.92967 3.65055
# Velocity P-wave (km/s) = 5.46689 7.14139 6.35949
#
# Compressibility (1/GPa) = 0.03617617
#
# Stress axis : x y z
#
# Youngs Moduli (GPa) = 59.05742 45.17979 52.03524
#
# Poissons Ratio (x) = 0.16940 0.36703
# Poissons Ratio (y) = 0.22143 0.01306
# Poissons Ratio (z) = 0.41656 0.01134
#
# Static dielectric constant tensor:
#      x y z
#    x 1.686940 -0.010500 -0.004850 
#    y -0.010500 1.687640 0.017100 
#    z -0.004850 0.017100 1.643720 
# 
# From -- ./inp_files/467156.got.cif
#   From: 2010.05.17/outbox.cif.g08.bks.cpg/sg2_234_cif.got.tgz:467156.got - 2010.06.03 11:33:40.
