data_PCOD9085305
_publ_section_title
;
Structure prediction by ZEFSAII (Michael W. Deem and Ramdas Pophale) SiO2 
 PCOD9085305
Probable space group: P -1
;
_chemical_formula_sum "Si O2"
_cell_formula_units_Z 15
_cell_length_a 18.237179
_cell_length_b 12.977708
_cell_length_c 9.657228
_cell_angle_alpha 47.092849
_cell_angle_beta 47.940746
_cell_angle_gamma 25.434799
_cell_volume 707.909333
_symmetry_space_group_name_H-M "P -1"
_symmetry_group_IT_number 2
_symmetry_cell_setting 'triclinic'
loop_
_space_group_symop_operation_xyz
x,y,z
-x,-y,-z
loop_
_atom_site_type_symbol
_atom_site_label
_atom_site_fract_x
_atom_site_fract_y
_atom_site_fract_z
Si Si1 0.222205 0.287625 0.506346
Si Si2 0.415053 0.961587 0.070949
Si Si3 0.961175 0.734597 0.104848
Si Si4 0.749513 0.663559 0.281503
Si Si5 0.443305 0.829827 0.449374
Si Si6 0.000000 0.500000 0.000000
Si Si7 0.735280 0.491856 0.917577
Si Si8 0.656768 0.281513 0.103873
O O1 0.061444 0.373103 0.664841
O O2 0.316338 0.190038 0.627693
O O3 0.211757 0.460746 0.313253
O O4 0.332110 0.080382 0.439062
O O5 0.393094 0.886963 0.298757
O O6 0.545961 0.747621 0.986938
O O7 0.500000 0.000000 0.000000
O O8 0.253056 0.216516 0.954817
O O9 0.974556 0.654080 0.012384
O O10 0.128866 0.629629 0.023811
O O11 0.793570 0.024600 0.084663
O O12 0.638739 0.661032 0.378198
O O13 0.953891 0.423665 0.249593
O O14 0.410202 0.728080 0.670033
O O15 0.740338 0.328434 0.006762
O O16 0.500000 0.500000 0.000000
#
# Coordination Sequence:
#
# PCOD9085305 Si02
#       8
#     2   2   2   2   2   1   2   2
#     4  10  20  34  65  94 123 163 218 268 312 379
#     4  10  20  34  63  89 125 160 206 267 315 369
#     4  10  23  42  63  97 130 167 214 269 323 382
#     4  10  19  35  59  94 127 158 207 271 318 369
#     4  10  20  38  59  92 125 164 218 265 310 383
#     4  10  22  36  68  92 128 160 212 268 330 364
#     4  12  22  39  66  94 132 171 211 264 330 380
#     4  11  26  42  65  91 132 179 214 259 320 394
#
# _framework density 21.189153999999998
#
# number of rings (size 3 to 8) (size 9 to 14) (size 15 to 20)
#    0.000    1.600    2.667    3.600    5.600    0.533 
#    2.400    0.000    0.000    8.000    0.000    0.000 
#    0.000    0.000    0.000    0.000    0.000    0.000 
#
# Total GULP energy -83508.289003 kJ/mol
# GULP energy per Si atom -5567.219267 kJ/mol
# Density = 2.114093 g / cm^3
# Si number density = 21.189154 Si / 1000 Ang^3
#
#
#
# Elastic Constant Matrix: (Units=GPa)
#
#
# Indices 1 2 3 4 5 6 
#
# 1 143.3672 36.5344 50.3192 -6.9918 -10.5857 13.6690
# 2 36.5344 89.9168 42.7504 11.6247 -0.1421 15.0080
# 3 50.3192 42.7504 124.0621 -3.2909 -10.7035 13.6480
# 4 -6.9918 11.6247 -3.2909 33.2807 1.5871 2.8699
# 5 -10.5857 -0.1421 -10.7035 1.5871 43.9767 2.9325
# 6 13.6690 15.0080 13.6480 2.8699 2.9325 32.3577
#
#
#
# Elastic Compliance Matrix: (Units=1/GPa)
#
#
# Indices 1 2 3 4 5 6 
#
# 1 0.008856 -0.002506 -0.002303 0.002603 0.001602 -0.001983
# 2 -0.002506 0.015522 -0.004173 -0.005985 -0.001103 -0.003749
# 3 -0.002303 -0.004173 0.010903 0.002128 0.002147 -0.002073
# 4 0.002603 -0.005985 0.002128 0.033078 0.000076 -0.002162
# 5 0.001602 -0.001103 0.002147 0.000076 0.023857 -0.003239
# 6 -0.001983 -0.003749 -0.002073 -0.002162 -0.003239 0.034841
#
#
# Mechanical properties :
#
#
# Convention : Reuss Voigt Hill
#
# Bulk Modulus (GPa) = 57.75402 68.50601 63.13001
# Shear Modulus (GPa) = 33.15759 37.10581 35.13170
#
# Velocity S-wave (km/s) = 3.96009 4.18924 4.07628
# Velocity P-wave (km/s) = 6.94445 7.46997 7.21200
#
# Compressibility (1/GPa) = 0.01731481
#
# Stress axis : x y z
#
# Youngs Moduli (GPa) = 112.91220 64.42509 91.72199
#
# Poissons Ratio (x) = 0.16148 0.21124
# Poissons Ratio (y) = 0.28301 0.38280
# Poissons Ratio (z) = 0.26004 0.26888
#
# Static dielectric constant tensor:
#      x y z
#    x 1.860900 -0.177540 -0.014240 
#    y -0.177540 1.955240 0.065690 
#    z -0.014240 0.065690 1.858790 
# 
# From -- ./inp_files/332853.got.cif
#   From: 2010.05.17/outbox.cif.g08.bks.cpg/sg2_167_cif.got.tgz:332853.got - 2010.06.03 11:33:40.
