data_PCOD9085792
_publ_section_title
;
Structure prediction by ZEFSAII (Michael W. Deem and Ramdas Pophale) SiO2 
 PCOD9085792
Probable space group: P -1
;
_chemical_formula_sum "Si O2"
_cell_formula_units_Z 14
_cell_length_a 9.348723
_cell_length_b 9.603246
_cell_length_c 12.762823
_cell_angle_alpha 81.205618
_cell_angle_beta 40.105840
_cell_angle_gamma 84.789401
_cell_volume 728.847927
_symmetry_space_group_name_H-M "P -1"
_symmetry_group_IT_number 2
_symmetry_cell_setting 'triclinic'
loop_
_space_group_symop_operation_xyz
x,y,z
-x,-y,-z
loop_
_atom_site_type_symbol
_atom_site_label
_atom_site_fract_x
_atom_site_fract_y
_atom_site_fract_z
Si Si1 0.996601 0.343723 0.566878
Si Si2 0.450205 0.264091 0.550497
Si Si3 0.211953 0.834384 0.476105
Si Si4 0.118763 0.854331 0.931517
Si Si5 0.939652 0.312811 0.220552
Si Si6 0.987376 0.378047 0.808960
Si Si7 0.637055 0.866316 0.588202
O O1 0.845999 0.239721 0.591213
O O2 0.000000 0.500000 0.500000
O O3 0.919239 0.351863 0.729768
O O4 0.240295 0.276545 0.435810
O O5 0.546696 0.209985 0.611320
O O6 0.670710 0.328247 0.362814
O O7 0.254867 0.368352 0.658757
O O8 0.360738 0.136835 0.540033
O O9 0.046488 0.770093 0.667009
O O10 0.222209 0.002241 0.458144
O O11 0.010156 0.778849 0.898106
O O12 0.382997 0.875996 0.763164
O O13 0.092052 0.745951 0.055303
O O14 0.000000 0.000000 0.000000
O O15 0.060860 0.465313 0.143004
#
# Coordination Sequence:
#
# PCOD9085792 Si02
#       7
#     2   2   2   2   2   2   2
#     4  11  22  39  63  91 117 153 201 247 292 351
#     4   8  18  32  64  89 109 144 205 251 288 337
#     4  10  19  35  63  88 116 149 199 245 299 337
#     4  11  24  38  60  90 123 158 194 242 297 355
#     4   9  20  34  61  85 116 148 199 243 294 332
#     4  11  20  38  61  89 120 154 197 242 301 349
#     4  10  21  38  59  89 119 155 196 247 292 345
#
# _framework density 19.208394999999999
#
# number of rings (size 3 to 8) (size 9 to 14) (size 15 to 20)
#    0.857    1.143    1.429    2.571    4.000    1.143 
#    0.000    2.857    3.143    0.000    0.000    0.000 
#    0.000    0.000    0.000    0.000    0.000    0.000 
#
# Total GULP energy -77985.269507 kJ/mol
# GULP energy per Si atom -5570.376393 kJ/mol
# Density = 1.916468 g / cm^3
# Si number density = 19.208395 Si / 1000 Ang^3
#
#
#
# Elastic Constant Matrix: (Units=GPa)
#
#
# Indices 1 2 3 4 5 6 
#
# 1 87.3629 44.7726 24.5648 13.2798 15.3239 10.1314
# 2 44.7726 163.4320 51.1120 6.8301 15.2100 13.4630
# 3 24.5648 51.1120 60.4507 2.5964 21.8328 7.9298
# 4 13.2798 6.8301 2.5964 27.9906 -1.9680 4.0459
# 5 15.3239 15.2100 21.8328 -1.9680 26.0813 3.9085
# 6 10.1314 13.4630 7.9298 4.0459 3.9085 29.1284
#
#
#
# Elastic Compliance Matrix: (Units=1/GPa)
#
#
# Indices 1 2 3 4 5 6 
#
# 1 0.015688 -0.002948 -0.000774 -0.006863 -0.007071 -0.001981
# 2 -0.002948 0.009061 -0.007278 0.000290 0.002802 -0.001598
# 3 -0.000774 -0.007278 0.030934 -0.001965 -0.021091 -0.001685
# 4 -0.006863 0.000290 -0.001965 0.040322 0.009156 -0.004041
# 5 -0.007071 0.002802 -0.021091 0.009156 0.059562 -0.002358
# 6 -0.001981 -0.001598 -0.001685 -0.004041 -0.002358 0.037095
#
#
# Mechanical properties :
#
#
# Convention : Reuss Voigt Hill
#
# Bulk Modulus (GPa) = 29.68874 61.34939 45.51906
# Shear Modulus (GPa) = 22.13468 29.35980 25.74724
#
# Velocity S-wave (km/s) = 3.39830 3.91383 3.66514
# Velocity P-wave (km/s) = 5.55766 7.24101 6.45445
#
# Compressibility (1/GPa) = 0.03368280
#
# Stress axis : x y z
#
# Youngs Moduli (GPa) = 63.74266 110.36021 32.32695
#
# Poissons Ratio (x) = 0.32529 0.02503
# Poissons Ratio (y) = 0.18788 0.23529
# Poissons Ratio (z) = 0.04936 0.80325
#
# Static dielectric constant tensor:
#      x y z
#    x 1.696060 0.003330 0.004020 
#    y 0.003330 1.702920 -0.012100 
#    z 0.004020 -0.012100 1.670700 
# 
# From -- ./inp_files/381874.got.cif
#   From: 2010.05.17/outbox.cif.g08.bks.cpg/sg2_191_cif.got.tgz:381874.got - 2010.06.03 11:33:40.
