data_PCOD9085596
_publ_section_title
;
Structure prediction by ZEFSAII (Michael W. Deem and Ramdas Pophale) SiO2 
 PCOD9085596
Probable space group: P -1
;
_chemical_formula_sum "Si O2"
_cell_formula_units_Z 16
_cell_length_a 12.160443
_cell_length_b 9.394440
_cell_length_c 10.930764
_cell_angle_alpha 73.961549
_cell_angle_beta 49.905465
_cell_angle_gamma 42.290321
_cell_volume 592.202159
_symmetry_space_group_name_H-M "P -1"
_symmetry_group_IT_number 2
_symmetry_cell_setting 'triclinic'
loop_
_space_group_symop_operation_xyz
x,y,z
-x,-y,-z
loop_
_atom_site_type_symbol
_atom_site_label
_atom_site_fract_x
_atom_site_fract_y
_atom_site_fract_z
Si Si1 0.805627 0.133351 0.731213
Si Si2 0.804794 0.163479 0.284858
Si Si3 0.613013 0.088636 0.063977
Si Si4 0.975772 0.765828 0.518776
Si Si5 0.324664 0.181639 0.419929
Si Si6 0.612825 0.701490 0.395077
Si Si7 0.981343 0.235235 0.955251
Si Si8 0.916660 0.624648 0.832826
O O1 0.812482 0.297041 0.644369
O O2 0.812978 0.017283 0.637963
O O3 0.039292 0.920472 0.690222
O O4 0.624289 0.221132 0.936285
O O5 0.562963 0.291664 0.465571
O O6 0.945860 0.922144 0.174514
O O7 0.795446 0.296641 0.154869
O O8 0.376313 0.251573 0.256513
O O9 0.796493 0.950232 0.074115
O O10 0.699185 0.882338 0.970756
O O11 0.971556 0.641326 0.653309
O O12 0.889099 0.751070 0.464973
O O13 0.511827 0.907354 0.334273
O O14 0.371258 0.227167 0.501854
O O15 0.866576 0.478483 0.227607
O O16 0.921823 0.447096 0.902413
#
# Coordination Sequence:
#
# PCOD9085596 Si02
#       8
#     2   2   2   2   2   2   2   2
#     4   9  20  38  60  84 116 163 202 225 291 363
#     4  10  19  37  63  87 116 158 204 236 284 363
#     4  10  20  38  63  88 116 157 199 247 286 349
#     4  10  22  40  59  86 121 161 194 242 293 357
#     4  11  21  38  64  86 117 157 208 235 281 363
#     4  11  21  37  59  94 117 151 200 248 289 347
#     4  10  19  35  61  91 117 153 195 248 296 343
#     4  11  23  37  58  92 128 147 191 252 309 332
#
# _framework density 27.017800000000001
#
# number of rings (size 3 to 8) (size 9 to 14) (size 15 to 20)
#    0.000    1.750    3.750    1.125    0.000    2.500 
#    0.000   10.625    0.000    1.500    0.000    0.000 
#    0.000    0.000    0.000    0.000    0.000    0.000 
#
# Total GULP energy -89476.620193 kJ/mol
# GULP energy per Si atom -5592.288762 kJ/mol
# Density = 2.695631 g / cm^3
# Si number density = 27.017800 Si / 1000 Ang^3
#
#
#
# Elastic Constant Matrix: (Units=GPa)
#
#
# Indices 1 2 3 4 5 6 
#
# 1 89.1898 23.9788 20.7710 -0.8255 -8.6669 21.7109
# 2 23.9788 91.9996 39.8689 -30.3143 5.9299 30.6759
# 3 20.7710 39.8689 149.8466 -58.9235 -9.3746 15.2153
# 4 -0.8255 -30.3143 -58.9235 49.6013 -2.4296 -9.3908
# 5 -8.6669 5.9299 -9.3746 -2.4296 35.1626 -2.8233
# 6 21.7109 30.6759 15.2153 -9.3908 -2.8233 36.2225
#
#
#
# Elastic Compliance Matrix: (Units=1/GPa)
#
#
# Indices 1 2 3 4 5 6 
#
# 1 0.014268 -0.002256 -0.002740 -0.005566 0.002240 -0.006759
# 2 -0.002256 0.018896 -0.000367 0.008475 -0.004269 -0.012632
# 3 -0.002740 -0.000367 0.013839 0.016523 0.004279 0.000757
# 4 -0.005566 0.008475 0.016523 0.045370 0.004848 0.001359
# 5 0.002240 -0.004269 0.004279 0.004848 0.031523 0.004190
# 6 -0.006759 -0.012632 0.000757 0.001359 0.004190 0.042717
#
#
# Mechanical properties :
#
#
# Convention : Reuss Voigt Hill
#
# Bulk Modulus (GPa) = 27.56560 55.58592 41.57576
# Shear Modulus (GPa) = 26.39465 40.62512 33.50989
#
# Velocity S-wave (km/s) = 3.12899 3.88189 3.52559
# Velocity P-wave (km/s) = 4.82483 6.38048 5.65639
#
# Compressibility (1/GPa) = 0.03627710
#
# Stress axis : x y z
#
# Youngs Moduli (GPa) = 70.08652 52.92067 72.25991
#
# Poissons Ratio (x) = 0.11941 0.19798
# Poissons Ratio (y) = 0.15814 0.02651
# Poissons Ratio (z) = 0.19202 0.01942
#
# Static dielectric constant tensor:
#      x y z
#    x 2.149170 -0.035070 -0.001590 
#    y -0.035070 2.157230 0.011120 
#    z -0.001590 0.011120 2.150680 
# 
# From -- ./inp_files/417053.got.cif
#   From: 2010.05.17/outbox.cif.g08.bks.cpg/sg2_209_cif.got.tgz:417053.got - 2010.06.03 11:33:40.
