data_PCOD9085424
_publ_section_title
;
Structure prediction by ZEFSAII (Michael W. Deem and Ramdas Pophale) SiO2 
 PCOD9085424
Probable space group: P -1
;
_chemical_formula_sum "Si O2"
_cell_formula_units_Z 16
_cell_length_a 9.888200
_cell_length_b 14.072808
_cell_length_c 9.043963
_cell_angle_alpha 129.727242
_cell_angle_beta 107.889969
_cell_angle_gamma 102.693274
_cell_volume 757.805413
_symmetry_space_group_name_H-M "P -1"
_symmetry_group_IT_number 2
_symmetry_cell_setting 'triclinic'
loop_
_space_group_symop_operation_xyz
x,y,z
-x,-y,-z
loop_
_atom_site_type_symbol
_atom_site_label
_atom_site_fract_x
_atom_site_fract_y
_atom_site_fract_z
Si Si1 0.243606 0.107637 0.647624
Si Si2 0.856742 0.480296 0.107161
Si Si3 0.195688 0.950438 0.182576
Si Si4 0.409532 0.845960 0.221617
Si Si5 0.430463 0.259639 0.396380
Si Si6 0.673642 0.622953 0.266043
Si Si7 0.834855 0.807598 0.996455
Si Si8 0.178270 0.485209 0.208218
O O1 0.437905 0.158080 0.804127
O O2 0.248159 0.229272 0.662207
O O3 0.186950 0.971664 0.379376
O O4 0.148911 0.099999 0.758253
O O5 0.797576 0.567640 0.268957
O O6 0.025549 0.492843 0.231825
O O7 0.699735 0.305099 0.870488
O O8 0.874230 0.542426 0.009901
O O9 0.265945 0.847312 0.079182
O O10 0.338141 0.104868 0.303944
O O11 0.999202 0.889682 0.021532
O O12 0.500000 0.000000 0.500000
O O13 0.383653 0.355479 0.574233
O O14 0.333349 0.226106 0.176707
O O15 0.636345 0.358920 0.553459
O O16 0.500000 0.500000 0.000000
O O17 0.813848 0.652765 0.875866
#
# Coordination Sequence:
#
# PCOD9085424 Si02
#       8
#     2   2   2   2   2   2   2   2
#     4  10  20  35  62  91 117 152 204 249 294 348
#     4  11  20  36  62  90 122 152 200 255 295 346
#     4  10  22  41  61  87 120 160 206 240 297 362
#     4  10  19  35  60  89 118 156 197 248 299 350
#     4  11  24  41  61  86 125 164 194 243 309 358
#     4  11  18  36  61  89 115 157 203 242 291 357
#     4  12  22  40  60  93 123 154 199 253 301 355
#     4  11  22  36  58  92 121 153 197 250 298 345
#
# _framework density 21.113599000000001
#
# number of rings (size 3 to 8) (size 9 to 14) (size 15 to 20)
#    0.000    1.250    5.000    2.625    0.000    0.000 
#    0.000    2.500    0.000    0.000    0.000    0.000 
#    0.000    0.000    0.000    0.000    0.000    0.000 
#
# Total GULP energy -89219.653695 kJ/mol
# GULP energy per Si atom -5576.228356 kJ/mol
# Density = 2.106554 g / cm^3
# Si number density = 21.113599 Si / 1000 Ang^3
#
#
#
# Elastic Constant Matrix: (Units=GPa)
#
#
# Indices 1 2 3 4 5 6 
#
# 1 143.8079 33.8655 8.2682 9.4351 21.1714 -12.8434
# 2 33.8655 59.2496 7.4616 9.2627 -0.6363 -5.9021
# 3 8.2682 7.4616 36.8574 -4.4626 8.8576 0.2966
# 4 9.4351 9.2627 -4.4626 27.2810 1.6802 6.1226
# 5 21.1714 -0.6363 8.8576 1.6802 29.8308 6.0365
# 6 -12.8434 -5.9021 0.2966 6.1226 6.0365 23.5126
#
#
#
# Elastic Compliance Matrix: (Units=1/GPa)
#
#
# Indices 1 2 3 4 5 6 
#
# 1 0.010205 -0.004773 0.000369 -0.002968 -0.008785 0.007400
# 2 -0.004773 0.021967 -0.005614 -0.007876 0.005220 0.003689
# 3 0.000369 -0.005614 0.031532 0.007792 -0.009966 -0.001076
# 4 -0.002968 -0.007876 0.007792 0.045095 0.000221 -0.015496
# 5 -0.008785 0.005220 -0.009966 0.000221 0.045891 -0.015202
# 6 0.007400 0.003689 -0.001076 -0.015496 -0.015202 0.055450
#
#
# Mechanical properties :
#
#
# Convention : Reuss Voigt Hill
#
# Bulk Modulus (GPa) = 22.89937 37.67839 30.28888
# Shear Modulus (GPa) = 20.43035 28.81285 24.62160
#
# Velocity S-wave (km/s) = 3.11407 3.69814 3.41860
# Velocity P-wave (km/s) = 4.87844 6.00993 5.47350
#
# Compressibility (1/GPa) = 0.04366933
#
# Stress axis : x y z
#
# Youngs Moduli (GPa) = 97.98771 45.52183 31.71340
#
# Poissons Ratio (x) = 0.21726 -0.01170
# Poissons Ratio (y) = 0.46767 0.17805
# Poissons Ratio (z) = -0.03616 0.25557
#
# Static dielectric constant tensor:
#      x y z
#    x 1.835190 -0.010120 0.078460 
#    y -0.010120 1.770130 -0.004680 
#    z 0.078460 -0.004680 1.880670 
# 
# From -- ./inp_files/209150.got.cif
#   From: 2010.05.17/outbox.cif.g08.bks.cpg/sg2_105_cif.got.tgz:209150.got - 2010.06.03 11:33:40.
