data_PCOD9085551
_publ_section_title
;
Structure prediction by ZEFSAII (Michael W. Deem and Ramdas Pophale) SiO2 
 PCOD9085551
Probable space group: P -1
;
_chemical_formula_sum "Si O2"
_cell_formula_units_Z 16
_cell_length_a 7.932586
_cell_length_b 9.335202
_cell_length_c 13.569738
_cell_angle_alpha 65.671151
_cell_angle_beta 51.899135
_cell_angle_gamma 61.703042
_cell_volume 685.837197
_symmetry_space_group_name_H-M "P -1"
_symmetry_group_IT_number 2
_symmetry_cell_setting 'triclinic'
loop_
_space_group_symop_operation_xyz
x,y,z
-x,-y,-z
loop_
_atom_site_type_symbol
_atom_site_label
_atom_site_fract_x
_atom_site_fract_y
_atom_site_fract_z
Si Si1 0.068746 0.014045 0.860356
Si Si2 0.307827 0.463533 0.317532
Si Si3 0.007732 0.244388 0.537110
Si Si4 0.649836 0.506612 0.042998
Si Si5 0.696562 0.064218 0.375483
Si Si6 0.086100 0.714924 0.666407
Si Si7 0.276950 0.144040 0.076035
Si Si8 0.994247 0.605687 0.203273
O O1 0.302010 0.925523 0.746270
O O2 0.063964 0.204964 0.799127
O O3 0.908340 0.924955 0.888899
O O4 0.000000 0.000000 0.000000
O O5 0.214507 0.324730 0.439162
O O6 0.553610 0.438696 0.191395
O O7 0.163633 0.512452 0.254702
O O8 0.211426 0.623423 0.375437
O O9 0.082958 0.080320 0.621851
O O10 0.955973 0.224012 0.447740
O O11 0.500000 0.500000 0.000000
O O12 0.657073 0.689079 0.016099
O O13 0.894977 0.407691 0.941411
O O14 0.500000 0.000000 0.500000
O O15 0.717788 0.225188 0.374380
O O16 0.850888 0.798407 0.787893
O O17 0.158414 0.515399 0.707537
O O18 0.500000 0.000000 0.000000
#
# Coordination Sequence:
#
# PCOD9085551 Si02
#       8
#     2   2   2   2   2   2   2   2
#     4  11  24  42  61  84 122 167 202 246 302 362
#     4   9  17  31  58  91 117 148 192 246 302 343
#     4  10  19  35  61  87 119 154 197 246 298 352
#     4   9  17  30  55  90 117 147 184 244 302 352
#     4  11  24  42  58  86 127 164 200 244 300 365
#     4   9  21  38  62  91 114 155 200 249 307 350
#     4  10  20  35  60  90 118 149 198 253 300 354
#     4   9  17  37  61  81 119 151 193 248 305 352
#
# _framework density 23.329149999999998
#
# number of rings (size 3 to 8) (size 9 to 14) (size 15 to 20)
#    0.000    2.250    1.250    2.625    1.750    2.000 
#    2.250    7.500    0.000    0.000    0.000    0.000 
#    0.000    0.000    0.000    0.000    0.000    0.000 
#
# Total GULP energy -89068.540411 kJ/mol
# GULP energy per Si atom -5566.783776 kJ/mol
# Density = 2.327605 g / cm^3
# Si number density = 23.329150 Si / 1000 Ang^3
#
#
#
# Elastic Constant Matrix: (Units=GPa)
#
#
# Indices 1 2 3 4 5 6 
#
# 1 35.5052 37.4330 27.7168 -3.9180 6.3378 25.0464
# 2 37.4330 164.0793 37.0055 -22.8120 2.6411 36.6220
# 3 27.7168 37.0055 143.8194 2.2088 8.0620 17.6976
# 4 -3.9180 -22.8120 2.2088 41.6198 9.5882 2.5658
# 5 6.3378 2.6411 8.0620 9.5882 30.2686 -1.4423
# 6 25.0464 36.6220 17.6976 2.5658 -1.4423 32.7317
#
#
#
# Elastic Compliance Matrix: (Units=1/GPa)
#
#
# Indices 1 2 3 4 5 6 
#
# 1 0.085549 -0.001045 -0.007402 0.017346 -0.024333 -0.062723
# 2 -0.001045 0.009836 -0.000995 0.006668 -0.002979 -0.010322
# 3 -0.007402 -0.000995 0.008362 -0.001860 0.000114 0.002407
# 4 0.017346 0.006668 -0.001860 0.034465 -0.015738 -0.023123
# 5 -0.024333 -0.002979 0.000114 -0.015738 0.044543 0.025088
# 6 -0.062723 -0.010322 0.002407 -0.023123 0.025088 0.091712
#
#
# Mechanical properties :
#
#
# Convention : Reuss Voigt Hill
#
# Bulk Modulus (GPa) = 11.78363 60.85717 36.32040
# Shear Modulus (GPa) = 15.54540 37.00727 26.27634
#
# Velocity S-wave (km/s) = 2.58418 3.98717 3.35973
# Velocity P-wave (km/s) = 3.73711 6.88038 5.53650
#
# Compressibility (1/GPa) = 0.08486346
#
# Stress axis : x y z
#
# Youngs Moduli (GPa) = 11.68917 101.66554 119.59287
#
# Poissons Ratio (x) = 0.10622 0.88525
# Poissons Ratio (y) = 0.01221 0.11898
# Poissons Ratio (z) = 0.08653 0.10114
#
# Static dielectric constant tensor:
#      x y z
#    x 1.954170 -0.015100 -0.023410 
#    y -0.015100 1.965260 0.022530 
#    z -0.023410 0.022530 1.960530 
# 
# From -- ./inp_files/256624.got.cif
#   From: 2010.05.17/outbox.cif.g08.bks.cpg/sg2_129_cif.got.tgz:256624.got - 2010.06.03 11:33:40.
