data_PCOD9085087
_publ_section_title
;
Structure prediction by ZEFSAII (Michael W. Deem and Ramdas Pophale) SiO2 
 PCOD9085087
Probable space group: P -1
;
_chemical_formula_sum "Si O2"
_cell_formula_units_Z 14
_cell_length_a 20.151794
_cell_length_b 10.632346
_cell_length_c 9.030003
_cell_angle_alpha 108.721399
_cell_angle_beta 140.365576
_cell_angle_gamma 39.419216
_cell_volume 577.214090
_symmetry_space_group_name_H-M "P -1"
_symmetry_group_IT_number 2
_symmetry_cell_setting 'triclinic'
loop_
_space_group_symop_operation_xyz
x,y,z
-x,-y,-z
loop_
_atom_site_type_symbol
_atom_site_label
_atom_site_fract_x
_atom_site_fract_y
_atom_site_fract_z
Si Si1 0.219818 0.802491 0.730173
Si Si2 0.972108 0.591180 0.730555
Si Si3 0.750603 0.918746 0.163256
Si Si4 0.017906 0.996011 0.853462
Si Si5 0.603565 0.311708 0.743534
Si Si6 0.444790 0.049929 0.750388
Si Si7 0.712300 0.548753 0.828081
O O1 0.237322 0.940945 0.796824
O O2 0.394990 0.589986 0.076455
O O3 0.000000 0.000000 0.500000
O O4 0.201052 0.763532 0.520326
O O5 0.854101 0.777005 0.449267
O O6 0.110903 0.314738 0.806288
O O7 0.793436 0.736834 0.588455
O O8 0.128687 0.535924 0.024835
O O9 0.519671 0.108496 0.838779
O O10 0.157165 0.961014 0.011618
O O11 0.147398 0.714725 0.940483
O O12 0.000000 0.000000 0.000000
O O13 0.500000 0.500000 0.500000
O O14 0.466485 0.331104 0.525591
O O15 0.595521 0.775479 0.827320
O O16 0.500000 0.000000 0.000000
#
# Coordination Sequence:
#
# PCOD9085087 Si02
#       7
#     2   2   2   2   2   2   2
#     4  10  20  38  65  90 125 173 208 263 320 375
#     4   9  17  32  58  92 122 162 205 256 319 377
#     4   9  17  33  58  90 122 159 211 258 310 383
#     4  10  21  36  62  93 124 166 212 261 319 381
#     4   9  21  39  59  88 125 170 213 261 318 374
#     4   9  19  31  57  96 121 160 209 260 317 380
#     4  10  19  35  58  89 122 161 208 259 312 376
#
# _framework density 24.254431
#
# number of rings (size 3 to 8) (size 9 to 14) (size 15 to 20)
#    0.000    2.571    1.429    0.857    2.000    0.000 
#    0.000    5.714   12.571    1.714    0.000    0.000 
#    0.000    0.000    0.000    0.000    0.000    0.000 
#
# Total GULP energy -78086.090406 kJ/mol
# GULP energy per Si atom -5577.577886 kJ/mol
# Density = 2.419923 g / cm^3
# Si number density = 24.254431 Si / 1000 Ang^3
#
#
#
# Elastic Constant Matrix: (Units=GPa)
#
#
# Indices 1 2 3 4 5 6 
#
# 1 126.7743 33.0560 60.1296 -0.5906 46.0265 -1.5594
# 2 33.0560 36.2951 25.7947 7.4932 18.4196 -5.6201
# 3 60.1296 25.7947 162.0674 32.6703 24.7351 -13.4648
# 4 -0.5906 7.4932 32.6703 25.7332 -5.8235 4.5882
# 5 46.0265 18.4196 24.7351 -5.8235 69.8955 3.1680
# 6 -1.5594 -5.6201 -13.4648 4.5882 3.1680 32.6520
#
#
#
# Elastic Compliance Matrix: (Units=1/GPa)
#
#
# Indices 1 2 3 4 5 6 
#
# 1 0.014649 -0.010183 -0.005712 0.010482 -0.003864 -0.004507
# 2 -0.010183 0.045439 0.003406 -0.022065 -0.008888 0.012702
# 3 -0.005712 0.003406 0.013198 -0.020368 -0.003912 0.008997
# 4 0.010482 -0.022065 -0.020368 0.078801 0.013778 -0.024106
# 5 -0.003864 -0.008888 -0.003912 0.013778 0.022061 -0.007404
# 6 -0.004507 0.012702 0.008997 -0.024106 -0.007404 0.040413
#
#
# Mechanical properties :
#
#
# Convention : Reuss Voigt Hill
#
# Bulk Modulus (GPa) = 20.70102 62.56639 41.63370
# Shear Modulus (GPa) = 19.55875 39.39992 29.47933
#
# Velocity S-wave (km/s) = 2.84280 4.03481 3.49007
# Velocity P-wave (km/s) = 4.39645 6.89624 5.78303
#
# Compressibility (1/GPa) = 0.04830681
#
# Stress axis : x y z
#
# Youngs Moduli (GPa) = 68.26633 22.00775 75.77033
#
# Poissons Ratio (x) = 0.22410 0.43279
# Poissons Ratio (y) = 0.69515 -0.25806
# Poissons Ratio (z) = 0.38993 -0.07496
#
# Static dielectric constant tensor:
#      x y z
#    x 1.987850 -0.043570 -0.002530 
#    y -0.043570 1.972600 -0.028420 
#    z -0.002530 -0.028420 2.135160 
# 
# From -- ./inp_files/346244.got.cif
#   From: 2010.05.17/outbox.cif.g08.bks.cpg/sg2_174_cif.got.tgz:346244.got - 2010.06.03 11:33:40.
