data_PCOD9085923
_publ_section_title
;
Structure prediction by ZEFSAII (Michael W. Deem and Ramdas Pophale) SiO2 
 PCOD9085923
Probable space group: P -1
;
_chemical_formula_sum "Si O2"
_cell_formula_units_Z 16
_cell_length_a 9.121463
_cell_length_b 14.842003
_cell_length_c 14.987701
_cell_angle_alpha 142.108994
_cell_angle_beta 37.552324
_cell_angle_gamma 146.046139
_cell_volume 637.042022
_symmetry_space_group_name_H-M "P -1"
_symmetry_group_IT_number 2
_symmetry_cell_setting 'triclinic'
loop_
_space_group_symop_operation_xyz
x,y,z
-x,-y,-z
loop_
_atom_site_type_symbol
_atom_site_label
_atom_site_fract_x
_atom_site_fract_y
_atom_site_fract_z
Si Si1 0.311769 0.178722 0.493949
Si Si2 0.875130 0.639368 0.876156
Si Si3 0.709296 0.773848 0.785026
Si Si4 0.349989 0.606111 0.665152
Si Si5 0.990593 0.661129 0.169803
Si Si6 0.808423 0.159001 0.300168
Si Si7 0.539861 0.772113 0.072654
Si Si8 0.162928 0.900759 0.103821
O O1 0.460344 0.229627 0.364727
O O2 0.522964 0.160560 0.443260
O O3 0.283749 0.338440 0.664188
O O4 0.000000 0.000000 0.500000
O O5 0.020611 0.527022 0.733127
O O6 0.047135 0.756046 0.797966
O O7 0.572868 0.620689 0.982356
O O8 0.986540 0.755499 0.001311
O O9 0.423107 0.662198 0.777158
O O10 0.623833 0.795016 0.943778
O O11 0.945325 0.728226 0.657484
O O12 0.890166 0.947654 0.773483
O O13 0.500000 0.500000 0.500000
O O14 0.096644 0.808166 0.157331
O O15 0.218502 0.726371 0.190369
O O16 0.000000 0.500000 0.000000
O O17 0.726498 0.959208 0.177109
O O18 0.500000 0.000000 0.000000
#
# Coordination Sequence:
#
# PCOD9085923 Si02
#       8
#     2   2   2   2   2   2   2   2
#     4  11  24  44  63  87 133 173 208 256 321 385
#     4  10  19  35  64  95 121 151 209 270 299 361
#     4  11  20  36  70  97 120 156 220 270 296 366
#     4  11  25  41  62  93 127 171 210 258 314 370
#     4  12  27  42  62  92 132 173 205 257 330 384
#     4  10  19  38  63 102 123 157 206 270 317 361
#     4  11  19  38  66  96 124 157 209 266 320 360
#     4  12  19  36  69  96 112 155 224 256 297 363
#
# _framework density 25.116084000000001
#
# number of rings (size 3 to 8) (size 9 to 14) (size 15 to 20)
#    0.000    1.000    6.250    1.500    3.500    0.000 
#    2.250    6.250    0.000    0.000    0.000    0.000 
#    0.000    0.000    0.000    0.000    0.000    0.000 
#
# Total GULP energy -89239.418073 kJ/mol
# GULP energy per Si atom -5577.463630 kJ/mol
# Density = 2.505892 g / cm^3
# Si number density = 25.116084 Si / 1000 Ang^3
#
#
#
# Elastic Constant Matrix: (Units=GPa)
#
#
# Indices 1 2 3 4 5 6 
#
# 1 190.1880 25.6537 47.7008 -7.0997 -42.5761 -11.9762
# 2 25.6537 52.8735 -3.3116 -5.3258 -2.9867 -23.5801
# 3 47.7008 -3.3116 95.7178 3.7463 -25.8337 -5.2762
# 4 -7.0997 -5.3258 3.7463 29.0040 -1.3965 -5.6601
# 5 -42.5761 -2.9867 -25.8337 -1.3965 52.5008 -6.4093
# 6 -11.9762 -23.5801 -5.2762 -5.6601 -6.4093 43.5241
#
#
#
# Elastic Compliance Matrix: (Units=1/GPa)
#
#
# Indices 1 2 3 4 5 6 
#
# 1 0.007524 -0.002744 -0.002532 0.002151 0.004913 0.001280
# 2 -0.002744 0.029058 0.004004 0.007643 0.003678 0.017009
# 3 -0.002532 0.004004 0.013504 -0.000633 0.005266 0.003803
# 4 0.002151 0.007643 -0.000633 0.038700 0.004155 0.010301
# 5 0.004913 0.003678 0.005266 0.004155 0.026980 0.008496
# 6 0.001280 0.017009 0.003803 0.010301 0.008496 0.035595
#
#
# Mechanical properties :
#
#
# Convention : Reuss Voigt Hill
#
# Bulk Modulus (GPa) = 21.03442 53.20723 37.12083
# Shear Modulus (GPa) = 29.45473 42.92153 36.18813
#
# Velocity S-wave (km/s) = 3.42825 4.13840 3.79995
# Velocity P-wave (km/s) = 4.90547 6.63820 5.83649
#
# Compressibility (1/GPa) = 0.04754112
#
# Stress axis : x y z
#
# Youngs Moduli (GPa) = 132.90935 34.41348 74.05476
#
# Poissons Ratio (x) = 0.09443 0.18752
# Poissons Ratio (y) = 0.36472 -0.29651
# Poissons Ratio (z) = 0.33654 -0.13779
#
# Static dielectric constant tensor:
#      x y z
#    x 2.027280 0.044570 -0.077150 
#    y 0.044570 2.130270 0.044100 
#    z -0.077150 0.044100 2.150300 
# 
# From -- ./inp_files/505539.got.cif
#   From: 2010.05.17/outbox.cif.g08.bks.cpg/sg2_253_cif.got.tgz:505539.got - 2010.06.03 11:33:40.
