data_PCOD9085433
_publ_section_title
;
Structure prediction by ZEFSAII (Michael W. Deem and Ramdas Pophale) SiO2 
 PCOD9085433
Probable space group: P -1
;
_chemical_formula_sum "Si O2"
_cell_formula_units_Z 14
_cell_length_a 10.821058
_cell_length_b 13.568310
_cell_length_c 8.996526
_cell_angle_alpha 125.493114
_cell_angle_beta 72.129035
_cell_angle_gamma 135.929441
_cell_volume 733.707319
_symmetry_space_group_name_H-M "P -1"
_symmetry_group_IT_number 2
_symmetry_cell_setting 'triclinic'
loop_
_space_group_symop_operation_xyz
x,y,z
-x,-y,-z
loop_
_atom_site_type_symbol
_atom_site_label
_atom_site_fract_x
_atom_site_fract_y
_atom_site_fract_z
Si Si1 0.945153 0.024129 0.699387
Si Si2 0.360538 0.500766 0.902234
Si Si3 0.213089 0.492734 0.409851
Si Si4 0.589006 0.659606 0.502773
Si Si5 0.250087 0.285726 0.038436
Si Si6 0.970063 0.454545 0.713167
Si Si7 0.962886 0.314837 0.871925
O O1 0.096844 0.117090 0.854448
O O2 0.918532 0.148931 0.783490
O O3 0.760436 0.841509 0.660636
O O4 0.000000 0.000000 0.500000
O O5 0.345927 0.372147 0.693164
O O6 0.327443 0.437229 0.027076
O O7 0.183815 0.464026 0.897747
O O8 0.570023 0.675432 0.956286
O O9 0.424548 0.638597 0.498329
O O10 0.158389 0.549946 0.349834
O O11 0.095477 0.454878 0.561884
O O12 0.180777 0.330713 0.232611
O O13 0.500000 0.500000 0.500000
O O14 0.880902 0.311050 0.745807
O O15 0.075455 0.623160 0.920821
#
# Coordination Sequence:
#
# PCOD9085433 Si02
#       7
#     2   2   2   2   2   2   2
#     4  11  20  35  59  89 119 148 192 249 293 343
#     4   9  16  32  55  83 111 143 190 236 286 344
#     4  10  20  36  58  85 117 159 194 236 290 342
#     4  11  22  36  59  87 119 153 193 245 300 346
#     4   9  17  32  57  84 114 143 192 237 293 337
#     4  10  20  35  61  84 115 162 199 230 279 362
#     4  10  19  35  60  90 115 155 203 230 286 356
#
# _framework density 19.081178000000001
#
# number of rings (size 3 to 8) (size 9 to 14) (size 15 to 20)
#    0.000    2.000    5.714    0.857    0.000    0.000 
#    0.000    4.286    0.000    0.000    0.000    0.000 
#    0.000    0.000    0.000    0.000    0.000    0.000 
#
# Total GULP energy -77963.251662 kJ/mol
# GULP energy per Si atom -5568.803690 kJ/mol
# Density = 1.903775 g / cm^3
# Si number density = 19.081178 Si / 1000 Ang^3
#
#
#
# Elastic Constant Matrix: (Units=GPa)
#
#
# Indices 1 2 3 4 5 6 
#
# 1 65.1277 34.7510 38.4142 0.5719 4.7257 8.7934
# 2 34.7510 75.9777 48.9463 13.6428 4.6497 4.0104
# 3 38.4142 48.9463 111.8482 4.8308 -3.2673 18.9548
# 4 0.5719 13.6428 4.8308 38.0717 10.2044 5.0002
# 5 4.7257 4.6497 -3.2673 10.2044 35.6285 0.1088
# 6 8.7934 4.0104 18.9548 5.0002 0.1088 32.2342
#
#
#
# Elastic Compliance Matrix: (Units=1/GPa)
#
#
# Indices 1 2 3 4 5 6 
#
# 1 0.022796 -0.008346 -0.003869 0.004574 -0.003588 -0.003603
# 2 -0.008346 0.023168 -0.007832 -0.007751 -0.000431 0.005204
# 3 -0.003869 -0.007832 0.014894 0.001192 0.002581 -0.006922
# 4 0.004574 -0.007751 0.001192 0.031906 -0.008606 -0.005905
# 5 -0.003588 -0.000431 0.002581 -0.008606 0.031299 0.000744
# 6 -0.003603 0.005204 -0.006922 -0.005905 0.000744 0.036342
#
#
# Mechanical properties :
#
#
# Convention : Reuss Voigt Hill
#
# Bulk Modulus (GPa) = 48.15863 55.24182 51.70022
# Shear Modulus (GPa) = 24.10570 29.90969 27.00770
#
# Velocity S-wave (km/s) = 3.55818 3.96346 3.76628
# Velocity P-wave (km/s) = 6.49419 7.06818 6.78725
#
# Compressibility (1/GPa) = 0.02076471
#
# Stress axis : x y z
#
# Youngs Moduli (GPa) = 43.86679 43.16309 67.14215
#
# Poissons Ratio (x) = 0.36023 0.25977
# Poissons Ratio (y) = 0.36610 0.52585
# Poissons Ratio (z) = 0.16972 0.33805
#
# Static dielectric constant tensor:
#      x y z
#    x 1.718330 0.015070 0.024370 
#    y 0.015070 1.705960 -0.036850 
#    z 0.024370 -0.036850 1.717650 
# 
# From -- ./inp_files/235683.got.cif
#   From: 2010.05.17/outbox.cif.g08.bks.cpg/sg2_118_cif.got.tgz:235683.got - 2010.06.03 11:33:40.
