data_PCOD9085935
_publ_section_title
;
Structure prediction by ZEFSAII (Michael W. Deem and Ramdas Pophale) SiO2 
 PCOD9085935
Probable space group: P -1
;
_chemical_formula_sum "Si O2"
_cell_formula_units_Z 14
_cell_length_a 16.775879
_cell_length_b 12.110847
_cell_length_c 11.344951
_cell_angle_alpha 143.496271
_cell_angle_beta 150.399846
_cell_angle_gamma 43.383778
_cell_volume 674.226689
_symmetry_space_group_name_H-M "P -1"
_symmetry_group_IT_number 2
_symmetry_cell_setting 'triclinic'
loop_
_space_group_symop_operation_xyz
x,y,z
-x,-y,-z
loop_
_atom_site_type_symbol
_atom_site_label
_atom_site_fract_x
_atom_site_fract_y
_atom_site_fract_z
Si Si1 0.499114 0.650599 0.933951
Si Si2 0.101285 0.719845 0.796935
Si Si3 0.302883 0.017950 0.248271
Si Si4 0.305448 0.417723 0.636760
Si Si5 0.232404 0.946692 0.828557
Si Si6 0.047717 0.318750 0.823912
Si Si7 0.158038 0.409421 0.784890
O O1 0.567035 0.658900 0.162868
O O2 0.651317 0.599869 0.003130
O O3 0.377792 0.493989 0.674057
O O4 0.405153 0.838511 0.925384
O O5 0.200999 0.582017 0.711709
O O6 0.090944 0.600792 0.799289
O O7 0.925203 0.748720 0.534287
O O8 0.209428 0.887926 0.102298
O O9 0.230108 0.230374 0.347797
O O10 0.500000 0.000000 0.500000
O O11 0.248139 0.951463 0.993533
O O12 0.183910 0.158135 0.907350
O O13 0.102200 0.807197 0.499284
O O14 0.107219 0.391630 0.837924
O O15 0.000000 0.500000 0.000000
#
# Coordination Sequence:
#
# PCOD9085935 Si02
#       7
#     2   2   2   2   2   2   2
#     4  10  19  39  64  98 133 164 210 270 330 379
#     4  10  21  40  64  97 137 166 211 271 332 387
#     4  12  20  35  69 103 126 164 219 263 326 391
#     4  10  19  35  64  97 133 169 201 258 329 396
#     4  11  24  42  68  96 125 173 230 266 309 398
#     4  11  26  48  68  87 126 185 227 262 318 387
#     4  10  21  41  66  94 135 170 209 282 329 372
#
# _framework density 20.764529
#
# number of rings (size 3 to 8) (size 9 to 14) (size 15 to 20)
#    0.000    1.429    4.286    1.714    4.000    0.571 
#    0.000   12.857    0.000    0.000    0.000    0.000 
#    0.000    0.000    0.000    0.000    0.000    0.000 
#
# Total GULP energy -78010.096639 kJ/mol
# GULP energy per Si atom -5572.149760 kJ/mol
# Density = 2.071727 g / cm^3
# Si number density = 20.764529 Si / 1000 Ang^3
#
#
#
# Elastic Constant Matrix: (Units=GPa)
#
#
# Indices 1 2 3 4 5 6 
#
# 1 113.5548 67.7966 22.3615 11.6716 9.3349 11.9696
# 2 67.7966 127.1947 44.3213 8.8257 -0.5037 2.5027
# 3 22.3615 44.3213 66.2664 25.5417 2.3144 1.4522
# 4 11.6716 8.8257 25.5417 41.5677 2.5515 -1.0158
# 5 9.3349 -0.5037 2.3144 2.5515 29.3148 1.9731
# 6 11.9696 2.5027 1.4522 -1.0158 1.9731 34.0459
#
#
#
# Elastic Compliance Matrix: (Units=1/GPa)
#
#
# Indices 1 2 3 4 5 6 
#
# 1 0.014406 -0.008120 0.002164 -0.003495 -0.004296 -0.004415
# 2 -0.008120 0.015074 -0.009287 0.004651 0.003031 0.002106
# 3 0.002164 -0.009287 0.026353 -0.014772 -0.001539 -0.001554
# 4 -0.003495 0.004651 -0.014772 0.033233 -0.000705 0.002549
# 5 -0.004296 0.003031 -0.001539 -0.000705 0.035765 -0.000741
# 6 -0.004415 0.002106 -0.001554 0.002549 -0.000741 0.030955
#
#
# Mechanical properties :
#
#
# Convention : Reuss Voigt Hill
#
# Bulk Modulus (GPa) = 39.45263 63.99720 51.72492
# Shear Modulus (GPa) = 25.67751 32.48810 29.08281
#
# Velocity S-wave (km/s) = 3.52035 3.95979 3.74652
# Velocity P-wave (km/s) = 5.96365 7.19680 6.60905
#
# Compressibility (1/GPa) = 0.02534685
#
# Stress axis : x y z
#
# Youngs Moduli (GPa) = 69.41469 66.33960 37.94578
#
# Poissons Ratio (x) = 0.53869 -0.08210
# Poissons Ratio (y) = 0.56366 0.35239
# Poissons Ratio (z) = -0.15018 0.61607
#
# Static dielectric constant tensor:
#      x y z
#    x 1.799200 -0.042500 0.033630 
#    y -0.042500 1.814650 -0.018530 
#    z 0.033630 -0.018530 1.854900 
# 
# From -- ./inp_files/464175.got.cif
#   From: 2010.05.17/outbox.cif.g08.bks.cpg/sg2_233_cif.got.tgz:464175.got - 2010.06.03 11:33:40.
