data_PCOD9085740
_publ_section_title
;
Structure prediction by ZEFSAII (Michael W. Deem and Ramdas Pophale) SiO2 
 PCOD9085740
Probable space group: P -1
;
_chemical_formula_sum "Si O2"
_cell_formula_units_Z 16
_cell_length_a 18.415604
_cell_length_b 5.100799
_cell_length_c 23.612654
_cell_angle_alpha 84.934938
_cell_angle_beta 19.771374
_cell_angle_gamma 79.475236
_cell_volume 713.978850
_symmetry_space_group_name_H-M "P -1"
_symmetry_group_IT_number 2
_symmetry_cell_setting 'triclinic'
loop_
_space_group_symop_operation_xyz
x,y,z
-x,-y,-z
loop_
_atom_site_type_symbol
_atom_site_label
_atom_site_fract_x
_atom_site_fract_y
_atom_site_fract_z
Si Si1 0.960311 0.283498 0.490068
Si Si2 0.138536 0.424018 0.126458
Si Si3 0.391073 0.436192 0.338093
Si Si4 0.836625 0.066463 0.970445
Si Si5 0.341173 0.588812 0.529593
Si Si6 0.798926 0.015023 0.463206
Si Si7 0.242044 0.142548 0.170348
Si Si8 0.676179 0.159025 0.345771
O O1 0.116998 0.253163 0.319638
O O2 0.000000 0.500000 0.500000
O O3 0.706980 0.416049 0.651388
O O4 0.000000 0.000000 0.500000
O O5 0.169832 0.703254 0.075981
O O6 0.256585 0.327984 0.101461
O O7 0.874047 0.486839 0.333091
O O8 0.188400 0.195453 0.043019
O O9 0.353095 0.701539 0.400532
O O10 0.242239 0.248796 0.473707
O O11 0.629876 0.214938 0.159448
O O12 0.064919 0.021651 0.840517
O O13 0.299577 0.894169 0.528775
O O14 0.572437 0.343319 0.363437
O O15 0.303072 0.633753 0.623414
O O16 0.061477 0.992588 0.280681
O O17 0.500000 0.000000 0.000000
O O18 0.500000 0.000000 0.500000
#
# Coordination Sequence:
#
# PCOD9085740 Si02
#       8
#     2   2   2   2   2   2   2   2
#     4  11  25  43  65  92 129 172 210 263 333 384
#     4  10  22  39  62  95 125 164 210 272 319 368
#     4  11  24  43  64  85 129 174 216 251 317 409
#     4  11  23  39  65  93 127 168 215 260 327 376
#     4   9  20  36  61  91 125 162 205 260 327 375
#     4  10  23  44  64  90 127 176 208 260 324 381
#     4  10  24  42  69  99 129 162 225 274 318 381
#     4  10  19  35  62  94 125 157 205 274 326 374
#
# _framework density 22.409628999999999
#
# number of rings (size 3 to 8) (size 9 to 14) (size 15 to 20)
#    0.000    1.750    1.250    2.250    5.250    7.000 
#    0.000    7.500    0.000    0.000    0.000    0.000 
#    0.000    0.000    0.000    0.000    0.000    0.000 
#
# Total GULP energy -89149.364316 kJ/mol
# GULP energy per Si atom -5571.835270 kJ/mol
# Density = 2.235862 g / cm^3
# Si number density = 22.409629 Si / 1000 Ang^3
#
#
#
# Elastic Constant Matrix: (Units=GPa)
#
#
# Indices 1 2 3 4 5 6 
#
# 1 69.3973 21.3051 34.4337 18.5485 -21.9454 -10.0060
# 2 21.3051 120.6865 15.4763 20.4724 -7.9301 -10.1483
# 3 34.4337 15.4763 136.8014 30.8474 -25.3814 -6.9763
# 4 18.5485 20.4724 30.8474 27.2768 -8.4942 -0.8864
# 5 -21.9454 -7.9301 -25.3814 -8.4942 35.4930 22.0891
# 6 -10.0060 -10.1483 -6.9763 -0.8864 22.0891 39.2858
#
#
#
# Elastic Compliance Matrix: (Units=1/GPa)
#
#
# Indices 1 2 3 4 5 6 
#
# 1 0.020883 -0.001532 -0.001330 -0.008322 0.010502 -0.001406
# 2 -0.001532 0.009930 0.000821 -0.007883 -0.002096 0.003321
# 3 -0.001330 0.000821 0.010831 -0.010250 0.005659 -0.001617
# 4 -0.008322 -0.007883 -0.010250 0.061149 0.005012 -0.007414
# 5 0.010502 -0.002096 0.005659 0.005012 0.057567 -0.029116
# 6 -0.001406 0.003321 -0.001617 -0.007414 -0.029116 0.041871
#
#
# Mechanical properties :
#
#
# Convention : Reuss Voigt Hill
#
# Bulk Modulus (GPa) = 26.62399 52.14616 39.38507
# Shear Modulus (GPa) = 22.84849 37.45580 30.15215
#
# Velocity S-wave (km/s) = 3.19656 4.09273 3.67208
# Velocity P-wave (km/s) = 5.05276 6.75677 5.96592
#
# Compressibility (1/GPa) = 0.03756012
#
# Stress axis : x y z
#
# Youngs Moduli (GPa) = 47.88693 100.70410 92.33091
#
# Poissons Ratio (x) = 0.15432 0.12277
# Poissons Ratio (y) = 0.07338 -0.07576
# Poissons Ratio (z) = 0.06367 -0.08263
#
# Static dielectric constant tensor:
#      x y z
#    x 2.282850 -0.252340 -0.021970 
#    y -0.252340 2.079160 0.069420 
#    z -0.021970 0.069420 1.940730 
# 
# From -- ./inp_files/138079.got.cif
#   From: 2010.05.17/outbox.cif.g08.bks.cpg/sg2_70_cif.got.tgz:138079.got - 2010.06.03 11:33:40.
