data_PCOD9085036
_publ_section_title
;
Structure prediction by ZEFSAII (Michael W. Deem and Ramdas Pophale) SiO2 
 PCOD9085036
Probable space group: P -1
;
_chemical_formula_sum "Si O2"
_cell_formula_units_Z 14
_cell_length_a 6.531328
_cell_length_b 14.855148
_cell_length_c 20.992950
_cell_angle_alpha 30.402493
_cell_angle_beta 67.122599
_cell_angle_gamma 87.734419
_cell_volume 734.160667
_symmetry_space_group_name_H-M "P -1"
_symmetry_group_IT_number 2
_symmetry_cell_setting 'triclinic'
loop_
_space_group_symop_operation_xyz
x,y,z
-x,-y,-z
loop_
_atom_site_type_symbol
_atom_site_label
_atom_site_fract_x
_atom_site_fract_y
_atom_site_fract_z
Si Si1 0.781474 0.184138 0.023447
Si Si2 0.791352 0.940319 0.780057
Si Si3 0.133037 0.466473 0.442911
Si Si4 0.176417 0.792685 0.145779
Si Si5 0.460136 0.678011 0.867555
Si Si6 0.655527 0.728020 0.299689
Si Si7 0.891515 0.601965 0.026890
O O1 0.058019 0.358732 0.927769
O O2 0.516452 0.180215 0.074699
O O3 0.661510 0.924492 0.210706
O O4 0.849524 0.222665 0.917361
O O5 0.001683 0.205233 0.612584
O O6 0.718051 0.908244 0.732650
O O7 0.908622 0.808863 0.868564
O O8 0.080975 0.557415 0.331643
O O9 0.470390 0.637950 0.312590
O O10 0.000000 0.500000 0.500000
O O11 0.974372 0.834098 0.178612
O O12 0.500000 0.000000 0.000000
O O13 0.166897 0.624078 0.959241
O O14 0.500000 0.500000 0.000000
O O15 0.396990 0.625630 0.831656
O O16 0.500000 0.500000 0.500000
#
# Coordination Sequence:
#
# PCOD9085036 Si02
#       7
#     2   2   2   2   2   2   2
#     4  11  22  33  54  84 114 153 194 241 297 340
#     4  10  19  35  58  85 117 153 196 240 289 346
#     4  12  22  38  55  81 117 158 198 243 285 346
#     4  12  25  39  55  79 121 160 204 248 290 345
#     4   8  16  33  55  88 115 145 187 245 291 344
#     4  12  23  37  58  80 114 158 203 241 291 342
#     4   9  18  31  57  85 117 145 192 244 292 345
#
# _framework density 19.069396000000001
#
# number of rings (size 3 to 8) (size 9 to 14) (size 15 to 20)
#    0.000    1.429    4.286    1.286    2.000    1.143 
#    0.000    0.000    0.000    0.857    0.000   35.000 
#    0.000    0.000    0.000    0.000    0.000    0.000 
#
# Total GULP energy -78032.421356 kJ/mol
# GULP energy per Si atom -5573.744383 kJ/mol
# Density = 1.902599 g / cm^3
# Si number density = 19.069396 Si / 1000 Ang^3
#
#
#
# Elastic Constant Matrix: (Units=GPa)
#
#
# Indices 1 2 3 4 5 6 
#
# 1 117.0001 39.7334 19.4913 -0.9436 -2.2402 -5.5508
# 2 39.7334 102.9897 27.7814 -13.1870 1.8872 25.2214
# 3 19.4913 27.7814 39.8085 2.8724 2.3105 -3.1483
# 4 -0.9436 -13.1870 2.8724 25.7133 6.7451 3.1476
# 5 -2.2402 1.8872 2.3105 6.7451 33.9633 -3.9023
# 6 -5.5508 25.2214 -3.1483 3.1476 -3.9023 45.9751
#
#
#
# Elastic Compliance Matrix: (Units=1/GPa)
#
#
# Indices 1 2 3 4 5 6 
#
# 1 0.010844 -0.005613 -0.000893 -0.003581 0.002347 0.004772
# 2 -0.005613 0.021492 -0.014250 0.015665 -0.005427 -0.014977
# 3 -0.000893 -0.014250 0.037247 -0.013465 0.002179 0.011367
# 4 -0.003581 0.015665 -0.013465 0.053363 -0.012473 -0.014660
# 5 0.002347 -0.005427 0.002179 -0.012473 0.033041 0.007068
# 6 0.004772 -0.014977 0.011367 -0.014660 0.007068 0.032925
#
#
# Mechanical properties :
#
#
# Convention : Reuss Voigt Hill
#
# Bulk Modulus (GPa) = 35.62480 48.20117 41.91298
# Shear Modulus (GPa) = 20.85222 32.64982 26.75102
#
# Velocity S-wave (km/s) = 3.31039 4.14231 3.74949
# Velocity P-wave (km/s) = 5.77354 6.94334 6.38528
#
# Compressibility (1/GPa) = 0.02807033
#
# Stress axis : x y z
#
# Youngs Moduli (GPa) = 92.21368 46.52850 26.84801
#
# Poissons Ratio (x) = 0.26116 0.02398
# Poissons Ratio (y) = 0.51758 0.38260
# Poissons Ratio (z) = 0.08236 0.66305
#
# Static dielectric constant tensor:
#      x y z
#    x 1.734840 0.020170 0.009650 
#    y 0.020170 1.722240 -0.023980 
#    z 0.009650 -0.023980 1.643440 
# 
# From -- ./inp_files/37212.got.cif
#   From: 2010.05.17/outbox.cif.g08.bks.cpg/sg2_19_cif.got.tgz:37212.got - 2010.06.03 11:33:40.
