data_PCOD9085750
_publ_section_title
;
Structure prediction by ZEFSAII (Michael W. Deem and Ramdas Pophale) SiO2 
 PCOD9085750
Probable space group: P -1
;
_chemical_formula_sum "Si O2"
_cell_formula_units_Z 14
_cell_length_a 5.388598
_cell_length_b 6.934915
_cell_length_c 19.169457
_cell_angle_alpha 83.798108
_cell_angle_beta 88.141158
_cell_angle_gamma 51.399740
_cell_volume 556.001728
_symmetry_space_group_name_H-M "P -1"
_symmetry_group_IT_number 2
_symmetry_cell_setting 'triclinic'
loop_
_space_group_symop_operation_xyz
x,y,z
-x,-y,-z
loop_
_atom_site_type_symbol
_atom_site_label
_atom_site_fract_x
_atom_site_fract_y
_atom_site_fract_z
Si Si1 0.757207 0.483888 0.045975
Si Si2 0.902441 0.064043 0.725030
Si Si3 0.105903 0.223423 0.455808
Si Si4 0.093154 0.553059 0.334738
Si Si5 0.440975 0.274995 0.578167
Si Si6 0.306122 0.963800 0.129753
Si Si7 0.619162 0.805465 0.759341
O O1 0.981566 0.207610 0.089557
O O2 0.555796 0.729766 0.087957
O O3 0.500000 0.500000 0.000000
O O4 0.000000 0.500000 0.000000
O O5 0.781850 0.289415 0.664821
O O6 0.278855 0.910650 0.729616
O O7 0.771305 0.144284 0.801756
O O8 0.817795 0.884005 0.718901
O O9 0.234582 0.325592 0.395325
O O10 0.240381 0.225315 0.528546
O O11 0.728809 0.439065 0.447200
O O12 0.214403 0.962519 0.438089
O O13 0.154757 0.478724 0.255867
O O14 0.721568 0.712160 0.348307
O O15 0.428256 0.096544 0.165436
#
# Coordination Sequence:
#
# PCOD9085750 Si02
#       7
#     2   2   2   2   2   2   2
#     4  12  28  47  78 104 137 184 227 278 335 410
#     4  10  25  40  67  98 143 183 225 285 345 412
#     4   8  15  29  53  87 129 176 228 291 341 404
#     4  10  19  35  62  96 133 182 236 278 352 412
#     4   8  15  29  53  87 129 176 228 291 341 404
#     4  10  28  46  72 104 147 172 236 278 346 402
#     4  10  25  40  67  98 143 183 225 285 345 412
#
# _framework density 25.179777999999999
#
# number of rings (size 3 to 8) (size 9 to 14) (size 15 to 20)
#    1.714    0.571    0.000    1.714    8.000    1.143 
#    0.000    0.000    0.000    3.429    0.000   12.000 
#    0.000    0.000    0.000    0.000    0.000    0.000 
#
# Total GULP energy -77993.943476 kJ/mol
# GULP energy per Si atom -5570.995963 kJ/mol
# Density = 2.512247 g / cm^3
# Si number density = 25.179778 Si / 1000 Ang^3
#
#
#
# Elastic Constant Matrix: (Units=GPa)
#
#
# Indices 1 2 3 4 5 6 
#
# 1 98.2532 10.2467 9.5329 5.2591 -14.9057 0.2965
# 2 10.2467 135.1866 38.1240 26.8676 -23.1923 -26.1885
# 3 9.5329 38.1240 71.8609 26.6793 -21.2172 -12.7218
# 4 5.2591 26.8676 26.6793 59.6119 -10.6897 -10.3511
# 5 -14.9057 -23.1923 -21.2172 -10.6897 36.7576 1.9902
# 6 0.2965 -26.1885 -12.7218 -10.3511 1.9902 46.8862
#
#
#
# Elastic Compliance Matrix: (Units=1/GPa)
#
#
# Indices 1 2 3 4 5 6 
#
# 1 0.010853 -0.000098 -0.000149 -0.000154 0.004229 -0.000377
# 2 -0.000098 0.010048 -0.002694 -0.001855 0.003973 0.004304
# 3 -0.000149 -0.002694 0.020433 -0.006047 0.008148 0.002359
# 4 -0.000154 -0.001855 -0.006047 0.020881 0.001248 0.001881
# 5 0.004229 0.003973 0.008148 0.001248 0.036323 0.003137
# 6 -0.000377 0.004304 0.002359 0.001881 0.003137 0.024657
#
#
# Mechanical properties :
#
#
# Convention : Reuss Voigt Hill
#
# Bulk Modulus (GPa) = 28.20616 46.78976 37.49796
# Shear Modulus (GPa) = 35.48715 45.14429 40.31572
#
# Velocity S-wave (km/s) = 3.75821 4.23883 4.00573
# Velocity P-wave (km/s) = 5.48255 6.52530 6.02652
#
# Compressibility (1/GPa) = 0.03545325
#
# Stress axis : x y z
#
# Youngs Moduli (GPa) = 92.13701 99.51845 48.93977
#
# Poissons Ratio (x) = 0.00970 0.00729
# Poissons Ratio (y) = 0.00898 0.13187
# Poissons Ratio (z) = 0.01372 0.26815
#
# Static dielectric constant tensor:
#      x y z
#    x 2.051530 -0.063890 0.089070 
#    y -0.063890 2.070430 -0.029750 
#    z 0.089070 -0.029750 2.089070 
# 
# From -- ./inp_files/603320.got.cif
#   From: 2010.05.17/outbox.cif.g08.bks.cpg/sg2_302_cif.got.tgz:603320.got - 2010.06.03 11:33:40.
