data_PCOD9085564
_publ_section_title
;
Structure prediction by ZEFSAII (Michael W. Deem and Ramdas Pophale) SiO2 
 PCOD9085564
Probable space group: P -1
;
_chemical_formula_sum "Si O2"
_cell_formula_units_Z 14
_cell_length_a 20.707925
_cell_length_b 9.403293
_cell_length_c 11.690640
_cell_angle_alpha 56.549684
_cell_angle_beta 156.446189
_cell_angle_gamma 136.536953
_cell_volume 569.273083
_symmetry_space_group_name_H-M "P -1"
_symmetry_group_IT_number 2
_symmetry_cell_setting 'triclinic'
loop_
_space_group_symop_operation_xyz
x,y,z
-x,-y,-z
loop_
_atom_site_type_symbol
_atom_site_label
_atom_site_fract_x
_atom_site_fract_y
_atom_site_fract_z
Si Si1 0.418943 0.082932 0.917996
Si Si2 0.969530 0.152567 0.952567
Si Si3 0.800190 0.483455 0.660263
Si Si4 0.129600 0.522017 0.874571
Si Si5 0.938302 0.716075 0.346680
Si Si6 0.531138 0.994492 0.383301
Si Si7 0.300783 0.434163 0.776405
O O1 0.165504 0.946344 0.566559
O O2 0.571352 0.348206 0.030303
O O3 0.500000 0.000000 0.000000
O O4 0.474887 0.044305 0.149099
O O5 0.974514 0.306082 0.798598
O O6 0.740649 0.018768 0.703428
O O7 0.162335 0.333869 0.273319
O O8 0.000000 0.000000 0.000000
O O9 0.824155 0.566602 0.531510
O O10 0.596534 0.211396 0.463740
O O11 0.000000 0.500000 0.000000
O O12 0.011508 0.597449 0.588493
O O13 0.192296 0.438881 0.908088
O O14 0.322327 0.729781 0.172755
O O15 0.836244 0.759028 0.263702
O O16 0.500000 0.500000 0.000000
#
# Coordination Sequence:
#
# PCOD9085564 Si02
#       7
#     2   2   2   2   2   2   2
#     4  10  19  35  61  88 118 159 205 251 303 366
#     4  11  23  38  58  86 122 160 201 254 314 369
#     4   9  20  40  61  83 120 169 209 247 304 371
#     4  10  20  36  63  92 118 156 211 261 305 363
#     4  10  20  36  62  93 122 158 205 258 308 366
#     4   9  19  36  57  83 113 156 207 249 295 360
#     4  11  23  38  59  91 129 162 200 256 316 368
#
# _framework density 24.592766000000001
#
# number of rings (size 3 to 8) (size 9 to 14) (size 15 to 20)
#    0.000    2.000    0.000    6.000    0.000    5.143 
#    0.000    4.286    0.000    0.000    0.000    0.000 
#    0.000    0.000    0.000    0.000    0.000    0.000 
#
# Total GULP energy -78108.062355 kJ/mol
# GULP energy per Si atom -5579.147311 kJ/mol
# Density = 2.453679 g / cm^3
# Si number density = 24.592766 Si / 1000 Ang^3
#
#
#
# Elastic Constant Matrix: (Units=GPa)
#
#
# Indices 1 2 3 4 5 6 
#
# 1 120.1530 10.1797 46.5782 19.5739 -10.9309 -22.3460
# 2 10.1797 56.1298 30.3631 25.7120 -3.9983 -15.9195
# 3 46.5782 30.3631 99.3113 30.0953 -8.3311 -14.5589
# 4 19.5739 25.7120 30.0953 39.1545 -3.8094 -12.7571
# 5 -10.9309 -3.9983 -8.3311 -3.8094 45.9637 7.6605
# 6 -22.3460 -15.9195 -14.5589 -12.7571 7.6605 42.0144
#
#
#
# Elastic Compliance Matrix: (Units=1/GPa)
#
#
# Indices 1 2 3 4 5 6 
#
# 1 0.011221 0.002947 -0.004692 -0.002350 0.001123 0.004541
# 2 0.002947 0.028166 -0.004745 -0.014281 0.000066 0.006248
# 3 -0.004692 -0.004745 0.015727 -0.006897 0.000935 -0.001108
# 4 -0.002350 -0.014281 -0.006897 0.042658 -0.000171 0.003933
# 5 0.001123 0.000066 0.000935 -0.000171 0.022726 -0.003249
# 6 0.004541 0.006248 -0.001108 0.003933 -0.003249 0.029986
#
#
# Mechanical properties :
#
#
# Convention : Reuss Voigt Hill
#
# Bulk Modulus (GPa) = 23.73297 49.98178 36.85737
# Shear Modulus (GPa) = 28.16760 37.99140 33.07950
#
# Velocity S-wave (km/s) = 3.38799 3.93468 3.67153
# Velocity P-wave (km/s) = 4.99760 6.40392 5.74396
#
# Compressibility (1/GPa) = 0.04213548
#
# Stress axis : x y z
#
# Youngs Moduli (GPa) = 89.11508 35.50334 63.58679
#
# Poissons Ratio (x) = -0.10464 0.29835
# Poissons Ratio (y) = -0.26266 0.30171
# Poissons Ratio (z) = 0.41813 0.16846
#
# Static dielectric constant tensor:
#      x y z
#    x 2.051070 -0.105300 0.070880 
#    y -0.105300 2.019400 -0.030390 
#    z 0.070880 -0.030390 2.108890 
# 
# From -- ./inp_files/469342.got.cif
#   From: 2010.05.17/outbox.cif.g08.bks.cpg/sg2_235_cif.got.tgz:469342.got - 2010.06.03 11:33:40.
