data_PCOD9085907
_publ_section_title
;
Structure prediction by ZEFSAII (Michael W. Deem and Ramdas Pophale) SiO2 
 PCOD9085907
Probable space group: P -1
;
_chemical_formula_sum "Si O2"
_cell_formula_units_Z 16
_cell_length_a 15.051327
_cell_length_b 5.270565
_cell_length_c 23.889345
_cell_angle_alpha 91.656028
_cell_angle_beta 25.288328
_cell_angle_gamma 93.348986
_cell_volume 806.889544
_symmetry_space_group_name_H-M "P -1"
_symmetry_group_IT_number 2
_symmetry_cell_setting 'triclinic'
loop_
_space_group_symop_operation_xyz
x,y,z
-x,-y,-z
loop_
_atom_site_type_symbol
_atom_site_label
_atom_site_fract_x
_atom_site_fract_y
_atom_site_fract_z
Si Si1 0.755536 0.491927 0.629964
Si Si2 0.300426 0.008686 0.737037
Si Si3 0.111313 0.724379 0.147622
Si Si4 0.469993 0.441036 0.886822
Si Si5 0.171036 0.032293 0.006665
Si Si6 0.468143 0.056330 0.279179
Si Si7 0.326226 0.501665 0.647007
Si Si8 0.382889 0.745675 0.088338
O O1 0.653341 0.573032 0.747197
O O2 0.672827 0.703425 0.637046
O O3 0.000000 0.500000 0.500000
O O4 0.665257 0.203398 0.665459
O O5 0.434620 0.996474 0.716333
O O6 0.337664 0.769285 0.674439
O O7 0.054332 0.981868 0.892918
O O8 0.345272 0.270995 0.678794
O O9 0.154981 0.749608 0.189239
O O10 0.902028 0.553974 0.251621
O O11 0.114978 0.958345 0.103216
O O12 0.323238 0.612458 0.005615
O O13 0.583161 0.259709 0.864362
O O14 0.301792 0.300101 0.940125
O O15 0.336479 0.884595 0.875227
O O16 0.500000 0.500000 0.500000
O O17 0.500000 0.500000 0.000000
O O18 0.500000 0.000000 0.000000
#
# Coordination Sequence:
#
# PCOD9085907 Si02
#       8
#     2   2   2   2   2   2   2   2
#     4  11  24  42  65  88 130 168 205 252 318 375
#     4  11  23  41  65  95 126 161 209 259 307 375
#     4  10  19  37  59  87 119 160 203 252 308 360
#     4  10  19  37  59  87 119 160 203 252 308 360
#     4  10  19  35  64  92 126 158 204 251 319 364
#     4  11  23  41  65  95 126 161 209 259 307 375
#     4  11  24  42  65  88 130 168 205 252 318 375
#     4  10  20  32  56  86 118 146 205 256 295 350
#
# _framework density 19.829231
#
# number of rings (size 3 to 8) (size 9 to 14) (size 15 to 20)
#    0.000    1.500    3.750    1.875    0.000    0.000 
#    4.500    3.750    0.000    0.000    0.000    0.000 
#    0.000    0.000    0.000    0.000    0.000    0.000 
#
# Total GULP energy -89102.377405 kJ/mol
# GULP energy per Si atom -5568.898588 kJ/mol
# Density = 1.978410 g / cm^3
# Si number density = 19.829231 Si / 1000 Ang^3
#
#
#
# Elastic Constant Matrix: (Units=GPa)
#
#
# Indices 1 2 3 4 5 6 
#
# 1 97.6923 18.4313 43.2987 -8.0927 -25.0557 -23.1292
# 2 18.4313 85.4427 23.2240 4.7216 -5.8629 -10.1927
# 3 43.2987 23.2240 121.2502 2.6496 -13.4633 -1.6181
# 4 -8.0927 4.7216 2.6496 19.0918 -0.5936 -2.9705
# 5 -25.0557 -5.8629 -13.4633 -0.5936 21.3651 3.5222
# 6 -23.1292 -10.1927 -1.6181 -2.9705 3.5222 31.1072
#
#
#
# Elastic Compliance Matrix: (Units=1/GPa)
#
#
# Indices 1 2 3 4 5 6 
#
# 1 0.023338 -0.000876 -0.005909 0.014031 0.021208 0.015697
# 2 -0.000876 0.013016 -0.002001 -0.002799 0.000684 0.003165
# 3 -0.005909 -0.002001 0.010768 -0.004266 -0.000004 -0.004896
# 4 0.014031 -0.002799 -0.004266 0.062147 0.012447 0.013819
# 5 0.021208 0.000684 -0.000004 0.012447 0.070695 0.009177
# 6 0.015697 0.003165 -0.004896 0.013819 0.009177 0.044881
#
#
# Mechanical properties :
#
#
# Convention : Reuss Voigt Hill
#
# Bulk Modulus (GPa) = 33.83959 52.69926 43.26942
# Shear Modulus (GPa) = 19.82030 28.94155 24.38093
#
# Velocity S-wave (km/s) = 3.16500 3.82454 3.51029
# Velocity P-wave (km/s) = 5.51895 6.79242 6.18853
#
# Compressibility (1/GPa) = 0.02955119
#
# Stress axis : x y z
#
# Youngs Moduli (GPa) = 42.84803 76.83045 92.86744
#
# Poissons Ratio (x) = 0.06730 0.54872
# Poissons Ratio (y) = 0.03753 0.18581
# Poissons Ratio (z) = 0.25317 0.15372
#
# Static dielectric constant tensor:
#      x y z
#    x 1.816280 -0.014430 0.023140 
#    y -0.014430 1.740510 0.020750 
#    z 0.023140 0.020750 1.706260 
# 
# From -- ./inp_files/84045.got.cif
#   From: 2010.05.17/outbox.cif.g08.bks.cpg/sg2_43_cif.got.tgz:84045.got - 2010.06.03 11:33:40.
