data_PCOD9085657
_publ_section_title
;
Structure prediction by ZEFSAII (Michael W. Deem and Ramdas Pophale) SiO2 
 PCOD9085657
Probable space group: P -1
;
_chemical_formula_sum "Si O2"
_cell_formula_units_Z 16
_cell_length_a 19.456065
_cell_length_b 11.754170
_cell_length_c 8.920200
_cell_angle_alpha 97.377186
_cell_angle_beta 69.196597
_cell_angle_gamma 36.377547
_cell_volume 751.502929
_symmetry_space_group_name_H-M "P -1"
_symmetry_group_IT_number 2
_symmetry_cell_setting 'triclinic'
loop_
_space_group_symop_operation_xyz
x,y,z
-x,-y,-z
loop_
_atom_site_type_symbol
_atom_site_label
_atom_site_fract_x
_atom_site_fract_y
_atom_site_fract_z
Si Si1 0.771774 0.891047 0.242549
Si Si2 0.993042 0.709393 0.267965
Si Si3 0.752713 0.518443 0.166826
Si Si4 0.392489 0.768249 0.168948
Si Si5 0.352873 0.144139 0.474932
Si Si6 0.398234 0.505412 0.757808
Si Si7 0.221813 0.003428 0.047949
Si Si8 0.885410 0.545371 0.572112
O O1 0.941130 0.689819 0.179834
O O2 0.711419 0.856403 0.350196
O O3 0.588156 0.233199 0.470662
O O4 0.812243 0.858850 0.034408
O O5 0.138771 0.467122 0.243558
O O6 0.797133 0.994841 0.557738
O O7 0.069108 0.704496 0.108350
O O8 0.734705 0.611671 0.354505
O O9 0.728384 0.417123 0.186976
O O10 0.573986 0.824454 0.266536
O O11 0.524912 0.641399 0.161585
O O12 0.346529 0.883462 0.061098
O O13 0.500000 0.500000 0.000000
O O14 0.279822 0.210907 0.378790
O O15 0.306004 0.762030 0.886823
O O16 0.029292 0.257105 0.324036
O O17 0.000000 0.500000 0.500000
#
# Coordination Sequence:
#
# PCOD9085657 Si02
#       8
#     2   2   2   2   2   2   2   2
#     4  10  19  35  62  85 113 146 200 247 281 340
#     4  10  20  35  58  88 108 154 195 238 291 339
#     4  10  22  38  59  83 123 156 187 235 298 359
#     4   8  17  36  58  82 116 148 195 240 280 336
#     4  10  22  40  57  85 120 157 192 241 295 340
#     4   9  19  39  58  84 120 152 188 240 294 347
#     4  10  20  33  60  91 109 148 197 247 287 333
#     4  11  22  37  58  86 116 147 199 249 286 334
#
# _framework density 21.290669999999999
#
# number of rings (size 3 to 8) (size 9 to 14) (size 15 to 20)
#    0.000    2.250    1.250    1.125    3.500    1.500 
#    0.000   11.875    0.000    1.500    0.000    0.000 
#    0.000    0.000    0.000    0.000    0.000    0.000 
#
# Total GULP energy -89154.751172 kJ/mol
# GULP energy per Si atom -5572.171948 kJ/mol
# Density = 2.124221 g / cm^3
# Si number density = 21.290670 Si / 1000 Ang^3
#
#
#
# Elastic Constant Matrix: (Units=GPa)
#
#
# Indices 1 2 3 4 5 6 
#
# 1 98.3834 31.6640 20.0130 -9.9898 8.0517 -12.3387
# 2 31.6640 86.9488 18.5344 -17.6110 4.8321 -14.7833
# 3 20.0130 18.5344 61.3693 -9.5589 5.9767 4.3579
# 4 -9.9898 -17.6110 -9.5589 36.6102 2.4764 12.1643
# 5 8.0517 4.8321 5.9767 2.4764 24.8717 0.9316
# 6 -12.3387 -14.7833 4.3579 12.1643 0.9316 32.6011
#
#
#
# Elastic Compliance Matrix: (Units=1/GPa)
#
#
# Indices 1 2 3 4 5 6 
#
# 1 0.012508 -0.003069 -0.003141 0.000037 -0.002845 0.003830
# 2 -0.003069 0.014979 -0.003017 0.004200 -0.001779 0.004518
# 3 -0.003141 -0.003017 0.019938 0.005518 -0.003468 -0.007182
# 4 0.000037 0.004200 0.005518 0.035040 -0.005203 -0.011745
# 5 -0.002845 -0.001779 -0.003468 -0.005203 0.042851 -0.000703
# 6 0.003830 0.004518 -0.007182 -0.011745 -0.000703 0.039535
#
#
# Mechanical properties :
#
#
# Convention : Reuss Voigt Hill
#
# Bulk Modulus (GPa) = 34.51664 43.01380 38.76522
# Shear Modulus (GPa) = 25.91198 30.58261 28.24729
#
# Velocity S-wave (km/s) = 3.49242 3.79414 3.64640
# Velocity P-wave (km/s) = 5.70175 6.28021 5.99796
#
# Compressibility (1/GPa) = 0.02897153
#
# Stress axis : x y z
#
# Youngs Moduli (GPa) = 79.94991 66.75893 50.15658
#
# Poissons Ratio (x) = 0.20486 0.15756
# Poissons Ratio (y) = 0.24534 0.15130
# Poissons Ratio (z) = 0.25115 0.20139
#
# Static dielectric constant tensor:
#      x y z
#    x 1.792120 -0.030050 0.045150 
#    y -0.030050 1.836650 0.047140 
#    z 0.045150 0.047140 1.804110 
# 
# From -- ./inp_files/218634.got.cif
#   From: 2010.05.17/outbox.cif.g08.bks.cpg/sg2_110_cif.got.tgz:218634.got - 2010.06.03 11:33:40.
