data_PCOD9085738
_publ_section_title
;
Structure prediction by ZEFSAII (Michael W. Deem and Ramdas Pophale) SiO2 
 PCOD9085738
Probable space group: P -1
;
_chemical_formula_sum "Si O2"
_cell_formula_units_Z 14
_cell_length_a 16.345784
_cell_length_b 8.099356
_cell_length_c 8.130659
_cell_angle_alpha 34.682327
_cell_angle_beta 64.084199
_cell_angle_gamma 66.338184
_cell_volume 549.062320
_symmetry_space_group_name_H-M "P -1"
_symmetry_group_IT_number 2
_symmetry_cell_setting 'triclinic'
loop_
_space_group_symop_operation_xyz
x,y,z
-x,-y,-z
loop_
_atom_site_type_symbol
_atom_site_label
_atom_site_fract_x
_atom_site_fract_y
_atom_site_fract_z
Si Si1 0.985712 0.882943 0.295809
Si Si2 0.705186 0.264765 0.046297
Si Si3 0.422895 0.077406 0.784292
Si Si4 0.248864 0.355748 0.859257
Si Si5 0.535112 0.512923 0.146963
Si Si6 0.812115 0.228862 0.688062
Si Si7 0.872922 0.414270 0.942783
O O1 0.920687 0.624530 0.601798
O O2 0.082004 0.756080 0.389007
O O3 0.944946 0.190815 0.157833
O O4 0.000000 0.000000 0.000000
O O5 0.642837 0.469005 0.056689
O O6 0.640315 0.028113 0.225738
O O7 0.742817 0.403662 0.732671
O O8 0.802380 0.197035 0.104010
O O9 0.355417 0.252708 0.827659
O O10 0.500452 0.252860 0.493854
O O11 0.477700 0.792475 0.041781
O O12 0.226270 0.665845 0.539388
O O13 0.191347 0.374491 0.059962
O O14 0.202535 0.109491 0.996928
O O15 0.500000 0.500000 0.000000
#
# Coordination Sequence:
#
# PCOD9085738 Si02
#       7
#     2   2   2   2   2   2   2
#     4  12  26  45  66  97 127 163 214 270 319 365
#     4  10  22  39  65  97 122 170 214 262 315 366
#     4  10  21  39  63  90 131 164 210 259 306 380
#     4  11  24  43  63  97 126 173 209 255 320 378
#     4  10  19  35  62  94 123 162 215 261 302 367
#     4  11  24  42  68  87 129 170 216 256 314 381
#     4  12  27  42  67  94 135 161 213 269 314 380
#
# _framework density 25.498018999999999
#
# number of rings (size 3 to 8) (size 9 to 14) (size 15 to 20)
#    0.000    1.143    1.429    6.429    2.000    8.000 
#    0.000    1.429    0.000    0.000    0.000    1.000 
#    0.000    0.000    0.000    0.000    0.000    0.000 
#
# Total GULP energy -78153.738972 kJ/mol
# GULP energy per Si atom -5582.409927 kJ/mol
# Density = 2.543998 g / cm^3
# Si number density = 25.498019 Si / 1000 Ang^3
#
#
#
# Elastic Constant Matrix: (Units=GPa)
#
#
# Indices 1 2 3 4 5 6 
#
# 1 90.7676 38.1045 29.0424 2.3513 -15.3962 -43.1768
# 2 38.1045 138.7832 17.1967 7.1479 -14.5732 -33.1839
# 3 29.0424 17.1967 73.7479 -5.1362 -7.9231 -24.3677
# 4 2.3513 7.1479 -5.1362 41.1724 -11.0469 -2.9356
# 5 -15.3962 -14.5732 -7.9231 -11.0469 21.4104 2.4677
# 6 -43.1768 -33.1839 -24.3677 -2.9356 2.4677 39.3923
#
#
#
# Elastic Compliance Matrix: (Units=1/GPa)
#
#
# Indices 1 2 3 4 5 6 
#
# 1 0.029699 0.001913 0.002262 0.006913 0.023071 0.034633
# 2 0.001913 0.009895 0.001523 0.001315 0.008089 0.010966
# 3 0.002262 0.001523 0.018954 0.006016 0.011024 0.015245
# 4 0.006913 0.001315 0.006016 0.031483 0.022801 0.013325
# 5 0.023071 0.008089 0.011024 0.022801 0.080547 0.035575
# 6 0.034633 0.010966 0.015245 0.013325 0.035575 0.080778
#
#
# Mechanical properties :
#
#
# Convention : Reuss Voigt Hill
#
# Bulk Modulus (GPa) = 14.29697 52.44287 33.36992
# Shear Modulus (GPa) = 18.99147 34.99202 26.99175
#
# Velocity S-wave (km/s) = 2.73210 3.70853 3.25712
# Velocity P-wave (km/s) = 3.94611 6.24097 5.22118
#
# Compressibility (1/GPa) = 0.06994489
#
# Stress axis : x y z
#
# Youngs Moduli (GPa) = 33.67122 101.05853 52.75812
#
# Poissons Ratio (x) = -0.19333 -0.11933
# Poissons Ratio (y) = -0.06441 -0.08037
# Poissons Ratio (z) = -0.07616 -0.15395
#
# Static dielectric constant tensor:
#      x y z
#    x 1.673930 -0.166990 0.040960 
#    y -0.166990 2.004620 0.006460 
#    z 0.040960 0.006460 1.907570 
# 
# From -- ./inp_files/328255.got.cif
#   From: 2010.05.17/outbox.cif.g08.bks.cpg/sg2_165_cif.got.tgz:328255.got - 2010.06.03 11:33:40.
