data_PCOD9085567
_publ_section_title
;
Structure prediction by ZEFSAII (Michael W. Deem and Ramdas Pophale) SiO2 
 PCOD9085567
Probable space group: P -1
;
_chemical_formula_sum "Si O2"
_cell_formula_units_Z 16
_cell_length_a 15.707184
_cell_length_b 4.902367
_cell_length_c 10.333781
_cell_angle_alpha 85.292775
_cell_angle_beta 60.981752
_cell_angle_gamma 87.547846
_cell_volume 693.483448
_symmetry_space_group_name_H-M "P -1"
_symmetry_group_IT_number 2
_symmetry_cell_setting 'triclinic'
loop_
_space_group_symop_operation_xyz
x,y,z
-x,-y,-z
loop_
_atom_site_type_symbol
_atom_site_label
_atom_site_fract_x
_atom_site_fract_y
_atom_site_fract_z
Si Si1 0.620552 0.793045 0.396256
Si Si2 0.321807 0.696651 0.027446
Si Si3 0.183772 0.519623 0.659766
Si Si4 0.782821 0.488098 0.659034
Si Si5 0.197953 0.213429 0.039325
Si Si6 0.549850 0.312737 0.296811
Si Si7 0.100725 0.018590 0.351242
Si Si8 0.897346 0.960544 0.146505
O O1 0.719863 0.639698 0.358358
O O2 0.566065 0.609944 0.335616
O O3 0.555703 0.787253 0.574790
O O4 0.621777 0.098019 0.326316
O O5 0.313640 0.576224 0.183469
O O6 0.245202 0.509579 0.009785
O O7 0.280265 0.003526 0.039170
O O8 0.421509 0.684825 0.874209
O O9 0.210371 0.596842 0.490994
O O10 0.100960 0.286719 0.741686
O O11 0.147477 0.773913 0.761444
O O12 0.860855 0.288994 0.678432
O O13 0.820861 0.796306 0.635547
O O14 0.169350 0.138968 0.919748
O O15 0.104871 0.161763 0.202383
O O16 0.000000 0.000000 0.500000
O O17 0.000000 0.000000 0.000000
#
# Coordination Sequence:
#
# PCOD9085567 Si02
#       8
#     2   2   2   2   2   2   2   2
#     4  10  21  35  59  92 113 158 183 236 298 338
#     4  10  19  37  58  85 112 149 190 242 281 331
#     4  12  24  41  59  81 128 152 191 237 297 358
#     4  10  23  37  57  85 109 158 191 232 295 344
#     4  10  21  35  58  81 110 144 198 234 289 339
#     4  10  19  35  61  88 121 141 200 238 277 348
#     4  10  21  38  59  79 106 146 199 249 280 325
#     4  12  26  40  57  85 113 159 192 241 295 347
#
# _framework density 23.071926000000001
#
# number of rings (size 3 to 8) (size 9 to 14) (size 15 to 20)
#    0.000    1.500    0.000    6.000    3.500    0.000 
#    0.000    0.625    0.000    0.000    0.000   12.250 
#    0.000    0.000    0.000    0.000    0.000    0.000 
#
# Total GULP energy -89399.047672 kJ/mol
# GULP energy per Si atom -5587.440480 kJ/mol
# Density = 2.301941 g / cm^3
# Si number density = 23.071926 Si / 1000 Ang^3
#
#
#
# Elastic Constant Matrix: (Units=GPa)
#
#
# Indices 1 2 3 4 5 6 
#
# 1 17.6226 5.2368 24.0033 6.0613 3.4286 -2.4121
# 2 5.2368 117.1995 29.4481 10.6239 -0.4731 4.6428
# 3 24.0033 29.4481 236.5428 6.9083 1.1203 -2.8042
# 4 6.0613 10.6239 6.9083 39.8718 2.0181 1.3115
# 5 3.4286 -0.4731 1.1203 2.0181 22.7748 0.0247
# 6 -2.4121 4.6428 -2.8042 1.3115 0.0247 11.2993
#
#
#
# Elastic Compliance Matrix: (Units=1/GPa)
#
#
# Indices 1 2 3 4 5 6 
#
# 1 0.073862 -0.001377 -0.006806 -0.009697 -0.009971 0.015792
# 2 -0.001377 0.009187 -0.000998 -0.001963 0.000626 -0.004090
# 3 -0.006806 -0.000998 0.005030 0.000387 0.000722 0.000159
# 4 -0.009697 -0.001963 0.000387 0.027204 -0.001006 -0.004323
# 5 -0.009971 0.000626 0.000722 -0.001006 0.045478 -0.002189
# 6 0.015792 -0.004090 0.000159 -0.004323 -0.002189 0.094099
#
#
# Mechanical properties :
#
#
# Convention : Reuss Voigt Hill
#
# Bulk Modulus (GPa) = 14.34386 54.30458 34.32422
# Shear Modulus (GPa) = 16.86563 35.63428 26.24996
#
# Velocity S-wave (km/s) = 2.70664 3.93426 3.37671
# Velocity P-wave (km/s) = 3.99980 6.65027 5.48746
#
# Compressibility (1/GPa) = 0.06971625
#
# Stress axis : x y z
#
# Youngs Moduli (GPa) = 13.53878 108.84622 198.82171
#
# Poissons Ratio (x) = 0.14988 1.35320
# Poissons Ratio (y) = 0.01864 0.19845
# Poissons Ratio (z) = 0.09215 0.10864
#
# Static dielectric constant tensor:
#      x y z
#    x 1.901330 0.001910 -0.013630 
#    y 0.001910 1.817040 -0.019630 
#    z -0.013630 -0.019630 1.976560 
# 
# From -- ./inp_files/459125.got.cif
#   From: 2010.05.17/outbox.cif.g08.bks.cpg/sg2_230_cif.got.tgz:459125.got - 2010.06.03 11:33:40.
