data_PCOD9085355
_publ_section_title
;
Structure prediction by ZEFSAII (Michael W. Deem and Ramdas Pophale) SiO2 
 PCOD9085355
Probable space group: P -1
;
_chemical_formula_sum "Si O2"
_cell_formula_units_Z 14
_cell_length_a 25.228919
_cell_length_b 8.281856
_cell_length_c 14.938680
_cell_angle_alpha 138.417249
_cell_angle_beta 23.611915
_cell_angle_gamma 150.120765
_cell_volume 605.684735
_symmetry_space_group_name_H-M "P -1"
_symmetry_group_IT_number 2
_symmetry_cell_setting 'triclinic'
loop_
_space_group_symop_operation_xyz
x,y,z
-x,-y,-z
loop_
_atom_site_type_symbol
_atom_site_label
_atom_site_fract_x
_atom_site_fract_y
_atom_site_fract_z
Si Si1 0.059424 0.370853 0.950819
Si Si2 0.550676 0.810280 0.794008
Si Si3 0.814772 0.710328 0.953482
Si Si4 0.800486 0.456985 0.570139
Si Si5 0.826857 0.330706 0.921039
Si Si6 0.879635 0.664384 0.338389
Si Si7 0.563123 0.593169 0.042511
O O1 0.118108 0.005889 0.959797
O O2 0.118746 0.414751 0.978774
O O3 0.016287 0.602500 0.107765
O O4 0.197208 0.470816 0.699339
O O5 0.699927 0.085197 0.605775
O O6 0.376127 0.483461 0.877972
O O7 0.588281 0.675749 0.762783
O O8 0.500000 0.000000 0.000000
O O9 0.797706 0.435283 0.917488
O O10 0.983521 0.935197 0.715871
O O11 0.010886 0.658790 0.339352
O O12 0.770055 0.489547 0.526118
O O13 0.720421 0.583821 0.800634
O O14 0.652594 0.965275 0.072198
O O15 0.500000 0.500000 0.000000
#
# Coordination Sequence:
#
# PCOD9085355 Si02
#       7
#     2   2   2   2   2   2   2
#     4   8  17  34  60  84 116 150 191 225 285 330
#     4  10  21  38  56  78 114 152 187 229 289 337
#     4  10  19  35  60  85 116 154 186 227 285 343
#     4  10  21  38  57  88 114 146 195 240 278 331
#     4  11  20  35  61  90 114 149 193 235 276 339
#     4   8  17  34  59  83 113 146 192 229 276 326
#     4  11  24  41  60  79 115 155 190 234 293 344
#
# _framework density 23.114333999999999
#
# number of rings (size 3 to 8) (size 9 to 14) (size 15 to 20)
#    0.857    1.429    0.000    4.286    0.000    2.286 
#    0.000    7.143    0.000    1.714    0.000    0.000 
#    0.000    0.000    0.000    0.000    0.000    0.000 
#
# Total GULP energy -77989.214438 kJ/mol
# GULP energy per Si atom -5570.658174 kJ/mol
# Density = 2.306172 g / cm^3
# Si number density = 23.114334 Si / 1000 Ang^3
#
#
#
# Elastic Constant Matrix: (Units=GPa)
#
#
# Indices 1 2 3 4 5 6 
#
# 1 92.1319 19.3713 4.4306 -18.0785 23.7858 -9.8688
# 2 19.3713 96.2090 8.3375 -31.9723 17.5840 -8.9943
# 3 4.4306 8.3375 62.2112 -9.7769 23.0553 -14.5343
# 4 -18.0785 -31.9723 -9.7769 40.2628 -9.5921 7.8396
# 5 23.7858 17.5840 23.0553 -9.5921 31.2284 -11.5033
# 6 -9.8688 -8.9943 -14.5343 7.8396 -11.5033 41.8326
#
#
#
# Elastic Compliance Matrix: (Units=1/GPa)
#
#
# Indices 1 2 3 4 5 6 
#
# 1 0.015078 0.000848 0.004871 0.005229 -0.013700 0.000685
# 2 0.000848 0.015102 0.002485 0.011159 -0.007498 0.000157
# 3 0.004871 0.002485 0.024569 0.004519 -0.020483 0.003741
# 4 0.005229 0.011159 0.004519 0.036879 -0.003231 -0.002597
# 5 -0.013700 -0.007498 -0.020483 -0.003231 0.063008 0.005971
# 6 0.000685 0.000157 0.003741 -0.002597 0.005971 0.027528
#
#
# Mechanical properties :
#
#
# Convention : Reuss Voigt Hill
#
# Bulk Modulus (GPa) = 14.05359 34.98119 24.51739
# Shear Modulus (GPa) = 26.38871 37.22560 31.80715
#
# Velocity S-wave (km/s) = 3.38251 4.01746 3.71358
# Velocity P-wave (km/s) = 4.62043 6.05696 5.38680
#
# Compressibility (1/GPa) = 0.07115617
#
# Stress axis : x y z
#
# Youngs Moduli (GPa) = 66.32272 66.21849 40.70140
#
# Poissons Ratio (x) = -0.05612 -0.19827
# Poissons Ratio (y) = -0.05621 -0.10114
# Poissons Ratio (z) = -0.32308 -0.16455
#
# Static dielectric constant tensor:
#      x y z
#    x 1.945440 -0.037870 0.035370 
#    y -0.037870 1.871540 -0.025490 
#    z 0.035370 -0.025490 1.943670 
# 
# From -- ./inp_files/193260.got.cif
#   From: 2010.05.17/outbox.cif.g08.bks.cpg/sg2_97_cif.got.tgz:193260.got - 2010.06.03 11:33:40.
