data_PCOD9085940
_publ_section_title
;
Structure prediction by ZEFSAII (Michael W. Deem and Ramdas Pophale) SiO2 
 PCOD9085940
Probable space group: P -1
;
_chemical_formula_sum "Si O2"
_cell_formula_units_Z 16
_cell_length_a 23.028970
_cell_length_b 9.368674
_cell_length_c 12.306952
_cell_angle_alpha 130.472814
_cell_angle_beta 154.054598
_cell_angle_gamma 44.749156
_cell_volume 817.372003
_symmetry_space_group_name_H-M "P -1"
_symmetry_group_IT_number 2
_symmetry_cell_setting 'triclinic'
loop_
_space_group_symop_operation_xyz
x,y,z
-x,-y,-z
loop_
_atom_site_type_symbol
_atom_site_label
_atom_site_fract_x
_atom_site_fract_y
_atom_site_fract_z
Si Si1 0.140904 0.606341 0.098028
Si Si2 0.902522 0.051402 0.256032
Si Si3 0.693646 0.859231 0.839376
Si Si4 0.182111 0.326341 0.443565
Si Si5 0.336066 0.615026 0.241645
Si Si6 0.618404 0.993227 0.540070
Si Si7 0.085963 0.638530 0.253287
Si Si8 0.146492 0.512588 0.705613
O O1 0.191679 0.362240 0.048379
O O2 0.231917 0.675068 0.200134
O O3 0.174106 0.644411 0.297091
O O4 0.970622 0.700401 0.837104
O O5 0.893142 0.260311 0.293537
O O6 0.000000 0.000000 0.500000
O O7 0.976020 0.863004 0.205209
O O8 0.755409 0.034239 0.038293
O O9 0.553360 0.909565 0.700382
O O10 0.656838 0.860573 0.649742
O O11 0.164488 0.524659 0.437625
O O12 0.200959 0.366881 0.621058
O O13 0.305945 0.142307 0.502118
O O14 0.500000 0.500000 0.500000
O O15 0.330127 0.819423 0.273498
O O16 0.269220 0.489056 0.989997
O O17 0.000000 0.500000 0.000000
O O18 0.000000 0.500000 0.500000
#
# Coordination Sequence:
#
# PCOD9085940 Si02
#       8
#     2   2   2   2   2   2   2   2
#     4  11  20  38  69  92 135 164 219 270 336 384
#     4  12  22  39  69 100 127 175 221 271 340 400
#     4  11  20  40  65  98 125 173 218 269 332 401
#     4  11  21  41  65 100 130 168 219 296 321 380
#     4  12  26  43  65  96 134 184 224 266 339 412
#     4  11  24  39  69  94 131 171 227 275 330 394
#     4  10  19  35  65 101 128 155 222 285 324 376
#     4  12  26  44  65  99 141 178 220 278 339 401
#
# _framework density 19.574930999999999
#
# number of rings (size 3 to 8) (size 9 to 14) (size 15 to 20)
#    0.000    0.750    8.750    0.750    0.000    1.500 
#    0.000    2.500    0.000    0.000    0.000    0.000 
#    0.000    0.000    0.000    0.000    0.000    0.000 
#
# Total GULP energy -89315.189389 kJ/mol
# GULP energy per Si atom -5582.199337 kJ/mol
# Density = 1.953038 g / cm^3
# Si number density = 19.574931 Si / 1000 Ang^3
#
#
#
# Elastic Constant Matrix: (Units=GPa)
#
#
# Indices 1 2 3 4 5 6 
#
# 1 141.3745 22.6900 63.0049 -3.2078 14.4094 -21.9105
# 2 22.6900 58.3966 19.1213 7.0421 11.3540 -12.5801
# 3 63.0049 19.1213 98.0408 1.6430 5.8375 -12.1611
# 4 -3.2078 7.0421 1.6430 22.1029 6.0618 2.1803
# 5 14.4094 11.3540 5.8375 6.0618 38.1224 3.7083
# 6 -21.9105 -12.5801 -12.1611 2.1803 3.7083 38.6158
#
#
#
# Elastic Compliance Matrix: (Units=1/GPa)
#
#
# Indices 1 2 3 4 5 6 
#
# 1 0.011139 -0.000984 -0.006264 0.003035 -0.003852 0.004226
# 2 -0.000984 0.021436 -0.002318 -0.005980 -0.005343 0.006546
# 3 -0.006264 -0.002318 0.014680 -0.001574 0.001031 0.000304
# 4 0.003035 -0.005980 -0.001574 0.049847 -0.006771 -0.002886
# 5 -0.003852 -0.005343 0.001031 -0.006771 0.030798 -0.006177
# 6 0.004226 0.006546 0.000304 -0.002886 -0.006177 0.031278
#
#
# Mechanical properties :
#
#
# Convention : Reuss Voigt Hill
#
# Bulk Modulus (GPa) = 35.55791 56.38270 45.97031
# Shear Modulus (GPa) = 26.64036 32.63460 29.63748
#
# Velocity S-wave (km/s) = 3.69310 4.08752 3.89530
# Velocity P-wave (km/s) = 6.03239 7.15144 6.61562
#
# Compressibility (1/GPa) = 0.02812313
#
# Stress axis : x y z
#
# Youngs Moduli (GPa) = 89.77192 46.65103 68.11928
#
# Poissons Ratio (x) = 0.04590 0.42670
# Poissons Ratio (y) = 0.08832 0.15791
# Poissons Ratio (z) = 0.56234 0.10814
#
# Static dielectric constant tensor:
#      x y z
#    x 1.726590 0.017510 -0.015320 
#    y 0.017510 1.691750 -0.014750 
#    z -0.015320 -0.014750 1.715060 
# 
# From -- ./inp_files/469615.got.cif
#   From: 2010.05.17/outbox.cif.g08.bks.cpg/sg2_235_cif.got.tgz:469615.got - 2010.06.03 11:33:40.
