data_PCOD9085762
_publ_section_title
;
Structure prediction by ZEFSAII (Michael W. Deem and Ramdas Pophale) SiO2 
 PCOD9085762
Probable space group: P -1
;
_chemical_formula_sum "Si O2"
_cell_formula_units_Z 12
_cell_length_a 11.180840
_cell_length_b 6.045703
_cell_length_c 8.871189
_cell_angle_alpha 73.505452
_cell_angle_beta 67.350764
_cell_angle_gamma 60.045078
_cell_volume 476.326373
_symmetry_space_group_name_H-M "P -1"
_symmetry_group_IT_number 2
_symmetry_cell_setting 'triclinic'
loop_
_space_group_symop_operation_xyz
x,y,z
-x,-y,-z
loop_
_atom_site_type_symbol
_atom_site_label
_atom_site_fract_x
_atom_site_fract_y
_atom_site_fract_z
Si Si1 0.396686 0.936760 0.198411
Si Si2 0.614296 0.489254 0.322650
Si Si3 0.668147 0.172021 0.062724
Si Si4 0.162163 0.772572 0.494834
Si Si5 0.813078 0.484491 0.756372
Si Si6 0.042273 0.249038 0.917955
O O1 0.577075 0.145046 0.973518
O O2 0.301944 0.236779 0.198426
O O3 0.544857 0.785856 0.246932
O O4 0.279535 0.854174 0.349330
O O5 0.500000 0.500000 0.500000
O O6 0.599095 0.341458 0.210281
O O7 0.774056 0.337310 0.348594
O O8 0.787971 0.903260 0.117061
O O9 0.752984 0.306320 0.904802
O O10 0.176168 0.544620 0.421595
O O11 0.000000 0.000000 0.500000
O O12 0.970921 0.386394 0.770589
O O13 0.000000 0.500000 0.000000
O O14 0.000000 0.000000 0.000000
#
# Coordination Sequence:
#
# PCOD9085762 Si02
#       6
#     2   2   2   2   2   2
#     4  10  21  39  64  90 124 164 217 269 330 395
#     4  10  22  41  63  88 127 172 214 270 337 407
#     4  10  20  38  63  91 125 166 216 278 326 395
#     4  10  22  41  62  88 128 168 212 269 333 401
#     4  10  21  37  62  93 124 165 217 272 332 392
#     4  10  19  35  63 100 135 167 218 283 340 394
#
# _framework density 25.192806000000001
#
# number of rings (size 3 to 8) (size 9 to 14) (size 15 to 20)
#    0.000    2.000    1.667    1.500    0.000    3.333 
#    0.000    3.333    0.000    0.000    0.000    0.000 
#    0.000    0.000    0.000    0.000    0.000    0.000 
#
# Total GULP energy -66933.956165 kJ/mol
# GULP energy per Si atom -5577.829680 kJ/mol
# Density = 2.513547 g / cm^3
# Si number density = 25.192806 Si / 1000 Ang^3
#
#
#
# Elastic Constant Matrix: (Units=GPa)
#
#
# Indices 1 2 3 4 5 6 
#
# 1 162.2507 64.4514 57.9749 -14.6264 30.1377 -30.5300
# 2 64.4514 113.3416 44.3799 -22.4400 35.5693 -43.8446
# 3 57.9749 44.3799 104.8860 5.9631 19.7013 -8.8807
# 4 -14.6264 -22.4400 5.9631 34.3533 -1.0507 13.1083
# 5 30.1377 35.5693 19.7013 -1.0507 50.2399 -4.9995
# 6 -30.5300 -43.8446 -8.8807 13.1083 -4.9995 49.1789
#
#
#
# Elastic Compliance Matrix: (Units=1/GPa)
#
#
# Indices 1 2 3 4 5 6 
#
# 1 0.009437 -0.001110 -0.004093 0.002729 -0.002904 0.003107
# 2 -0.001110 0.023493 -0.006383 0.009783 -0.011737 0.015302
# 3 -0.004093 -0.006383 0.014432 -0.006988 0.000802 -0.003681
# 4 0.002729 0.009783 -0.006988 0.038322 -0.005180 -0.001587
# 5 -0.002904 -0.011737 0.000802 -0.005180 0.028755 -0.007817
# 6 0.003107 0.015302 -0.003681 -0.001587 -0.007817 0.034868
#
#
# Mechanical properties :
#
#
# Convention : Reuss Voigt Hill
#
# Bulk Modulus (GPa) = 41.33975 79.34339 60.34157
# Shear Modulus (GPa) = 27.69431 40.99924 34.34677
#
# Velocity S-wave (km/s) = 3.31916 4.03850 3.69637
# Velocity P-wave (km/s) = 5.57979 7.30129 6.49780
#
# Compressibility (1/GPa) = 0.02418979
#
# Stress axis : x y z
#
# Youngs Moduli (GPa) = 105.96878 42.56569 69.28943
#
# Poissons Ratio (x) = 0.04726 0.28360
# Poissons Ratio (y) = 0.11765 0.44227
# Poissons Ratio (z) = 0.43373 0.27169
#
# Static dielectric constant tensor:
#      x y z
#    x 2.236470 0.177420 -0.062030 
#    y 0.177420 2.079680 -0.062790 
#    z -0.062030 -0.062790 1.981590 
# 
# From -- ./inp_files/228510.got.cif
#   From: 2010.05.17/outbox.cif.g08.bks.cpg/sg2_115_cif.got.tgz:228510.got - 2010.06.03 11:33:40.
