data_PCOD9085605
_publ_section_title
;
Structure prediction by ZEFSAII (Michael W. Deem and Ramdas Pophale) SiO2 
 PCOD9085605
Probable space group: P -1
;
_chemical_formula_sum "Si O2"
_cell_formula_units_Z 16
_cell_length_a 14.664974
_cell_length_b 7.560251
_cell_length_c 14.233831
_cell_angle_alpha 62.328875
_cell_angle_beta 149.504977
_cell_angle_gamma 117.363095
_cell_volume 703.006606
_symmetry_space_group_name_H-M "P -1"
_symmetry_group_IT_number 2
_symmetry_cell_setting 'triclinic'
loop_
_space_group_symop_operation_xyz
x,y,z
-x,-y,-z
loop_
_atom_site_type_symbol
_atom_site_label
_atom_site_fract_x
_atom_site_fract_y
_atom_site_fract_z
Si Si1 0.697433 0.893489 0.013884
Si Si2 0.023801 0.379382 0.937088
Si Si3 0.153628 0.723872 0.828431
Si Si4 0.332231 0.867094 0.261537
Si Si5 0.704917 0.835746 0.667033
Si Si6 0.116706 0.431193 0.531475
Si Si7 0.482196 0.236437 0.948658
Si Si8 0.057957 0.806138 0.285770
O O1 0.527927 0.764983 0.946213
O O2 0.865684 0.775325 0.173447
O O3 0.787217 0.060974 0.126034
O O4 0.652046 0.006770 0.851604
O O5 0.058424 0.588711 0.861609
O O6 0.842420 0.300710 0.852022
O O7 0.001021 0.227666 0.865829
O O8 0.190961 0.337451 0.158321
O O9 0.019823 0.709928 0.624076
O O10 0.340996 0.651510 0.974152
O O11 0.512307 0.769612 0.466463
O O12 0.319498 0.021803 0.299064
O O13 0.828466 0.974651 0.667569
O O14 0.295785 0.323224 0.734698
O O15 0.168985 0.636054 0.466160
O O16 0.000000 0.500000 0.500000
O O17 0.500000 0.000000 0.000000
#
# Coordination Sequence:
#
# PCOD9085605 Si02
#       8
#     2   2   2   2   2   2   2   2
#     4  11  20  42  61  89 128 165 211 260 319 379
#     4  10  19  39  59  88 129 161 211 264 309 372
#     4  10  26  41  63  91 132 173 200 265 329 367
#     4  10  20  34  61  90 119 162 213 259 311 374
#     4  10  19  35  61  92 121 166 207 263 316 361
#     4  11  23  43  67  97 123 166 221 265 306 381
#     4  10  24  45  65  94 132 167 208 263 322 382
#     4  10  19  38  63  94 125 161 213 265 310 372
#
# _framework density 22.759387
#
# number of rings (size 3 to 8) (size 9 to 14) (size 15 to 20)
#    0.000    1.750    3.750    0.750    0.000    8.000 
#    4.500    0.625    0.000    0.000    0.000    0.000 
#    0.000    0.000    0.000    0.000    0.000    0.000 
#
# Total GULP energy -89255.568476 kJ/mol
# GULP energy per Si atom -5578.473030 kJ/mol
# Density = 2.270759 g / cm^3
# Si number density = 22.759387 Si / 1000 Ang^3
#
#
#
# Elastic Constant Matrix: (Units=GPa)
#
#
# Indices 1 2 3 4 5 6 
#
# 1 86.0511 20.1905 43.9582 -7.8169 -0.5234 11.5500
# 2 20.1905 38.7578 33.6984 -13.9274 -1.3352 -0.4361
# 3 43.9582 33.6984 160.2734 -28.7070 0.1542 0.1408
# 4 -7.8169 -13.9274 -28.7070 19.9170 0.5732 -7.6605
# 5 -0.5234 -1.3352 0.1542 0.5732 21.5491 -9.1343
# 6 11.5500 -0.4361 0.1408 -7.6605 -9.1343 29.1362
#
#
#
# Elastic Compliance Matrix: (Units=1/GPa)
#
#
# Indices 1 2 3 4 5 6 
#
# 1 0.016379 -0.008456 -0.004465 -0.009848 -0.004298 -0.010535
# 2 -0.008456 0.042446 -0.001299 0.029738 0.007669 0.014217
# 3 -0.004465 -0.001299 0.010333 0.014537 0.001951 0.006134
# 4 -0.009848 0.029738 0.014537 0.101233 0.013727 0.035199
# 5 -0.004298 0.007669 0.001951 0.013727 0.056157 0.023023
# 6 -0.010535 0.014217 0.006134 0.035199 0.023023 0.055153
#
#
# Mechanical properties :
#
#
# Convention : Reuss Voigt Hill
#
# Bulk Modulus (GPa) = 24.55851 53.41961 38.98906
# Shear Modulus (GPa) = 15.44576 26.60281 21.02429
#
# Velocity S-wave (km/s) = 2.60793 3.42259 3.04264
# Velocity P-wave (km/s) = 4.45896 6.25629 5.43247
#
# Compressibility (1/GPa) = 0.04071908
#
# Stress axis : x y z
#
# Youngs Moduli (GPa) = 61.05328 23.55953 96.77354
#
# Poissons Ratio (x) = 0.19922 0.43209
# Poissons Ratio (y) = 0.51626 0.12568
# Poissons Ratio (z) = 0.27260 0.03060
#
# Static dielectric constant tensor:
#      x y z
#    x 1.949010 -0.004950 0.025840 
#    y -0.004950 1.932550 0.001520 
#    z 0.025840 0.001520 1.818240 
# 
# From -- ./inp_files/529497.got.cif
#   From: 2010.05.17/outbox.cif.g08.bks.cpg/sg2_265_cif.got.tgz:529497.got - 2010.06.03 11:33:40.
