data_PCOD9085946
_publ_section_title
;
Structure prediction by ZEFSAII (Michael W. Deem and Ramdas Pophale) SiO2 
 PCOD9085946
Probable space group: P -1
;
_chemical_formula_sum "Si O2"
_cell_formula_units_Z 13
_cell_length_a 8.349877
_cell_length_b 12.440287
_cell_length_c 10.230575
_cell_angle_alpha 45.383829
_cell_angle_beta 136.345474
_cell_angle_gamma 130.212885
_cell_volume 501.339996
_symmetry_space_group_name_H-M "P -1"
_symmetry_group_IT_number 2
_symmetry_cell_setting 'triclinic'
loop_
_space_group_symop_operation_xyz
x,y,z
-x,-y,-z
loop_
_atom_site_type_symbol
_atom_site_label
_atom_site_fract_x
_atom_site_fract_y
_atom_site_fract_z
Si Si1 0.500000 0.500000 0.000000
Si Si2 0.055499 0.888536 0.238457
Si Si3 0.769241 0.319052 0.845564
Si Si4 0.372689 0.050218 0.716124
Si Si5 0.117684 0.139361 0.269024
Si Si6 0.490200 0.261328 0.979491
Si Si7 0.257396 0.612232 0.513306
O O1 0.484142 0.657454 0.934702
O O2 0.564472 0.430202 0.241205
O O3 0.784691 0.775938 0.206065
O O4 0.216908 0.783637 0.368544
O O5 0.174940 0.013702 0.312451
O O6 0.000000 0.000000 0.000000
O O7 0.574855 0.152987 0.841489
O O8 0.684914 0.358720 0.904174
O O9 0.739571 0.417088 0.616930
O O10 0.032546 0.283999 0.032798
O O11 0.308560 0.170157 0.472015
O O12 0.127717 0.965482 0.718530
O O13 0.455025 0.906480 0.828587
O O14 0.000000 0.500000 0.500000
#
# Coordination Sequence:
#
# PCOD9085946 Si02
#       7
#     1   2   2   2   2   2   2
#     4  12  28  48  66  94 144 192 228 274 338 424
#     4  12  21  41  72 102 135 178 220 287 343 403
#     4  11  22  43  70 101 132 182 228 289 341 402
#     4  10  19  36  68 105 135 168 220 293 337 402
#     4  10  19  35  65 105 138 164 220 282 351 392
#     4  11  22  44  69  98 142 180 232 274 343 407
#     4  12  27  46  68  96 142 183 229 280 347 408
#
# _framework density 25.930508
#
# number of rings (size 3 to 8) (size 9 to 14) (size 15 to 20)
#    0.000    0.923    6.154    1.846    0.000    3.077 
#    0.000    3.846    0.000    0.000    0.000    0.000 
#    0.000    0.000    0.000    0.000    0.000    0.000 
#
# Total GULP energy -72517.081183 kJ/mol
# GULP energy per Si atom -5578.237014 kJ/mol
# Density = 2.587149 g / cm^3
# Si number density = 25.930508 Si / 1000 Ang^3
#
#
#
# Elastic Constant Matrix: (Units=GPa)
#
#
# Indices 1 2 3 4 5 6 
#
# 1 88.8766 13.1709 13.7729 5.4443 -1.6123 -1.4367
# 2 13.1709 60.5557 -0.5381 8.1863 -5.0786 -24.3218
# 3 13.7729 -0.5381 175.8705 5.1781 -11.1290 11.1304
# 4 5.4443 8.1863 5.1781 50.8887 -0.1470 -3.6336
# 5 -1.6123 -5.0786 -11.1290 -0.1470 41.4028 1.9243
# 6 -1.4367 -24.3218 11.1304 -3.6336 1.9243 33.8999
#
#
#
# Elastic Compliance Matrix: (Units=1/GPa)
#
#
# Indices 1 2 3 4 5 6 
#
# 1 0.011861 -0.003102 -0.000822 -0.000796 -0.000071 -0.001534
# 2 -0.003102 0.024641 -0.000591 -0.002325 0.001927 0.017383
# 3 -0.000822 -0.000591 0.006035 -0.000612 0.001636 -0.002599
# 4 -0.000796 -0.002325 -0.000612 0.020220 -0.000441 0.000691
# 5 -0.000071 0.001927 0.001636 -0.000441 0.024853 -0.000616
# 6 -0.001534 0.017383 -0.002599 0.000691 -0.000616 0.042867
#
#
# Mechanical properties :
#
#
# Convention : Reuss Voigt Hill
#
# Bulk Modulus (GPa) = 29.84555 42.01268 35.92911
# Shear Modulus (GPa) = 33.18354 45.16474 39.17414
#
# Velocity S-wave (km/s) = 3.58118 4.17797 3.89103
# Velocity P-wave (km/s) = 5.35114 6.28578 5.83720
#
# Compressibility (1/GPa) = 0.03350583
#
# Stress axis : x y z
#
# Youngs Moduli (GPa) = 84.30777 40.58331 165.71030
#
# Poissons Ratio (x) = 0.12587 0.13628
# Poissons Ratio (y) = 0.26148 0.09801
# Poissons Ratio (z) = 0.06933 0.02400
#
# Static dielectric constant tensor:
#      x y z
#    x 2.179370 0.076510 -0.081400 
#    y 0.076510 2.043830 -0.004710 
#    z -0.081400 -0.004710 2.068790 
# 
# From -- ./inp_files/149429.got.cif
#   From: 2010.05.17/outbox.cif.g08.bks.cpg/sg2_75_cif.got.tgz:149429.got - 2010.06.03 11:33:40.
