data_PCOD9085142
_publ_section_title
;
Structure prediction by ZEFSAII (Michael W. Deem and Ramdas Pophale) SiO2 
 PCOD9085142
Probable space group: P -1
;
_chemical_formula_sum "Si O2"
_cell_formula_units_Z 16
_cell_length_a 11.361274
_cell_length_b 8.254908
_cell_length_c 14.822958
_cell_angle_alpha 122.353546
_cell_angle_beta 106.465388
_cell_angle_gamma 35.797558
_cell_volume 654.234038
_symmetry_space_group_name_H-M "P -1"
_symmetry_group_IT_number 2
_symmetry_cell_setting 'triclinic'
loop_
_space_group_symop_operation_xyz
x,y,z
-x,-y,-z
loop_
_atom_site_type_symbol
_atom_site_label
_atom_site_fract_x
_atom_site_fract_y
_atom_site_fract_z
Si Si1 0.805268 0.186310 0.154809
Si Si2 0.311449 0.548513 0.428698
Si Si3 0.948873 0.741709 0.349227
Si Si4 0.200614 0.860275 0.131309
Si Si5 0.616748 0.307065 0.687057
Si Si6 0.932395 0.454180 0.886354
Si Si7 0.351075 0.047364 0.536671
Si Si8 0.597602 0.138984 0.960543
O O1 0.612183 0.477429 0.265594
O O2 0.987099 0.849778 0.151145
O O3 0.704166 0.164838 0.056731
O O4 0.956042 0.156153 0.137373
O O5 0.397905 0.512307 0.339617
O O6 0.488044 0.261529 0.451673
O O7 0.171533 0.539076 0.373342
O O8 0.185606 0.888365 0.548783
O O9 0.956131 0.676129 0.226108
O O10 0.854707 0.678158 0.363178
O O11 0.254384 0.796794 0.229311
O O12 0.306913 0.918799 0.131367
O O13 0.349682 0.497455 0.016301
O O14 0.734269 0.986531 0.568221
O O15 0.691137 0.819233 0.919482
O O16 0.000000 0.500000 0.000000
O O17 0.500000 0.000000 0.500000
#
# Coordination Sequence:
#
# PCOD9085142 Si02
#       8
#     2   2   2   2   2   2   2   2
#     4  10  19  35  59  82 112 154 198 240 291 349
#     4  10  21  40  65  86 115 156 202 246 288 352
#     4  10  21  40  64  88 117 160 202 241 295 349
#     4  10  20  37  58  81 114 155 199 242 292 352
#     4  10  21  37  60  87 112 152 201 243 292 356
#     4  10  20  36  59  88 120 152 192 243 293 348
#     4  11  24  39  58  89 123 152 191 248 304 353
#     4   9  21  36  52  82 118 152 194 243 292 349
#
# _framework density 24.456078999999999
#
# number of rings (size 3 to 8) (size 9 to 14) (size 15 to 20)
#    0.000    2.000    0.000    4.125    0.000    5.000 
#    0.000    7.500    0.000    0.000    0.000    0.000 
#    0.000    0.000    0.000    0.000    0.000    0.000 
#
# Total GULP energy -89181.624269 kJ/mol
# GULP energy per Si atom -5573.851517 kJ/mol
# Density = 2.440042 g / cm^3
# Si number density = 24.456079 Si / 1000 Ang^3
#
#
#
# Elastic Constant Matrix: (Units=GPa)
#
#
# Indices 1 2 3 4 5 6 
#
# 1 90.5459 -0.6704 40.5730 -8.9657 -21.7158 -28.2283
# 2 -0.6704 66.1346 18.0132 -10.4486 1.6108 -6.3085
# 3 40.5730 18.0132 137.5086 -23.2041 -15.1419 -8.7044
# 4 -8.9657 -10.4486 -23.2041 30.2966 3.8440 -7.0942
# 5 -21.7158 1.6108 -15.1419 3.8440 27.1075 4.8823
# 6 -28.2283 -6.3085 -8.7044 -7.0942 4.8823 34.5673
#
#
#
# Elastic Compliance Matrix: (Units=1/GPa)
#
#
# Indices 1 2 3 4 5 6 
#
# 1 0.021249 0.003699 -0.003144 0.007838 0.010816 0.017317
# 2 0.003699 0.017637 -0.001775 0.007797 -0.001553 0.007612
# 3 -0.003144 -0.001775 0.009647 0.005675 0.002097 0.000406
# 4 0.007838 0.007797 0.005675 0.046962 -0.001104 0.019046
# 5 0.010816 -0.001553 0.002097 -0.001104 0.046566 0.002274
# 6 0.017317 0.007612 0.000406 0.019046 0.002274 0.048149
#
#
# Mechanical properties :
#
#
# Convention : Reuss Voigt Hill
#
# Bulk Modulus (GPa) = 21.69612 45.55785 33.62698
# Shear Modulus (GPa) = 24.03660 34.14584 29.09122
#
# Velocity S-wave (km/s) = 3.13844 3.74064 3.45270
# Velocity P-wave (km/s) = 4.69295 6.10945 5.44744
#
# Compressibility (1/GPa) = 0.04609119
#
# Stress axis : x y z
#
# Youngs Moduli (GPa) = 47.06047 56.69759 103.66119
#
# Poissons Ratio (x) = -0.20970 0.32596
# Poissons Ratio (y) = -0.17405 0.18402
# Poissons Ratio (z) = 0.14798 0.10065
#
# Static dielectric constant tensor:
#      x y z
#    x 2.190970 0.029210 -0.109990 
#    y 0.029210 1.959590 0.053090 
#    z -0.109990 0.053090 2.015310 
# 
# From -- ./inp_files/516105.got.cif
#   From: 2010.05.17/outbox.cif.g08.bks.cpg/sg2_259_cif.got.tgz:516105.got - 2010.06.03 11:33:40.
