data_PCOD9085866
_publ_section_title
;
Structure prediction by ZEFSAII (Michael W. Deem and Ramdas Pophale) SiO2 
 PCOD9085866
Probable space group: P -1
;
_chemical_formula_sum "Si O2"
_cell_formula_units_Z 16
_cell_length_a 15.670265
_cell_length_b 8.199132
_cell_length_c 9.328911
_cell_angle_alpha 103.956008
_cell_angle_beta 138.759782
_cell_angle_gamma 91.175513
_cell_volume 727.641073
_symmetry_space_group_name_H-M "P -1"
_symmetry_group_IT_number 2
_symmetry_cell_setting 'triclinic'
loop_
_space_group_symop_operation_xyz
x,y,z
-x,-y,-z
loop_
_atom_site_type_symbol
_atom_site_label
_atom_site_fract_x
_atom_site_fract_y
_atom_site_fract_z
Si Si1 0.172029 0.048341 0.398127
Si Si2 0.850456 0.875716 0.916310
Si Si3 0.363803 0.265010 0.164781
Si Si4 0.854594 0.491496 0.752955
Si Si5 0.887611 0.611947 0.509898
Si Si6 0.795739 0.282242 0.136019
Si Si7 0.640868 0.339831 0.684374
Si Si8 0.648830 0.002918 0.137998
O O1 0.208400 0.043925 0.275233
O O2 0.186104 0.244327 0.516090
O O3 0.251843 0.967634 0.593363
O O4 0.009615 0.958048 0.165100
O O5 0.770642 0.863609 0.958412
O O6 0.831946 0.678116 0.797370
O O7 0.489261 0.250603 0.416463
O O8 0.359000 0.464938 0.217483
O O9 0.371340 0.188432 0.001687
O O10 0.865937 0.484735 0.595055
O O11 0.737968 0.358663 0.672026
O O12 0.000000 0.500000 0.000000
O O13 0.825447 0.484095 0.272904
O O14 0.049479 0.711917 0.708624
O O15 0.719263 0.148868 0.136691
O O16 0.700624 0.254835 0.870703
O O17 0.500000 0.000000 0.000000
#
# Coordination Sequence:
#
# PCOD9085866 Si02
#       8
#     2   2   2   2   2   2   2   2
#     4  10  22  44  64  93 128 166 215 261 322 381
#     4   9  21  39  69  93 121 170 215 262 318 381
#     4  10  23  44  64  93 124 174 217 257 327 381
#     4  10  19  35  63  99 127 160 206 266 324 371
#     4  10  22  40  66  96 125 164 213 267 317 381
#     4  11  24  40  62  99 128 167 216 261 327 369
#     4  10  22  41  68  92 128 170 214 267 313 390
#     4  12  29  44  61  95 133 177 210 265 323 379
#
# _framework density 21.988862999999998
#
# number of rings (size 3 to 8) (size 9 to 14) (size 15 to 20)
#    0.000    1.750    1.250    1.500    5.250    3.500 
#    2.250    1.250    0.000    0.000    0.000    0.000 
#    0.000    0.000    0.000    0.000    0.000    0.000 
#
# Total GULP energy -89369.522826 kJ/mol
# GULP energy per Si atom -5585.595177 kJ/mol
# Density = 2.193881 g / cm^3
# Si number density = 21.988863 Si / 1000 Ang^3
#
#
#
# Elastic Constant Matrix: (Units=GPa)
#
#
# Indices 1 2 3 4 5 6 
#
# 1 108.6101 22.4762 22.7075 -14.3142 -5.0062 -3.1628
# 2 22.4762 55.1071 25.1001 -12.8545 -3.1504 9.7495
# 3 22.7075 25.1001 110.2876 -27.8310 -16.5966 11.4917
# 4 -14.3142 -12.8545 -27.8310 30.4669 1.0011 -13.9151
# 5 -5.0062 -3.1504 -16.5966 1.0011 24.1608 1.6912
# 6 -3.1628 9.7495 11.4917 -13.9151 1.6912 26.8700
#
#
#
# Elastic Compliance Matrix: (Units=1/GPa)
#
#
# Indices 1 2 3 4 5 6 
#
# 1 0.011092 -0.003977 -0.000390 0.005836 0.000858 0.005884
# 2 -0.003977 0.022815 -0.003168 0.001921 0.000344 -0.006418
# 3 -0.000390 -0.003168 0.013918 0.011068 0.008584 0.000343
# 4 0.005836 0.001921 0.011068 0.057651 0.004938 0.024801
# 5 0.000858 0.000344 0.008584 0.004938 0.047593 -0.004133
# 6 0.005884 -0.006418 0.000343 0.024801 -0.004133 0.053195
#
#
# Mechanical properties :
#
#
# Convention : Reuss Voigt Hill
#
# Bulk Modulus (GPa) = 30.53042 46.06357 38.29700
# Shear Modulus (GPa) = 21.52849 29.88095 25.70472
#
# Velocity S-wave (km/s) = 3.13239 3.69034 3.42276
# Velocity P-wave (km/s) = 5.19588 6.25718 5.75106
#
# Compressibility (1/GPa) = 0.03275421
#
# Stress axis : x y z
#
# Youngs Moduli (GPa) = 90.15658 43.83119 71.85170
#
# Poissons Ratio (x) = 0.17431 0.02800
# Poissons Ratio (y) = 0.35854 0.22765
# Poissons Ratio (z) = 0.03514 0.13887
#
# Static dielectric constant tensor:
#      x y z
#    x 1.864100 0.024320 -0.037280 
#    y 0.024320 1.890810 0.019710 
#    z -0.037280 0.019710 1.762800 
# 
# From -- ./inp_files/274627.got.cif
#   From: 2010.05.17/outbox.cif.g08.bks.cpg/sg2_138_cif.got.tgz:274627.got - 2010.06.03 11:33:40.
