data_PCOD9085324
_publ_section_title
;
Structure prediction by ZEFSAII (Michael W. Deem and Ramdas Pophale) SiO2 
 PCOD9085324
Probable space group: P -1
;
_chemical_formula_sum "Si O2"
_cell_formula_units_Z 14
_cell_length_a 8.818763
_cell_length_b 25.557113
_cell_length_c 14.454999
_cell_angle_alpha 162.133107
_cell_angle_beta 132.919722
_cell_angle_gamma 38.175754
_cell_volume 577.661787
_symmetry_space_group_name_H-M "P -1"
_symmetry_group_IT_number 2
_symmetry_cell_setting 'triclinic'
loop_
_space_group_symop_operation_xyz
x,y,z
-x,-y,-z
loop_
_atom_site_type_symbol
_atom_site_label
_atom_site_fract_x
_atom_site_fract_y
_atom_site_fract_z
Si Si1 0.725246 0.902249 0.717627
Si Si2 0.046754 0.818311 0.284797
Si Si3 0.741747 0.291819 0.430438
Si Si4 0.980620 0.997555 0.764662
Si Si5 0.516413 0.921517 0.271030
Si Si6 0.734094 0.464506 0.251610
Si Si7 0.249770 0.157262 0.068071
O O1 0.627001 0.900328 0.571175
O O2 0.702446 0.123439 0.086118
O O3 0.509145 0.947986 0.776880
O O4 0.036019 0.714639 0.542198
O O5 0.817973 0.788951 0.144438
O O6 0.045173 0.893299 0.513611
O O7 0.000000 0.000000 0.500000
O O8 0.288905 0.604345 0.974901
O O9 0.465515 0.509843 0.712020
O O10 0.877847 0.185855 0.407679
O O11 0.672091 0.147491 0.913174
O O12 0.113847 0.113314 0.015237
O O13 0.500000 0.000000 0.500000
O O14 0.684311 0.690272 0.610249
O O15 0.026476 0.292056 0.123435
#
# Coordination Sequence:
#
# PCOD9085324 Si02
#       7
#     2   2   2   2   2   2   2
#     4   9  16  34  55  74 107 154 178 208 280 339
#     4  11  19  35  59  81 108 152 188 221 278 335
#     4   9  20  33  56  80 115 143 179 231 280 321
#     4  10  20  35  57  83 108 151 185 221 276 341
#     4   9  18  31  54  81 106 139 190 226 257 327
#     4  10  20  33  56  86 111 141 185 239 268 315
#     4  10  19  35  60  81 111 146 191 222 269 332
#
# _framework density 24.235636
#
# number of rings (size 3 to 8) (size 9 to 14) (size 15 to 20)
#    0.000    2.286    2.857    0.000    0.000    2.857 
#    0.000    0.714    3.143    7.714    0.000    0.000 
#    0.000    0.000    0.000    0.000    0.000    0.000 
#
# Total GULP energy -78040.455656 kJ/mol
# GULP energy per Si atom -5574.318261 kJ/mol
# Density = 2.418047 g / cm^3
# Si number density = 24.235636 Si / 1000 Ang^3
#
#
#
# Elastic Constant Matrix: (Units=GPa)
#
#
# Indices 1 2 3 4 5 6 
#
# 1 161.5652 31.8214 40.1748 7.8967 -19.8603 -22.1872
# 2 31.8214 67.0504 11.9835 -14.3405 -12.1047 4.8457
# 3 40.1748 11.9835 51.2577 -12.4740 -27.4738 2.2451
# 4 7.8967 -14.3405 -12.4740 15.0028 5.4832 -12.8128
# 5 -19.8603 -12.1047 -27.4738 5.4832 41.4150 -0.2020
# 6 -22.1872 4.8457 2.2451 -12.8128 -0.2020 49.8837
#
#
#
# Elastic Compliance Matrix: (Units=1/GPa)
#
#
# Indices 1 2 3 4 5 6 
#
# 1 0.013846 -0.010787 -0.018375 -0.031206 -0.004571 -0.000001
# 2 -0.010787 0.028365 0.018002 0.047981 0.008727 0.003996
# 3 -0.018375 0.018002 0.062537 0.074045 0.028164 0.006397
# 4 -0.031206 0.047981 0.074045 0.210626 0.020451 0.032310
# 5 -0.004571 0.008727 0.028164 0.020451 0.040487 0.001269
# 6 -0.000001 0.003996 0.006397 0.032310 0.001269 0.027674
#
#
# Mechanical properties :
#
#
# Convention : Reuss Voigt Hill
#
# Bulk Modulus (GPa) = 12.13148 49.75919 30.94534
# Shear Modulus (GPa) = 11.53854 34.31988 22.92921
#
# Velocity S-wave (km/s) = 2.18433 3.76718 3.07920
# Velocity P-wave (km/s) = 3.37317 6.28476 5.04363
#
# Compressibility (1/GPa) = 0.08243015
#
# Stress axis : x y z
#
# Youngs Moduli (GPa) = 72.22142 35.25504 15.99047
#
# Poissons Ratio (x) = 0.38028 0.29382
# Poissons Ratio (y) = 0.77903 -0.28786
# Poissons Ratio (z) = 1.32705 -0.63467
#
# Static dielectric constant tensor:
#      x y z
#    x 1.990360 -0.027270 -0.021020 
#    y -0.027270 1.997640 0.013410 
#    z -0.021020 0.013410 1.965920 
# 
# From -- ./inp_files/169864.got.cif
#   From: 2010.05.17/outbox.cif.g08.bks.cpg/sg2_85_cif.got.tgz:169864.got - 2010.06.03 11:33:40.
