data_PCOD9085819
_publ_section_title
;
Structure prediction by ZEFSAII (Michael W. Deem and Ramdas Pophale) SiO2 
 PCOD9085819
Probable space group: P -1
;
_chemical_formula_sum "Si O2"
_cell_formula_units_Z 12
_cell_length_a 14.094226
_cell_length_b 7.403568
_cell_length_c 5.612645
_cell_angle_alpha 59.925393
_cell_angle_beta 69.799612
_cell_angle_gamma 69.252320
_cell_volume 463.654260
_symmetry_space_group_name_H-M "P -1"
_symmetry_group_IT_number 2
_symmetry_cell_setting 'triclinic'
loop_
_space_group_symop_operation_xyz
x,y,z
-x,-y,-z
loop_
_atom_site_type_symbol
_atom_site_label
_atom_site_fract_x
_atom_site_fract_y
_atom_site_fract_z
Si Si1 0.913173 0.800024 0.993523
Si Si2 0.221694 0.997116 0.398652
Si Si3 0.430961 0.822872 0.158951
Si Si4 0.510028 0.742594 0.640798
Si Si5 0.253253 0.361747 0.475394
Si Si6 0.862955 0.259039 0.004550
O O1 0.886797 0.867977 0.699788
O O2 0.890229 0.029174 0.998933
O O3 0.829441 0.667631 0.234543
O O4 0.029524 0.688469 0.035714
O O5 0.309853 0.932799 0.165866
O O6 0.263602 0.150468 0.441713
O O7 0.201054 0.788497 0.680741
O O8 0.444431 0.714806 0.480788
O O9 0.470447 0.696319 0.969041
O O10 0.500000 0.000000 0.000000
O O11 0.630388 0.638040 0.551558
O O12 0.500000 0.000000 0.500000
O O13 0.202112 0.563461 0.226088
#
# Coordination Sequence:
#
# PCOD9085819 Si02
#       6
#     2   2   2   2   2   2
#     4  10  22  42  64  86 129 166 204 267 327 381
#     4  11  22  38  66  88 124 169 208 264 321 379
#     4  10  19  35  63  91 124 169 214 256 323 383
#     4  10  19  36  62  93 126 167 215 260 318 387
#     4  11  22  38  66  91 123 166 214 261 318 386
#     4  10  24  41  59  96 124 160 215 266 320 383
#
# _framework density 25.881350999999999
#
# number of rings (size 3 to 8) (size 9 to 14) (size 15 to 20)
#    0.000    1.667    3.333    3.000    2.333    2.000 
#    0.000    1.667    0.000    0.000    0.000    0.000 
#    0.000    0.000    0.000    0.000    0.000    0.000 
#
# Total GULP energy -67243.502623 kJ/mol
# GULP energy per Si atom -5603.625219 kJ/mol
# Density = 2.582244 g / cm^3
# Si number density = 25.881351 Si / 1000 Ang^3
#
#
#
# Elastic Constant Matrix: (Units=GPa)
#
#
# Indices 1 2 3 4 5 6 
#
# 1 144.8392 23.1280 47.5685 -13.1278 8.6057 -34.7935
# 2 23.1280 95.7510 23.3189 -3.6631 -7.1947 -7.0443
# 3 47.5685 23.3189 134.6057 -5.0406 10.0467 -11.0607
# 4 -13.1278 -3.6631 -5.0406 34.5431 -0.2463 11.4543
# 5 8.6057 -7.1947 10.0467 -0.2463 46.9959 -0.7087
# 6 -34.7935 -7.0443 -11.0607 11.4543 -0.7087 50.0093
#
#
#
# Elastic Compliance Matrix: (Units=1/GPa)
#
#
# Indices 1 2 3 4 5 6 
#
# 1 0.009461 -0.001316 -0.002517 0.001243 -0.001306 0.005537
# 2 -0.001316 0.011372 -0.001643 0.000395 0.002339 0.000266
# 3 -0.002517 -0.001643 0.008724 0.000169 -0.001656 -0.000115
# 4 0.001243 0.000395 0.000169 0.031568 -0.000132 -0.006274
# 5 -0.001306 0.002339 -0.001656 -0.000132 0.022220 -0.000600
# 6 0.005537 0.000266 -0.000115 -0.006274 -0.000600 0.025289
#
#
# Mechanical properties :
#
#
# Convention : Reuss Voigt Hill
#
# Bulk Modulus (GPa) = 53.74504 62.58075 58.16290
# Shear Modulus (GPa) = 39.74966 45.05503 42.40235
#
# Velocity S-wave (km/s) = 3.92323 4.17685 4.05203
# Velocity P-wave (km/s) = 6.42910 6.89158 6.66435
#
# Compressibility (1/GPa) = 0.01860637
#
# Stress axis : x y z
#
# Youngs Moduli (GPa) = 105.69399 87.93429 114.63166
#
# Poissons Ratio (x) = 0.11569 0.28848
# Poissons Ratio (y) = 0.13905 0.18836
# Poissons Ratio (z) = 0.26599 0.14449
#
# Static dielectric constant tensor:
#      x y z
#    x 2.030360 0.024590 0.086370 
#    y 0.024590 2.045290 -0.005500 
#    z 0.086370 -0.005500 2.117720 
# 
# From -- ./inp_files/31034.got.cif
#   From: 2010.05.17/outbox.cif.g08.bks.cpg/sg2_16_cif.got.tgz:31034.got - 2010.06.03 11:33:40.
