data_PCOD9085321
_publ_section_title
;
Structure prediction by ZEFSAII (Michael W. Deem and Ramdas Pophale) SiO2 
 PCOD9085321
Probable space group: P -1
;
_chemical_formula_sum "Si O2"
_cell_formula_units_Z 16
_cell_length_a 20.901046
_cell_length_b 17.956892
_cell_length_c 7.433439
_cell_angle_alpha 130.990728
_cell_angle_beta 43.173189
_cell_angle_gamma 162.437927
_cell_volume 565.414788
_symmetry_space_group_name_H-M "P -1"
_symmetry_group_IT_number 2
_symmetry_cell_setting 'triclinic'
loop_
_space_group_symop_operation_xyz
x,y,z
-x,-y,-z
loop_
_atom_site_type_symbol
_atom_site_label
_atom_site_fract_x
_atom_site_fract_y
_atom_site_fract_z
Si Si1 0.605989 0.207535 0.049160
Si Si2 0.495005 0.697721 0.448097
Si Si3 0.060143 0.550879 0.741685
Si Si4 0.006367 0.737667 0.550098
Si Si5 0.713294 0.045881 0.027556
Si Si6 0.023858 0.862330 0.207485
Si Si7 0.861098 0.876142 0.322010
Si Si8 0.672348 0.580097 0.958439
O O1 0.567239 0.245782 0.354216
O O2 0.495332 0.151715 0.009959
O O3 0.874140 0.437194 0.834625
O O4 0.500000 0.000000 0.000000
O O5 0.249587 0.428869 0.631255
O O6 0.504894 0.622780 0.156510
O O7 0.763206 0.973885 0.408795
O O8 0.029095 0.406784 0.529576
O O9 0.284493 0.840044 0.728519
O O10 0.000000 0.500000 0.000000
O O11 0.071144 0.779483 0.274072
O O12 0.763735 0.560976 0.804984
O O13 0.792047 0.050861 0.038370
O O14 0.959885 0.869426 0.183636
O O15 0.174570 0.082130 0.377864
O O16 0.642700 0.634466 0.256777
O O17 0.083569 0.143433 0.192534
#
# Coordination Sequence:
#
# PCOD9085321 Si02
#       8
#     2   2   2   2   2   2   2   2
#     4  11  17  25  46  83 113 131 174 210 260 298
#     4  10  18  29  53  78 106 135 165 218 257 309
#     4  10  16  26  45  79 112 136 163 212 260 301
#     4  10  18  28  52  80 111 130 170 211 264 310
#     4  10  18  27  49  76 113 136 165 217 257 309
#     4  10  18  36  55  76 104 139 174 216 269 308
#     4   9  20  35  60  73  97 141 180 219 265 312
#     4  10  19  37  55  75 104 135 173 225 263 306
#
# _framework density 28.297809000000001
#
# number of rings (size 3 to 8) (size 9 to 14) (size 15 to 20)
#    0.000    2.000    7.500    0.750    0.000    0.000 
#    0.000    6.250    8.250    0.750    0.000    2.625 
#    0.000    0.000    0.000    0.000    0.000    0.000 
#
# Total GULP energy -89188.319201 kJ/mol
# GULP energy per Si atom -5574.269950 kJ/mol
# Density = 2.823340 g / cm^3
# Si number density = 28.297809 Si / 1000 Ang^3
#
#
#
# Elastic Constant Matrix: (Units=GPa)
#
#
# Indices 1 2 3 4 5 6 
#
# 1 131.4244 35.1575 24.4898 8.5016 -30.3581 3.6435
# 2 35.1575 122.0011 70.3753 49.7981 0.9491 17.3606
# 3 24.4898 70.3753 87.4564 19.7589 -17.0470 -8.4741
# 4 8.5016 49.7981 19.7589 49.3772 5.7651 -3.8677
# 5 -30.3581 0.9491 -17.0470 5.7651 27.3240 0.0901
# 6 3.6435 17.3606 -8.4741 -3.8677 0.0901 47.6568
#
#
#
# Elastic Compliance Matrix: (Units=1/GPa)
#
#
# Indices 1 2 3 4 5 6 
#
# 1 0.013155 -0.011210 0.008857 0.003574 0.019760 0.004906
# 2 -0.011210 0.053486 -0.041461 -0.033820 -0.032950 -0.028682
# 3 0.008857 -0.041461 0.047624 0.018827 0.036940 0.024353
# 4 0.003574 -0.033820 0.018827 0.046905 0.006932 0.019188
# 5 0.019760 -0.032950 0.036940 0.006932 0.081223 0.017470
# 6 0.004906 -0.028682 0.024353 0.019188 0.017470 0.036911
#
#
# Mechanical properties :
#
#
# Convention : Reuss Voigt Hill
#
# Bulk Modulus (GPa) = 37.54460 66.76969 52.15715
# Shear Modulus (GPa) = 13.30452 38.92890 26.11671
#
# Velocity S-wave (km/s) = 2.17067 3.71305 3.04126
# Velocity P-wave (km/s) = 4.42480 6.48297 5.55013
#
# Compressibility (1/GPa) = 0.02663499
#
# Stress axis : x y z
#
# Youngs Moduli (GPa) = 76.01816 18.69643 20.99782
#
# Poissons Ratio (x) = 0.20960 -0.18597
# Poissons Ratio (y) = 0.85220 0.87060
# Poissons Ratio (z) = -0.67328 0.77518
#
# Static dielectric constant tensor:
#      x y z
#    x 2.359180 -0.045370 0.143130 
#    y -0.045370 2.318420 -0.007160 
#    z 0.143130 -0.007160 2.293710 
# 
# From -- ./inp_files/348894.got.cif
#   From: 2010.05.17/outbox.cif.g08.bks.cpg/sg2_175_cif.got.tgz:348894.got - 2010.06.03 11:33:40.
