data_PCOD9085413
_publ_section_title
;
Structure prediction by ZEFSAII (Michael W. Deem and Ramdas Pophale) SiO2 
 PCOD9085413
Probable space group: P -1
;
_chemical_formula_sum "Si O2"
_cell_formula_units_Z 16
_cell_length_a 20.069784
_cell_length_b 8.593436
_cell_length_c 25.216560
_cell_angle_alpha 148.535957
_cell_angle_beta 20.558826
_cell_angle_gamma 137.555122
_cell_volume 752.165032
_symmetry_space_group_name_H-M "P -1"
_symmetry_group_IT_number 2
_symmetry_cell_setting 'triclinic'
loop_
_space_group_symop_operation_xyz
x,y,z
-x,-y,-z
loop_
_atom_site_type_symbol
_atom_site_label
_atom_site_fract_x
_atom_site_fract_y
_atom_site_fract_z
Si Si1 0.664831 0.222859 0.464434
Si Si2 0.504218 0.125518 0.807674
Si Si3 0.915160 0.801180 0.241915
Si Si4 0.835230 0.719775 0.805540
Si Si5 0.791583 0.797837 0.581629
Si Si6 0.521324 0.825104 0.599193
Si Si7 0.726630 0.829327 0.210673
Si Si8 0.502850 0.801685 0.992487
O O1 0.720038 0.506841 0.531530
O O2 0.433919 0.279716 0.667305
O O3 0.721722 0.143816 0.337905
O O4 0.795714 0.909393 0.307492
O O5 0.717012 0.018484 0.649672
O O6 0.488864 0.893844 0.705277
O O7 0.334141 0.151004 0.985617
O O8 0.467587 0.471990 0.912023
O O9 0.741535 0.838452 0.425066
O O10 0.040617 0.039970 0.225597
O O11 0.062819 0.444838 0.026759
O O12 0.982429 0.381534 0.619048
O O13 0.713952 0.716151 0.841458
O O14 0.664564 0.989219 0.781088
O O15 0.500000 0.500000 0.500000
O O16 0.362558 0.087256 0.757218
O O17 0.500000 0.000000 0.000000
#
# Coordination Sequence:
#
# PCOD9085413 Si02
#       8
#     2   2   2   2   2   2   2   2
#     4   9  19  34  61  93 123 167 212 272 315 381
#     4  11  25  43  66  96 135 175 217 270 332 385
#     4  10  22  38  66  95 129 168 231 262 319 391
#     4  10  23  44  71  98 127 176 221 270 324 396
#     4  10  21  42  65  92 131 165 223 261 326 389
#     4  11  26  42  61  96 138 174 215 269 329 383
#     4  10  19  35  60  88 130 170 215 265 321 370
#     4  11  26  42  69  98 136 169 214 274 337 389
#
# _framework density 21.271927999999999
#
# number of rings (size 3 to 8) (size 9 to 14) (size 15 to 20)
#    0.000    1.750    0.000    4.125    7.000    8.000 
#    0.000    0.000    0.000    0.000    0.000    0.000 
#    0.000    0.000    0.000    0.000    0.000    0.000 
#
# Total GULP energy -89386.886437 kJ/mol
# GULP energy per Si atom -5586.680402 kJ/mol
# Density = 2.122351 g / cm^3
# Si number density = 21.271928 Si / 1000 Ang^3
#
#
#
# Elastic Constant Matrix: (Units=GPa)
#
#
# Indices 1 2 3 4 5 6 
#
# 1 118.9347 20.8007 46.0386 11.7342 0.8461 -3.2896
# 2 20.8007 87.6492 14.3323 9.3700 0.1525 1.7744
# 3 46.0386 14.3323 100.6357 22.0015 -20.7188 -3.0185
# 4 11.7342 9.3700 22.0015 29.9805 4.6920 -5.4827
# 5 0.8461 0.1525 -20.7188 4.6920 24.0158 2.8087
# 6 -3.2896 1.7744 -3.0185 -5.4827 2.8087 32.5743
#
#
#
# Elastic Compliance Matrix: (Units=1/GPa)
#
#
# Indices 1 2 3 4 5 6 
#
# 1 0.011207 -0.001842 -0.006809 0.002573 -0.006951 0.001634
# 2 -0.001842 0.012252 -0.000005 -0.003515 0.000847 -0.001519
# 3 -0.006809 -0.000005 0.021288 -0.017099 0.022358 -0.003521
# 4 0.002573 -0.003515 -0.017099 0.051882 -0.026108 0.009851
# 5 -0.006951 0.000847 0.022358 -0.026108 0.067306 -0.008874
# 6 0.001634 -0.001519 -0.003521 0.009851 -0.008874 0.033044
#
#
# Mechanical properties :
#
#
# Convention : Reuss Voigt Hill
#
# Bulk Modulus (GPa) = 36.44985 52.17365 44.31175
# Shear Modulus (GPa) = 22.37775 32.38400 27.38088
#
# Velocity S-wave (km/s) = 3.24695 3.90600 3.59163
# Velocity P-wave (km/s) = 5.58832 6.70244 6.17058
#
# Compressibility (1/GPa) = 0.02743495
#
# Stress axis : x y z
#
# Youngs Moduli (GPa) = 89.23264 81.61856 46.97422
#
# Poissons Ratio (x) = 0.15036 0.31985
# Poissons Ratio (y) = 0.16438 0.00022
# Poissons Ratio (z) = 0.60759 0.00039
#
# Static dielectric constant tensor:
#      x y z
#    x 1.773040 0.003780 -0.022760 
#    y 0.003780 1.807870 0.032260 
#    z -0.022760 0.032260 1.760510 
# 
# From -- ./inp_files/620664.got.cif
#   From: 2010.05.17/outbox.cif.g08.bks.cpg/sg2_311_cif.got.tgz:620664.got - 2010.06.03 11:33:40.
