data_PCOD9085627
_publ_section_title
;
Structure prediction by ZEFSAII (Michael W. Deem and Ramdas Pophale) SiO2 
 PCOD9085627
Probable space group: P -1
;
_chemical_formula_sum "Si O2"
_cell_formula_units_Z 16
_cell_length_a 11.624434
_cell_length_b 20.263959
_cell_length_c 8.038184
_cell_angle_alpha 125.934815
_cell_angle_beta 45.267291
_cell_angle_gamma 147.866254
_cell_volume 715.248611
_symmetry_space_group_name_H-M "P -1"
_symmetry_group_IT_number 2
_symmetry_cell_setting 'triclinic'
loop_
_space_group_symop_operation_xyz
x,y,z
-x,-y,-z
loop_
_atom_site_type_symbol
_atom_site_label
_atom_site_fract_x
_atom_site_fract_y
_atom_site_fract_z
Si Si1 0.045657 0.421284 0.328495
Si Si2 0.169922 0.334544 0.832207
Si Si3 0.857406 0.360135 0.926195
Si Si4 0.701045 0.554878 0.574906
Si Si5 0.227371 0.262257 0.015686
Si Si6 0.673727 0.996381 0.244663
Si Si7 0.363106 0.871129 0.041661
Si Si8 0.444578 0.763830 0.288844
O O1 0.775242 0.282468 0.443638
O O2 0.000000 0.500000 0.500000
O O3 0.226225 0.466924 0.362827
O O4 0.141011 0.416103 0.055772
O O5 0.427706 0.425103 0.608000
O O6 0.921851 0.209453 0.812369
O O7 0.205501 0.298744 0.915441
O O8 0.704168 0.255576 0.074789
O O9 0.682927 0.303186 0.857897
O O10 0.078504 0.382558 0.681067
O O11 0.000000 0.500000 0.000000
O O12 0.706150 0.648758 0.775183
O O13 0.428050 0.267228 0.813713
O O14 0.955139 0.126669 0.131810
O O15 0.537457 0.930968 0.112634
O O16 0.646481 0.908546 0.261543
O O17 0.500000 0.000000 0.500000
O O18 0.500000 0.000000 0.000000
#
# Coordination Sequence:
#
# PCOD9085627 Si02
#       8
#     2   2   2   2   2   2   2   2
#     4  10  19  35  61  94 127 165 213 269 333 392
#     4  11  22  38  65  96 134 165 215 279 329 403
#     4  10  24  44  64  94 133 175 222 278 329 398
#     4  10  22  38  62  97 123 170 220 271 333 390
#     4  11  20  39  64  96 130 164 222 278 326 399
#     4  11  22  43  66  91 128 177 228 268 328 405
#     4  11  24  43  68  95 131 179 219 267 343 391
#     4  10  22  37  63  93 125 172 222 271 331 392
#
# _framework density 22.369844000000001
#
# number of rings (size 3 to 8) (size 9 to 14) (size 15 to 20)
#    0.000    1.500    1.250    6.375    5.250    0.500 
#    2.250    0.000    0.000    2.250    0.000    0.000 
#    0.000    0.000    0.000    0.000    0.000    0.000 
#
# Total GULP energy -89150.373079 kJ/mol
# GULP energy per Si atom -5571.898317 kJ/mol
# Density = 2.231893 g / cm^3
# Si number density = 22.369844 Si / 1000 Ang^3
#
#
#
# Elastic Constant Matrix: (Units=GPa)
#
#
# Indices 1 2 3 4 5 6 
#
# 1 68.0423 37.2156 8.5107 -8.8044 -19.8470 -3.2137
# 2 37.2156 161.0246 28.3111 -28.4308 -6.2522 -5.4770
# 3 8.5107 28.3111 44.8482 -17.3766 -16.0652 -3.2157
# 4 -8.8044 -28.4308 -17.3766 31.8414 -1.6241 -14.9787
# 5 -19.8470 -6.2522 -16.0652 -1.6241 34.7919 -9.5877
# 6 -3.2137 -5.4770 -3.2157 -14.9787 -9.5877 50.8911
#
#
#
# Elastic Compliance Matrix: (Units=1/GPa)
#
#
# Indices 1 2 3 4 5 6 
#
# 1 0.024974 -0.003692 0.014276 0.018315 0.024353 0.012061
# 2 -0.003692 0.008680 -0.002310 0.006544 -0.000658 0.002357
# 3 0.014276 -0.002310 0.057064 0.047728 0.043616 0.026524
# 4 0.018315 0.006544 0.047728 0.089957 0.049048 0.040594
# 5 0.024353 -0.000658 0.043616 0.049048 0.073926 0.032587
# 6 0.012061 0.002357 0.026524 0.040594 0.032587 0.040428
#
#
# Mechanical properties :
#
#
# Convention : Reuss Voigt Hill
#
# Bulk Modulus (GPa) = 9.32259 46.88778 28.10519
# Shear Modulus (GPa) = 15.91161 36.83006 26.37084
#
# Velocity S-wave (km/s) = 2.66991 4.06201 3.43717
# Velocity P-wave (km/s) = 3.69879 6.55787 5.32385
#
# Compressibility (1/GPa) = 0.10726630
#
# Stress axis : x y z
#
# Youngs Moduli (GPa) = 40.04211 115.21140 17.52408
#
# Poissons Ratio (x) = 0.42540 -0.25018
# Poissons Ratio (y) = 0.14785 0.04048
# Poissons Ratio (z) = -0.57166 0.26612
#
# Static dielectric constant tensor:
#      x y z
#    x 1.948930 -0.103330 -0.038400 
#    y -0.103330 1.937220 0.057390 
#    z -0.038400 0.057390 1.875260 
# 
# From -- ./inp_files/279289.got.cif
#   From: 2010.05.17/outbox.cif.g08.bks.cpg/sg2_140_cif.got.tgz:279289.got - 2010.06.03 11:33:40.
