data_PCOD9085842
_publ_section_title
;
Structure prediction by ZEFSAII (Michael W. Deem and Ramdas Pophale) SiO2 
 PCOD9085842
Probable space group: P -1
;
_chemical_formula_sum "Si O2"
_cell_formula_units_Z 16
_cell_length_a 10.736194
_cell_length_b 11.992672
_cell_length_c 9.435668
_cell_angle_alpha 126.887564
_cell_angle_beta 43.610441
_cell_angle_gamma 122.932446
_cell_volume 657.002722
_symmetry_space_group_name_H-M "P -1"
_symmetry_group_IT_number 2
_symmetry_cell_setting 'triclinic'
loop_
_space_group_symop_operation_xyz
x,y,z
-x,-y,-z
loop_
_atom_site_type_symbol
_atom_site_label
_atom_site_fract_x
_atom_site_fract_y
_atom_site_fract_z
Si Si1 0.628050 0.122120 0.397552
Si Si2 0.045605 0.964671 0.595791
Si Si3 0.587060 0.357887 0.838394
Si Si4 0.821637 0.271934 0.788752
Si Si5 0.831839 0.575274 0.246935
Si Si6 0.300998 0.711746 0.783429
Si Si7 0.107281 0.255416 0.929753
Si Si8 0.235923 0.140298 0.016364
O O1 0.645110 0.270331 0.587161
O O2 0.567390 0.175153 0.334852
O O3 0.500000 0.000000 0.500000
O O4 0.773879 0.020909 0.157968
O O5 0.202703 0.872837 0.388565
O O6 0.878017 0.879860 0.761971
O O7 0.107355 0.107868 0.739466
O O8 0.000000 0.000000 0.500000
O O9 0.760048 0.386696 0.824883
O O10 0.500000 0.500000 0.000000
O O11 0.438522 0.234481 0.944547
O O12 0.041398 0.308658 0.670832
O O13 0.714916 0.250398 0.009336
O O14 0.687581 0.454027 0.350650
O O15 0.769336 0.636469 0.199774
O O16 0.000000 0.500000 0.000000
O O17 0.099343 0.714996 0.884822
O O18 0.165088 0.235354 0.026108
#
# Coordination Sequence:
#
# PCOD9085842 Si02
#       8
#     2   2   2   2   2   2   2   2
#     4  10  22  45  63  89 128 176 213 255 311 392
#     4  12  20  38  66 104 127 156 214 278 322 372
#     4  11  27  44  62  90 136 172 213 263 320 386
#     4  10  21  40  64  96 132 163 207 270 326 367
#     4   8  18  34  61  90 121 160 207 256 313 373
#     4  10  20  38  69  90 125 165 216 257 317 381
#     4  10  19  35  63  94 123 160 207 259 314 381
#     4  11  24  40  66  96 130 172 212 255 328 390
#
# _framework density 24.353019
#
# number of rings (size 3 to 8) (size 9 to 14) (size 15 to 20)
#    0.000    2.000    3.750    1.125    7.000    1.000 
#    0.000   10.000    0.000    0.000    0.000    0.000 
#    0.000    0.000    0.000    0.000    0.000    0.000 
#
# Total GULP energy -89138.008312 kJ/mol
# GULP energy per Si atom -5571.125520 kJ/mol
# Density = 2.429759 g / cm^3
# Si number density = 24.353019 Si / 1000 Ang^3
#
#
#
# Elastic Constant Matrix: (Units=GPa)
#
#
# Indices 1 2 3 4 5 6 
#
# 1 51.9082 22.9837 53.6992 -0.1676 -5.6174 -24.7060
# 2 22.9837 161.2849 54.5320 -9.8230 3.2069 -28.2436
# 3 53.6992 54.5320 119.9115 1.3840 29.6009 -19.7322
# 4 -0.1676 -9.8230 1.3840 45.4913 -5.8204 6.3464
# 5 -5.6174 3.2069 29.6009 -5.8204 22.4894 4.3951
# 6 -24.7060 -28.2436 -19.7322 6.3464 4.3951 40.9152
#
#
#
# Elastic Compliance Matrix: (Units=1/GPa)
#
#
# Indices 1 2 3 4 5 6 
#
# 1 -19.205620 -2.813392 15.946133 -4.151687-25.987398 -2.413187
# 2 -2.813392 -0.403900 2.331395 -0.606010 -3.802021 -0.350856
# 3 15.946133 2.331395-13.220738 3.440508 21.548774 2.013763
# 4 -4.151687 -0.606010 3.440508 -0.871676 -5.601230 -0.529109
# 5 -25.987398 -3.802021 21.548774 -5.601230-35.074423 -3.287743
# 6 -2.413187 -0.350856 2.013763 -0.529109 -3.287743 -0.268499
#
#
# Mechanical properties :
#
#
# Convention : Reuss Voigt Hill
#
# Bulk Modulus (GPa) = -0.52577 66.17049 32.82236
# Shear Modulus (GPa) = -0.04970 35.23851 17.59440
#
# Velocity S-wave (km/s) = -0.14301 3.80806 2.69080
# Velocity P-wave (km/s) = 0.49359 6.82388 4.81258
#
# Compressibility (1/GPa) = -1.90198736
#
# Stress axis : x y z
#
# Youngs Moduli (GPa) = -0.05207 -2.47586 -0.07564
#
# Poissons Ratio (x) = -6.96557 1.20615
# Poissons Ratio (y) = -0.14649 0.17634
# Poissons Ratio (z) = 0.83028 5.77221
#
# Static dielectric constant tensor:
#      x y z
#    x 2.274640 0.171410 -0.017510 
#    y 0.171410 2.147560 0.058570 
#    z -0.017510 0.058570 2.044340 
# 
# From -- ./inp_files/262942.got.cif
#   From: 2010.05.17/outbox.cif.g08.bks.cpg/sg2_132_cif.got.tgz:262942.got - 2010.06.03 11:33:40.
