data_PCOD9085889
_publ_section_title
;
Structure prediction by ZEFSAII (Michael W. Deem and Ramdas Pophale) SiO2 
 PCOD9085889
Probable space group: P -1
;
_chemical_formula_sum "Si O2"
_cell_formula_units_Z 16
_cell_length_a 9.888060
_cell_length_b 8.945148
_cell_length_c 12.110338
_cell_angle_alpha 64.119751
_cell_angle_beta 117.969965
_cell_angle_gamma 133.802980
_cell_volume 672.187650
_symmetry_space_group_name_H-M "P -1"
_symmetry_group_IT_number 2
_symmetry_cell_setting 'triclinic'
loop_
_space_group_symop_operation_xyz
x,y,z
-x,-y,-z
loop_
_atom_site_type_symbol
_atom_site_label
_atom_site_fract_x
_atom_site_fract_y
_atom_site_fract_z
Si Si1 0.713220 0.698730 0.151425
Si Si2 0.378417 0.756046 0.274218
Si Si3 0.084281 0.770481 0.279291
Si Si4 0.672224 0.731975 0.776248
Si Si5 0.180849 0.501616 0.058011
Si Si6 0.918875 0.771808 0.422488
Si Si7 0.300117 0.234282 0.476237
Si Si8 0.501983 0.129872 0.061447
O O1 0.521228 0.455381 0.171913
O O2 0.793254 0.791654 0.276511
O O3 0.658080 0.832553 0.026946
O O4 0.894237 0.719598 0.163642
O O5 0.310511 0.625506 0.176754
O O6 0.535479 0.754809 0.399588
O O7 0.188546 0.684568 0.292908
O O8 0.476888 0.996706 0.198962
O O9 0.239688 0.025820 0.258238
O O10 0.000798 0.685528 0.398950
O O11 0.838322 0.708901 0.879430
O O12 0.628254 0.679095 0.646626
O O13 0.298789 0.640923 0.952173
O O14 0.000000 0.500000 0.000000
O O15 0.784013 0.672325 0.510346
O O16 0.112538 0.993861 0.462847
O O17 0.500000 0.000000 0.000000
#
# Coordination Sequence:
#
# PCOD9085889 Si02
#       8
#     2   2   2   2   2   2   2   2
#     4   9  19  39  57  85 123 155 206 246 307 358
#     4  11  23  39  61  92 121 163 202 251 311 355
#     4   9  22  40  61  89 124 168 198 245 316 360
#     4  10  21  39  65  89 121 167 202 251 302 358
#     4  10  23  40  61  92 122 153 207 260 300 361
#     4   8  18  34  57  87 116 161 196 245 292 358
#     4  10  19  35  64  89 122 161 214 240 297 374
#     4   9  19  35  60  83 115 157 195 253 299 353
#
# _framework density 23.802878
#
# number of rings (size 3 to 8) (size 9 to 14) (size 15 to 20)
#    0.750    1.750    0.000    2.250    3.500    6.500 
#    2.250    1.875    0.000    0.000    0.000    0.000 
#    0.000    0.000    0.000    0.000    0.000    0.000 
#
# Total GULP energy -89267.225507 kJ/mol
# GULP energy per Si atom -5579.201594 kJ/mol
# Density = 2.374870 g / cm^3
# Si number density = 23.802878 Si / 1000 Ang^3
#
#
#
# Elastic Constant Matrix: (Units=GPa)
#
#
# Indices 1 2 3 4 5 6 
#
# 1 127.5381 25.3356 39.9516 -10.8183 1.5850 13.1089
# 2 25.3356 83.6848 55.8393 9.4136 18.2111 2.2085
# 3 39.9516 55.8393 100.8213 -3.7906 13.1480 6.7063
# 4 -10.8183 9.4136 -3.7906 29.4995 1.7762 6.3747
# 5 1.5850 18.2111 13.1480 1.7762 37.9595 8.9721
# 6 13.1089 2.2085 6.7063 6.3747 8.9721 26.6031
#
#
#
# Elastic Compliance Matrix: (Units=1/GPa)
#
#
# Indices 1 2 3 4 5 6 
#
# 1 0.010191 -0.002612 -0.002332 0.005504 0.002919 -0.006520
# 2 -0.002612 0.023514 -0.011833 -0.011167 -0.008400 0.007827
# 3 -0.002332 -0.011833 0.017853 0.006043 0.000228 -0.003894
# 4 0.005504 -0.011167 0.006043 0.043272 0.004610 -0.015232
# 5 0.002919 -0.008400 0.000228 0.004610 0.033041 -0.013046
# 6 -0.006520 0.007827 -0.003894 -0.015232 -0.013046 0.049184
#
#
# Mechanical properties :
#
#
# Convention : Reuss Voigt Hill
#
# Bulk Modulus (GPa) = 55.54230 61.58859 58.56544
# Shear Modulus (GPa) = 23.08314 31.54026 27.31170
#
# Velocity S-wave (km/s) = 3.11748 3.64409 3.39102
# Velocity P-wave (km/s) = 6.02853 6.60579 6.32375
#
# Compressibility (1/GPa) = 0.01800430
#
# Stress axis : x y z
#
# Youngs Moduli (GPa) = 98.12738 42.52851 56.01427
#
# Poissons Ratio (x) = 0.11107 0.13061
# Poissons Ratio (y) = 0.25627 0.66282
# Poissons Ratio (z) = 0.22881 0.50324
#
# Static dielectric constant tensor:
#      x y z
#    x 1.956700 -0.007460 -0.033430 
#    y -0.007460 1.930260 -0.014620 
#    z -0.033430 -0.014620 1.899690 
# 
# From -- ./inp_files/500083.got.cif
#   From: 2010.05.17/outbox.cif.g08.bks.cpg/sg2_251_cif.got.tgz:500083.got - 2010.06.03 11:33:40.
