data_PCOD9085722
_publ_section_title
;
Structure prediction by ZEFSAII (Michael W. Deem and Ramdas Pophale) SiO2 
 PCOD9085722
Probable space group: P -1
;
_chemical_formula_sum "Si O2"
_cell_formula_units_Z 16
_cell_length_a 7.997719
_cell_length_b 13.841407
_cell_length_c 10.033954
_cell_angle_alpha 68.185398
_cell_angle_beta 102.695103
_cell_angle_gamma 144.040519
_cell_volume 598.817637
_symmetry_space_group_name_H-M "P -1"
_symmetry_group_IT_number 2
_symmetry_cell_setting 'triclinic'
loop_
_space_group_symop_operation_xyz
x,y,z
-x,-y,-z
loop_
_atom_site_type_symbol
_atom_site_label
_atom_site_fract_x
_atom_site_fract_y
_atom_site_fract_z
Si Si1 0.525847 0.598749 0.187462
Si Si2 0.157841 0.925454 0.480592
Si Si3 0.540748 0.022766 0.735235
Si Si4 0.481739 0.595404 0.561648
Si Si5 0.496851 0.781375 0.261496
Si Si6 0.905415 0.878164 0.927169
Si Si7 0.558359 0.290004 0.276824
Si Si8 0.069833 0.644944 0.870982
O O1 0.571117 0.554671 0.353433
O O2 0.474403 0.694180 0.175245
O O3 0.217458 0.425547 0.153355
O O4 0.796285 0.725252 0.070254
O O5 0.317406 0.944641 0.617936
O O6 0.826081 0.768743 0.530212
O O7 0.213316 0.908743 0.348812
O O8 0.323566 0.114634 0.411774
O O9 0.345170 0.844209 0.873957
O O10 0.641812 0.174018 0.754543
O O11 0.393688 0.647738 0.423494
O O12 0.359238 0.570512 0.697349
O O13 0.833363 0.984857 0.202450
O O14 0.614868 0.767635 0.856900
O O15 0.000000 0.000000 0.000000
O O16 0.815412 0.337789 0.262686
O O17 0.000000 0.500000 0.000000
#
# Coordination Sequence:
#
# PCOD9085722 Si02
#       8
#     2   2   2   2   2   2   2   2
#     4  11  25  42  61  93 134 165 206 266 322 358
#     4  10  19  35  62  92 120 152 213 259 303 367
#     4  10  21  38  64  90 119 168 210 250 310 380
#     4  12  22  37  66 100 121 162 211 271 313 366
#     4  11  23  43  65  92 128 169 209 258 317 384
#     4  10  22  39  62  88 128 167 204 253 317 373
#     4  11  21  37  67  93 123 163 218 254 308 380
#     4  11  23  41  63  90 127 166 210 261 305 371
#
# _framework density 26.71932
#
# number of rings (size 3 to 8) (size 9 to 14) (size 15 to 20)
#    0.000    1.250    5.000    1.500    0.000    1.500 
#    0.000    4.375    0.000    0.000    0.000    0.000 
#    0.000    0.000    0.000    0.000    0.000    0.000 
#
# Total GULP energy -89261.803277 kJ/mol
# GULP energy per Si atom -5578.862705 kJ/mol
# Density = 2.665851 g / cm^3
# Si number density = 26.719320 Si / 1000 Ang^3
#
#
#
# Elastic Constant Matrix: (Units=GPa)
#
#
# Indices 1 2 3 4 5 6 
#
# 1 69.3522 35.2591 15.0673 -14.3285 -6.6794 -21.1959
# 2 35.2591 61.7471 30.9417 -23.1187 -8.2495 -4.1961
# 3 15.0673 30.9417 141.6556 -29.8030 22.4379 -0.6700
# 4 -14.3285 -23.1187 -29.8030 37.9760 -10.3930 5.4649
# 5 -6.6794 -8.2495 22.4379 -10.3930 34.8558 -3.6433
# 6 -21.1959 -4.1961 -0.6700 5.4649 -3.6433 44.0861
#
#
#
# Elastic Compliance Matrix: (Units=1/GPa)
#
#
# Indices 1 2 3 4 5 6 
#
# 1 0.024582 -0.012437 -0.000175 0.000911 0.003279 0.010790
# 2 -0.012437 0.032927 -0.004573 0.015779 0.012658 -0.003825
# 3 -0.000175 -0.004573 0.009793 0.003219 -0.006597 -0.001315
# 4 0.000911 0.015779 0.003219 0.043074 0.014455 -0.002156
# 5 0.003279 0.012658 -0.006597 0.014455 0.041321 0.004304
# 6 0.010790 -0.003825 -0.001315 -0.002156 0.004304 0.028110
#
#
# Mechanical properties :
#
#
# Convention : Reuss Voigt Hill
#
# Bulk Modulus (GPa) = 30.36451 48.36568 39.36510
# Shear Modulus (GPa) = 22.20705 36.14936 29.17821
#
# Velocity S-wave (km/s) = 2.88605 3.68221 3.30817
# Velocity P-wave (km/s) = 4.74285 6.01821 5.41819
#
# Compressibility (1/GPa) = 0.03293318
#
# Stress axis : x y z
#
# Youngs Moduli (GPa) = 40.68022 30.36993 102.11467
#
# Poissons Ratio (x) = 0.37770 0.01785
# Poissons Ratio (y) = 0.50593 0.46696
# Poissons Ratio (z) = 0.00711 0.13888
#
# Static dielectric constant tensor:
#      x y z
#    x 2.139550 -0.084820 -0.006430 
#    y -0.084820 2.166920 0.006570 
#    z -0.006430 0.006570 2.269290 
# 
# From -- ./inp_files/225527.got.cif
#   From: 2010.05.17/outbox.cif.g08.bks.cpg/sg2_113_cif.got.tgz:225527.got - 2010.06.03 11:33:40.
