data_PCOD9085749
_publ_section_title
;
Structure prediction by ZEFSAII (Michael W. Deem and Ramdas Pophale) SiO2 
 PCOD9085749
Probable space group: P -1
;
_chemical_formula_sum "Si O2"
_cell_formula_units_Z 16
_cell_length_a 15.451720
_cell_length_b 11.440776
_cell_length_c 8.723215
_cell_angle_alpha 104.685869
_cell_angle_beta 144.348997
_cell_angle_gamma 61.354969
_cell_volume 760.393655
_symmetry_space_group_name_H-M "P -1"
_symmetry_group_IT_number 2
_symmetry_cell_setting 'triclinic'
loop_
_space_group_symop_operation_xyz
x,y,z
-x,-y,-z
loop_
_atom_site_type_symbol
_atom_site_label
_atom_site_fract_x
_atom_site_fract_y
_atom_site_fract_z
Si Si1 0.479457 0.319302 0.067925
Si Si2 0.755241 0.884587 0.013904
Si Si3 0.570815 0.057151 0.262502
Si Si4 0.476072 0.458980 0.620701
Si Si5 0.552861 0.205636 0.811592
Si Si6 0.110686 0.533395 0.052649
Si Si7 0.797120 0.809721 0.699288
Si Si8 0.855028 0.633841 0.253451
O O1 0.600878 0.180977 0.291050
O O2 0.463014 0.459349 0.153317
O O3 0.537781 0.292248 0.969933
O O4 0.302668 0.318768 0.842917
O O5 0.574850 0.891019 0.798377
O O6 0.818360 0.838742 0.917208
O O7 0.698023 0.047551 0.992206
O O8 0.874092 0.766010 0.268448
O O9 0.735404 0.936534 0.536793
O O10 0.500000 0.000000 0.000000
O O11 0.500000 0.500000 0.500000
O O12 0.567384 0.294955 0.724910
O O13 0.274433 0.519545 0.369470
O O14 0.369013 0.212249 0.539754
O O15 0.175320 0.426172 0.969672
O O16 0.000000 0.500000 0.000000
O O17 0.972156 0.684947 0.849537
O O18 0.000000 0.500000 0.500000
#
# Coordination Sequence:
#
# PCOD9085749 Si02
#       8
#     2   2   2   2   2   2   2   2
#     4  11  23  40  62  95 129 170 213 260 326 388
#     4  10  21  35  59  99 124 165 215 267 315 372
#     4  10  19  35  62  96 129 160 212 267 315 376
#     4  12  26  43  64  91 133 171 216 264 325 388
#     4  11  21  39  65  89 130 170 214 264 316 383
#     4  12  23  42  63  95 126 168 217 264 319 382
#     4  11  21  36  66  94 126 161 220 271 309 370
#     4  11  23  37  65  99 131 158 215 276 323 370
#
# _framework density 21.041733000000001
#
# number of rings (size 3 to 8) (size 9 to 14) (size 15 to 20)
#    0.000    1.000    6.250    2.625    5.250    0.000 
#    0.000    0.625    0.000    1.500    0.000    0.000 
#    0.000    0.000    0.000    0.000    0.000    0.000 
#
# Total GULP energy -89250.192351 kJ/mol
# GULP energy per Si atom -5578.137022 kJ/mol
# Density = 2.099384 g / cm^3
# Si number density = 21.041733 Si / 1000 Ang^3
#
#
#
# Elastic Constant Matrix: (Units=GPa)
#
#
# Indices 1 2 3 4 5 6 
#
# 1 73.2799 24.2689 7.3851 -9.9566 -15.7653 7.6337
# 2 24.2689 110.4625 26.1455 -30.1771 -14.3662 11.9903
# 3 7.3851 26.1455 44.5719 -30.9071 -15.0509 16.8809
# 4 -9.9566 -30.1771 -30.9071 45.1606 6.2429 -12.8352
# 5 -15.7653 -14.3662 -15.0509 6.2429 24.3392 -7.9016
# 6 7.6337 11.9903 16.8809 -12.8352 -7.9016 44.7567
#
#
#
# Elastic Compliance Matrix: (Units=1/GPa)
#
#
# Indices 1 2 3 4 5 6 
#
# 1 0.017087 -0.002308 0.006032 0.004359 0.011922 -0.001216
# 2 -0.002308 0.011963 -0.001282 0.006168 0.003193 0.000005
# 3 0.006032 -0.001282 0.058440 0.034353 0.027896 -0.007951
# 4 0.004359 0.006168 0.034353 0.048991 0.015613 0.001453
# 5 0.011922 0.003193 0.027896 0.015613 0.064750 0.002498
# 6 -0.001216 0.000005 -0.007951 0.001453 0.002498 0.026406
#
#
# Mechanical properties :
#
#
# Convention : Reuss Voigt Hill
#
# Bulk Modulus (GPa) = 10.82551 38.21260 24.51906
# Shear Modulus (GPa) = 19.72048 34.21897 26.96972
#
# Velocity S-wave (km/s) = 3.06471 4.03704 3.58400
# Velocity P-wave (km/s) = 4.20466 6.31903 5.36700
#
# Compressibility (1/GPa) = 0.09237438
#
# Stress axis : x y z
#
# Youngs Moduli (GPa) = 58.52469 83.59061 17.11156
#
# Poissons Ratio (x) = 0.19295 -0.10322
# Poissons Ratio (y) = 0.13509 0.02193
# Poissons Ratio (z) = -0.35304 0.10714
#
# Static dielectric constant tensor:
#      x y z
#    x 1.793890 0.004600 0.001460 
#    y 0.004600 1.865200 -0.064330 
#    z 0.001460 -0.064330 1.862710 
# 
# From -- ./inp_files/305468.got.cif
#   From: 2010.05.17/outbox.cif.g08.bks.cpg/sg2_153_cif.got.tgz:305468.got - 2010.06.03 11:33:40.
