data_PCOD9085766
_publ_section_title
;
Structure prediction by ZEFSAII (Michael W. Deem and Ramdas Pophale) SiO2 
 PCOD9085766
Probable space group: P -1
;
_chemical_formula_sum "Si O2"
_cell_formula_units_Z 14
_cell_length_a 16.080901
_cell_length_b 7.557523
_cell_length_c 10.185663
_cell_angle_alpha 118.187728
_cell_angle_beta 86.451656
_cell_angle_gamma 139.651489
_cell_volume 602.350048
_symmetry_space_group_name_H-M "P -1"
_symmetry_group_IT_number 2
_symmetry_cell_setting 'triclinic'
loop_
_space_group_symop_operation_xyz
x,y,z
-x,-y,-z
loop_
_atom_site_type_symbol
_atom_site_label
_atom_site_fract_x
_atom_site_fract_y
_atom_site_fract_z
Si Si1 0.341265 0.204645 0.339464
Si Si2 0.162250 0.228739 0.035952
Si Si3 0.953245 0.055615 0.311756
Si Si4 0.631949 0.925826 0.259271
Si Si5 0.733987 0.496439 0.613084
Si Si6 0.852402 0.173976 0.526072
Si Si7 0.700954 0.911781 0.981411
O O1 0.500000 0.500000 0.500000
O O2 0.329149 0.412166 0.372209
O O3 0.312996 0.032150 0.144849
O O4 0.212101 0.913934 0.356175
O O5 0.268921 0.548677 0.245240
O O6 0.176452 0.020427 0.998268
O O7 0.000000 0.000000 0.000000
O O8 0.176494 0.269433 0.891449
O O9 0.090816 0.176388 0.334262
O O10 0.026322 0.408613 0.368090
O O11 0.903115 0.046053 0.452140
O O12 0.458325 0.518696 0.126003
O O13 0.647480 0.163366 0.417973
O O14 0.721352 0.949266 0.351832
O O15 0.711024 0.081929 0.163328
#
# Coordination Sequence:
#
# PCOD9085766 Si02
#       7
#     2   2   2   2   2   2   2
#     4  11  22  38  55  86 122 148 181 241 301 330
#     4   9  17  33  54  85 112 139 188 241 271 327
#     4   9  18  36  61  85 108 151 203 226 269 348
#     4  10  19  37  62  85 107 155 199 230 273 343
#     4   9  21  36  59  83 117 148 191 237 285 335
#     4  10  19  35  63  83 113 152 191 235 281 335
#     4  10  20  35  62  83 114 150 191 236 281 339
#
# _framework density 23.242298000000002
#
# number of rings (size 3 to 8) (size 9 to 14) (size 15 to 20)
#    0.000    2.286    2.857    0.000    0.000    2.857 
#    2.571    3.571   12.571    0.000    0.000    0.000 
#    0.000    0.000    0.000    0.000    0.000    0.000 
#
# Total GULP energy -78117.443801 kJ/mol
# GULP energy per Si atom -5579.817414 kJ/mol
# Density = 2.318940 g / cm^3
# Si number density = 23.242298 Si / 1000 Ang^3
#
#
#
# Elastic Constant Matrix: (Units=GPa)
#
#
# Indices 1 2 3 4 5 6 
#
# 1 91.2363 6.9389 36.8787 3.8846 3.5430 16.1100
# 2 6.9389 34.9116 31.9754 -23.3348 -5.6447 12.5620
# 3 36.8787 31.9754 150.3878 -23.5898 -11.9396 2.1128
# 4 3.8846 -23.3348 -23.5898 38.9802 9.1508 -7.5965
# 5 3.5430 -5.6447 -11.9396 9.1508 42.4733 1.4744
# 6 16.1100 12.5620 2.1128 -7.5965 1.4744 13.6729
#
#
#
# Elastic Compliance Matrix: (Units=1/GPa)
#
#
# Indices 1 2 3 4 5 6 
#
# 1 0.020345 0.012629 -0.008194 -0.007002 0.000514 -0.038254
# 2 0.012629 0.085854 -0.016173 0.024366 0.003271 -0.078075
# 3 -0.008194 -0.016173 0.012296 0.003216 0.000453 0.024351
# 4 -0.007002 0.024366 0.003216 0.046531 -0.005709 0.011834
# 5 0.000514 0.003271 0.000453 -0.005709 0.025627 -0.009616
# 6 -0.038254 -0.078075 0.024351 0.011834 -0.009616 0.193790
#
#
# Mechanical properties :
#
#
# Convention : Reuss Voigt Hill
#
# Bulk Modulus (GPa) = 10.52415 47.56907 29.04661
# Shear Modulus (GPa) = 11.37417 32.40814 21.89115
#
# Velocity S-wave (km/s) = 2.21458 3.73816 3.07231
# Velocity P-wave (km/s) = 3.32821 6.25643 5.01098
#
# Compressibility (1/GPa) = 0.09501958
#
# Stress axis : x y z
#
# Youngs Moduli (GPa) = 49.15176 11.64763 81.32870
#
# Poissons Ratio (x) = -0.14710 0.66644
# Poissons Ratio (y) = -0.62075 1.31530
# Poissons Ratio (z) = 0.40277 0.18837
#
# Static dielectric constant tensor:
#      x y z
#    x 1.902160 0.030610 -0.028850 
#    y 0.030610 1.914820 -0.036770 
#    z -0.028850 -0.036770 1.972190 
# 
# From -- ./inp_files/325868.got.cif
#   From: 2010.05.17/outbox.cif.g08.bks.cpg/sg2_163_cif.got.tgz:325868.got - 2010.06.03 11:33:40.
