data_PCOD9085392
_publ_section_title
;
Structure prediction by ZEFSAII (Michael W. Deem and Ramdas Pophale) SiO2 
 PCOD9085392
Probable space group: P -1
;
_chemical_formula_sum "Si O2"
_cell_formula_units_Z 14
_cell_length_a 8.313207
_cell_length_b 13.496325
_cell_length_c 12.926761
_cell_angle_alpha 32.763991
_cell_angle_beta 136.460382
_cell_angle_gamma 122.717445
_cell_volume 531.321831
_symmetry_space_group_name_H-M "P -1"
_symmetry_group_IT_number 2
_symmetry_cell_setting 'triclinic'
loop_
_space_group_symop_operation_xyz
x,y,z
-x,-y,-z
loop_
_atom_site_type_symbol
_atom_site_label
_atom_site_fract_x
_atom_site_fract_y
_atom_site_fract_z
Si Si1 0.218890 0.173075 0.871934
Si Si2 0.853759 0.297442 0.347621
Si Si3 0.578457 0.368901 0.777061
Si Si4 0.672904 0.662889 0.026547
Si Si5 0.252074 0.733173 0.286391
Si Si6 0.227070 0.083606 0.311163
Si Si7 0.991376 0.213874 0.271124
O O1 0.346247 0.263175 0.757718
O O2 0.962332 0.253346 0.737626
O O3 0.382231 0.236283 0.981571
O O4 0.262194 0.950881 0.085201
O O5 0.581346 0.324179 0.156598
O O6 0.989289 0.322726 0.282220
O O7 0.914403 0.087762 0.602976
O O8 0.830081 0.457888 0.279815
O O9 0.465572 0.581441 0.568186
O O10 0.703732 0.346099 0.742732
O O11 0.780677 0.286570 0.027844
O O12 0.826277 0.785727 0.925843
O O13 0.209753 0.196746 0.310125
O O14 0.500000 0.000000 0.500000
O O15 0.000000 0.000000 0.500000
#
# Coordination Sequence:
#
# PCOD9085392 Si02
#       7
#     2   2   2   2   2   2   2
#     4  11  22  43  71  97 130 182 222 282 344 384
#     4   9  19  36  54  88 127 166 211 256 314 400
#     4  11  22  45  68  98 139 171 222 290 330 393
#     4  10  19  35  60  87 123 166 212 259 323 390
#     4  10  25  43  69 102 132 171 238 278 331 402
#     4   9  19  35  56  84 125 163 211 262 311 388
#     4  10  20  39  64  94 131 173 215 265 333 406
#
# _framework density 26.349381000000001
#
# number of rings (size 3 to 8) (size 9 to 14) (size 15 to 20)
#    0.000    2.000    1.429    1.714    0.000    1.714 
#    5.143   12.857    0.000    0.000    0.000    0.000 
#    0.000    0.000    0.000    0.000    0.000    0.000 
#
# Total GULP energy -78049.962465 kJ/mol
# GULP energy per Si atom -5574.997319 kJ/mol
# Density = 2.628941 g / cm^3
# Si number density = 26.349381 Si / 1000 Ang^3
#
#
#
# Elastic Constant Matrix: (Units=GPa)
#
#
# Indices 1 2 3 4 5 6 
#
# 1 174.1604 11.6500 47.7874 -1.4105 19.6274 -3.4652
# 2 11.6500 44.4986 30.6490 -18.7375 12.2095 -10.9173
# 3 47.7874 30.6490 120.0222 0.1549 19.4496 -3.3411
# 4 -1.4105 -18.7375 0.1549 24.0277 -5.7173 7.7503
# 5 19.6274 12.2095 19.4496 -5.7173 40.5948 7.0308
# 6 -3.4652 -10.9173 -3.3411 7.7503 7.0308 35.5011
#
#
#
# Elastic Compliance Matrix: (Units=1/GPa)
#
#
# Indices 1 2 3 4 5 6 
#
# 1 0.006661 0.001047 -0.002479 0.000242 -0.002519 0.001185
# 2 0.001047 0.047660 -0.011456 0.033449 -0.005950 0.007557
# 3 -0.002479 -0.011456 0.012728 -0.009899 -0.002876 0.000163
# 4 0.000242 0.033449 -0.009899 0.071588 0.005934 -0.007425
# 5 -0.002519 -0.005950 -0.002876 0.005934 0.031569 -0.009894
# 6 0.001185 0.007557 0.000163 -0.007425 -0.009894 0.034203
#
#
# Mechanical properties :
#
#
# Convention : Reuss Voigt Hill
#
# Bulk Modulus (GPa) = 24.22846 57.65043 40.93944
# Shear Modulus (GPa) = 20.49659 36.59771 28.54715
#
# Velocity S-wave (km/s) = 2.79207 3.73089 3.29509
# Velocity P-wave (km/s) = 4.42823 6.36287 5.48158
#
# Compressibility (1/GPa) = 0.04127378
#
# Stress axis : x y z
#
# Youngs Moduli (GPa) = 150.11917 20.98179 78.56936
#
# Poissons Ratio (x) = -0.02197 0.19475
# Poissons Ratio (y) = -0.15719 0.90010
# Poissons Ratio (z) = 0.37210 0.24037
#
# Static dielectric constant tensor:
#      x y z
#    x 2.254820 -0.169020 -0.161020 
#    y -0.169020 2.443760 0.227090 
#    z -0.161020 0.227090 2.415540 
# 
# From -- ./inp_files/501490.got.cif
#   From: 2010.05.17/outbox.cif.g08.bks.cpg/sg2_251_cif.got.tgz:501490.got - 2010.06.03 11:33:40.
