data_PCOD9085414
_publ_section_title
;
Structure prediction by ZEFSAII (Michael W. Deem and Ramdas Pophale) SiO2 
 PCOD9085414
Probable space group: P -1
;
_chemical_formula_sum "Si O2"
_cell_formula_units_Z 14
_cell_length_a 17.386663
_cell_length_b 9.041648
_cell_length_c 8.181737
_cell_angle_alpha 54.473841
_cell_angle_beta 32.563658
_cell_angle_gamma 64.521042
_cell_volume 558.183093
_symmetry_space_group_name_H-M "P -1"
_symmetry_group_IT_number 2
_symmetry_cell_setting 'triclinic'
loop_
_space_group_symop_operation_xyz
x,y,z
-x,-y,-z
loop_
_atom_site_type_symbol
_atom_site_label
_atom_site_fract_x
_atom_site_fract_y
_atom_site_fract_z
Si Si1 0.116427 0.576100 0.478879
Si Si2 0.338427 0.294405 0.316385
Si Si3 0.569265 0.822033 0.442857
Si Si4 0.198636 0.559330 0.971537
Si Si5 0.856277 0.044092 0.647732
Si Si6 0.263713 0.950373 0.469464
Si Si7 0.427523 0.282063 0.822500
O O1 0.211831 0.419570 0.458130
O O2 0.147245 0.616499 0.205601
O O3 0.164582 0.752480 0.389292
O O4 0.944183 0.513897 0.830316
O O5 0.418491 0.295669 0.342585
O O6 0.446340 0.341792 0.938973
O O7 0.265432 0.085887 0.533556
O O8 0.500000 0.000000 0.500000
O O9 0.489478 0.716400 0.498853
O O10 0.729596 0.900618 0.044200
O O11 0.298231 0.399900 0.925109
O O12 0.274244 0.743626 0.630286
O O13 0.864077 0.039366 0.439089
O O14 0.000000 0.000000 0.500000
O O15 0.389302 0.061922 0.061830
#
# Coordination Sequence:
#
# PCOD9085414 Si02
#       7
#     2   2   2   2   2   2   2
#     4  10  21  34  59  92 127 167 220 258 315 391
#     4   9  21  40  60  94 127 169 212 268 320 378
#     4  11  23  42  69  91 125 175 219 265 324 385
#     4  10  19  35  60  88 131 169 209 266 318 383
#     4  11  24  40  61  98 133 164 218 269 318 389
#     4   9  20  37  58  89 130 169 203 259 331 366
#     4   8  20  40  56  94 127 156 216 265 310 383
#
# _framework density 25.081378000000001
#
# number of rings (size 3 to 8) (size 9 to 14) (size 15 to 20)
#    0.857    1.429    0.000    2.571    6.000    1.714 
#    0.000    0.714    0.000    2.571    0.000    0.000 
#    0.000    0.000    0.000    0.000    0.000    0.000 
#
# Total GULP energy -78161.122714 kJ/mol
# GULP energy per Si atom -5582.937337 kJ/mol
# Density = 2.502429 g / cm^3
# Si number density = 25.081378 Si / 1000 Ang^3
#
#
#
# Elastic Constant Matrix: (Units=GPa)
#
#
# Indices 1 2 3 4 5 6 
#
# 1 171.1675 39.1622 38.3581 2.2399 29.8782 -11.6195
# 2 39.1622 126.9505 51.3567 -12.1614 9.3460 -5.0193
# 3 38.3581 51.3567 74.3961 -16.3790 8.7034 -0.8260
# 4 2.2399 -12.1614 -16.3790 44.5411 -3.8501 3.6617
# 5 29.8782 9.3460 8.7034 -3.8501 36.8776 -1.0052
# 6 -11.6195 -5.0193 -0.8260 3.6617 -1.0052 49.5317
#
#
#
# Elastic Compliance Matrix: (Units=1/GPa)
#
#
# Indices 1 2 3 4 5 6 
#
# 1 0.007928 -0.000830 -0.003388 -0.002505 -0.005626 0.001790
# 2 -0.000830 0.011100 -0.007099 0.000363 -0.000406 0.000777
# 3 -0.003388 -0.007099 0.021437 0.006256 0.000094 -0.001617
# 4 -0.002505 0.000363 0.006256 0.025427 0.003054 -0.002264
# 5 -0.005626 -0.000406 0.000094 0.003054 0.032049 -0.000935
# 6 0.001790 0.000777 -0.001617 -0.002264 -0.000935 0.020809
#
#
# Mechanical properties :
#
#
# Convention : Reuss Voigt Hill
#
# Bulk Modulus (GPa) = 56.07895 70.02981 63.05438
# Shear Modulus (GPa) = 33.93816 42.43254 38.18535
#
# Velocity S-wave (km/s) = 3.68247 4.11761 3.90610
# Velocity P-wave (km/s) = 6.36303 7.11252 6.74819
#
# Compressibility (1/GPa) = 0.01783200
#
# Stress axis : x y z
#
# Youngs Moduli (GPa) = 126.14095 90.08840 46.64830
#
# Poissons Ratio (x) = 0.07477 0.15804
# Poissons Ratio (y) = 0.10470 0.33114
# Poissons Ratio (z) = 0.42735 0.63950
#
# Static dielectric constant tensor:
#      x y z
#    x 2.074950 0.071180 -0.083720 
#    y 0.071180 1.977080 -0.028880 
#    z -0.083720 -0.028880 2.037060 
# 
# From -- ./inp_files/342513.got.cif
#   From: 2010.05.17/outbox.cif.g08.bks.cpg/sg2_172_cif.got.tgz:342513.got - 2010.06.03 11:33:40.
