data_PCOD9085774
_publ_section_title
;
Structure prediction by ZEFSAII (Michael W. Deem and Ramdas Pophale) SiO2 
 PCOD9085774
Probable space group: P -1
;
_chemical_formula_sum "Si O2"
_cell_formula_units_Z 16
_cell_length_a 10.366498
_cell_length_b 12.212447
_cell_length_c 9.121984
_cell_angle_alpha 41.405521
_cell_angle_beta 73.700736
_cell_angle_gamma 58.987869
_cell_volume 643.118106
_symmetry_space_group_name_H-M "P -1"
_symmetry_group_IT_number 2
_symmetry_cell_setting 'triclinic'
loop_
_space_group_symop_operation_xyz
x,y,z
-x,-y,-z
loop_
_atom_site_type_symbol
_atom_site_label
_atom_site_fract_x
_atom_site_fract_y
_atom_site_fract_z
Si Si1 0.471176 0.444108 0.798399
Si Si2 0.238571 0.910733 0.908588
Si Si3 0.966489 0.883710 0.973743
Si Si4 0.878109 0.446693 0.524435
Si Si5 0.341181 0.328369 0.203802
Si Si6 0.499959 0.025062 0.676713
Si Si7 0.997551 0.541459 0.130344
Si Si8 0.528583 0.728211 0.326178
O O1 0.440856 0.625607 0.532787
O O2 0.465470 0.303285 0.817231
O O3 0.646054 0.312207 0.925889
O O4 0.371119 0.466428 0.950062
O O5 0.343869 0.006551 0.734724
O O6 0.083589 0.962237 0.814214
O O7 0.186271 0.976496 0.028719
O O8 0.070008 0.745429 0.212924
O O9 0.940727 0.755509 0.990881
O O10 0.705012 0.602929 0.445249
O O11 0.000000 0.500000 0.500000
O O12 0.909054 0.449949 0.338334
O O13 0.467146 0.209149 0.405162
O O14 0.176831 0.433469 0.222421
O O15 0.365388 0.159676 0.253809
O O16 0.531682 0.070963 0.782186
O O17 0.000000 0.500000 0.000000
#
# Coordination Sequence:
#
# PCOD9085774 Si02
#       8
#     2   2   2   2   2   2   2   2
#     4  10  23  38  61  86 123 150 193 249 290 355
#     4  10  20  38  61  90 113 152 203 247 290 333
#     4  10  20  36  62  86 114 153 200 246 285 346
#     4  10  19  35  63  86 110 152 199 247 278 340
#     4  10  22  39  55  88 116 156 189 233 294 351
#     4  10  21  38  60  83 115 153 197 239 284 350
#     4  11  22  36  58  88 122 154 190 238 300 354
#     4  11  21  39  61  90 113 154 200 244 297 330
#
# _framework density 24.878791
#
# number of rings (size 3 to 8) (size 9 to 14) (size 15 to 20)
#    0.000    1.750    1.250    4.500    0.000    3.500 
#    4.500    0.000    0.000    3.750    0.000    0.000 
#    0.000    0.000    0.000    0.000    0.000    0.000 
#
# Total GULP energy -89330.006668 kJ/mol
# GULP energy per Si atom -5583.125417 kJ/mol
# Density = 2.482217 g / cm^3
# Si number density = 24.878791 Si / 1000 Ang^3
#
#
#
# Elastic Constant Matrix: (Units=GPa)
#
#
# Indices 1 2 3 4 5 6 
#
# 1 49.1405 9.1664 -0.5535 4.6190 -10.5926 -0.4893
# 2 9.1664 110.5557 7.0448 18.6915 -9.5416 7.1326
# 3 -0.5535 7.0448 75.7450 21.6980 -13.2076 8.8133
# 4 4.6190 18.6915 21.6980 33.4230 1.2836 4.3715
# 5 -10.5926 -9.5416 -13.2076 1.2836 31.1012 6.9836
# 6 -0.4893 7.1326 8.8133 4.3715 6.9836 48.0918
#
#
#
# Elastic Compliance Matrix: (Units=1/GPa)
#
#
# Indices 1 2 3 4 5 6 
#
# 1 0.023087 -0.000256 0.003687 -0.005647 0.009881 -0.001324
# 2 -0.000256 0.010713 0.002179 -0.007292 0.004883 -0.002037
# 3 0.003687 0.002179 0.019731 -0.014429 0.011867 -0.004313
# 4 -0.005647 -0.007292 -0.014429 0.044435 -0.012444 0.001436
# 5 0.009881 0.004883 0.011867 -0.012444 0.044392 -0.008114
# 6 -0.001324 -0.002037 -0.004313 0.001436 -0.008114 0.022920
#
#
# Mechanical properties :
#
#
# Convention : Reuss Voigt Hill
#
# Bulk Modulus (GPa) = 15.44380 29.63962 22.54171
# Shear Modulus (GPa) = 28.46711 37.17543 32.82127
#
# Velocity S-wave (km/s) = 3.38632 3.86976 3.63608
# Velocity P-wave (km/s) = 4.63796 5.64856 5.16802
#
# Compressibility (1/GPa) = 0.06475092
#
# Stress axis : x y z
#
# Youngs Moduli (GPa) = 43.31516 93.34226 50.68174
#
# Poissons Ratio (x) = 0.02391 -0.18687
# Poissons Ratio (y) = 0.01109 -0.11044
# Poissons Ratio (z) = -0.15971 -0.20339
#
# Static dielectric constant tensor:
#      x y z
#    x 2.071480 0.069520 -0.084090 
#    y 0.069520 1.961310 -0.032230 
#    z -0.084090 -0.032230 2.168390 
# 
# From -- ./inp_files/261579.got.cif
#   From: 2010.05.17/outbox.cif.g08.bks.cpg/sg2_131_cif.got.tgz:261579.got - 2010.06.03 11:33:40.
