data_PCOD9085440
_publ_section_title
;
Structure prediction by ZEFSAII (Michael W. Deem and Ramdas Pophale) SiO2 
 PCOD9085440
Probable space group: P -1
;
_chemical_formula_sum "Si O2"
_cell_formula_units_Z 16
_cell_length_a 14.647009
_cell_length_b 8.997574
_cell_length_c 11.849445
_cell_angle_alpha 38.153196
_cell_angle_beta 42.484769
_cell_angle_gamma 59.211906
_cell_volume 642.836469
_symmetry_space_group_name_H-M "P -1"
_symmetry_group_IT_number 2
_symmetry_cell_setting 'triclinic'
loop_
_space_group_symop_operation_xyz
x,y,z
-x,-y,-z
loop_
_atom_site_type_symbol
_atom_site_label
_atom_site_fract_x
_atom_site_fract_y
_atom_site_fract_z
Si Si1 0.504283 0.149774 0.289744
Si Si2 0.166380 0.302001 0.838034
Si Si3 0.320508 0.428836 0.409735
Si Si4 0.260121 0.075904 0.383340
Si Si5 0.906261 0.215718 0.451612
Si Si6 0.877727 0.466968 0.788787
Si Si7 0.113845 0.952387 0.804370
Si Si8 0.763910 0.156852 0.890438
O O1 0.456221 0.394137 0.238243
O O2 0.500000 0.000000 0.500000
O O3 0.391728 0.057492 0.350575
O O4 0.644885 0.142396 0.102409
O O5 0.299441 0.383368 0.589011
O O6 0.100041 0.544853 0.767363
O O7 0.048724 0.118145 0.987465
O O8 0.206092 0.111608 0.006840
O O9 0.286381 0.691446 0.254847
O O10 0.204571 0.211745 0.596398
O O11 0.237736 0.944007 0.362376
O O12 0.135343 0.945456 0.654453
O O13 0.231566 0.350494 0.232098
O O14 0.979333 0.372845 0.397309
O O15 0.000000 0.000000 0.500000
O O16 0.883125 0.326094 0.750651
O O17 0.832946 0.265664 0.047091
#
# Coordination Sequence:
#
# PCOD9085440 Si02
#       8
#     2   2   2   2   2   2   2   2
#     4  11  21  40  66  90 124 160 207 259 300 363
#     4  11  23  37  59  90 132 156 199 260 305 367
#     4  11  22  36  57  89 130 155 198 254 312 363
#     4  10  21  41  61  89 120 165 210 249 300 366
#     4   9  22  41  63  87 123 169 204 246 305 374
#     4  10  19  35  60  90 124 152 198 252 306 365
#     4  10  20  35  57  88 122 161 195 249 316 357
#     4  12  22  36  60  97 122 162 203 250 317 354
#
# _framework density 24.889689000000001
#
# number of rings (size 3 to 8) (size 9 to 14) (size 15 to 20)
#    0.000    1.500    5.000    1.500    1.750    5.500 
#    0.000    1.875    0.000    0.750    0.000    0.000 
#    0.000    0.000    0.000    0.000    0.000    0.000 
#
# Total GULP energy -89077.607858 kJ/mol
# GULP energy per Si atom -5567.350491 kJ/mol
# Density = 2.483304 g / cm^3
# Si number density = 24.889689 Si / 1000 Ang^3
#
#
#
# Elastic Constant Matrix: (Units=GPa)
#
#
# Indices 1 2 3 4 5 6 
#
# 1 112.1489 41.7483 29.6624 -20.9577 9.8743 -9.6916
# 2 41.7483 117.6122 54.2749 -39.5229 11.6215 -14.0780
# 3 29.6624 54.2749 96.1304 -11.4130 23.2977 -14.0877
# 4 -20.9577 -39.5229 -11.4130 66.4035 -14.0353 7.9402
# 5 9.8743 11.6215 23.2977 -14.0353 34.5833 -4.6448
# 6 -9.6916 -14.0780 -14.0877 7.9402 -4.6448 42.1280
#
#
#
# Elastic Compliance Matrix: (Units=1/GPa)
#
#
# Indices 1 2 3 4 5 6 
#
# 1 0.010602 -0.002460 -0.001469 0.001423 -0.000526 0.000800
# 2 -0.002460 0.015283 -0.007807 0.007732 0.004088 0.000924
# 3 -0.001469 -0.007807 0.017613 -0.004585 -0.010324 0.002669
# 4 0.001423 0.007732 -0.004585 0.021325 0.008510 -0.001703
# 5 -0.000526 0.004088 -0.010324 0.008510 0.038154 0.000395
# 6 0.000800 0.000924 0.002669 -0.001703 0.000395 0.025487
#
#
# Mechanical properties :
#
#
# Convention : Reuss Voigt Hill
#
# Bulk Modulus (GPa) = 49.93465 64.14028 57.03746
# Shear Modulus (GPa) = 31.52343 41.97003 36.74673
#
# Velocity S-wave (km/s) = 3.56269 4.11084 3.84654
# Velocity P-wave (km/s) = 6.08520 6.95398 6.53404
#
# Compressibility (1/GPa) = 0.02002618
#
# Stress axis : x y z
#
# Youngs Moduli (GPa) = 94.31978 65.43020 56.77677
#
# Poissons Ratio (x) = 0.16093 0.08342
# Poissons Ratio (y) = 0.23199 0.44328
# Poissons Ratio (z) = 0.13857 0.51084
#
# Static dielectric constant tensor:
#      x y z
#    x 2.049310 0.068660 0.066790 
#    y 0.068660 2.211580 0.103620 
#    z 0.066790 0.103620 2.057700 
# 
# From -- ./inp_files/532238.got.cif
#   From: 2010.05.17/outbox.cif.g08.bks.cpg/sg2_267_cif.got.tgz:532238.got - 2010.06.03 11:33:40.
