data_PCOD9085069
_publ_section_title
;
Structure prediction by ZEFSAII (Michael W. Deem and Ramdas Pophale) SiO2 
 PCOD9085069
Probable space group: P -1
;
_chemical_formula_sum "Si O2"
_cell_formula_units_Z 12
_cell_length_a 14.865242
_cell_length_b 12.524223
_cell_length_c 8.133895
_cell_angle_alpha 41.045600
_cell_angle_beta 37.068708
_cell_angle_gamma 30.275452
_cell_volume 449.510763
_symmetry_space_group_name_H-M "P -1"
_symmetry_group_IT_number 2
_symmetry_cell_setting 'triclinic'
loop_
_space_group_symop_operation_xyz
x,y,z
-x,-y,-z
loop_
_atom_site_type_symbol
_atom_site_label
_atom_site_fract_x
_atom_site_fract_y
_atom_site_fract_z
Si Si1 0.130415 0.890783 0.226994
Si Si2 0.443947 0.433048 0.442456
Si Si3 0.820762 0.846989 0.338799
Si Si4 0.738071 0.728126 0.275649
Si Si5 0.807961 0.357477 0.132752
Si Si6 0.134574 0.236080 0.277397
O O1 0.324887 0.681840 0.273444
O O2 0.992649 0.837616 0.450968
O O3 0.982772 0.134351 0.236441
O O4 0.192649 0.949806 0.908048
O O5 0.400299 0.326760 0.495903
O O6 0.662161 0.332813 0.289170
O O7 0.329002 0.456717 0.748909
O O8 0.712068 0.837508 0.357864
O O9 0.755479 0.840313 0.620292
O O10 0.060751 0.645161 0.192469
O O11 0.964484 0.496719 0.221791
O O12 0.735649 0.842328 0.984448
#
# Coordination Sequence:
#
# PCOD9085069 Si02
#       6
#     2   2   2   2   2   2
#     4   9  20  34  61  86 113 155 199 240 289 347
#     4  10  19  38  57  90 120 150 199 242 291 354
#     4  10  20  36  62  88 113 155 199 241 292 345
#     4  10  21  33  60  89 116 158 192 239 301 347
#     4   9  20  33  62  87 115 156 197 241 292 344
#     4  10  19  35  58  88 117 152 199 239 287 357
#
# _framework density 26.695691
#
# number of rings (size 3 to 8) (size 9 to 14) (size 15 to 20)
#    1.000    1.333    0.000    4.500    2.333    0.000 
#    0.000    4.167    7.333    3.000    0.000    0.000 
#    0.000    0.000    0.000    0.000    0.000    0.000 
#
# Total GULP energy -67121.132595 kJ/mol
# GULP energy per Si atom -5593.427716 kJ/mol
# Density = 2.663493 g / cm^3
# Si number density = 26.695691 Si / 1000 Ang^3
#
#
#
# Elastic Constant Matrix: (Units=GPa)
#
#
# Indices 1 2 3 4 5 6 
#
# 1 179.7123 25.4839 68.6492 13.5769 9.2836 5.0920
# 2 25.4839 73.5093 37.8802 12.6827 -0.1706 -23.7431
# 3 68.6492 37.8802 91.8858 1.3786 17.2212 -8.9431
# 4 13.5769 12.6827 1.3786 40.9585 -9.2239 -8.1235
# 5 9.2836 -0.1706 17.2212 -9.2239 49.0686 -0.3531
# 6 5.0920 -23.7431 -8.9431 -8.1235 -0.3531 30.5697
#
#
#
# Elastic Compliance Matrix: (Units=1/GPa)
#
#
# Indices 1 2 3 4 5 6 
#
# 1 0.008528 -0.000473 -0.006580 -0.003366 0.000028 -0.004607
# 2 -0.000473 0.023469 -0.008291 -0.003268 0.002575 0.015042
# 3 -0.006580 -0.008291 0.020298 0.003141 -0.005307 0.001368
# 4 -0.003366 -0.003268 0.003141 0.028887 0.005001 0.006676
# 5 0.000028 0.002575 -0.005307 0.005001 0.023201 0.002040
# 6 -0.004607 0.015042 0.001368 0.006676 0.002040 0.047361
#
#
# Mechanical properties :
#
#
# Convention : Reuss Voigt Hill
#
# Bulk Modulus (GPa) = 46.28192 67.68156 56.98174
# Shear Modulus (GPa) = 26.36661 38.32562 32.34611
#
# Velocity S-wave (km/s) = 3.14614 3.79311 3.48467
# Velocity P-wave (km/s) = 5.52920 6.67769 6.13040
#
# Compressibility (1/GPa) = 0.02160671
#
# Stress axis : x y z
#
# Youngs Moduli (GPa) = 117.25491 42.61008 49.26677
#
# Poissons Ratio (x) = 0.02016 0.32417
# Poissons Ratio (y) = 0.05548 0.40847
# Poissons Ratio (z) = 0.77152 0.35328
#
# Static dielectric constant tensor:
#      x y z
#    x 2.048240 0.052920 0.047820 
#    y 0.052920 2.167390 -0.014670 
#    z 0.047820 -0.014670 2.164250 
# 
# From -- ./inp_files/308994.got.cif
#   From: 2010.05.17/outbox.cif.g08.bks.cpg/sg2_155_cif.got.tgz:308994.got - 2010.06.03 11:33:40.
