data_PCOD9085010
_publ_section_title
;
Structure prediction by ZEFSAII (Michael W. Deem and Ramdas Pophale) SiO2 
 PCOD9085010
Probable space group: P -1
;
_chemical_formula_sum "Si O2"
_cell_formula_units_Z 16
_cell_length_a 27.294277
_cell_length_b 11.210401
_cell_length_c 13.524302
_cell_angle_alpha 30.799438
_cell_angle_beta 23.222130
_cell_angle_gamma 29.681474
_cell_volume 768.115913
_symmetry_space_group_name_H-M "P -1"
_symmetry_group_IT_number 2
_symmetry_cell_setting 'triclinic'
loop_
_space_group_symop_operation_xyz
x,y,z
-x,-y,-z
loop_
_atom_site_type_symbol
_atom_site_label
_atom_site_fract_x
_atom_site_fract_y
_atom_site_fract_z
Si Si1 0.591563 0.605043 0.187488
Si Si2 0.464855 0.889224 0.800345
Si Si3 0.458746 0.363142 0.364409
Si Si4 0.175285 0.867242 0.369921
Si Si5 0.751652 0.266737 0.975191
Si Si6 0.985084 0.727335 0.940539
Si Si7 0.551697 0.136711 0.936487
Si Si8 0.070438 0.607306 0.578262
O O1 0.500000 0.500000 0.500000
O O2 0.521737 0.751792 0.110473
O O3 0.708966 0.356607 0.102200
O O4 0.625443 0.830942 0.013092
O O5 0.428166 0.174997 0.628594
O O6 0.551429 0.716394 0.673115
O O7 0.325222 0.852630 0.094406
O O8 0.529966 0.832211 0.829460
O O9 0.381208 0.659110 0.318353
O O10 0.616868 0.303645 0.137309
O O11 0.115769 0.787148 0.635132
O O12 0.147581 0.699796 0.454109
O O13 0.071928 0.157116 0.338353
O O14 0.832359 0.430012 0.668281
O O15 0.854928 0.977963 0.977886
O O16 0.000000 0.500000 0.000000
O O17 0.959731 0.629556 0.162330
#
# Coordination Sequence:
#
# PCOD9085010 Si02
#       8
#     2   2   2   2   2   2   2   2
#     4  10  22  40  60  80 113 152 199 248 282 329
#     4  11  21  36  54  84 126 156 183 228 290 352
#     4  10  22  35  53  85 124 159 181 226 288 355
#     4   9  18  33  52  79 118 151 182 227 278 338
#     4  10  19  35  58  84 113 149 187 238 286 330
#     4   9  19  32  54  84 111 148 192 231 280 335
#     4  10  21  38  55  80 110 151 200 228 278 344
#     4   9  17  33  53  79 112 147 190 229 277 332
#
# _framework density 20.830190000000002
#
# number of rings (size 3 to 8) (size 9 to 14) (size 15 to 20)
#    0.000    2.250    1.250    2.625    0.000    6.000 
#    6.750    0.000    0.000    3.000    0.000    8.750 
#    0.000    0.000    0.000    0.000    0.000    0.000 
#
# Total GULP energy -89079.148985 kJ/mol
# GULP energy per Si atom -5567.446812 kJ/mol
# Density = 2.078278 g / cm^3
# Si number density = 20.830190 Si / 1000 Ang^3
#
#
#
# Elastic Constant Matrix: (Units=GPa)
#
#
# Indices 1 2 3 4 5 6 
#
# 1 62.0812 24.6301 27.7908 -6.9621 21.8338 3.1950
# 2 24.6301 88.7335 35.4482 -18.8427 0.6260 9.8862
# 3 27.7908 35.4482 108.2142 -17.0111 35.0786 -16.1894
# 4 -6.9621 -18.8427 -17.0111 35.8693 -3.6658 6.0887
# 5 21.8338 0.6260 35.0786 -3.6658 32.9568 1.7958
# 6 3.1950 9.8862 -16.1894 6.0887 1.7958 24.2856
#
#
#
# Elastic Compliance Matrix: (Units=1/GPa)
#
#
# Indices 1 2 3 4 5 6 
#
# 1 0.024952 -0.009095 0.003901 -0.001039 -0.020889 0.004826
# 2 -0.009095 0.024744 -0.015718 0.010342 0.024731 -0.023776
# 3 0.003901 -0.015718 0.028249 -0.002312 -0.034126 0.027820
# 4 -0.001039 0.010342 -0.002312 0.035356 0.007706 -0.015049
# 5 -0.020889 0.024731 -0.034126 0.007706 0.082970 -0.038136
# 6 0.004826 -0.023776 0.027820 -0.015049 -0.038136 0.075359
#
#
# Mechanical properties :
#
#
# Convention : Reuss Voigt Hill
#
# Bulk Modulus (GPa) = 27.68474 48.30745 37.99610
# Shear Modulus (GPa) = 15.36134 30.03300 22.69717
#
# Velocity S-wave (km/s) = 2.71856 3.80123 3.30453
# Velocity P-wave (km/s) = 4.81390 6.51975 5.73065
#
# Compressibility (1/GPa) = 0.03612098
#
# Stress axis : x y z
#
# Youngs Moduli (GPa) = 40.07751 40.41360 35.40004
#
# Poissons Ratio (x) = 0.36758 -0.13811
# Poissons Ratio (y) = 0.36452 0.55641
# Poissons Ratio (z) = -0.15636 0.63521
#
# Static dielectric constant tensor:
#      x y z
#    x 1.856160 0.002650 0.029270 
#    y 0.002650 1.824760 -0.000710 
#    z 0.029270 -0.000710 1.790920 
# 
# From -- ./inp_files/544943.got.cif
#   From: 2010.05.17/outbox.cif.g08.bks.cpg/sg2_273_cif.got.tgz:544943.got - 2010.06.03 11:33:40.
