data_PCOD9085891
_publ_section_title
;
Structure prediction by ZEFSAII (Michael W. Deem and Ramdas Pophale) SiO2 
 PCOD9085891
Probable space group: P -1
;
_chemical_formula_sum "Si O2"
_cell_formula_units_Z 16
_cell_length_a 5.323851
_cell_length_b 12.338616
_cell_length_c 17.656729
_cell_angle_alpha 131.365009
_cell_angle_beta 74.515216
_cell_angle_gamma 130.353751
_cell_volume 636.564310
_symmetry_space_group_name_H-M "P -1"
_symmetry_group_IT_number 2
_symmetry_cell_setting 'triclinic'
loop_
_space_group_symop_operation_xyz
x,y,z
-x,-y,-z
loop_
_atom_site_type_symbol
_atom_site_label
_atom_site_fract_x
_atom_site_fract_y
_atom_site_fract_z
Si Si1 0.335821 0.872372 0.775330
Si Si2 0.099746 0.870995 0.946693
Si Si3 0.606415 0.374838 0.449317
Si Si4 0.432217 0.122427 0.480820
Si Si5 0.348858 0.053221 0.714627
Si Si6 0.013037 0.713570 0.030233
Si Si7 0.859023 0.566463 0.135205
Si Si8 0.273359 0.232869 0.674000
O O1 0.091849 0.784216 0.827310
O O2 0.419248 0.747918 0.674425
O O3 0.201081 0.933267 0.748473
O O4 0.690842 0.073194 0.865791
O O5 0.880912 0.736524 0.974011
O O6 0.500000 0.000000 0.000000
O O7 0.000000 0.000000 0.000000
O O8 0.500000 0.500000 0.500000
O O9 0.405012 0.238998 0.475021
O O10 0.000000 0.500000 0.500000
O O11 0.531871 0.230246 0.602186
O O12 0.668516 0.087511 0.407187
O O13 0.070748 0.906932 0.412373
O O14 0.202415 0.132232 0.714531
O O15 0.738826 0.244814 0.791787
O O16 0.795518 0.598335 0.069363
O O17 0.160921 0.612122 0.945555
O O18 0.657053 0.578907 0.222386
#
# Coordination Sequence:
#
# PCOD9085891 Si02
#       8
#     2   2   2   2   2   2   2   2
#     4   9  21  41  64  89 121 172 214 266 326 388
#     4  10  22  40  63  92 121 167 221 265 307 375
#     4  11  26  45  67  97 130 170 218 274 328 390
#     4   9  21  38  58  92 122 168 211 265 324 390
#     4   9  18  35  59  89 123 159 206 259 327 391
#     4   9  19  40  60  84 130 160 215 262 321 391
#     4   9  19  36  56  93 124 163 202 265 328 384
#     4  10  19  35  64  89 126 164 211 262 325 392
#
# _framework density 25.134929
#
# number of rings (size 3 to 8) (size 9 to 14) (size 15 to 20)
#    0.000    2.500    0.000    1.125    5.250    3.000 
#    6.750    1.875    0.000    0.000    0.000    0.000 
#    0.000    0.000    0.000    0.000    0.000    0.000 
#
# Total GULP energy -89395.711249 kJ/mol
# GULP energy per Si atom -5587.231953 kJ/mol
# Density = 2.507772 g / cm^3
# Si number density = 25.134929 Si / 1000 Ang^3
#
#
#
# Elastic Constant Matrix: (Units=GPa)
#
#
# Indices 1 2 3 4 5 6 
#
# 1 93.3168 37.2123 56.9713 6.6956 -5.2859 -19.2365
# 2 37.2123 117.6421 59.9865 -14.6244 -18.0892 -17.0755
# 3 56.9713 59.9865 219.2111 -1.1457 -34.4998 -23.1515
# 4 6.6956 -14.6244 -1.1457 47.2372 -0.6911 2.4720
# 5 -5.2859 -18.0892 -34.4998 -0.6911 33.1241 18.6054
# 6 -19.2365 -17.0755 -23.1515 2.4720 18.6054 37.8822
#
#
#
# Elastic Compliance Matrix: (Units=1/GPa)
#
#
# Indices 1 2 3 4 5 6 
#
# 1 0.015932 -0.003764 -0.003496 -0.004067 -0.007981 0.008442
# 2 -0.003764 0.011639 -0.001512 0.004159 0.004233 0.000060
# 3 -0.003496 -0.001512 0.006749 0.000368 0.006532 -0.001565
# 4 -0.004067 0.004159 0.000368 0.023306 0.004595 -0.003743
# 5 -0.007981 0.004233 0.006532 0.004595 0.051451 -0.023722
# 6 0.008442 0.000060 -0.001565 -0.003743 -0.023722 0.041650
#
#
# Mechanical properties :
#
#
# Convention : Reuss Voigt Hill
#
# Bulk Modulus (GPa) = 59.61626 82.05670 70.83648
# Shear Modulus (GPa) = 28.75813 42.04870 35.40342
#
# Velocity S-wave (km/s) = 3.38620 4.09457 3.75712
# Velocity P-wave (km/s) = 6.24967 7.42101 6.86039
#
# Compressibility (1/GPa) = 0.01677395
#
# Stress axis : x y z
#
# Youngs Moduli (GPa) = 62.76780 85.91917 148.16982
#
# Poissons Ratio (x) = 0.32342 0.51804
# Poissons Ratio (y) = 0.23627 0.22408
# Poissons Ratio (z) = 0.21945 0.12994
#
# Static dielectric constant tensor:
#      x y z
#    x 2.096120 0.077810 0.003320 
#    y 0.077810 2.060640 -0.013860 
#    z 0.003320 -0.013860 1.995990 
# 
# From -- ./inp_files/85290.got.cif
#   From: 2010.05.17/outbox.cif.g08.bks.cpg/sg2_43_cif.got.tgz:85290.got - 2010.06.03 11:33:40.
