data_PCOD9085526
_publ_section_title
;
Structure prediction by ZEFSAII (Michael W. Deem and Ramdas Pophale) SiO2 
 PCOD9085526
Probable space group: P -1
;
_chemical_formula_sum "Si O2"
_cell_formula_units_Z 14
_cell_length_a 11.744327
_cell_length_b 14.479007
_cell_length_c 5.178772
_cell_angle_alpha 55.069573
_cell_angle_beta 84.106939
_cell_angle_gamma 66.221256
_cell_volume 650.976868
_symmetry_space_group_name_H-M "P -1"
_symmetry_group_IT_number 2
_symmetry_cell_setting 'triclinic'
loop_
_space_group_symop_operation_xyz
x,y,z
-x,-y,-z
loop_
_atom_site_type_symbol
_atom_site_label
_atom_site_fract_x
_atom_site_fract_y
_atom_site_fract_z
Si Si1 0.735131 0.042247 0.715494
Si Si2 0.497261 0.764743 0.351953
Si Si3 0.335634 0.351211 0.000509
Si Si4 0.415752 0.557336 0.677840
Si Si5 0.856514 0.074464 0.146940
Si Si6 0.949465 0.584840 0.123604
Si Si7 0.962123 0.832086 0.818640
O O1 0.593445 0.094440 0.770981
O O2 0.745954 0.105493 0.339842
O O3 0.812175 0.071765 0.875707
O O4 0.821674 0.896106 0.877701
O O5 0.568885 0.728092 0.121811
O O6 0.399394 0.698141 0.472993
O O7 0.599861 0.706048 0.649520
O O8 0.316881 0.496122 0.781278
O O9 0.201606 0.353467 0.967122
O O10 0.500000 0.500000 0.500000
O O11 0.500000 0.500000 0.000000
O O12 0.930956 0.158459 0.040616
O O13 0.946326 0.931980 0.437036
O O14 0.000000 0.500000 0.500000
O O15 0.000000 0.500000 0.000000
O O16 0.994004 0.695139 0.944057
#
# Coordination Sequence:
#
# PCOD9085526 Si02
#       7
#     2   2   2   2   2   2   2
#     4  10  19  35  62  98 119 153 198 250 310 361
#     4  10  19  35  61  85 119 152 196 242 303 359
#     4  10  21  40  54  83 121 155 196 248 292 354
#     4   8  16  30  52  76 109 151 187 234 282 332
#     4   9  20  36  64  89 128 155 195 257 308 334
#     4  12  28  44  64  87 119 167 210 246 301 369
#     4   9  23  40  63  89 130 155 206 255 303 348
#
# _framework density 21.506139999999998
#
# number of rings (size 3 to 8) (size 9 to 14) (size 15 to 20)
#    0.857    1.429    0.000    2.143    2.000    2.286 
#    0.000    4.286    0.000    0.000    0.000    0.000 
#    0.000    0.000    0.000    0.000    0.000    0.000 
#
# Total GULP energy -77987.286630 kJ/mol
# GULP energy per Si atom -5570.520474 kJ/mol
# Density = 2.145719 g / cm^3
# Si number density = 21.506140 Si / 1000 Ang^3
#
#
#
# Elastic Constant Matrix: (Units=GPa)
#
#
# Indices 1 2 3 4 5 6 
#
# 1 54.6617 24.0916 9.4223 -4.1491 0.6881 12.3374
# 2 24.0916 131.0637 45.8355 8.2467 -0.0846 6.1750
# 3 9.4223 45.8355 46.3273 15.5487 5.8475 14.9590
# 4 -4.1491 8.2467 15.5487 37.5784 5.0397 -3.9184
# 5 0.6881 -0.0846 5.8475 5.0397 20.5757 -0.5238
# 6 12.3374 6.1750 14.9590 -3.9184 -0.5238 34.8229
#
#
#
# Elastic Compliance Matrix: (Units=1/GPa)
#
#
# Indices 1 2 3 4 5 6 
#
# 1 0.021821 -0.004496 0.002042 0.002028 -0.002019 -0.007613
# 2 -0.004496 0.013692 -0.016486 0.003453 0.004217 0.006699
# 3 0.002042 -0.016486 0.052467 -0.018744 -0.011031 -0.022613
# 4 0.002028 0.003453 -0.018744 0.035362 -0.003117 0.010653
# 5 -0.002019 0.004217 -0.011031 -0.003117 0.052715 0.005149
# 6 -0.007613 0.006699 -0.022613 0.010653 0.005149 0.041216
#
#
# Mechanical properties :
#
#
# Convention : Reuss Voigt Hill
#
# Bulk Modulus (GPa) = 19.95984 43.41684 31.68834
# Shear Modulus (GPa) = 18.39232 28.77561 23.58396
#
# Velocity S-wave (km/s) = 2.92757 3.66186 3.31511
# Velocity P-wave (km/s) = 4.55288 6.17340 5.42400
#
# Compressibility (1/GPa) = 0.05010061
#
# Stress axis : x y z
#
# Youngs Moduli (GPa) = 45.82656 73.03734 19.05970
#
# Poissons Ratio (x) = 0.32834 -0.03893
# Poissons Ratio (y) = 0.20602 0.31422
# Poissons Ratio (z) = -0.09359 1.20412
#
# Static dielectric constant tensor:
#      x y z
#    x 1.794230 -0.031750 -0.028150 
#    y -0.031750 1.816840 -0.038250 
#    z -0.028150 -0.038250 1.805440 
# 
# From -- ./inp_files/63137.got.cif
#   From: 2010.05.17/outbox.cif.g08.bks.cpg/sg2_32_cif.got.tgz:63137.got - 2010.06.03 11:33:40.
