data_PCOD9085385
_publ_section_title
;
Structure prediction by ZEFSAII (Michael W. Deem and Ramdas Pophale) SiO2 
 PCOD9085385
Probable space group: P -1
;
_chemical_formula_sum "Si O2"
_cell_formula_units_Z 16
_cell_length_a 14.875613
_cell_length_b 9.043324
_cell_length_c 10.704343
_cell_angle_alpha 122.241456
_cell_angle_beta 39.771903
_cell_angle_gamma 103.394735
_cell_volume 735.614056
_symmetry_space_group_name_H-M "P -1"
_symmetry_group_IT_number 2
_symmetry_cell_setting 'triclinic'
loop_
_space_group_symop_operation_xyz
x,y,z
-x,-y,-z
loop_
_atom_site_type_symbol
_atom_site_label
_atom_site_fract_x
_atom_site_fract_y
_atom_site_fract_z
Si Si1 0.991253 0.812896 0.493649
Si Si2 0.646110 0.844113 0.575977
Si Si3 0.474373 0.641353 0.793776
Si Si4 0.223063 0.895491 0.991701
Si Si5 0.016783 0.308120 0.822358
Si Si6 0.493657 0.226419 0.820416
Si Si7 0.520285 0.221866 0.508653
Si Si8 0.704720 0.379228 0.778283
O O1 0.993688 0.679451 0.313216
O O2 0.130494 0.715525 0.390779
O O3 0.851109 0.905127 0.774601
O O4 0.000000 0.000000 0.500000
O O5 0.606183 0.725228 0.673881
O O6 0.816174 0.828844 0.393563
O O7 0.607591 0.769479 0.451388
O O8 0.532658 0.051934 0.790475
O O9 0.525511 0.430358 0.601200
O O10 0.343270 0.765812 0.900918
O O11 0.401403 0.645918 0.007627
O O12 0.102048 0.790680 0.053155
O O13 0.319639 0.901357 0.770212
O O14 0.000000 0.500000 0.000000
O O15 0.481905 0.173123 0.665605
O O16 0.642529 0.288084 0.691334
O O17 0.350333 0.400827 0.084421
#
# Coordination Sequence:
#
# PCOD9085385 Si02
#       8
#     2   2   2   2   2   2   2   2
#     4  10  19  35  60  87 120 149 202 241 303 351
#     4  11  22  35  59  95 118 144 202 251 300 338
#     4  10  19  36  64  86 117 151 202 253 292 344
#     4  10  19  36  60  85 115 157 199 244 293 353
#     4  11  21  34  58  93 126 149 189 253 310 346
#     4  10  22  37  59  86 122 159 199 243 293 361
#     4  10  21  39  59  86 122 160 200 238 297 359
#     4  10  20  39  61  87 115 163 200 240 299 361
#
# _framework density 21.750536
#
# number of rings (size 3 to 8) (size 9 to 14) (size 15 to 20)
#    0.000    1.750    2.500    4.875    1.750    0.500 
#    2.250    2.500    0.000    3.000    0.000    0.000 
#    0.000    0.000    0.000    0.000    0.000    0.000 
#
# Total GULP energy -89317.463388 kJ/mol
# GULP energy per Si atom -5582.341462 kJ/mol
# Density = 2.170103 g / cm^3
# Si number density = 21.750536 Si / 1000 Ang^3
#
#
#
# Elastic Constant Matrix: (Units=GPa)
#
#
# Indices 1 2 3 4 5 6 
#
# 1 87.8903 10.1412 35.3631 4.0680 -8.4539 12.9979
# 2 10.1412 67.7662 16.0195 9.1615 -8.5646 9.1012
# 3 35.3631 16.0195 90.3303 10.9102 -6.6872 8.3532
# 4 4.0680 9.1615 10.9102 36.0993 4.9027 -7.4629
# 5 -8.4539 -8.5646 -6.6872 4.9027 44.0748 7.9284
# 6 12.9979 9.1012 8.3532 -7.4629 7.9284 26.0789
#
#
#
# Elastic Compliance Matrix: (Units=1/GPa)
#
#
# Indices 1 2 3 4 5 6 
#
# 1 0.014870 0.000870 -0.004563 -0.002797 0.004135 -0.008311
# 2 0.000870 0.018063 -0.001262 -0.007260 0.006142 -0.010278
# 3 -0.004563 -0.001262 0.014139 -0.004520 0.002207 -0.003779
# 4 -0.002797 -0.007260 -0.004520 0.036500 -0.010091 0.018888
# 5 0.004135 0.006142 0.002207 -0.010091 0.029129 -0.016655
# 6 -0.008311 -0.010278 -0.003779 0.018888 -0.016655 0.057753
#
#
# Mechanical properties :
#
#
# Convention : Reuss Voigt Hill
#
# Bulk Modulus (GPa) = 26.90912 41.00385 33.95648
# Shear Modulus (GPa) = 25.94023 33.54812 29.74418
#
# Velocity S-wave (km/s) = 3.45719 3.93161 3.70200
# Velocity P-wave (km/s) = 5.32304 6.28513 5.82398
#
# Compressibility (1/GPa) = 0.03716213
#
# Stress axis : x y z
#
# Youngs Moduli (GPa) = 67.25092 55.36253 70.72420
#
# Poissons Ratio (x) = -0.04819 0.32272
# Poissons Ratio (y) = -0.05854 0.08926
# Poissons Ratio (z) = 0.30688 0.06987
#
# Static dielectric constant tensor:
#      x y z
#    x 1.844540 0.031370 0.064650 
#    y 0.031370 1.857310 0.018730 
#    z 0.064650 0.018730 1.823290 
# 
# From -- ./inp_files/308613.got.cif
#   From: 2010.05.17/outbox.cif.g08.bks.cpg/sg2_155_cif.got.tgz:308613.got - 2010.06.03 11:33:40.
