data_PCOD9085286
_publ_section_title
;
Structure prediction by ZEFSAII (Michael W. Deem and Ramdas Pophale) SiO2 
 PCOD9085286
Probable space group: P -1
;
_chemical_formula_sum "Si O2"
_cell_formula_units_Z 12
_cell_length_a 8.587467
_cell_length_b 6.647144
_cell_length_c 19.937887
_cell_angle_alpha 140.134918
_cell_angle_beta 137.866836
_cell_angle_gamma 60.755295
_cell_volume 480.700341
_symmetry_space_group_name_H-M "P -1"
_symmetry_group_IT_number 2
_symmetry_cell_setting 'triclinic'
loop_
_space_group_symop_operation_xyz
x,y,z
-x,-y,-z
loop_
_atom_site_type_symbol
_atom_site_label
_atom_site_fract_x
_atom_site_fract_y
_atom_site_fract_z
Si Si1 0.095244 0.294553 0.324681
Si Si2 0.269398 0.013086 0.573827
Si Si3 0.577208 0.422903 0.154716
Si Si4 0.639475 0.713397 0.464431
Si Si5 0.745433 0.908781 0.805492
Si Si6 0.268142 0.863380 0.993953
O O1 0.264459 0.646688 0.458062
O O2 0.142435 0.224474 0.399056
O O3 0.182149 0.038817 0.237409
O O4 0.825532 0.323890 0.232400
O O5 0.415932 0.206114 0.730642
O O6 0.304595 0.263118 0.589067
O O7 0.000000 0.000000 0.500000
O O8 0.369689 0.204445 0.075570
O O9 0.590739 0.355174 0.062137
O O10 0.475954 0.377701 0.338863
O O11 0.500000 0.000000 0.500000
O O12 0.712818 0.119501 0.914912
O O13 0.986456 0.774846 0.868847
#
# Coordination Sequence:
#
# PCOD9085286 Si02
#       6
#     2   2   2   2   2   2
#     4  10  22  38  61  95 120 149 201 246 300 355
#     4  10  21  37  59  93 118 157 189 245 304 347
#     4   9  18  36  60  89 120 161 195 241 292 355
#     4  12  23  38  62  92 121 156 193 252 308 344
#     4  10  19  35  59  91 119 157 196 246 291 352
#     4   9  18  34  61  85 119 164 198 236 294 344
#
# _framework density 24.963576
#
# number of rings (size 3 to 8) (size 9 to 14) (size 15 to 20)
#    0.000    2.000    3.333    0.500    0.000    2.667 
#    0.000    0.000    0.000   24.000    0.000    0.000 
#    0.000    0.000    0.000    0.000    0.000    0.000 
#
# Total GULP energy -66892.871440 kJ/mol
# GULP energy per Si atom -5574.405953 kJ/mol
# Density = 2.490676 g / cm^3
# Si number density = 24.963576 Si / 1000 Ang^3
#
#
#
# Elastic Constant Matrix: (Units=GPa)
#
#
# Indices 1 2 3 4 5 6 
#
# 1 115.7125 9.7107 20.6390 6.4339 -27.5645 5.1433
# 2 9.7107 53.2093 10.7977 -3.8326 -9.0640 -0.8102
# 3 20.6390 10.7977 88.6191 -14.8890 -21.3690 3.3201
# 4 6.4339 -3.8326 -14.8890 37.3356 7.4566 -16.1234
# 5 -27.5645 -9.0640 -21.3690 7.4566 53.4760 -2.1768
# 6 5.1433 -0.8102 3.3201 -16.1234 -2.1768 39.6498
#
#
#
# Elastic Compliance Matrix: (Units=1/GPa)
#
#
# Indices 1 2 3 4 5 6 
#
# 1 0.010711 -0.001107 -0.001844 -0.005033 0.005175 -0.003020
# 2 -0.001107 0.019787 -0.001400 0.001936 0.002017 0.001563
# 3 -0.001844 -0.001400 0.013614 0.005554 0.003540 0.001524
# 4 -0.005033 0.001936 0.005554 0.037585 -0.004666 0.015255
# 5 0.005175 0.002017 0.003540 -0.004666 0.023713 -0.001522
# 6 -0.003020 0.001563 0.001524 0.015255 -0.001522 0.031637
#
#
# Mechanical properties :
#
#
# Convention : Reuss Voigt Hill
#
# Bulk Modulus (GPa) = 28.24154 37.75954 33.00054
# Shear Modulus (GPa) = 31.73568 40.51850 36.12709
#
# Velocity S-wave (km/s) = 3.56937 4.03315 3.80832
# Velocity P-wave (km/s) = 5.32211 6.07018 5.70841
#
# Compressibility (1/GPa) = 0.03540884
#
# Stress axis : x y z
#
# Youngs Moduli (GPa) = 93.36358 50.53882 73.45404
#
# Poissons Ratio (x) = 0.05597 0.13545
# Poissons Ratio (y) = 0.10339 0.10283
# Poissons Ratio (z) = 0.17217 0.07075
#
# Static dielectric constant tensor:
#      x y z
#    x 2.034600 -0.030370 -0.099060 
#    y -0.030370 1.955880 -0.036510 
#    z -0.099060 -0.036510 2.038430 
# 
# From -- ./inp_files/49370.got.cif
#   From: 2010.05.17/outbox.cif.g08.bks.cpg/sg2_25_cif.got.tgz:49370.got - 2010.06.03 11:33:40.
