data_PCOD9085678
_publ_section_title
;
Structure prediction by ZEFSAII (Michael W. Deem and Ramdas Pophale) SiO2 
 PCOD9085678
Probable space group: P -1
;
_chemical_formula_sum "Si O2"
_cell_formula_units_Z 16
_cell_length_a 14.736604
_cell_length_b 9.012358
_cell_length_c 10.228406
_cell_angle_alpha 56.147942
_cell_angle_beta 71.259804
_cell_angle_gamma 110.285853
_cell_volume 794.634628
_symmetry_space_group_name_H-M "P -1"
_symmetry_group_IT_number 2
_symmetry_cell_setting 'triclinic'
loop_
_space_group_symop_operation_xyz
x,y,z
-x,-y,-z
loop_
_atom_site_type_symbol
_atom_site_label
_atom_site_fract_x
_atom_site_fract_y
_atom_site_fract_z
Si Si1 0.918488 0.497746 0.650091
Si Si2 0.668708 0.805510 0.634344
Si Si3 0.047071 0.706518 0.776004
Si Si4 0.473896 0.678411 0.183695
Si Si5 0.435897 0.774689 0.731766
Si Si6 0.365365 0.872773 0.969232
Si Si7 0.295931 0.262046 0.060999
Si Si8 0.008988 0.971346 0.354901
O O1 0.775799 0.244703 0.861596
O O2 0.000000 0.500000 0.500000
O O3 0.990209 0.595821 0.710712
O O4 0.904981 0.688562 0.516849
O O5 0.621435 0.609979 0.639278
O O6 0.554135 0.801737 0.717119
O O7 0.688529 0.711310 0.801522
O O8 0.798888 0.075207 0.414089
O O9 0.003256 0.845688 0.783328
O O10 0.000000 0.500000 0.000000
O O11 0.413451 0.766315 0.087282
O O12 0.605815 0.767873 0.013877
O O13 0.527641 0.837852 0.211693
O O14 0.500000 0.000000 0.500000
O O15 0.358650 0.786355 0.870509
O O16 0.341193 0.503496 0.855781
O O17 0.144755 0.053140 0.213292
O O18 0.000000 0.000000 0.500000
#
# Coordination Sequence:
#
# PCOD9085678 Si02
#       8
#     2   2   2   2   2   2   2   2
#     4  11  23  40  66  97 126 163 214 261 312 376
#     4  11  20  39  62  85 125 156 215 250 305 369
#     4  11  25  40  64  94 124 168 212 264 317 375
#     4  10  21  35  60  92 114 160 197 262 297 359
#     4  11  23  35  59  91 123 163 198 258 309 368
#     4  11  21  36  62  91 128 150 208 252 313 357
#     4  11  18  38  58  86 120 154 213 248 301 367
#     4  10  19  35  62  88 117 164 209 253 306 371
#
# _framework density 20.13504
#
# number of rings (size 3 to 8) (size 9 to 14) (size 15 to 20)
#    0.000    1.250    5.000    3.750    3.500    0.000 
#    0.000    3.125    2.750    0.000    0.000    0.000 
#    0.000    0.000    0.000    0.000    0.000    0.000 
#
# Total GULP energy -89178.986020 kJ/mol
# GULP energy per Si atom -5573.686626 kJ/mol
# Density = 2.008921 g / cm^3
# Si number density = 20.135040 Si / 1000 Ang^3
#
#
#
# Elastic Constant Matrix: (Units=GPa)
#
#
# Indices 1 2 3 4 5 6 
#
# 1 47.0111 12.8761 27.4848 2.3003 -15.2437 -10.3355
# 2 12.8761 79.7571 19.3082 -16.0387 0.2674 -8.6479
# 3 27.4848 19.3082 93.5442 -22.2864 0.4449 -0.3678
# 4 2.3003 -16.0387 -22.2864 28.6995 -5.6627 -8.3769
# 5 -15.2437 0.2674 0.4449 -5.6627 40.1071 -7.7570
# 6 -10.3355 -8.6479 -0.3678 -8.3769 -7.7570 22.2227
#
#
#
# Elastic Compliance Matrix: (Units=1/GPa)
#
#
# Indices 1 2 3 4 5 6 
#
# 1 0.040791 -0.001630 -0.012318 -0.002808 0.019901 0.024021
# 2 -0.001630 0.016918 0.000425 0.014299 0.003702 0.012515
# 3 -0.012318 0.000425 0.017544 0.013901 -0.003134 -0.001127
# 4 -0.002808 0.014299 0.013901 0.066994 0.014901 0.034944
# 5 0.019901 0.003702 -0.003134 0.014901 0.040489 0.030395
# 6 0.024021 0.012515 -0.001127 0.034944 0.030395 0.084804
#
#
# Mechanical properties :
#
#
# Convention : Reuss Voigt Hill
#
# Bulk Modulus (GPa) = 20.74348 37.73895 29.24122
# Shear Modulus (GPa) = 16.09499 28.91541 22.50520
#
# Velocity S-wave (km/s) = 2.83035 3.79367 3.34685
# Velocity P-wave (km/s) = 4.58320 6.16221 5.43040
#
# Compressibility (1/GPa) = 0.04820791
#
# Stress axis : x y z
#
# Youngs Moduli (GPa) = 24.51520 59.10744 57.00020
#
# Poissons Ratio (x) = 0.09635 0.70211
# Poissons Ratio (y) = 0.03996 -0.02423
# Poissons Ratio (z) = 0.30197 -0.02513
#
# Static dielectric constant tensor:
#      x y z
#    x 1.750110 0.004430 0.001300 
#    y 0.004430 1.740480 -0.027860 
#    z 0.001300 -0.027860 1.705110 
# 
# From -- ./inp_files/208835.got.cif
#   From: 2010.05.17/outbox.cif.g08.bks.cpg/sg2_105_cif.got.tgz:208835.got - 2010.06.03 11:33:40.
