data_PCOD9085068
_publ_section_title
;
Structure prediction by ZEFSAII (Michael W. Deem and Ramdas Pophale) SiO2 
 PCOD9085068
Probable space group: P -1
;
_chemical_formula_sum "Si O2"
_cell_formula_units_Z 14
_cell_length_a 11.979676
_cell_length_b 9.463368
_cell_length_c 6.870137
_cell_angle_alpha 90.308305
_cell_angle_beta 118.699625
_cell_angle_gamma 55.438881
_cell_volume 522.750699
_symmetry_space_group_name_H-M "P -1"
_symmetry_group_IT_number 2
_symmetry_cell_setting 'triclinic'
loop_
_space_group_symop_operation_xyz
x,y,z
-x,-y,-z
loop_
_atom_site_type_symbol
_atom_site_label
_atom_site_fract_x
_atom_site_fract_y
_atom_site_fract_z
Si Si1 0.219248 0.850000 0.872806
Si Si2 0.692539 0.500459 0.214627
Si Si3 0.638821 0.823254 0.990759
Si Si4 0.684234 0.003123 0.715341
Si Si5 0.057229 0.744837 0.014616
Si Si6 0.948776 0.781194 0.369119
Si Si7 0.586726 0.592530 0.571762
O O1 0.327295 0.649035 0.865589
O O2 0.135930 0.009551 0.641919
O O3 0.303180 0.905857 0.081152
O O4 0.105606 0.848830 0.935185
O O5 0.615376 0.676805 0.020372
O O6 0.639595 0.572203 0.390265
O O7 0.894275 0.371106 0.372561
O O8 0.816768 0.751607 0.224849
O O9 0.500000 0.000000 0.000000
O O10 0.632604 0.891935 0.768216
O O11 0.556631 0.191848 0.491402
O O12 0.869540 0.841320 0.785329
O O13 0.234754 0.534479 0.166776
O O14 0.023006 0.771429 0.218612
O O15 0.500000 0.500000 0.500000
#
# Coordination Sequence:
#
# PCOD9085068 Si02
#       7
#     2   2   2   2   2   2   2
#     4  10  19  35  58  88 117 140 183 245 291 321
#     4  11  22  35  59  88 114 143 190 240 287 331
#     4  10  19  37  56  80 113 152 192 228 276 344
#     4  10  20  38  60  83 114 154 192 230 277 345
#     4   9  19  35  58  81 115 150 190 226 279 344
#     4   9  20  36  57  83 110 153 191 226 277 348
#     4  11  21  34  57  87 109 151 194 230 278 343
#
# _framework density 26.781410000000001
#
# number of rings (size 3 to 8) (size 9 to 14) (size 15 to 20)
#    0.000    2.286    2.857    2.571    2.000    0.571 
#    0.000    2.857    0.000    0.857    0.000    0.000 
#    0.000    0.000    0.000    0.000    0.000    0.000 
#
# Total GULP energy -78158.092887 kJ/mol
# GULP energy per Si atom -5582.720921 kJ/mol
# Density = 2.672045 g / cm^3
# Si number density = 26.781410 Si / 1000 Ang^3
#
#
#
# Elastic Constant Matrix: (Units=GPa)
#
#
# Indices 1 2 3 4 5 6 
#
# 1 115.7030 39.8138 34.1832 -26.7715 -5.6351 -6.7772
# 2 39.8138 105.2109 44.8971 -43.7649 1.7676 -5.1660
# 3 34.1832 44.8971 138.8082 -47.3479 1.3502 -1.6592
# 4 -26.7715 -43.7649 -47.3479 62.0302 2.4952 4.8552
# 5 -5.6351 1.7676 1.3502 2.4952 38.1526 -13.1478
# 6 -6.7772 -5.1660 -1.6592 4.8552 -13.1478 57.1101
#
#
#
# Elastic Compliance Matrix: (Units=1/GPa)
#
#
# Indices 1 2 3 4 5 6 
#
# 1 0.010476 -0.002835 -0.001178 0.001436 0.002077 0.001309
# 2 -0.002835 0.014509 -0.001190 0.008181 -0.001628 -0.000129
# 3 -0.001178 -0.001190 0.010083 0.006456 -0.001164 -0.000771
# 4 0.001436 0.008181 0.006456 0.027706 -0.002868 -0.001918
# 5 0.002077 -0.001628 -0.001164 -0.002868 0.029249 0.007043
# 6 0.001309 -0.000129 -0.000771 -0.001918 0.007043 0.019416
#
#
# Mechanical properties :
#
#
# Convention : Reuss Voigt Hill
#
# Bulk Modulus (GPa) = 40.54568 66.39002 53.46785
# Shear Modulus (GPa) = 38.44189 47.51379 42.97784
#
# Velocity S-wave (km/s) = 3.79277 4.21662 4.01030
# Velocity P-wave (km/s) = 5.86110 6.96777 6.43826
#
# Compressibility (1/GPa) = 0.02466354
#
# Stress axis : x y z
#
# Youngs Moduli (GPa) = 95.45185 68.92100 99.17333
#
# Poissons Ratio (x) = 0.19540 0.11678
# Poissons Ratio (y) = 0.27062 0.11803
# Poissons Ratio (z) = 0.11240 0.08202
#
# Static dielectric constant tensor:
#      x y z
#    x 2.066460 -0.041390 0.077530 
#    y -0.041390 2.162640 -0.034350 
#    z 0.077530 -0.034350 2.238130 
# 
# From -- ./inp_files/238591.got.cif
#   From: 2010.05.17/outbox.cif.g08.bks.cpg/sg2_120_cif.got.tgz:238591.got - 2010.06.03 11:33:40.
