data_PCOD9085160
_publ_section_title
;
Structure prediction by ZEFSAII (Michael W. Deem and Ramdas Pophale) SiO2 
 PCOD9085160
Probable space group: P -1
;
_chemical_formula_sum "Si O2"
_cell_formula_units_Z 16
_cell_length_a 15.583619
_cell_length_b 8.755992
_cell_length_c 8.390097
_cell_angle_alpha 50.709005
_cell_angle_beta 64.113498
_cell_angle_gamma 98.295935
_cell_volume 635.117886
_symmetry_space_group_name_H-M "P -1"
_symmetry_group_IT_number 2
_symmetry_cell_setting 'triclinic'
loop_
_space_group_symop_operation_xyz
x,y,z
-x,-y,-z
loop_
_atom_site_type_symbol
_atom_site_label
_atom_site_fract_x
_atom_site_fract_y
_atom_site_fract_z
Si Si1 0.715310 0.184252 0.516597
Si Si2 0.146321 0.681866 0.979085
Si Si3 0.001613 0.850998 0.955138
Si Si4 0.390607 0.886910 0.041082
Si Si5 0.128843 0.193793 0.348662
Si Si6 0.502528 0.199154 0.249690
Si Si7 0.632193 0.803160 0.381201
Si Si8 0.744357 0.640382 0.161549
O O1 0.831300 0.283772 0.252643
O O2 0.676453 0.353539 0.374951
O O3 0.608811 0.922983 0.702237
O O4 0.720093 0.213953 0.682766
O O5 0.029029 0.664874 0.114743
O O6 0.256323 0.934783 0.806064
O O7 0.143819 0.449519 0.184482
O O8 0.111995 0.059835 0.615597
O O9 0.874827 0.727995 0.055436
O O10 0.000000 0.000000 0.000000
O O11 0.390320 0.714504 0.019956
O O12 0.411246 0.113498 0.781360
O O13 0.500000 0.000000 0.000000
O O14 0.227476 0.232088 0.119211
O O15 0.000000 0.000000 0.500000
O O16 0.472603 0.336073 0.309262
O O17 0.500000 0.000000 0.500000
O O18 0.682879 0.678128 0.330314
#
# Coordination Sequence:
#
# PCOD9085160 Si02
#       8
#     2   2   2   2   2   2   2   2
#     4   9  19  34  58  84 112 147 196 234 286 347
#     4  10  21  39  60  85 118 167 191 235 297 331
#     4  11  22  39  58  85 124 155 201 243 279 344
#     4   9  18  35  58  86 108 144 192 233 289 357
#     4   9  22  39  56  83 119 157 201 241 281 340
#     4   8  16  34  57  78 110 146 184 231 292 360
#     4  10  19  35  59  83 116 151 188 236 295 344
#     4  10  21  38  52  86 119 148 193 246 280 336
#
# _framework density 25.192173
#
# number of rings (size 3 to 8) (size 9 to 14) (size 15 to 20)
#    0.000    2.500    1.250    0.000    1.750    6.000 
#    2.250    6.250    0.000    0.000    0.000    0.000 
#    0.000    0.000    0.000    0.000    0.000    0.000 
#
# Total GULP energy -89225.505462 kJ/mol
# GULP energy per Si atom -5576.594091 kJ/mol
# Density = 2.513483 g / cm^3
# Si number density = 25.192173 Si / 1000 Ang^3
#
#
#
# Elastic Constant Matrix: (Units=GPa)
#
#
# Indices 1 2 3 4 5 6 
#
# 1 89.3942 30.3500 8.4872 2.5723 -5.3588 -5.5688
# 2 30.3500 153.0440 46.1671 32.6509 1.0730 -29.9080
# 3 8.4872 46.1671 81.4464 25.0547 5.5433 -0.7672
# 4 2.5723 32.6509 25.0547 45.2542 2.7712 -5.0905
# 5 -5.3588 1.0730 5.5433 2.7712 21.0458 7.2170
# 6 -5.5688 -29.9080 -0.7672 -5.0905 7.2170 40.1137
#
#
#
# Elastic Compliance Matrix: (Units=1/GPa)
#
#
# Indices 1 2 3 4 5 6 
#
# 1 0.012283 -0.002785 -0.000307 0.001171 0.003490 -0.000856
# 2 -0.002785 0.010742 -0.004274 -0.004268 -0.002099 0.007377
# 3 -0.000307 -0.004274 0.016845 -0.006456 -0.002312 -0.003310
# 4 0.001171 -0.004268 -0.006456 0.028897 -0.001885 0.000863
# 5 0.003490 -0.002099 -0.002312 -0.001885 0.053113 -0.010919
# 6 -0.000856 0.007377 -0.003310 0.000863 -0.010919 0.032321
#
#
# Mechanical properties :
#
#
# Convention : Reuss Voigt Hill
#
# Bulk Modulus (GPa) = 39.77971 54.87703 47.32837
# Shear Modulus (GPa) = 28.19885 37.20809 32.70347
#
# Velocity S-wave (km/s) = 3.34930 3.84731 3.60691
# Velocity P-wave (km/s) = 5.54814 6.44720 6.01449
#
# Compressibility (1/GPa) = 0.02513844
#
# Stress axis : x y z
#
# Youngs Moduli (GPa) = 81.41194 93.08892 59.36584
#
# Poissons Ratio (x) = 0.25924 0.01824
# Poissons Ratio (y) = 0.22672 0.25372
# Poissons Ratio (z) = 0.02502 0.39785
#
# Static dielectric constant tensor:
#      x y z
#    x 2.023780 -0.026030 -0.032550 
#    y -0.026030 2.037330 0.027820 
#    z -0.032550 0.027820 2.150080 
# 
# From -- ./inp_files/217604.got.cif
#   From: 2010.05.17/outbox.cif.g08.bks.cpg/sg2_109_cif.got.tgz:217604.got - 2010.06.03 11:33:40.
