data_PCOD9085103
_publ_section_title
;
Structure prediction by ZEFSAII (Michael W. Deem and Ramdas Pophale) SiO2 
 PCOD9085103
Probable space group: P -1
;
_chemical_formula_sum "Si O2"
_cell_formula_units_Z 15
_cell_length_a 7.104536
_cell_length_b 9.673416
_cell_length_c 9.442786
_cell_angle_alpha 112.071691
_cell_angle_beta 108.270682
_cell_angle_gamma 83.097006
_cell_volume 571.076600
_symmetry_space_group_name_H-M "P -1"
_symmetry_group_IT_number 2
_symmetry_cell_setting 'triclinic'
loop_
_space_group_symop_operation_xyz
x,y,z
-x,-y,-z
loop_
_atom_site_type_symbol
_atom_site_label
_atom_site_fract_x
_atom_site_fract_y
_atom_site_fract_z
Si Si1 0.500000 0.000000 0.500000
Si Si2 0.597750 0.616306 0.887445
Si Si3 0.006883 0.743471 0.665163
Si Si4 0.271942 0.835386 0.524951
Si Si5 0.626918 0.205628 0.861682
Si Si6 0.906340 0.381243 0.810306
Si Si7 0.779486 0.557552 0.306761
Si Si8 0.335369 0.117261 0.205688
O O1 0.748305 0.029654 0.536483
O O2 0.508756 0.146406 0.674027
O O3 0.814401 0.541044 0.892114
O O4 0.449712 0.484062 0.754622
O O5 0.594903 0.757693 0.837217
O O6 0.495051 0.676912 0.029229
O O7 0.854115 0.662233 0.490678
O O8 0.881769 0.840769 0.779967
O O9 0.162714 0.838539 0.647724
O O10 0.119015 0.605804 0.711772
O O11 0.214893 0.681384 0.380575
O O12 0.510388 0.869463 0.616016
O O13 0.831693 0.274294 0.877660
O O14 0.655271 0.054378 0.900834
O O15 0.123541 0.382053 0.792451
#
# Coordination Sequence:
#
# PCOD9085103 Si02
#       8
#     1   2   2   2   2   2   2   2
#     4   8  18  40  60  76 112 158 184 236 292 338
#     4  12  22  37  62  88 117 156 196 240 294 343
#     4  10  19  35  58  91 120 153 191 241 289 337
#     4   9  18  35  60  88 118 150 195 242 280 344
#     4  10  23  41  59  85 120 154 195 243 292 353
#     4  10  21  40  60  85 122 154 194 239 292 345
#     4  10  21  35  60  92 118 149 198 244 282 343
#     4  11  21  37  60  89 119 155 195 239 291 343
#
# _framework density 26.266179999999999
#
# number of rings (size 3 to 8) (size 9 to 14) (size 15 to 20)
#    0.000    1.867    2.667    1.600    0.000    1.600 
#    0.000   18.000    0.000    0.000    0.000    0.000 
#    0.000    0.000    0.000    0.000    0.000    0.000 
#
# Total GULP energy -83734.584975 kJ/mol
# GULP energy per Si atom -5582.305665 kJ/mol
# Density = 2.620640 g / cm^3
# Si number density = 26.266180 Si / 1000 Ang^3
#
#
#
# Elastic Constant Matrix: (Units=GPa)
#
#
# Indices 1 2 3 4 5 6 
#
# 1 102.0438 26.0477 5.9649 0.9794 -18.4042 32.1935
# 2 26.0477 133.6162 -0.6968 -2.8994 -4.9524 35.1030
# 3 5.9649 -0.6968 55.1716 5.7196 -6.0029 17.7964
# 4 0.9794 -2.8994 5.7196 39.9570 4.5788 -9.7691
# 5 -18.4042 -4.9524 -6.0029 4.5788 27.7889 -9.0621
# 6 32.1935 35.1030 17.7964 -9.7691 -9.0621 48.8087
#
#
#
# Elastic Compliance Matrix: (Units=1/GPa)
#
#
# Indices 1 2 3 4 5 6 
#
# 1 0.014085 0.000023 0.002849 -0.003989 0.007420 -0.009767
# 2 0.000023 0.009672 0.003021 -0.001788 -0.000067 -0.008444
# 3 0.002849 0.003021 0.023267 -0.006881 0.004309 -0.013113
# 4 -0.003989 -0.001788 -0.006881 0.029377 -0.005615 0.011263
# 5 0.007420 -0.000067 0.004309 -0.005615 0.042881 0.000421
# 6 -0.009767 -0.008444 -0.013113 0.011263 0.000421 0.040116
#
#
# Mechanical properties :
#
#
# Convention : Reuss Voigt Hill
#
# Bulk Modulus (GPa) = 17.00350 39.27368 28.13859
# Shear Modulus (GPa) = 29.90145 40.61198 35.25671
#
# Velocity S-wave (km/s) = 3.37768 3.93640 3.66770
# Velocity P-wave (km/s) = 4.65824 5.97034 5.35463
#
# Compressibility (1/GPa) = 0.05881141
#
# Stress axis : x y z
#
# Youngs Moduli (GPa) = 70.99732 103.38801 42.97882
#
# Poissons Ratio (x) = -0.00241 -0.12244
# Poissons Ratio (y) = -0.00166 -0.12985
# Poissons Ratio (z) = -0.20226 -0.31236
#
# Static dielectric constant tensor:
#      x y z
#    x 2.078810 -0.053730 0.050880 
#    y -0.053730 2.189920 -0.148560 
#    z 0.050880 -0.148560 2.152630 
# 
# From -- ./inp_files/363889.got.cif
#   From: 2010.05.17/outbox.cif.g08.bks.cpg/sg2_182_cif.got.tgz:363889.got - 2010.06.03 11:33:40.
