data_PCOD9085840
_publ_section_title
;
Structure prediction by ZEFSAII (Michael W. Deem and Ramdas Pophale) SiO2 
 PCOD9085840
Probable space group: P -1
;
_chemical_formula_sum "Si O2"
_cell_formula_units_Z 14
_cell_length_a 15.684403
_cell_length_b 9.743504
_cell_length_c 8.588179
_cell_angle_alpha 107.572343
_cell_angle_beta 129.148336
_cell_angle_gamma 44.515909
_cell_volume 686.562581
_symmetry_space_group_name_H-M "P -1"
_symmetry_group_IT_number 2
_symmetry_cell_setting 'triclinic'
loop_
_space_group_symop_operation_xyz
x,y,z
-x,-y,-z
loop_
_atom_site_type_symbol
_atom_site_label
_atom_site_fract_x
_atom_site_fract_y
_atom_site_fract_z
Si Si1 0.615698 0.023817 0.196958
Si Si2 0.089468 0.067457 0.095202
Si Si3 0.451412 0.200514 0.577933
Si Si4 0.563409 0.283259 0.475523
Si Si5 0.100858 0.483658 0.844287
Si Si6 0.767891 0.911297 0.018049
Si Si7 0.199156 0.379460 0.582165
O O1 0.546148 0.229069 0.266316
O O2 0.713465 0.854586 0.385855
O O3 0.500000 0.000000 0.000000
O O4 0.737093 0.958357 0.182125
O O5 0.122835 0.088850 0.961634
O O6 0.984438 0.296226 0.117196
O O7 0.258639 0.896912 0.316981
O O8 0.000000 0.000000 0.000000
O O9 0.450241 0.297185 0.458868
O O10 0.301260 0.363673 0.566561
O O11 0.500000 0.000000 0.500000
O O12 0.597934 0.100187 0.820003
O O13 0.500000 0.500000 0.500000
O O14 0.192895 0.436940 0.774230
O O15 0.970114 0.493085 0.634746
O O16 0.189613 0.300223 0.009555
#
# Coordination Sequence:
#
# PCOD9085840 Si02
#       7
#     2   2   2   2   2   2   2
#     4  11  19  38  67  96 122 154 209 262 313 361
#     4  11  24  44  58  87 133 168 202 249 314 380
#     4  11  19  38  63  91 124 157 211 258 307 366
#     4  11  25  42  62  92 129 166 205 261 313 371
#     4  10  21  37  62  90 124 154 207 253 309 366
#     4  10  22  37  65  93 115 161 210 259 303 365
#     4  10  19  35  63  94 119 154 201 266 304 357
#
# _framework density 20.391438999999998
#
# number of rings (size 3 to 8) (size 9 to 14) (size 15 to 20)
#    0.000    1.429    4.286    1.286    0.000    4.571 
#    2.571    2.143    0.000    0.000    0.000    0.000 
#    0.000    0.000    0.000    0.000    0.000    0.000 
#
# Total GULP energy -77954.167420 kJ/mol
# GULP energy per Si atom -5568.154816 kJ/mol
# Density = 2.034503 g / cm^3
# Si number density = 20.391439 Si / 1000 Ang^3
#
#
#
# Elastic Constant Matrix: (Units=GPa)
#
#
# Indices 1 2 3 4 5 6 
#
# 1 185.7461 62.9542 33.6868 25.6013 -4.8097 -11.8586
# 2 62.9542 131.1447 25.9666 21.6970 -8.8734 -2.0109
# 3 33.6868 25.9666 48.1731 7.7673 6.3816 -4.2795
# 4 25.6013 21.6970 7.7673 21.5025 -3.9110 4.0450
# 5 -4.8097 -8.8734 6.3816 -3.9110 13.0922 -2.3223
# 6 -11.8586 -2.0109 -4.2795 4.0450 -2.3223 33.6561
#
#
#
# Elastic Compliance Matrix: (Units=1/GPa)
#
#
# Indices 1 2 3 4 5 6 
#
# 1 0.007739 -0.001811 -0.003381 -0.006402 0.001900 0.003089
# 2 -0.001811 0.010885 -0.004537 -0.005993 0.007249 0.000656
# 3 -0.003381 -0.004537 0.029333 -0.005950 -0.020110 0.001595
# 4 -0.006402 -0.005993 -0.005950 0.066946 0.014639 -0.010406
# 5 0.001900 0.007249 -0.020110 0.014639 0.096782 0.003464
# 6 0.003089 0.000656 0.001595 -0.010406 0.003464 0.032533
#
#
# Mechanical properties :
#
#
# Convention : Reuss Voigt Hill
#
# Bulk Modulus (GPa) = 35.08699 67.80880 51.44789
# Shear Modulus (GPa) = 18.30329 29.81390 24.05859
#
# Velocity S-wave (km/s) = 2.99924 3.82786 3.43860
# Velocity P-wave (km/s) = 5.40722 7.27066 6.40705
#
# Compressibility (1/GPa) = 0.02850059
#
# Stress axis : x y z
#
# Youngs Moduli (GPa) = 129.20980 91.87155 34.09105
#
# Poissons Ratio (x) = 0.16635 0.11526
# Poissons Ratio (y) = 0.23396 0.15466
# Poissons Ratio (z) = 0.43686 0.41679
#
# Static dielectric constant tensor:
#      x y z
#    x 1.799470 -0.040280 -0.012860 
#    y -0.040280 1.735410 -0.033660 
#    z -0.012860 -0.033660 1.803570 
# 
# From -- ./inp_files/155524.got.cif
#   From: 2010.05.17/outbox.cif.g08.bks.cpg/sg2_78_cif.got.tgz:155524.got - 2010.06.03 11:33:40.
