data_PCOD9085078
_publ_section_title
;
Structure prediction by ZEFSAII (Michael W. Deem and Ramdas Pophale) SiO2 
 PCOD9085078
Probable space group: P -1
;
_chemical_formula_sum "Si O2"
_cell_formula_units_Z 16
_cell_length_a 7.963195
_cell_length_b 22.306485
_cell_length_c 13.883683
_cell_angle_alpha 21.075744
_cell_angle_beta 132.107044
_cell_angle_gamma 129.265501
_cell_volume 657.697384
_symmetry_space_group_name_H-M "P -1"
_symmetry_group_IT_number 2
_symmetry_cell_setting 'triclinic'
loop_
_space_group_symop_operation_xyz
x,y,z
-x,-y,-z
loop_
_atom_site_type_symbol
_atom_site_label
_atom_site_fract_x
_atom_site_fract_y
_atom_site_fract_z
Si Si1 0.943388 0.105991 0.516566
Si Si2 0.673075 0.109215 0.966394
Si Si3 0.866355 0.858802 0.720796
Si Si4 0.470187 0.410017 0.992948
Si Si5 0.070938 0.694432 0.601234
Si Si6 0.080377 0.675036 0.418238
Si Si7 0.729006 0.388575 0.710374
Si Si8 0.711295 0.410813 0.889690
O O1 0.906713 0.159300 0.532000
O O2 0.786265 0.958171 0.635551
O O3 0.892812 0.267574 0.191702
O O4 0.191741 0.031173 0.713734
O O5 0.850254 0.197772 0.828521
O O6 0.594420 0.265226 0.768952
O O7 0.500000 0.000000 0.000000
O O8 0.655295 0.749308 0.767351
O O9 0.000000 0.000000 0.500000
O O10 0.050434 0.724816 0.019516
O O11 0.712327 0.422136 0.120834
O O12 0.298464 0.560237 0.694544
O O13 0.527647 0.379260 0.948554
O O14 0.044982 0.750618 0.397271
O O15 0.848786 0.581714 0.707567
O O16 0.860873 0.561330 0.474201
O O17 0.630757 0.408848 0.750780
#
# Coordination Sequence:
#
# PCOD9085078 Si02
#       8
#     2   2   2   2   2   2   2   2
#     4  10  21  38  59  88 127 153 197 245 319 350
#     4  11  25  38  62  91 121 166 202 258 296 365
#     4  10  19  35  58  88 123 160 190 251 307 362
#     4  10  21  36  62  94 122 156 207 248 308 365
#     4  10  22  37  63  91 120 162 194 266 301 358
#     4  10  22  41  61  86 121 165 212 236 304 377
#     4   9  20  42  63  85 119 166 202 248 309 362
#     4  10  20  38  65  92 121 156 197 261 310 359
#
# _framework density 24.327297000000002
#
# number of rings (size 3 to 8) (size 9 to 14) (size 15 to 20)
#    0.000    2.000    1.250    2.250    3.500    4.500 
#    2.250    0.625    2.750    0.000    0.000    0.000 
#    0.000    0.000    0.000    0.000    0.000    0.000 
#
# Total GULP energy -89320.152028 kJ/mol
# GULP energy per Si atom -5582.509502 kJ/mol
# Density = 2.427193 g / cm^3
# Si number density = 24.327297 Si / 1000 Ang^3
#
#
#
# Elastic Constant Matrix: (Units=GPa)
#
#
# Indices 1 2 3 4 5 6 
#
# 1 82.9253 36.4852 22.0661 -12.8994 -22.6883 -6.6270
# 2 36.4852 116.8614 24.8804 -2.5521 -7.9093 -9.0718
# 3 22.0661 24.8804 56.3752 4.6576 -22.6423 7.8115
# 4 -12.8994 -2.5521 4.6576 35.5212 1.3798 4.6412
# 5 -22.6883 -7.9093 -22.6423 1.3798 37.1708 5.3715
# 6 -6.6270 -9.0718 7.8115 4.6412 5.3715 44.0994
#
#
#
# Elastic Compliance Matrix: (Units=1/GPa)
#
#
# Indices 1 2 3 4 5 6 
#
# 1 0.017831 -0.004335 -0.002341 0.006078 0.008229 0.000560
# 2 -0.004335 0.010954 -0.005055 -0.000369 -0.003814 0.003001
# 3 -0.002341 -0.005055 0.029010 -0.004605 0.016502 -0.008055
# 4 0.006078 -0.000369 -0.004605 0.031151 -0.000097 -0.001613
# 5 0.008229 -0.003814 0.016502 -0.000097 0.042269 -0.007609
# 6 0.000560 0.003001 -0.008055 -0.001613 -0.007609 0.025901
#
#
# Mechanical properties :
#
#
# Convention : Reuss Voigt Hill
#
# Bulk Modulus (GPa) = 29.12678 47.00281 38.06480
# Shear Modulus (GPa) = 26.03876 34.87362 30.45619
#
# Velocity S-wave (km/s) = 3.27517 3.79029 3.54211
# Velocity P-wave (km/s) = 5.12847 6.20629 5.69294
#
# Compressibility (1/GPa) = 0.03433266
#
# Stress axis : x y z
#
# Youngs Moduli (GPa) = 56.08201 91.29442 34.47133
#
# Poissons Ratio (x) = 0.39581 0.08069
# Poissons Ratio (y) = 0.24314 0.17424
# Poissons Ratio (z) = 0.13127 0.46145
#
# Static dielectric constant tensor:
#      x y z
#    x 1.990400 -0.068530 0.075580 
#    y -0.068530 2.019550 0.039930 
#    z 0.075580 0.039930 1.928730 
# 
# From -- ./inp_files/508714.got.cif
#   From: 2010.05.17/outbox.cif.g08.bks.cpg/sg2_255_cif.got.tgz:508714.got - 2010.06.03 11:33:40.
