data_PCOD9085527
_publ_section_title
;
Structure prediction by ZEFSAII (Michael W. Deem and Ramdas Pophale) SiO2 
 PCOD9085527
Probable space group: P -1
;
_chemical_formula_sum "Si O2"
_cell_formula_units_Z 16
_cell_length_a 14.845490
_cell_length_b 12.285545
_cell_length_c 15.901190
_cell_angle_alpha 47.645328
_cell_angle_beta 153.180472
_cell_angle_gamma 114.964158
_cell_volume 815.430483
_symmetry_space_group_name_H-M "P -1"
_symmetry_group_IT_number 2
_symmetry_cell_setting 'triclinic'
loop_
_space_group_symop_operation_xyz
x,y,z
-x,-y,-z
loop_
_atom_site_type_symbol
_atom_site_label
_atom_site_fract_x
_atom_site_fract_y
_atom_site_fract_z
Si Si1 0.113519 0.551264 0.141818
Si Si2 0.389628 0.575102 0.592761
Si Si3 0.863325 0.705194 0.019984
Si Si4 0.399179 0.304670 0.030781
Si Si5 0.613614 0.296016 0.781630
Si Si6 0.725139 0.068194 0.745464
Si Si7 0.238460 0.631236 0.621504
Si Si8 0.715637 0.957050 0.981935
O O1 0.373929 0.400201 0.470932
O O2 0.171935 0.697008 0.086684
O O3 0.934377 0.610503 0.039589
O O4 0.000000 0.500000 0.000000
O O5 0.555099 0.407006 0.760899
O O6 0.418308 0.736678 0.510614
O O7 0.394459 0.550909 0.708863
O O8 0.121490 0.642138 0.306395
O O9 0.728342 0.672406 0.997803
O O10 0.715704 0.913225 0.775198
O O11 0.638856 0.296175 0.254904
O O12 0.241085 0.476758 0.753502
O O13 0.433365 0.134125 0.102509
O O14 0.667719 0.101534 0.935447
O O15 0.681299 0.055292 0.813717
O O16 0.000000 0.000000 0.000000
O O17 0.982777 0.791684 0.298421
#
# Coordination Sequence:
#
# PCOD9085527 Si02
#       8
#     2   2   2   2   2   2   2   2
#     4  10  21  36  57  85 125 165 183 230 290 352
#     4  10  19  35  61  85 119 158 177 237 290 343
#     4   9  18  34  57  86 116 144 197 239 279 344
#     4  10  23  39  59  89 107 146 209 247 279 346
#     4  10  22  37  55  89 124 150 195 224 286 362
#     4   9  14  29  54  83 110 140 181 225 279 337
#     4  11  22  38  65  81 113 152 197 247 295 327
#     4  11  20  38  60  82 119 154 186 245 288 342
#
# _framework density 19.621537
#
# number of rings (size 3 to 8) (size 9 to 14) (size 15 to 20)
#    0.000    2.000    3.750    3.375    1.750    1.000 
#    0.000    1.875    0.000    1.500    0.000    0.000 
#    0.000    0.000    0.000    0.000    0.000    0.000 
#
# Total GULP energy -89241.925955 kJ/mol
# GULP energy per Si atom -5577.620372 kJ/mol
# Density = 1.957688 g / cm^3
# Si number density = 19.621537 Si / 1000 Ang^3
#
#
#
# Elastic Constant Matrix: (Units=GPa)
#
#
# Indices 1 2 3 4 5 6 
#
# 1 62.7723 29.6678 35.5058 -30.2332 -25.5228 15.7479
# 2 29.6678 16.9115 64.9316 -57.9527 -55.3578 62.5902
# 3 35.5058 64.9316 25.2240 12.5838 7.2676 -20.1649
# 4 -30.2332 -57.9527 12.5838 22.8725 -12.7661 25.1754
# 5 -25.5228 -55.3578 7.2676 -12.7661 1.6316 24.2381
# 6 15.7479 62.5902 -20.1649 25.1754 24.2381 -3.0830
#
#
#
# Elastic Compliance Matrix: (Units=1/GPa)
#
#
# Indices 1 2 3 4 5 6 
#
# 1 0.028704 -0.012859 -0.006788 0.005358 0.004037 0.005442
# 2 -0.012859 0.009411 0.002709 -0.004805 -0.008047 0.005152
# 3 -0.006788 0.002709 0.028478 0.002354 0.017461 -0.009434
# 4 0.005358 -0.004805 0.002354 0.022990 -0.012117 0.006886
# 5 0.004037 -0.008047 0.017461 -0.012117 0.046843 0.012357
# 6 0.005442 0.005152 -0.009434 0.006886 0.012357 0.023121
#
#
# Mechanical properties :
#
#
# Convention : Reuss Voigt Hill
#
# Bulk Modulus (GPa) = 30.56486 40.56868 35.56677
# Shear Modulus (GPa) = 24.47030 2.60442 13.53736
#
# Velocity S-wave (km/s) = 3.53528 1.15335 2.62949
# Velocity P-wave (km/s) = 5.68114 4.74279 5.23304
#
# Compressibility (1/GPa) = 0.03271731
#
# Stress axis : x y z
#
# Youngs Moduli (GPa) = 34.83792 106.25624 35.11487
#
# Poissons Ratio (x) = 1.36638 0.23836
# Poissons Ratio (y) = 0.44799 -0.09514
# Poissons Ratio (z) = 0.23648 -0.28788
#
# Static dielectric constant tensor:
#      x y z
#    x 1.628650 -0.088860 -0.070590 
#    y -0.088860 1.624370 -0.101330 
#    z -0.070590 -0.101330 1.581170 
# 
# From -- ./inp_files/532434.got.cif
#   From: 2010.05.17/outbox.cif.g08.bks.cpg/sg2_267_cif.got.tgz:532434.got - 2010.06.03 11:33:40.
