data_PCOD9085528
_publ_section_title
;
Structure prediction by ZEFSAII (Michael W. Deem and Ramdas Pophale) SiO2 
 PCOD9085528
Probable space group: P -1
;
_chemical_formula_sum "Si O2"
_cell_formula_units_Z 16
_cell_length_a 8.995627
_cell_length_b 13.997438
_cell_length_c 10.729592
_cell_angle_alpha 75.842101
_cell_angle_beta 30.401984
_cell_angle_gamma 74.634588
_cell_volume 658.908720
_symmetry_space_group_name_H-M "P -1"
_symmetry_group_IT_number 2
_symmetry_cell_setting 'triclinic'
loop_
_space_group_symop_operation_xyz
x,y,z
-x,-y,-z
loop_
_atom_site_type_symbol
_atom_site_label
_atom_site_fract_x
_atom_site_fract_y
_atom_site_fract_z
Si Si1 0.775881 0.380815 0.824685
Si Si2 0.489145 0.880583 0.029511
Si Si3 0.571168 0.707354 0.661177
Si Si4 0.594715 0.932598 0.336022
Si Si5 0.210756 0.880121 0.976104
Si Si6 0.112186 0.891507 0.516479
Si Si7 0.307627 0.580534 0.698818
Si Si8 0.225023 0.449121 0.046097
O O1 0.542612 0.397764 0.875472
O O2 0.079944 0.321660 0.578971
O O3 0.597931 0.338183 0.083671
O O4 0.866644 0.483801 0.786613
O O5 0.278129 0.858518 0.077221
O O6 0.819811 0.840682 0.766750
O O7 0.352141 0.840743 0.264368
O O8 0.500000 0.000000 0.000000
O O9 0.454039 0.821202 0.731435
O O10 0.465060 0.669333 0.616339
O O11 0.297004 0.901783 0.503837
O O12 0.500000 0.000000 0.500000
O O13 0.736043 0.004968 0.112027
O O14 0.883042 0.858181 0.183580
O O15 0.000000 0.000000 0.500000
O O16 0.500000 0.500000 0.500000
O O17 0.244672 0.521913 0.890303
O O18 0.024040 0.614601 0.806933
#
# Coordination Sequence:
#
# PCOD9085528 Si02
#       8
#     2   2   2   2   2   2   2   2
#     4  10  22  40  64  94 127 164 212 256 308 367
#     4  10  19  37  60  83 109 148 197 253 298 370
#     4  11  25  41  60  92 131 168 204 264 319 367
#     4  11  23  39  66  90 118 167 216 265 313 387
#     4  11  25  40  62  90 124 163 213 265 324 373
#     4  10  19  35  61  86 109 142 200 258 297 366
#     4  10  19  37  65  93 130 171 206 251 308 371
#     4   9  20  36  67  96 121 169 217 250 295 381
#
# _framework density 24.282575000000001
#
# number of rings (size 3 to 8) (size 9 to 14) (size 15 to 20)
#    0.000    1.750    3.750    1.500    5.250    1.500 
#    0.000    2.500    0.000    0.000    0.000    0.000 
#    0.000    0.000    0.000    0.000    0.000    0.000 
#
# Total GULP energy -89385.894967 kJ/mol
# GULP energy per Si atom -5586.618435 kJ/mol
# Density = 2.422731 g / cm^3
# Si number density = 24.282575 Si / 1000 Ang^3
#
#
#
# Elastic Constant Matrix: (Units=GPa)
#
#
# Indices 1 2 3 4 5 6 
#
# 1 185.5461 26.9746 56.0794 9.7000 -35.4351 16.2734
# 2 26.9746 44.2869 12.7259 10.2489 -11.1905 3.3099
# 3 56.0794 12.7259 156.4988 13.8432 -18.9107 -7.0547
# 4 9.7000 10.2489 13.8432 31.7192 0.1814 3.1332
# 5 -35.4351 -11.1905 -18.9107 0.1814 51.3891 2.9662
# 6 16.2734 3.3099 -7.0547 3.1332 2.9662 19.0365
#
#
#
# Elastic Compliance Matrix: (Units=1/GPa)
#
#
# Indices 1 2 3 4 5 6 
#
# 1 0.008098 -0.002485 -0.002534 0.000214 0.004581 -0.008178
# 2 -0.002485 0.027183 -0.000211 -0.007751 0.004275 -0.002071
# 3 -0.002534 -0.000211 0.007945 -0.003177 0.000822 0.005542
# 4 0.000214 -0.007751 -0.003177 0.035913 -0.002517 -0.005531
# 5 0.004581 0.004275 0.000822 -0.002517 0.024307 -0.007728
# 6 -0.008178 -0.002071 0.005542 -0.005531 -0.007728 0.064050
#
#
# Mechanical properties :
#
#
# Convention : Reuss Voigt Hill
#
# Bulk Modulus (GPa) = 30.51900 64.21020 47.36460
# Shear Modulus (GPa) = 26.47238 39.79908 33.13573
#
# Velocity S-wave (km/s) = 3.30537 4.05285 3.69804
# Velocity P-wave (km/s) = 5.21180 6.95709 6.14670
#
# Compressibility (1/GPa) = 0.03276647
#
# Stress axis : x y z
#
# Youngs Moduli (GPa) = 123.49472 36.78786 125.86549
#
# Poissons Ratio (x) = 0.09141 0.31889
# Poissons Ratio (y) = 0.30685 0.02658
# Poissons Ratio (z) = 0.31288 0.00777
#
# Static dielectric constant tensor:
#      x y z
#    x 1.928230 -0.029480 -0.010260 
#    y -0.029480 2.138990 -0.003370 
#    z -0.010260 -0.003370 1.993240 
# 
# From -- ./inp_files/51555.got.cif
#   From: 2010.05.17/outbox.cif.g08.bks.cpg/sg2_26_cif.got.tgz:51555.got - 2010.06.03 11:33:40.
