data_PCOD9085784
_publ_section_title
;
Structure prediction by ZEFSAII (Michael W. Deem and Ramdas Pophale) SiO2 
 PCOD9085784
Probable space group: P -1
;
_chemical_formula_sum "Si O2"
_cell_formula_units_Z 12
_cell_length_a 16.468316
_cell_length_b 12.058138
_cell_length_c 15.967564
_cell_angle_alpha 143.850311
_cell_angle_beta 157.286570
_cell_angle_gamma 23.073282
_cell_volume 461.713106
_symmetry_space_group_name_H-M "P -1"
_symmetry_group_IT_number 2
_symmetry_cell_setting 'triclinic'
loop_
_space_group_symop_operation_xyz
x,y,z
-x,-y,-z
loop_
_atom_site_type_symbol
_atom_site_label
_atom_site_fract_x
_atom_site_fract_y
_atom_site_fract_z
Si Si1 0.276378 0.989671 0.504725
Si Si2 0.909813 0.246554 0.884294
Si Si3 0.656923 0.349990 0.877856
Si Si4 0.444218 0.144491 0.623448
Si Si5 0.367179 0.209551 0.875526
Si Si6 0.033933 0.388628 0.845756
O O1 0.054529 0.957962 0.264514
O O2 0.645735 0.646913 0.642195
O O3 0.213241 0.170395 0.475114
O O4 0.289478 0.111654 0.671904
O O5 0.633440 0.393128 0.781509
O O6 0.847368 0.489502 0.930554
O O7 0.241626 0.056658 0.137682
O O8 0.396856 0.393327 0.702059
O O9 0.680900 0.545127 0.052197
O O10 0.000000 0.000000 0.000000
O O11 0.500000 0.000000 0.500000
O O12 0.137144 0.331528 0.811455
O O13 0.739130 0.924235 0.087807
#
# Coordination Sequence:
#
# PCOD9085784 Si02
#       6
#     2   2   2   2   2   2
#     4  11  21  37  66  93 124 163 204 260 311 363
#     4   9  19  36  63  90 120 165 205 250 314 370
#     4   9  18  37  61  81 124 164 200 251 307 366
#     4  10  19  35  63  87 119 169 204 247 314 364
#     4  10  21  40  64  93 125 161 213 255 304 378
#     4   9  21  42  63  86 132 163 200 259 313 367
#
# _framework density 25.990167
#
# number of rings (size 3 to 8) (size 9 to 14) (size 15 to 20)
#    0.000    2.333    1.667    1.500    0.000    1.333 
#    0.000   17.500    0.000    0.000    0.000    0.000 
#    0.000    0.000    0.000    0.000    0.000    0.000 
#
# Total GULP energy -67136.533486 kJ/mol
# GULP energy per Si atom -5594.711124 kJ/mol
# Density = 2.593101 g / cm^3
# Si number density = 25.990167 Si / 1000 Ang^3
#
#
#
# Elastic Constant Matrix: (Units=GPa)
#
#
# Indices 1 2 3 4 5 6 
#
# 1 89.3294 26.7247 40.1104 4.1845 -0.6116 6.0740
# 2 26.7247 149.2449 78.1607 13.4197 -5.8772 10.6737
# 3 40.1104 78.1607 142.1416 34.3226 -21.6106 -1.5925
# 4 4.1845 13.4197 34.3226 59.9378 -9.5428 -3.3020
# 5 -0.6116 -5.8772 -21.6106 -9.5428 28.8254 9.4755
# 6 6.0740 10.6737 -1.5925 -3.3020 9.4755 46.6880
#
#
#
# Elastic Compliance Matrix: (Units=1/GPa)
#
#
# Indices 1 2 3 4 5 6 
#
# 1 0.013170 -0.000262 -0.004180 0.001125 -0.002112 -0.001288
# 2 -0.000262 0.009763 -0.005711 0.000772 -0.001364 -0.002061
# 3 -0.004180 -0.005711 0.013678 -0.005096 0.007149 0.000505
# 4 0.001125 0.000772 -0.005096 0.019817 0.002811 0.000334
# 5 -0.002112 -0.001364 0.007149 0.002811 0.043203 -0.007739
# 6 -0.001288 -0.002061 0.000505 0.000334 -0.007739 0.023669
#
#
# Mechanical properties :
#
#
# Convention : Reuss Voigt Hill
#
# Bulk Modulus (GPa) = 61.32893 74.52304 67.92599
# Shear Modulus (GPa) = 33.54805 42.80491 38.17648
#
# Velocity S-wave (km/s) = 3.59667 4.06268 3.83676
# Velocity P-wave (km/s) = 6.39501 7.12341 6.76902
#
# Compressibility (1/GPa) = 0.01630552
#
# Stress axis : x y z
#
# Youngs Moduli (GPa) = 75.93028 102.43197 73.10834
#
# Poissons Ratio (x) = 0.02679 0.30558
# Poissons Ratio (y) = 0.01986 0.41755
# Poissons Ratio (z) = 0.31737 0.58502
#
# Static dielectric constant tensor:
#      x y z
#    x 2.120050 -0.040530 0.054590 
#    y -0.040530 2.106400 -0.033710 
#    z 0.054590 -0.033710 2.043480 
# 
# From -- ./inp_files/578147.got.cif
#   From: 2010.05.17/outbox.cif.g08.bks.cpg/sg2_290_cif.got.tgz:578147.got - 2010.06.03 11:33:40.
