data_PCOD9085120
_publ_section_title
;
Structure prediction by ZEFSAII (Michael W. Deem and Ramdas Pophale) SiO2 
 PCOD9085120
Probable space group: P -1
;
_chemical_formula_sum "Si O2"
_cell_formula_units_Z 14
_cell_length_a 16.311570
_cell_length_b 5.049041
_cell_length_c 8.336675
_cell_angle_alpha 84.388405
_cell_angle_beta 58.531423
_cell_angle_gamma 64.632827
_cell_volume 522.042765
_symmetry_space_group_name_H-M "P -1"
_symmetry_group_IT_number 2
_symmetry_cell_setting 'triclinic'
loop_
_space_group_symop_operation_xyz
x,y,z
-x,-y,-z
loop_
_atom_site_type_symbol
_atom_site_label
_atom_site_fract_x
_atom_site_fract_y
_atom_site_fract_z
Si Si1 0.418871 0.571115 0.225454
Si Si2 0.709174 0.573691 0.175738
Si Si3 0.632046 0.920564 0.527177
Si Si4 0.902933 0.720491 0.912393
Si Si5 0.245805 0.685564 0.164755
Si Si6 0.078916 0.726374 0.545140
Si Si7 0.168089 0.000189 0.713032
O O1 0.405293 0.291857 0.324778
O O2 0.306762 0.765394 0.236937
O O3 0.430802 0.757279 0.349872
O O4 0.500000 0.500000 0.000000
O O5 0.630540 0.856532 0.342152
O O6 0.739295 0.288224 0.273747
O O7 0.825278 0.567531 0.025751
O O8 0.674792 0.534805 0.035527
O O9 0.760146 0.833800 0.421617
O O10 0.010632 0.575607 0.705957
O O11 0.829076 0.023189 0.874796
O O12 0.916562 0.821445 0.071623
O O13 0.174575 0.551611 0.334526
O O14 0.118796 0.873258 0.636552
O O15 0.000000 0.000000 0.500000
#
# Coordination Sequence:
#
# PCOD9085120 Si02
#       7
#     2   2   2   2   2   2   2
#     4  12  26  45  72 102 128 167 218 272 335 397
#     4  10  21  39  66  93 131 179 221 261 327 388
#     4  11  22  45  70  95 133 172 212 266 333 395
#     4   9  21  35  62  91 134 177 221 266 318 388
#     4  10  22  40  62  95 133 170 218 278 325 381
#     4  10  19  35  58  94 136 172 224 269 323 376
#     4  10  19  39  62  91 134 177 219 260 327 387
#
# _framework density 26.817729
#
# number of rings (size 3 to 8) (size 9 to 14) (size 15 to 20)
#    0.000    1.714    2.857    0.857    2.000    1.143 
#    0.000    7.143    0.000    0.000    0.000    0.000 
#    0.000    0.000    0.000    0.000    0.000    0.000 
#
# Total GULP energy -78383.558120 kJ/mol
# GULP energy per Si atom -5598.825580 kJ/mol
# Density = 2.675669 g / cm^3
# Si number density = 26.817729 Si / 1000 Ang^3
#
#
#
# Elastic Constant Matrix: (Units=GPa)
#
#
# Indices 1 2 3 4 5 6 
#
# 1 57.1855 9.9023 31.5393 0.3132 13.3703 8.6569
# 2 9.9023 101.9201 58.1118 -17.5038 -3.8364 27.4734
# 3 31.5393 58.1118 196.3349 -3.4539 -16.3273 11.9282
# 4 0.3132 -17.5038 -3.4539 54.8725 5.6060 6.4135
# 5 13.3703 -3.8364 -16.3273 5.6060 46.5570 3.3512
# 6 8.6569 27.4734 11.9282 6.4135 3.3512 29.1768
#
#
#
# Elastic Compliance Matrix: (Units=1/GPa)
#
#
# Indices 1 2 3 4 5 6 
#
# 1 0.022253 0.002047 -0.004396 0.001749 -0.007524 -0.006253
# 2 0.002047 0.018231 -0.004553 0.007602 -0.000335 -0.017545
# 3 -0.004396 -0.004553 0.007247 -0.001625 0.003438 0.002591
# 4 0.001749 0.007602 -0.001625 0.022127 -0.002274 -0.011615
# 5 -0.007524 -0.000335 0.003438 -0.002274 0.025182 -0.001250
# 6 -0.006253 -0.017545 0.002591 -0.011615 -0.001250 0.054288
#
#
# Mechanical properties :
#
#
# Convention : Reuss Voigt Hill
#
# Bulk Modulus (GPa) = 29.47455 61.61638 45.54546
# Shear Modulus (GPa) = 28.66312 43.18038 35.92175
#
# Velocity S-wave (km/s) = 3.27282 4.01701 3.66386
# Velocity P-wave (km/s) = 5.02955 6.67391 5.90920
#
# Compressibility (1/GPa) = 0.03392757
#
# Stress axis : x y z
#
# Youngs Moduli (GPa) = 44.93787 54.85074 137.98881
#
# Poissons Ratio (x) = -0.11227 0.60654
# Poissons Ratio (y) = -0.09198 0.62828
# Poissons Ratio (z) = 0.19753 0.24974
#
# Static dielectric constant tensor:
#      x y z
#    x 2.111800 -0.003500 -0.041970 
#    y -0.003500 2.124200 0.007140 
#    z -0.041970 0.007140 2.100560 
# 
# From -- ./inp_files/37603.got.cif
#   From: 2010.05.17/outbox.cif.g08.bks.cpg/sg2_19_cif.got.tgz:37603.got - 2010.06.03 11:33:40.
