data_PCOD9085713
_publ_section_title
;
Structure prediction by ZEFSAII (Michael W. Deem and Ramdas Pophale) SiO2 
 PCOD9085713
Probable space group: P -1
;
_chemical_formula_sum "Si O2"
_cell_formula_units_Z 16
_cell_length_a 8.986871
_cell_length_b 10.296390
_cell_length_c 8.962173
_cell_angle_alpha 126.359637
_cell_angle_beta 91.914833
_cell_angle_gamma 81.716561
_cell_volume 659.461907
_symmetry_space_group_name_H-M "P -1"
_symmetry_group_IT_number 2
_symmetry_cell_setting 'triclinic'
loop_
_space_group_symop_operation_xyz
x,y,z
-x,-y,-z
loop_
_atom_site_type_symbol
_atom_site_label
_atom_site_fract_x
_atom_site_fract_y
_atom_site_fract_z
Si Si1 0.120232 0.607870 0.356102
Si Si2 0.721601 0.260870 0.000849
Si Si3 0.117751 0.125208 0.562083
Si Si4 0.064135 0.281147 0.979534
Si Si5 0.713969 0.922426 0.942096
Si Si6 0.470611 0.875893 0.700524
Si Si7 0.665342 0.415368 0.400889
Si Si8 0.353450 0.819397 0.353533
O O1 0.091543 0.460625 0.148778
O O2 0.196060 0.542050 0.469541
O O3 0.241490 0.705965 0.347141
O O4 0.966346 0.736014 0.454976
O O5 0.681482 0.405423 0.217512
O O6 0.887549 0.273611 0.955278
O O7 0.606082 0.261280 0.859986
O O8 0.733402 0.085876 0.964454
O O9 0.262421 0.998920 0.435537
O O10 0.138282 0.213676 0.780317
O O11 0.000000 0.000000 0.500000
O O12 0.134508 0.166368 0.039599
O O13 0.628400 0.822351 0.752292
O O14 0.597946 0.956319 0.103472
O O15 0.345216 0.769645 0.677079
O O16 0.469912 0.850502 0.506979
O O17 0.500000 0.500000 0.500000
#
# Coordination Sequence:
#
# PCOD9085713 Si02
#       8
#     2   2   2   2   2   2   2   2
#     4  10  22  37  65  91 127 171 201 249 305 378
#     4  11  24  36  63  93 127 157 211 262 310 365
#     4  10  19  35  62  91 125 166 197 242 309 365
#     4  12  21  37  64  97 131 159 209 253 308 365
#     4  10  21  36  61  93 123 168 208 254 304 360
#     4   9  19  39  63  85 119 170 219 241 296 380
#     4  10  22  43  63  82 121 167 207 258 320 369
#     4  10  20  40  64  95 127 167 205 252 305 370
#
# _framework density 24.262204000000001
#
# number of rings (size 3 to 8) (size 9 to 14) (size 15 to 20)
#    0.000    1.750    3.750    1.500    1.750    2.000 
#    0.000    3.750    0.000    0.000    0.000    0.000 
#    0.000    0.000    0.000    0.000    0.000    0.000 
#
# Total GULP energy -89309.843889 kJ/mol
# GULP energy per Si atom -5581.865243 kJ/mol
# Density = 2.420698 g / cm^3
# Si number density = 24.262204 Si / 1000 Ang^3
#
#
#
# Elastic Constant Matrix: (Units=GPa)
#
#
# Indices 1 2 3 4 5 6 
#
# 1 45.4738 6.1018 38.2787 -10.6784 31.5612 2.0274
# 2 6.1018 49.0354 37.4688 -5.9149 12.1309 -2.8878
# 3 38.2787 37.4688 179.1096 -25.3559 35.5547 -21.3305
# 4 -10.6784 -5.9149 -25.3559 41.0627 -5.3129 13.6670
# 5 31.5612 12.1309 35.5547 -5.3129 36.8940 -7.2969
# 6 2.0274 -2.8878 -21.3305 13.6670 -7.2969 37.4246
#
#
#
# Elastic Compliance Matrix: (Units=1/GPa)
#
#
# Indices 1 2 3 4 5 6 
#
# 1 0.077810 0.012526 -0.006545 0.018211 -0.067033 -0.026699
# 2 0.012526 0.026834 -0.005521 0.003801 -0.014866 -0.006041
# 3 -0.006545 -0.005521 0.008890 0.001509 -0.000059 0.004433
# 4 0.018211 0.003801 0.001509 0.033525 -0.016479 -0.015289
# 5 -0.067033 -0.014866 -0.000059 -0.016479 0.092253 0.026456
# 6 -0.026699 -0.006041 0.004433 -0.015289 0.026456 0.040969
#
#
# Mechanical properties :
#
#
# Convention : Reuss Voigt Hill
#
# Bulk Modulus (GPa) = 8.73708 48.59083 28.66396
# Shear Modulus (GPa) = 15.74750 35.86090 25.80420
#
# Velocity S-wave (km/s) = 2.55042 3.84872 3.26476
# Velocity P-wave (km/s) = 3.50454 6.31039 5.10406
#
# Compressibility (1/GPa) = 0.11445467
#
# Stress axis : x y z
#
# Youngs Moduli (GPa) = 12.85182 37.26664 112.48324
#
# Poissons Ratio (x) = -0.46681 0.73617
# Poissons Ratio (y) = -0.16098 0.62101
# Poissons Ratio (z) = 0.08411 0.20575
#
# Static dielectric constant tensor:
#      x y z
#    x 1.924850 0.007360 0.007620 
#    y 0.007360 2.007750 -0.006070 
#    z 0.007620 -0.006070 2.014190 
# 
# From -- ./inp_files/190798.got.cif
#   From: 2010.05.17/outbox.cif.g08.bks.cpg/sg2_96_cif.got.tgz:190798.got - 2010.06.03 11:33:40.
