data_PCOD9085729
_publ_section_title
;
Structure prediction by ZEFSAII (Michael W. Deem and Ramdas Pophale) SiO2 
 PCOD9085729
Probable space group: P -1
;
_chemical_formula_sum "Si O2"
_cell_formula_units_Z 14
_cell_length_a 10.255149
_cell_length_b 22.200792
_cell_length_c 5.074375
_cell_angle_alpha 67.043316
_cell_angle_beta 103.482833
_cell_angle_gamma 145.724129
_cell_volume 590.187901
_symmetry_space_group_name_H-M "P -1"
_symmetry_group_IT_number 2
_symmetry_cell_setting 'triclinic'
loop_
_space_group_symop_operation_xyz
x,y,z
-x,-y,-z
loop_
_atom_site_type_symbol
_atom_site_label
_atom_site_fract_x
_atom_site_fract_y
_atom_site_fract_z
Si Si1 0.514631 0.645976 0.256423
Si Si2 0.247312 0.426617 0.393334
Si Si3 0.310359 0.053240 0.610648
Si Si4 0.762489 0.181324 0.835701
Si Si5 0.847702 0.893731 0.909812
Si Si6 0.208134 0.894449 0.505862
Si Si7 0.716717 0.673258 0.785686
O O1 0.277258 0.517083 0.249575
O O2 0.509295 0.618263 0.601331
O O3 0.622273 0.761617 0.120775
O O4 0.689815 0.682190 0.058705
O O5 0.500000 0.500000 0.500000
O O6 0.244852 0.386856 0.180075
O O7 0.010288 0.311813 0.632027
O O8 0.540556 0.139945 0.751760
O O9 0.258203 0.102478 0.375084
O O10 0.334419 0.010093 0.462169
O O11 0.064090 0.936555 0.833236
O O12 0.721671 0.105237 0.741802
O O13 0.775512 0.154482 0.174722
O O14 0.000000 0.000000 0.000000
O O15 0.932294 0.797653 0.540369
#
# Coordination Sequence:
#
# PCOD9085729 Si02
#       7
#     2   2   2   2   2   2   2
#     4  11  21  38  61  91 122 162 212 256 304 363
#     4   9  20  37  63  94 128 161 201 255 317 380
#     4  11  25  42  61  92 127 164 218 256 312 371
#     4  11  25  39  64  98 128 163 198 264 326 375
#     4  11  26  42  68  87 123 177 217 263 297 373
#     4  11  21  39  64  93 130 159 198 259 328 377
#     4  10  19  35  62  92 127 154 202 255 314 373
#
# _framework density 23.721259
#
# number of rings (size 3 to 8) (size 9 to 14) (size 15 to 20)
#    0.000    1.429    1.429    4.714    6.000    3.429 
#    0.000    0.714    0.000    0.857    0.000    0.000 
#    0.000    0.000    0.000    0.000    0.000    0.000 
#
# Total GULP energy -78013.186421 kJ/mol
# GULP energy per Si atom -5572.370459 kJ/mol
# Density = 2.366727 g / cm^3
# Si number density = 23.721259 Si / 1000 Ang^3
#
#
#
# Elastic Constant Matrix: (Units=GPa)
#
#
# Indices 1 2 3 4 5 6 
#
# 1 50.7326 33.8704 31.9475 1.0129 -2.3212 9.2905
# 2 33.8704 107.7896 25.9511 -10.4835 3.2141 -11.2699
# 3 31.9475 25.9511 105.7931 0.0122 0.5991 2.0469
# 4 1.0129 -10.4835 0.0122 50.0286 -0.2001 1.2170
# 5 -2.3212 3.2141 0.5991 -0.2001 36.7225 5.5775
# 6 9.2905 -11.2699 2.0469 1.2170 5.5775 44.2705
#
#
#
# Elastic Compliance Matrix: (Units=1/GPa)
#
#
# Indices 1 2 3 4 5 6 
#
# 1 0.033049 -0.009999 -0.007366 -0.002510 0.004535 -0.009643
# 2 -0.009999 0.013478 -0.000384 0.002875 -0.002671 0.005805
# 3 -0.007366 -0.000384 0.011756 0.000038 -0.000776 0.001001
# 4 -0.002510 0.002875 0.000038 0.020622 -0.000411 0.000742
# 5 0.004535 -0.002671 -0.000776 -0.000411 0.028549 -0.005181
# 6 -0.009643 0.005805 0.001001 0.000742 -0.005181 0.026676
#
#
# Mechanical properties :
#
#
# Convention : Reuss Voigt Hill
#
# Bulk Modulus (GPa) = 43.88985 49.76148 46.82566
# Shear Modulus (GPa) = 28.21301 37.70741 32.96021
#
# Velocity S-wave (km/s) = 3.45244 3.99131 3.73162
# Velocity P-wave (km/s) = 5.86813 6.50107 6.19269
#
# Compressibility (1/GPa) = 0.02278431
#
# Stress axis : x y z
#
# Youngs Moduli (GPa) = 30.25827 74.19540 85.06206
#
# Poissons Ratio (x) = 0.74187 0.62658
# Poissons Ratio (y) = 0.30255 0.03268
# Poissons Ratio (z) = 0.22289 0.02850
#
# Static dielectric constant tensor:
#      x y z
#    x 2.002970 -0.006520 0.030390 
#    y -0.006520 2.036780 -0.013800 
#    z 0.030390 -0.013800 1.968560 
# 
# From -- ./inp_files/52543.got.cif
#   From: 2010.05.17/outbox.cif.g08.bks.cpg/sg2_27_cif.got.tgz:52543.got - 2010.06.03 11:33:40.
