data_PCOD9085525
_publ_section_title
;
Structure prediction by ZEFSAII (Michael W. Deem and Ramdas Pophale) SiO2 
 PCOD9085525
Probable space group: P -1
;
_chemical_formula_sum "Si O2"
_cell_formula_units_Z 14
_cell_length_a 8.667486
_cell_length_b 16.385089
_cell_length_c 10.899918
_cell_angle_alpha 34.371225
_cell_angle_beta 96.907390
_cell_angle_gamma 75.020089
_cell_volume 667.836192
_symmetry_space_group_name_H-M "P -1"
_symmetry_group_IT_number 2
_symmetry_cell_setting 'triclinic'
loop_
_space_group_symop_operation_xyz
x,y,z
-x,-y,-z
loop_
_atom_site_type_symbol
_atom_site_label
_atom_site_fract_x
_atom_site_fract_y
_atom_site_fract_z
Si Si1 0.791682 0.629117 0.393104
Si Si2 0.996601 0.946051 0.771177
Si Si3 0.068826 0.739581 0.773627
Si Si4 0.619962 0.574531 0.657866
Si Si5 0.617334 0.971816 0.423830
Si Si6 0.565989 0.295255 0.893642
Si Si7 0.663543 0.002082 0.839100
O O1 0.791929 0.544013 0.625940
O O2 0.618646 0.649698 0.273124
O O3 0.000000 0.500000 0.500000
O O4 0.730487 0.833838 0.144488
O O5 0.038559 0.838060 0.780572
O O6 0.909455 0.152525 0.463717
O O7 0.849158 0.944372 0.844941
O O8 0.216531 0.834448 0.991863
O O9 0.853258 0.791369 0.669130
O O10 0.267410 0.525951 0.078524
O O11 0.539504 0.471287 0.724407
O O12 0.441821 0.795678 0.366354
O O13 0.501944 0.969882 0.301730
O O14 0.500000 0.000000 0.500000
O O15 0.600665 0.155142 0.176962
#
# Coordination Sequence:
#
# PCOD9085525 Si02
#       7
#     2   2   2   2   2   2   2
#     4  11  23  42  64  83 110 158 201 235 283 354
#     4   9  17  36  59  82 115 151 197 227 282 349
#     4   9  18  34  57  84 114 158 189 234 278 349
#     4  11  23  38  57  89 124 146 193 245 292 339
#     4  10  19  35  61  85 117 155 199 231 277 353
#     4   9  21  39  61  84 109 156 199 234 280 353
#     4  11  23  37  59  89 119 152 188 252 292 324
#
# _framework density 20.963225999999999
#
# number of rings (size 3 to 8) (size 9 to 14) (size 15 to 20)
#    0.000    2.000    1.429    3.429    2.000    1.143 
#    0.000    7.143    0.000    0.000    0.000    0.000 
#    0.000    0.000    0.000    0.000    0.000    0.000 
#
# Total GULP energy -78174.517893 kJ/mol
# GULP energy per Si atom -5583.894135 kJ/mol
# Density = 2.091551 g / cm^3
# Si number density = 20.963226 Si / 1000 Ang^3
#
#
#
# Elastic Constant Matrix: (Units=GPa)
#
#
# Indices 1 2 3 4 5 6 
#
# 1 129.5795 11.8456 42.3022 -2.2833 -3.9896 0.9027
# 2 11.8456 16.8907 14.9917 -8.9622 -13.2418 0.7550
# 3 42.3022 14.9917 121.5884 -16.2431 -15.5085 15.9743
# 4 -2.2833 -8.9622 -16.2431 28.4555 7.0506 -1.0844
# 5 -3.9896 -13.2418 -15.5085 7.0506 40.8073 2.8645
# 6 0.9027 0.7550 15.9743 -1.0844 2.8645 10.2474
#
#
#
# Elastic Compliance Matrix: (Units=1/GPa)
#
#
# Indices 1 2 3 4 5 6 
#
# 1 0.009498 -0.007139 -0.004017 -0.002819 -0.002881 0.006458
# 2 -0.007139 0.100227 -0.002182 0.022550 0.027711 -0.008714
# 3 -0.004017 -0.002182 0.014131 0.004969 0.004982 -0.022380
# 4 -0.002819 0.022550 0.004969 0.044264 0.001629 -0.004931
# 5 -0.002881 0.027711 0.004982 0.001629 0.036197 -0.019500
# 6 0.006458 -0.008714 -0.022380 -0.004931 -0.019500 0.137475
#
#
# Mechanical properties :
#
#
# Convention : Reuss Voigt Hill
#
# Bulk Modulus (GPa) = 10.29020 45.14864 27.71942
# Shear Modulus (GPa) = 12.47320 29.16331 20.81825
#
# Velocity S-wave (km/s) = 2.44192 3.73388 3.15474
# Velocity P-wave (km/s) = 3.58747 6.33821 5.14990
#
# Compressibility (1/GPa) = 0.09717984
#
# Stress axis : x y z
#
# Youngs Moduli (GPa) = 105.28790 9.97737 70.76873
#
# Poissons Ratio (x) = 0.07122 0.28425
# Poissons Ratio (y) = 0.75161 0.15445
# Poissons Ratio (z) = 0.42291 0.02177
#
# Static dielectric constant tensor:
#      x y z
#    x 1.753220 0.016840 0.005540 
#    y 0.016840 1.748270 -0.011720 
#    z 0.005540 -0.011720 1.814660 
# 
# From -- ./inp_files/171591.got.cif
#   From: 2010.05.17/outbox.cif.g08.bks.cpg/sg2_86_cif.got.tgz:171591.got - 2010.06.03 11:33:40.
