data_PCOD9085342
_publ_section_title
;
Structure prediction by ZEFSAII (Michael W. Deem and Ramdas Pophale) SiO2 
 PCOD9085342
Probable space group: P -1
;
_chemical_formula_sum "Si O2"
_cell_formula_units_Z 16
_cell_length_a 8.880816
_cell_length_b 8.494417
_cell_length_c 18.696839
_cell_angle_alpha 144.874204
_cell_angle_beta 93.663180
_cell_angle_gamma 80.247341
_cell_volume 792.840088
_symmetry_space_group_name_H-M "P -1"
_symmetry_group_IT_number 2
_symmetry_cell_setting 'triclinic'
loop_
_space_group_symop_operation_xyz
x,y,z
-x,-y,-z
loop_
_atom_site_type_symbol
_atom_site_label
_atom_site_fract_x
_atom_site_fract_y
_atom_site_fract_z
Si Si1 0.884051 0.391918 0.554136
Si Si2 0.591880 0.627617 0.420005
Si Si3 0.459672 0.204400 0.006770
Si Si4 0.169091 0.299944 0.932831
Si Si5 0.577773 0.840310 0.747482
Si Si6 0.127544 0.714627 0.646508
Si Si7 0.382807 0.295013 0.812568
Si Si8 0.717160 0.933753 0.411650
O O1 0.735026 0.643860 0.653304
O O2 0.926260 0.256133 0.426109
O O3 0.021408 0.554282 0.630825
O O4 0.839718 0.132056 0.498995
O O5 0.518798 0.370148 0.297163
O O6 0.707870 0.493434 0.434545
O O7 0.689607 0.746595 0.407567
O O8 0.449715 0.861031 0.526024
O O9 0.282177 0.253549 0.989264
O O10 0.571288 0.067076 0.893894
O O11 0.507326 0.500395 0.133117
O O12 0.500000 0.000000 0.000000
O O13 0.275221 0.413717 0.920065
O O14 0.147317 0.997954 0.790437
O O15 0.000000 0.500000 0.000000
O O16 0.487200 0.010645 0.742010
O O17 0.269939 0.238247 0.724976
#
# Coordination Sequence:
#
# PCOD9085342 Si02
#       8
#     2   2   2   2   2   2   2   2
#     4  10  22  36  60  87 120 155 201 248 304 364
#     4  10  19  35  60  84 122 151 195 248 312 355
#     4  11  24  42  64  92 122 161 206 257 306 361
#     4  11  24  42  64  92 123 162 207 255 304 363
#     4  10  19  38  61  89 114 155 207 252 293 360
#     4  11  21  38  60  86 122 159 196 252 305 362
#     4  11  21  37  64  86 118 159 208 252 296 362
#     4  10  20  36  57  90 118 157 195 252 302 366
#
# _framework density 20.180613999999998
#
# number of rings (size 3 to 8) (size 9 to 14) (size 15 to 20)
#    0.000    1.500    3.750    3.000    3.500    2.500 
#    0.000    1.875    0.000    0.000    0.000    0.000 
#    0.000    0.000    0.000    0.000    0.000    0.000 
#
# Total GULP energy -89075.123087 kJ/mol
# GULP energy per Si atom -5567.195193 kJ/mol
# Density = 2.013468 g / cm^3
# Si number density = 20.180614 Si / 1000 Ang^3
#
#
#
# Elastic Constant Matrix: (Units=GPa)
#
#
# Indices 1 2 3 4 5 6 
#
# 1 109.9351 33.6256 33.5870 20.4743 6.2546 -3.2314
# 2 33.6256 69.9926 32.2468 13.1151 7.9040 3.7095
# 3 33.5870 32.2468 70.8248 17.8313 14.7703 0.1768
# 4 20.4743 13.1151 17.8313 29.4946 10.2277 6.3320
# 5 6.2546 7.9040 14.7703 10.2277 34.1667 14.3115
# 6 -3.2314 3.7095 0.1768 6.3320 14.3115 29.9030
#
#
#
# Elastic Compliance Matrix: (Units=1/GPa)
#
#
# Indices 1 2 3 4 5 6 
#
# 1 0.012227 -0.003712 -0.002691 -0.005954 0.000356 0.002888
# 2 -0.003712 0.019627 -0.006926 -0.001635 0.000811 -0.002837
# 3 -0.002691 -0.006926 0.021837 -0.006796 -0.007626 0.005528
# 4 -0.005954 -0.001635 -0.006796 0.046687 -0.006580 -0.007137
# 5 0.000356 0.000811 -0.007626 -0.006580 0.042157 -0.018800
# 6 0.002888 -0.002837 0.005528 -0.007137 -0.018800 0.044582
#
#
# Mechanical properties :
#
#
# Convention : Reuss Voigt Hill
#
# Bulk Modulus (GPa) = 36.99246 49.96346 43.47796
# Shear Modulus (GPa) = 22.44314 28.79907 25.62111
#
# Velocity S-wave (km/s) = 3.33845 3.78175 3.56700
# Velocity P-wave (km/s) = 5.76462 6.62425 6.20933
#
# Compressibility (1/GPa) = 0.02703254
#
# Stress axis : x y z
#
# Youngs Moduli (GPa) = 81.78442 50.95093 45.79459
#
# Poissons Ratio (x) = 0.18914 0.12323
# Poissons Ratio (y) = 0.30359 0.31718
# Poissons Ratio (z) = 0.22007 0.35289
#
# Static dielectric constant tensor:
#      x y z
#    x 1.734680 -0.013570 0.023820 
#    y -0.013570 1.741530 -0.009440 
#    z 0.023820 -0.009440 1.764610 
# 
# From -- ./inp_files/169441.got.cif
#   From: 2010.05.17/outbox.cif.g08.bks.cpg/sg2_85_cif.got.tgz:169441.got - 2010.06.03 11:33:40.
