data_PCOD9085499
_publ_section_title
;
Structure prediction by ZEFSAII (Michael W. Deem and Ramdas Pophale) SiO2 
 PCOD9085499
Probable space group: P -1
;
_chemical_formula_sum "Si O2"
_cell_formula_units_Z 16
_cell_length_a 14.698310
_cell_length_b 14.085166
_cell_length_c 15.670099
_cell_angle_alpha 35.293708
_cell_angle_beta 143.285910
_cell_angle_gamma 158.991125
_cell_volume 659.536045
_symmetry_space_group_name_H-M "P -1"
_symmetry_group_IT_number 2
_symmetry_cell_setting 'triclinic'
loop_
_space_group_symop_operation_xyz
x,y,z
-x,-y,-z
loop_
_atom_site_type_symbol
_atom_site_label
_atom_site_fract_x
_atom_site_fract_y
_atom_site_fract_z
Si Si1 0.597481 0.612684 0.291112
Si Si2 0.806746 0.664257 0.688203
Si Si3 0.550089 0.897125 0.731134
Si Si4 0.966595 0.353946 0.999738
Si Si5 0.510729 0.190419 0.049000
Si Si6 0.050782 0.354637 0.668229
Si Si7 0.708886 0.989286 0.529864
Si Si8 0.049578 0.853816 0.563763
O O1 0.463235 0.605424 0.271383
O O2 0.419750 0.299862 0.363603
O O3 0.833672 0.734269 0.426144
O O4 0.596045 0.726464 0.124740
O O5 0.913953 0.668254 0.682064
O O6 0.792197 0.842358 0.517933
O O7 0.996759 0.789712 0.817871
O O8 0.511718 0.833587 0.848883
O O9 0.342925 0.605572 0.737269
O O10 0.474411 0.024024 0.565191
O O11 0.841415 0.124306 0.751899
O O12 0.202659 0.577261 0.946588
O O13 0.689988 0.113046 0.922792
O O14 0.000000 0.500000 0.000000
O O15 0.000000 0.500000 0.500000
O O16 0.953341 0.184050 0.633796
O O17 0.784331 0.110511 0.401118
#
# Coordination Sequence:
#
# PCOD9085499 Si02
#       8
#     2   2   2   2   2   2   2   2
#     4  10  21  38  61  88 126 173 201 261 310 375
#     4   9  20  36  53  89 119 165 206 253 306 358
#     4  11  24  42  68  94 127 165 207 264 317 383
#     4  11  23  40  62  89 128 171 208 258 304 374
#     4  11  24  44  63  90 131 169 208 249 327 368
#     4  10  22  43  66  94 130 159 203 267 331 367
#     4  10  23  36  64  95 115 161 213 263 316 369
#     4  10  19  35  61  82 124 156 214 253 306 365
#
# _framework density 24.259477
#
# number of rings (size 3 to 8) (size 9 to 14) (size 15 to 20)
#    0.000    1.750    1.250    3.000    7.000    1.000 
#    0.000    1.250    0.000    0.000    0.000    0.000 
#    0.000    0.000    0.000    0.000    0.000    0.000 
#
# Total GULP energy -89345.395609 kJ/mol
# GULP energy per Si atom -5584.087226 kJ/mol
# Density = 2.420426 g / cm^3
# Si number density = 24.259477 Si / 1000 Ang^3
#
#
#
# Elastic Constant Matrix: (Units=GPa)
#
#
# Indices 1 2 3 4 5 6 
#
# 1 88.7971 19.2798 23.7303 -9.5880 -40.2165 8.1262
# 2 19.2798 106.7375 24.3909 -8.7736 -18.2909 -6.0262
# 3 23.7303 24.3909 96.1181 -11.3147 -36.3440 -3.7650
# 4 -9.5880 -8.7736 -11.3147 24.9353 6.9600 -6.5271
# 5 -40.2165 -18.2909 -36.3440 6.9600 41.3758 -2.3421
# 6 8.1262 -6.0262 -3.7650 -6.5271 -2.3421 42.7725
#
#
#
# Elastic Compliance Matrix: (Units=1/GPa)
#
#
# Indices 1 2 3 4 5 6 
#
# 1 0.021473 -0.000658 0.003992 0.002720 0.023509 -0.002118
# 2 -0.000658 0.010546 -0.001074 0.002753 0.002734 0.002086
# 3 0.003992 -0.001074 0.017008 0.004519 0.017712 0.002247
# 4 0.002720 0.002753 0.004519 0.045937 0.000516 0.007307
# 5 0.023509 0.002734 0.017712 0.000516 0.063759 0.001048
# 6 -0.002118 0.002086 0.002247 0.007307 0.001048 0.025446
#
#
# Mechanical properties :
#
#
# Convention : Reuss Voigt Hill
#
# Bulk Modulus (GPa) = 18.67550 47.38385 33.02968
# Shear Modulus (GPa) = 25.31677 36.76684 31.04181
#
# Velocity S-wave (km/s) = 3.23396 3.89725 3.58099
# Velocity P-wave (km/s) = 4.65399 6.31078 5.54461
#
# Compressibility (1/GPa) = 0.05354608
#
# Stress axis : x y z
#
# Youngs Moduli (GPa) = 46.57081 94.82597 58.79544
#
# Poissons Ratio (x) = 0.06242 -0.23472
# Poissons Ratio (y) = 0.03065 0.06315
# Poissons Ratio (z) = -0.18592 0.10186
#
# Static dielectric constant tensor:
#      x y z
#    x 2.012670 0.001840 0.033940 
#    y 0.001840 2.025690 -0.030210 
#    z 0.033940 -0.030210 1.926990 
# 
# From -- ./inp_files/368997.got.cif
#   From: 2010.05.17/outbox.cif.g08.bks.cpg/sg2_185_cif.got.tgz:368997.got - 2010.06.03 11:33:40.
