data_PCOD9085389
_publ_section_title
;
Structure prediction by ZEFSAII (Michael W. Deem and Ramdas Pophale) SiO2 
 PCOD9085389
Probable space group: P -1
;
_chemical_formula_sum "Si O2"
_cell_formula_units_Z 16
_cell_length_a 12.339650
_cell_length_b 12.185014
_cell_length_c 14.393252
_cell_angle_alpha 39.094898
_cell_angle_beta 95.596883
_cell_angle_gamma 127.135523
_cell_volume 734.179402
_symmetry_space_group_name_H-M "P -1"
_symmetry_group_IT_number 2
_symmetry_cell_setting 'triclinic'
loop_
_space_group_symop_operation_xyz
x,y,z
-x,-y,-z
loop_
_atom_site_type_symbol
_atom_site_label
_atom_site_fract_x
_atom_site_fract_y
_atom_site_fract_z
Si Si1 0.543927 0.660310 0.767097
Si Si2 0.645557 0.276422 0.249247
Si Si3 0.195028 0.859795 0.690410
Si Si4 0.479750 0.773484 0.934534
Si Si5 0.165937 0.510363 0.524205
Si Si6 0.473728 0.264426 0.624682
Si Si7 0.931736 0.323266 0.467553
Si Si8 0.209894 0.635585 0.109322
O O1 0.344236 0.510570 0.856547
O O2 0.650391 0.825850 0.568131
O O3 0.516380 0.425697 0.944808
O O4 0.713855 0.977160 0.638055
O O5 0.811096 0.349447 0.208251
O O6 0.581263 0.212411 0.176998
O O7 0.500000 0.000000 0.500000
O O8 0.968400 0.614793 0.818355
O O9 0.302653 0.019865 0.692196
O O10 0.693339 0.144743 0.730829
O O11 0.333449 0.627842 0.102442
O O12 0.315494 0.545431 0.515476
O O13 0.989457 0.272906 0.590305
O O14 0.086273 0.498039 0.619195
O O15 0.500000 0.500000 0.500000
O O16 0.373370 0.008509 0.863713
O O17 0.092709 0.503616 0.281812
#
# Coordination Sequence:
#
# PCOD9085389 Si02
#       8
#     2   2   2   2   2   2   2   2
#     4  10  21  35  64  91 114 152 203 245 283 343
#     4  10  19  35  60  87 122 157 189 240 298 349
#     4  10  20  39  59  86 122 154 193 240 296 347
#     4  11  21  37  61  91 119 149 202 245 289 348
#     4  10  22  40  59  81 121 158 192 237 301 351
#     4  11  23  39  60  85 119 158 195 239 293 359
#     4  10  21  40  60  83 119 154 195 242 299 343
#     4  10  23  39  62  85 116 157 197 245 298 342
#
# _framework density 21.793039
#
# number of rings (size 3 to 8) (size 9 to 14) (size 15 to 20)
#    0.000    1.750    3.750    0.750    0.000    7.000 
#    0.000    0.625    0.000    0.000    0.000    0.000 
#    0.000    0.000    0.000    0.000    0.000    0.000 
#
# Total GULP energy -89123.544733 kJ/mol
# GULP energy per Si atom -5570.221546 kJ/mol
# Density = 2.174344 g / cm^3
# Si number density = 21.793039 Si / 1000 Ang^3
#
#
#
# Elastic Constant Matrix: (Units=GPa)
#
#
# Indices 1 2 3 4 5 6 
#
# 1 108.8744 23.9247 26.4172 3.2788 4.0153 -30.8652
# 2 23.9247 56.6134 14.8247 11.8541 1.4686 -14.3648
# 3 26.4172 14.8247 52.4458 19.2153 0.5255 -17.9288
# 4 3.2788 11.8541 19.2153 19.3377 -7.6149 -5.7392
# 5 4.0153 1.4686 0.5255 -7.6149 43.8241 2.5072
# 6 -30.8652 -14.3648 -17.9288 -5.7392 2.5072 29.1003
#
#
#
# Elastic Compliance Matrix: (Units=1/GPa)
#
#
# Indices 1 2 3 4 5 6 
#
# 1 0.014355 -0.003360 -0.005148 0.008151 -0.000413 0.012039
# 2 -0.003360 0.023645 0.003859 -0.017094 -0.003927 0.007453
# 3 -0.005148 0.003859 0.040252 -0.040491 -0.007974 0.013946
# 4 0.008151 -0.017094 -0.040491 0.107042 0.019213 -0.005284
# 5 -0.000413 -0.003927 -0.007974 0.019213 0.026754 -0.005806
# 6 0.012039 0.007453 0.013946 -0.005284 -0.005806 0.058862
#
#
# Mechanical properties :
#
#
# Convention : Reuss Voigt Hill
#
# Bulk Modulus (GPa) = 14.50223 38.69631 26.59927
# Shear Modulus (GPa) = 16.49117 28.63687 22.56402
#
# Velocity S-wave (km/s) = 2.75383 3.62890 3.22122
# Velocity P-wave (km/s) = 4.09639 5.94587 5.10557
#
# Compressibility (1/GPa) = 0.06895492
#
# Stress axis : x y z
#
# Youngs Moduli (GPa) = 69.66281 42.29191 24.84336
#
# Poissons Ratio (x) = 0.14209 0.12789
# Poissons Ratio (y) = 0.23404 -0.09586
# Poissons Ratio (z) = 0.35860 -0.16319
#
# Static dielectric constant tensor:
#      x y z
#    x 1.821670 -0.004670 -0.022350 
#    y -0.004670 1.859620 0.060200 
#    z -0.022350 0.060200 1.806050 
# 
# From -- ./inp_files/446364.got.cif
#   From: 2010.05.17/outbox.cif.g08.bks.cpg/sg2_224_cif.got.tgz:446364.got - 2010.06.03 11:33:40.
