data_PCOD9085258
_publ_section_title
;
Structure prediction by ZEFSAII (Michael W. Deem and Ramdas Pophale) SiO2 
 PCOD9085258
Probable space group: P -1
;
_chemical_formula_sum "Si O2"
_cell_formula_units_Z 16
_cell_length_a 12.651635
_cell_length_b 10.173852
_cell_length_c 15.224159
_cell_angle_alpha 39.571037
_cell_angle_beta 46.591418
_cell_angle_gamma 76.689060
_cell_volume 691.389033
_symmetry_space_group_name_H-M "P -1"
_symmetry_group_IT_number 2
_symmetry_cell_setting 'triclinic'
loop_
_space_group_symop_operation_xyz
x,y,z
-x,-y,-z
loop_
_atom_site_type_symbol
_atom_site_label
_atom_site_fract_x
_atom_site_fract_y
_atom_site_fract_z
Si Si1 0.857481 0.064328 0.747369
Si Si2 0.776171 0.234275 0.042548
Si Si3 0.085256 0.235409 0.898945
Si Si4 0.472563 0.585115 0.583224
Si Si5 0.294851 0.709393 0.759075
Si Si6 0.129744 0.977317 0.681692
Si Si7 0.432012 0.585859 0.232250
Si Si8 0.816709 0.330240 0.777165
O O1 0.839016 0.121525 0.831659
O O2 0.986589 0.980390 0.703972
O O3 0.981408 0.368317 0.484449
O O4 0.646149 0.832715 0.953496
O O5 0.633601 0.906512 0.309346
O O6 0.761591 0.366862 0.067757
O O7 0.998481 0.370608 0.844133
O O8 0.723459 0.257682 0.963284
O O9 0.312858 0.417340 0.685409
O O10 0.967809 0.101629 0.125871
O O11 0.000000 0.000000 0.000000
O O12 0.332662 0.550114 0.758324
O O13 0.556600 0.458116 0.647435
O O14 0.500000 0.000000 0.500000
O O15 0.169614 0.772894 0.749995
O O16 0.327823 0.285311 0.409731
O O17 0.303003 0.653529 0.235908
#
# Coordination Sequence:
#
# PCOD9085258 Si02
#       8
#     2   2   2   2   2   2   2   2
#     4  10  21  38  59  84 123 166 208 242 302 370
#     4  10  22  39  59  92 124 156 201 259 305 354
#     4  11  22  35  56  91 128 150 193 257 307 357
#     4  11  22  39  65  91 120 164 204 249 311 363
#     4   9  18  38  62  90 122 156 206 253 304 363
#     4  10  19  35  59  89 118 156 199 250 298 357
#     4  11  20  37  62  88 116 164 211 240 299 377
#     4  10  23  39  59  85 127 165 203 253 303 362
#
# _framework density 23.141819999999999
#
# number of rings (size 3 to 8) (size 9 to 14) (size 15 to 20)
#    0.000    1.750    5.000    1.125    0.000    4.500 
#    0.000    0.625    0.000    0.750    0.000    0.000 
#    0.000    0.000    0.000    0.000    0.000    0.000 
#
# Total GULP energy -89233.863612 kJ/mol
# GULP energy per Si atom -5577.116476 kJ/mol
# Density = 2.308915 g / cm^3
# Si number density = 23.141820 Si / 1000 Ang^3
#
#
#
# Elastic Constant Matrix: (Units=GPa)
#
#
# Indices 1 2 3 4 5 6 
#
# 1 135.1878 24.8604 46.8090 -3.2197 -9.9537 -5.9135
# 2 24.8604 42.0967 0.2403 5.8142 4.3681 4.5813
# 3 46.8090 0.2403 119.9413 -19.8450 -28.5082 11.3717
# 4 -3.2197 5.8142 -19.8450 30.9515 17.5069 -4.5500
# 5 -9.9537 4.3681 -28.5082 17.5069 40.7900 -2.0966
# 6 -5.9135 4.5813 11.3717 -4.5500 -2.0966 30.8762
#
#
#
# Elastic Compliance Matrix: (Units=1/GPa)
#
#
# Indices 1 2 3 4 5 6 
#
# 1 0.010363 -0.006635 -0.004371 -0.000053 0.000444 0.004601
# 2 -0.006635 0.029311 0.002005 -0.005101 -0.001538 -0.007214
# 3 -0.004371 0.002005 0.012392 0.003128 0.005788 -0.004844
# 4 -0.000053 -0.005101 0.003128 0.045345 -0.016477 0.005158
# 5 0.000444 -0.001538 0.005788 -0.016477 0.035813 -0.001815
# 6 0.004601 -0.007214 -0.004844 0.005158 -0.001815 0.036760
#
#
# Mechanical properties :
#
#
# Convention : Reuss Voigt Hill
#
# Bulk Modulus (GPa) = 29.35561 49.00503 39.18032
# Shear Modulus (GPa) = 25.08289 35.54461 30.31375
#
# Velocity S-wave (km/s) = 3.29580 3.92337 3.62320
# Velocity P-wave (km/s) = 5.21495 6.46109 5.87117
#
# Compressibility (1/GPa) = 0.03406504
#
# Stress axis : x y z
#
# Youngs Moduli (GPa) = 96.49524 34.11714 80.70002
#
# Poissons Ratio (x) = 0.22635 0.35270
# Poissons Ratio (y) = 0.64021 -0.16180
# Poissons Ratio (z) = 0.42174 -0.06840
#
# Static dielectric constant tensor:
#      x y z
#    x 2.031150 0.073800 0.002560 
#    y 0.073800 2.070980 0.042530 
#    z 0.002560 0.042530 1.898940 
# 
# From -- ./inp_files/519530.got.cif
#   From: 2010.05.17/outbox.cif.g08.bks.cpg/sg2_260_cif.got.tgz:519530.got - 2010.06.03 11:33:40.
