data_PCOD9085091
_publ_section_title
;
Structure prediction by ZEFSAII (Michael W. Deem and Ramdas Pophale) SiO2 
 PCOD9085091
Probable space group: P -1
;
_chemical_formula_sum "Si O2"
_cell_formula_units_Z 12
_cell_length_a 15.276173
_cell_length_b 10.609611
_cell_length_c 10.313799
_cell_angle_alpha 138.852537
_cell_angle_beta 24.272772
_cell_angle_gamma 132.328329
_cell_volume 451.624945
_symmetry_space_group_name_H-M "P -1"
_symmetry_group_IT_number 2
_symmetry_cell_setting 'triclinic'
loop_
_space_group_symop_operation_xyz
x,y,z
-x,-y,-z
loop_
_atom_site_type_symbol
_atom_site_label
_atom_site_fract_x
_atom_site_fract_y
_atom_site_fract_z
Si Si1 0.037355 0.914411 0.522292
Si Si2 0.193255 0.805434 0.786749
Si Si3 0.717708 0.813633 0.431131
Si Si4 0.627328 0.539930 0.570160
Si Si5 0.547728 0.146445 0.771866
Si Si6 0.164450 0.594253 0.260165
O O1 0.079976 0.691349 0.317500
O O2 0.237200 0.027893 0.394595
O O3 0.000000 0.000000 0.500000
O O4 0.839082 0.991779 0.938792
O O5 0.223706 0.636223 0.719602
O O6 0.388737 0.812020 0.429344
O O7 0.957616 0.778820 0.022056
O O8 0.660149 0.636188 0.461467
O O9 0.556966 0.926332 0.636834
O O10 0.626523 0.707463 0.812576
O O11 0.383552 0.473139 0.848016
O O12 0.758106 0.226833 0.621296
O O13 0.000000 0.500000 0.500000
#
# Coordination Sequence:
#
# PCOD9085091 Si02
#       6
#     2   2   2   2   2   2
#     4   9  21  38  58  76 114 149 182 220 281 322
#     4  10  19  35  58  90 107 140 185 229 274 324
#     4   9  19  34  62  81 114 141 184 223 278 321
#     4  10  19  35  58  90 107 140 185 229 274 324
#     4   9  19  34  62  81 114 141 184 223 278 321
#     4   9  21  38  58  76 114 149 182 220 281 322
#
# _framework density 26.570720000000001
#
# number of rings (size 3 to 8) (size 9 to 14) (size 15 to 20)
#    2.000    0.667    0.000    2.000    0.000    1.333 
#    0.000    1.667    0.000    0.000    0.000    0.000 
#    0.000    0.000    0.000    0.000    0.000    0.000 
#
# Total GULP energy -67003.172221 kJ/mol
# GULP energy per Si atom -5583.597685 kJ/mol
# Density = 2.651024 g / cm^3
# Si number density = 26.570720 Si / 1000 Ang^3
#
#
#
# Elastic Constant Matrix: (Units=GPa)
#
#
# Indices 1 2 3 4 5 6 
#
# 1 45.6950 13.6558 -4.1943 1.6061 -4.3804 -10.1035
# 2 13.6558 84.1584 3.5932 16.8778 -3.8810 -7.5183
# 3 -4.1943 3.5932 76.2064 3.9494 1.4736 13.5762
# 4 1.6061 16.8778 3.9494 49.0827 -5.5196 -3.5105
# 5 -4.3804 -3.8810 1.4736 -5.5196 46.0951 5.4582
# 6 -10.1035 -7.5183 13.5762 -3.5105 5.4582 29.6349
#
#
#
# Elastic Compliance Matrix: (Units=1/GPa)
#
#
# Indices 1 2 3 4 5 6 
#
# 1 0.024654 -0.003503 0.000134 0.001058 0.001301 0.007341
# 2 -0.003503 0.013554 -0.000999 -0.004302 0.000067 0.002180
# 3 0.000134 -0.000999 0.014494 -0.001314 0.000140 -0.007029
# 4 0.001058 -0.004302 -0.001314 0.022323 0.002204 0.002110
# 5 0.001301 0.000067 0.000140 0.002204 0.022496 -0.003486
# 6 0.007341 0.002180 -0.007029 0.002110 -0.003486 0.040912
#
#
# Mechanical properties :
#
#
# Convention : Reuss Voigt Hill
#
# Bulk Modulus (GPa) = 22.74347 25.79657 24.27002
# Shear Modulus (GPa) = 30.89799 37.82955 34.36377
#
# Velocity S-wave (km/s) = 3.41377 3.77733 3.60014
# Velocity P-wave (km/s) = 4.91087 5.36228 5.14153
#
# Compressibility (1/GPa) = 0.04396866
#
# Stress axis : x y z
#
# Youngs Moduli (GPa) = 40.56140 73.77911 68.99236
#
# Poissons Ratio (x) = 0.25842 -0.00926
# Poissons Ratio (y) = 0.14207 0.06889
# Poissons Ratio (z) = -0.00545 0.07367
#
# Static dielectric constant tensor:
#      x y z
#    x 2.263840 0.138240 -0.017850 
#    y 0.138240 2.105100 0.031610 
#    z -0.017850 0.031610 2.083580 
# 
# From -- ./inp_files/469542.got.cif
#   From: 2010.05.17/outbox.cif.g08.bks.cpg/sg2_235_cif.got.tgz:469542.got - 2010.06.03 11:33:40.
