data_PCOD9085681
_publ_section_title
;
Structure prediction by ZEFSAII (Michael W. Deem and Ramdas Pophale) SiO2 
 PCOD9085681
Probable space group: P -1
;
_chemical_formula_sum "Si O2"
_cell_formula_units_Z 14
_cell_length_a 16.194767
_cell_length_b 7.747741
_cell_length_c 11.329672
_cell_angle_alpha 51.149214
_cell_angle_beta 142.231054
_cell_angle_gamma 142.138849
_cell_volume 534.359914
_symmetry_space_group_name_H-M "P -1"
_symmetry_group_IT_number 2
_symmetry_cell_setting 'triclinic'
loop_
_space_group_symop_operation_xyz
x,y,z
-x,-y,-z
loop_
_atom_site_type_symbol
_atom_site_label
_atom_site_fract_x
_atom_site_fract_y
_atom_site_fract_z
Si Si1 0.134925 0.793416 0.891844
Si Si2 0.241075 0.402136 0.243981
Si Si3 0.373328 0.075245 0.813866
Si Si4 0.593235 0.839992 0.591710
Si Si5 0.947432 0.153399 0.607263
Si Si6 0.879248 0.446746 0.571685
Si Si7 0.585311 0.675350 0.895483
O O1 0.169700 0.572250 0.059644
O O2 0.224722 0.059161 0.966054
O O3 0.946461 0.605714 0.703266
O O4 0.247209 0.945694 0.836478
O O5 0.416390 0.620833 0.418564
O O6 0.288661 0.262190 0.259233
O O7 0.099583 0.132424 0.276137
O O8 0.503425 0.407182 0.833734
O O9 0.240666 0.956137 0.607179
O O10 0.500000 0.000000 0.000000
O O11 0.564831 0.845778 0.696929
O O12 0.699849 0.148948 0.520182
O O13 0.991649 0.360320 0.677371
O O14 0.087637 0.333061 0.585624
O O15 0.500000 0.500000 0.000000
#
# Coordination Sequence:
#
# PCOD9085681 Si02
#       7
#     2   2   2   2   2   2   2
#     4  10  22  35  57  88 120 160 189 237 306 361
#     4  10  20  36  64  90 115 151 208 249 285 342
#     4  10  19  35  62  89 112 150 209 249 280 340
#     4  10  20  35  61  87 116 153 205 248 287 335
#     4   9  18  36  59  85 120 156 192 249 300 339
#     4   9  20  36  58  84 124 158 190 242 307 347
#     4  10  21  38  57  88 122 157 192 246 294 355
#
# _framework density 26.199569
#
# number of rings (size 3 to 8) (size 9 to 14) (size 15 to 20)
#    0.000    2.286    1.429    0.857    4.000    3.429 
#    0.000    1.429    0.000    1.714    0.000    0.000 
#    0.000    0.000    0.000    0.000    0.000    0.000 
#
# Total GULP energy -78016.539627 kJ/mol
# GULP energy per Si atom -5572.609973 kJ/mol
# Density = 2.613994 g / cm^3
# Si number density = 26.199569 Si / 1000 Ang^3
#
#
#
# Elastic Constant Matrix: (Units=GPa)
#
#
# Indices 1 2 3 4 5 6 
#
# 1 81.2788 50.6212 45.8674 0.6411 -10.5666 23.9145
# 2 50.6212 227.8774 48.7677 2.5786 -17.8447 23.7508
# 3 45.8674 48.7677 61.7873 -5.2531 -26.8937 15.0701
# 4 0.6411 2.5786 -5.2531 42.9314 4.4959 -16.7935
# 5 -10.5666 -17.8447 -26.8937 4.4959 29.8428 -3.8475
# 6 23.9145 23.7508 15.0701 -16.7935 -3.8475 27.4056
#
#
#
# Elastic Compliance Matrix: (Units=1/GPa)
#
#
# Indices 1 2 3 4 5 6 
#
# 1 0.030369 -0.000380 -0.022691 -0.010534 -0.011135 -0.021712
# 2 -0.000380 0.005655 -0.003337 -0.002387 0.000060 -0.004189
# 3 -0.022691 -0.003337 0.051004 0.003830 0.035614 0.001993
# 4 -0.010534 -0.002387 0.003830 0.036568 -0.003203 0.031113
# 5 -0.011135 0.000060 0.035614 -0.003203 0.061765 -0.003210
# 6 -0.021712 -0.004189 0.001993 0.031113 -0.003210 0.076584
#
#
# Mechanical properties :
#
#
# Convention : Reuss Voigt Hill
#
# Bulk Modulus (GPa) = 29.22943 73.49512 51.36227
# Shear Modulus (GPa) = 15.32971 35.08176 25.20574
#
# Velocity S-wave (km/s) = 2.42154 3.66323 3.10509
# Velocity P-wave (km/s) = 4.35880 6.78272 5.70107
#
# Compressibility (1/GPa) = 0.03421210
#
# Stress axis : x y z
#
# Youngs Moduli (GPa) = 32.92878 176.83163 19.60648
#
# Poissons Ratio (x) = 0.06719 0.44489
# Poissons Ratio (y) = 0.01251 0.06542
# Poissons Ratio (z) = 0.74718 0.59005
#
# Static dielectric constant tensor:
#      x y z
#    x 2.075310 -0.002370 0.129630 
#    y -0.002370 1.968580 0.012580 
#    z 0.129630 0.012580 1.925630 
# 
# From -- ./inp_files/154978.got.cif
#   From: 2010.05.17/outbox.cif.g08.bks.cpg/sg2_78_cif.got.tgz:154978.got - 2010.06.03 11:33:40.
