data_PCOD9085944
_publ_section_title
;
Structure prediction by ZEFSAII (Michael W. Deem and Ramdas Pophale) SiO2 
 PCOD9085944
Probable space group: P -1
;
_chemical_formula_sum "Si O2"
_cell_formula_units_Z 16
_cell_length_a 10.485357
_cell_length_b 11.492572
_cell_length_c 12.999162
_cell_angle_alpha 118.036974
_cell_angle_beta 141.764552
_cell_angle_gamma 42.553923
_cell_volume 633.191548
_symmetry_space_group_name_H-M "P -1"
_symmetry_group_IT_number 2
_symmetry_cell_setting 'triclinic'
loop_
_space_group_symop_operation_xyz
x,y,z
-x,-y,-z
loop_
_atom_site_type_symbol
_atom_site_label
_atom_site_fract_x
_atom_site_fract_y
_atom_site_fract_z
Si Si1 0.090384 0.886254 0.610333
Si Si2 0.919958 0.132079 0.775512
Si Si3 0.197107 0.293886 0.019409
Si Si4 0.203707 0.513261 0.699358
Si Si5 0.195362 0.096037 0.302060
Si Si6 0.505211 0.951821 0.722043
Si Si7 0.372184 0.497955 0.586797
Si Si8 0.762906 0.690095 0.190292
O O1 0.129101 0.976014 0.760961
O O2 0.790531 0.950372 0.479814
O O3 0.000000 0.000000 0.500000
O O4 0.315099 0.678337 0.639258
O O5 0.048075 0.218594 0.917651
O O6 0.622900 0.310991 0.614520
O O7 0.865148 0.034196 0.778647
O O8 0.262176 0.283301 0.935974
O O9 0.000000 0.500000 0.000000
O O10 0.431194 0.186333 0.210509
O O11 0.419506 0.443206 0.715263
O O12 0.311404 0.406589 0.829939
O O13 0.000000 0.500000 0.500000
O O14 0.035765 0.715547 0.709526
O O15 0.243312 0.128857 0.230177
O O16 0.500000 0.000000 0.500000
O O17 0.430855 0.115881 0.803328
O O18 0.086509 0.575216 0.381932
#
# Coordination Sequence:
#
# PCOD9085944 Si02
#       8
#     2   2   2   2   2   2   2   2
#     4  11  24  41  70 104 135 176 232 290 345 403
#     4  12  25  43  72 103 141 180 232 290 344 406
#     4  12  29  46  63  98 142 194 230 272 351 424
#     4  10  19  35  65 103 138 167 221 288 344 404
#     4  12  20  40  73 106 135 175 230 294 348 398
#     4  11  24  44  69  98 141 183 225 288 346 415
#     4  10  21  40  67 106 134 167 234 295 339 396
#     4  10  21  42  67  96 135 181 229 283 345 407
#
# _framework density 25.268816000000001
#
# number of rings (size 3 to 8) (size 9 to 14) (size 15 to 20)
#    0.000    1.000    2.500    6.375    3.500    1.500 
#    0.000    0.000    0.000    3.000    0.000    0.000 
#    0.000    0.000    0.000    0.000    0.000    0.000 
#
# Total GULP energy -89349.718708 kJ/mol
# GULP energy per Si atom -5584.357419 kJ/mol
# Density = 2.521130 g / cm^3
# Si number density = 25.268816 Si / 1000 Ang^3
#
#
#
# Elastic Constant Matrix: (Units=GPa)
#
#
# Indices 1 2 3 4 5 6 
#
# 1 118.2983 28.9740 50.3930 1.7138 -21.2210 19.1952
# 2 28.9740 176.8917 41.2606 -3.1420 0.9063 14.4461
# 3 50.3930 41.2606 71.0176 -10.9024 -12.1914 8.5832
# 4 1.7138 -3.1420 -10.9024 42.5353 5.2963 -4.0852
# 5 -21.2210 0.9063 -12.1914 5.2963 31.8807 0.9200
# 6 19.1952 14.4461 8.5832 -4.0852 0.9200 49.3606
#
#
#
# Elastic Compliance Matrix: (Units=1/GPa)
#
#
# Indices 1 2 3 4 5 6 
#
# 1 0.014358 0.000033 -0.009128 -0.004205 0.006894 -0.004483
# 2 0.000033 0.006713 -0.004124 -0.000482 -0.001629 -0.001270
# 3 -0.009128 -0.004124 0.024147 0.006072 0.002237 0.001019
# 4 -0.004205 -0.000482 0.006072 0.026093 -0.004884 0.002971
# 5 0.006894 -0.001629 0.002237 -0.004884 0.037776 -0.003701
# 6 -0.004483 -0.001270 0.001019 0.002971 -0.003701 0.022512
#
#
# Mechanical properties :
#
#
# Convention : Reuss Voigt Hill
#
# Bulk Modulus (GPa) = 53.24478 67.49588 60.37033
# Shear Modulus (GPa) = 30.43256 41.12731 35.77994
#
# Velocity S-wave (km/s) = 3.47414 4.03872 3.76702
# Velocity P-wave (km/s) = 6.10000 6.96545 6.54704
#
# Compressibility (1/GPa) = 0.01878118
#
# Stress axis : x y z
#
# Youngs Moduli (GPa) = 69.64584 148.96078 41.41242
#
# Poissons Ratio (x) = -0.00498 0.37802
# Poissons Ratio (y) = -0.00233 0.17079
# Poissons Ratio (z) = 0.63574 0.61433
#
# Static dielectric constant tensor:
#      x y z
#    x 2.136460 0.016030 0.037270 
#    y 0.016030 1.937810 0.010900 
#    z 0.037270 0.010900 2.279000 
# 
# From -- ./inp_files/519861.got.cif
#   From: 2010.05.17/outbox.cif.g08.bks.cpg/sg2_260_cif.got.tgz:519861.got - 2010.06.03 11:33:40.
