data_PCOD9085409
_publ_section_title
;
Structure prediction by ZEFSAII (Michael W. Deem and Ramdas Pophale) SiO2 
 PCOD9085409
Probable space group: P -1
;
_chemical_formula_sum "Si O2"
_cell_formula_units_Z 16
_cell_length_a 9.183992
_cell_length_b 19.613576
_cell_length_c 7.946890
_cell_angle_alpha 121.106905
_cell_angle_beta 80.633017
_cell_angle_gamma 137.663987
_cell_volume 763.508183
_symmetry_space_group_name_H-M "P -1"
_symmetry_group_IT_number 2
_symmetry_cell_setting 'triclinic'
loop_
_space_group_symop_operation_xyz
x,y,z
-x,-y,-z
loop_
_atom_site_type_symbol
_atom_site_label
_atom_site_fract_x
_atom_site_fract_y
_atom_site_fract_z
Si Si1 0.544647 0.252300 0.146112
Si Si2 0.368755 0.475016 0.764063
Si Si3 0.887035 0.995536 0.260090
Si Si4 0.961064 0.773242 0.599890
Si Si5 0.278973 0.608223 0.064469
Si Si6 0.557616 0.422630 0.480354
Si Si7 0.621715 0.132546 0.195530
Si Si8 0.360217 0.130810 0.496336
O O1 0.614337 0.353169 0.388843
O O2 0.621819 0.200671 0.141397
O O3 0.269838 0.124233 0.987121
O O4 0.661220 0.326323 0.043003
O O5 0.574860 0.495427 0.719873
O O6 0.338970 0.498298 0.609566
O O7 0.146473 0.326245 0.656466
O O8 0.370398 0.554838 0.974558
O O9 0.755532 0.940120 0.394015
O O10 0.905779 0.092794 0.312235
O O11 0.148779 0.074606 0.348714
O O12 0.121201 0.784231 0.693252
O O13 0.724570 0.698751 0.645074
O O14 0.437932 0.720804 0.312697
O O15 0.000000 0.500000 0.000000
O O16 0.481925 0.109893 0.350820
O O17 0.500000 0.000000 0.000000
#
# Coordination Sequence:
#
# PCOD9085409 Si02
#       8
#     2   2   2   2   2   2   2   2
#     4  10  21  39  65  88 120 160 201 241 308 350
#     4   8  17  35  59  85 114 155 199 237 295 343
#     4  10  21  41  60  88 116 163 196 250 296 361
#     4  10  19  35  60  88 122 152 196 247 305 344
#     4  10  20  42  63  88 124 162 195 248 302 361
#     4   8  17  34  60  86 112 157 194 246 284 349
#     4  12  24  38  55  96 123 153 197 247 302 368
#     4  10  24  39  62  87 122 154 207 242 301 358
#
# _framework density 20.955897
#
# number of rings (size 3 to 8) (size 9 to 14) (size 15 to 20)
#    0.750    1.500    1.250    1.500    1.750    1.500 
#    2.250    8.750    0.000    0.000    0.000    0.000 
#    0.000    0.000    0.000    0.000    0.000    0.000 
#
# Total GULP energy -89108.479571 kJ/mol
# GULP energy per Si atom -5569.279973 kJ/mol
# Density = 2.090820 g / cm^3
# Si number density = 20.955897 Si / 1000 Ang^3
#
#
#
# Elastic Constant Matrix: (Units=GPa)
#
#
# Indices 1 2 3 4 5 6 
#
# 1 83.9160 27.2596 31.6256 7.2719 -20.7041 -16.9705
# 2 27.2596 85.0086 31.8138 17.2315 -4.2591 -5.9258
# 3 31.6256 31.8138 64.9171 8.7342 -38.1219 -2.2299
# 4 7.2719 17.2315 8.7342 25.7367 -7.2676 -0.5094
# 5 -20.7041 -4.2591 -38.1219 -7.2676 47.7974 7.6785
# 6 -16.9705 -5.9258 -2.2299 -0.5094 7.6785 35.5520
#
#
#
# Elastic Compliance Matrix: (Units=1/GPa)
#
#
# Indices 1 2 3 4 5 6 
#
# 1 0.016685 -0.002430 -0.006038 -0.000623 0.000983 0.006960
# 2 -0.002430 0.020039 -0.014917 -0.011413 -0.013543 0.004006
# 3 -0.006038 -0.014917 0.044501 0.006009 0.034043 -0.009844
# 4 -0.000623 -0.011413 0.006009 0.047766 0.011345 -0.003589
# 5 0.000983 -0.013543 0.034043 0.011345 0.050695 -0.010439
# 6 0.006960 0.004006 -0.009844 -0.003589 -0.010439 0.033704
#
#
# Mechanical properties :
#
#
# Convention : Reuss Voigt Hill
#
# Bulk Modulus (GPa) = 29.02209 46.13775 37.57992
# Shear Modulus (GPa) = 18.40644 31.36008 24.88326
#
# Velocity S-wave (km/s) = 2.96690 3.87263 3.44962
# Velocity P-wave (km/s) = 5.06121 6.48543 5.81707
#
# Compressibility (1/GPa) = 0.03445651
#
# Stress axis : x y z
#
# Youngs Moduli (GPa) = 59.93233 49.90157 22.47160
#
# Poissons Ratio (x) = 0.12128 0.13568
# Poissons Ratio (y) = 0.14565 0.33520
# Poissons Ratio (z) = 0.36185 0.74436
#
# Static dielectric constant tensor:
#      x y z
#    x 1.771970 -0.001830 -0.015840 
#    y -0.001830 1.748520 0.000280 
#    z -0.015840 0.000280 1.891390 
# 
# From -- ./inp_files/223839.got.cif
#   From: 2010.05.17/outbox.cif.g08.bks.cpg/sg2_112_cif.got.tgz:223839.got - 2010.06.03 11:33:40.
