data_PCOD9085136
_publ_section_title
;
Structure prediction by ZEFSAII (Michael W. Deem and Ramdas Pophale) SiO2 
 PCOD9085136
Probable space group: P -1
;
_chemical_formula_sum "Si O2"
_cell_formula_units_Z 16
_cell_length_a 22.182601
_cell_length_b 7.420899
_cell_length_c 5.489454
_cell_angle_alpha 90.000323
_cell_angle_beta 60.334754
_cell_angle_gamma 60.610461
_cell_volume 647.989852
_symmetry_space_group_name_H-M "P -1"
_symmetry_group_IT_number 2
_symmetry_cell_setting 'triclinic'
loop_
_space_group_symop_operation_xyz
x,y,z
-x,-y,-z
loop_
_atom_site_type_symbol
_atom_site_label
_atom_site_fract_x
_atom_site_fract_y
_atom_site_fract_z
Si Si1 0.080355 0.221310 0.589280
Si Si2 0.384838 0.769216 0.980327
Si Si3 0.832281 0.253397 0.585437
Si Si4 0.741936 0.492165 0.266130
Si Si5 0.545309 0.735565 0.159388
Si Si6 0.655191 0.011520 0.439615
Si Si7 0.023290 0.690791 0.703429
Si Si8 0.568678 0.697370 0.612651
O O1 0.088247 0.426070 0.573503
O O2 0.030386 0.249931 0.437551
O O3 0.159926 0.973686 0.430148
O O4 0.030378 0.249941 0.940886
O O5 0.407329 0.524956 0.935339
O O6 0.335180 0.903704 0.839568
O O7 0.482204 0.711173 0.785596
O O8 0.335180 0.903700 0.319717
O O9 0.790173 0.383040 0.420100
O O10 0.925843 0.199429 0.398314
O O11 0.790172 0.383040 0.919213
O O12 0.660691 0.477823 0.428622
O O13 0.708577 0.748255 0.332846
O O14 0.446947 0.850742 0.356107
O O15 0.571428 0.795003 0.351337
O O16 0.571429 0.795003 0.862965
#
# Coordination Sequence:
#
# PCOD9085136 Si02
#       8
#     2   2   2   2   2   2   2   2
#     4  10  21  41  71 101 124 154 202 251 291 336
#     4  10  19  35  59  82 102 138 205 273 322 350
#     4  12  24  43  63  92 132 168 198 234 294 366
#     4  12  26  39  53  82 124 168 202 232 302 384
#     4  10  19  35  59  82 102 138 205 273 322 350
#     4  10  20  35  54  77 108 147 193 253 298 356
#     4  10  21  41  71 101 124 154 202 251 291 336
#     4  10  20  35  54  77 108 147 193 253 298 356
#
# _framework density 24.691744
#
# number of rings (size 3 to 8) (size 9 to 14) (size 15 to 20)
#    0.000    1.500    0.000    7.500    0.000    4.000 
#    0.000   10.000    0.000    0.000    0.000    0.000 
#    0.000    0.000    0.000    0.000    0.000    0.000 
#
# Total GULP energy -89349.010786 kJ/mol
# GULP energy per Si atom -5584.313174 kJ/mol
# Density = 2.463554 g / cm^3
# Si number density = 24.691744 Si / 1000 Ang^3
#
#
#
# Elastic Constant Matrix: (Units=GPa)
#
#
# Indices 1 2 3 4 5 6 
#
# 1 62.3691 26.2858 31.6815 -15.1897 32.2066 -11.1597
# 2 26.2858 198.6118 73.0941 16.9726 45.7243 1.6244
# 3 31.6815 73.0941 165.6627 -21.9235 56.4928 -10.4891
# 4 -15.1897 16.9726 -21.9235 49.1098 -6.4218 17.2455
# 5 32.2066 45.7243 56.4928 -6.4218 47.2206 -11.8537
# 6 -11.1597 1.6244 -10.4891 17.2455 -11.8537 34.4234
#
#
#
# Elastic Compliance Matrix: (Units=1/GPa)
#
#
# Indices 1 2 3 4 5 6 
#
# 1 0.027189 -0.000565 0.003177 0.007731 -0.021078 -0.001323
# 2 -0.000565 0.007367 -0.001958 -0.003944 -0.005176 -0.000934
# 3 0.003177 -0.001958 0.011816 0.006230 -0.014403 -0.003358
# 4 0.007731 -0.003944 0.006230 0.030587 -0.008147 -0.013538
# 5 -0.021078 -0.005176 -0.014403 -0.008147 0.060157 0.013819
# 6 -0.001323 -0.000934 -0.003358 -0.013538 0.013819 0.039183
#
#
# Mechanical properties :
#
#
# Convention : Reuss Voigt Hill
#
# Bulk Modulus (GPa) = 20.97349 76.52961 48.75155
# Shear Modulus (GPa) = 26.19399 45.85624 36.02512
#
# Velocity S-wave (km/s) = 3.26059 4.31414 3.82382
# Velocity P-wave (km/s) = 4.76317 7.47509 6.26757
#
# Compressibility (1/GPa) = 0.04767924
#
# Stress axis : x y z
#
# Youngs Moduli (GPa) = 36.78008 135.74662 84.62978
#
# Poissons Ratio (x) = 0.07666 -0.26886
# Poissons Ratio (y) = 0.02077 0.16573
# Poissons Ratio (z) = -0.11685 0.26583
#
# Static dielectric constant tensor:
#      x y z
#    x 1.962840 -0.014330 0.012130 
#    y -0.014330 1.977390 -0.000440 
#    z 0.012130 -0.000440 1.987690 
# 
# From -- ./inp_files/126438.got.cif
#   From: 2010.05.17/outbox.cif.g08.bks.cpg/sg2_64_cif.got.tgz:126438.got - 2010.06.03 11:33:40.
