data_PCOD9085932
_publ_section_title
;
Structure prediction by ZEFSAII (Michael W. Deem and Ramdas Pophale) SiO2 
 PCOD9085932
Probable space group: P -1
;
_chemical_formula_sum "Si O2"
_cell_formula_units_Z 16
_cell_length_a 11.713647
_cell_length_b 10.073973
_cell_length_c 13.992696
_cell_angle_alpha 94.883230
_cell_angle_beta 57.613786
_cell_angle_gamma 139.980478
_cell_volume 718.231421
_symmetry_space_group_name_H-M "P -1"
_symmetry_group_IT_number 2
_symmetry_cell_setting 'triclinic'
loop_
_space_group_symop_operation_xyz
x,y,z
-x,-y,-z
loop_
_atom_site_type_symbol
_atom_site_label
_atom_site_fract_x
_atom_site_fract_y
_atom_site_fract_z
Si Si1 0.352088 0.215765 0.640982
Si Si2 0.917296 0.716557 0.078193
Si Si3 0.378370 0.312277 0.857878
Si Si4 0.752268 0.177089 0.338246
Si Si5 0.668290 0.141706 0.157219
Si Si6 0.702064 0.387911 0.803934
Si Si7 0.146220 0.312813 0.679293
Si Si8 0.445552 0.095360 0.085826
O O1 0.379568 0.284483 0.742376
O O2 0.182691 0.183188 0.658490
O O3 0.632986 0.446976 0.476342
O O4 0.229498 0.967134 0.686620
O O5 0.709104 0.607818 0.093021
O O6 0.802824 0.604325 0.228266
O O7 0.151580 0.027933 0.990338
O O8 0.069723 0.711286 0.985259
O O9 0.652595 0.490212 0.785400
O O10 0.015528 0.435181 0.291304
O O11 0.500000 0.000000 0.500000
O O12 0.710959 0.201485 0.253085
O O13 0.448267 0.842924 0.212819
O O14 0.580037 0.188694 0.133214
O O15 0.574376 0.296365 0.960606
O O16 0.855268 0.119540 0.778332
O O17 0.500000 0.000000 0.000000
#
# Coordination Sequence:
#
# PCOD9085932 Si02
#       8
#     2   2   2   2   2   2   2   2
#     4  10  22  38  60  95 126 169 209 258 318 377
#     4   9  15  31  63  89 117 156 205 258 306 364
#     4   9  16  34  63  87 119 160 206 254 308 372
#     4  12  27  40  60  94 132 167 212 262 320 384
#     4  10  21  40  61  93 122 168 210 258 315 368
#     4  10  21  39  63  92 122 161 214 258 312 375
#     4  10  19  36  66  93 122 168 218 253 313 379
#     4  10  19  35  64  96 121 162 216 260 309 378
#
# _framework density 22.276941999999998
#
# number of rings (size 3 to 8) (size 9 to 14) (size 15 to 20)
#    0.000    2.000    6.250    0.000    3.500    2.000 
#    0.000    2.500    0.000   10.500    0.000    0.000 
#    0.000    0.000    0.000    0.000    0.000    0.000 
#
# Total GULP energy -89309.096316 kJ/mol
# GULP energy per Si atom -5581.818520 kJ/mol
# Density = 2.222624 g / cm^3
# Si number density = 22.276942 Si / 1000 Ang^3
#
#
#
# Elastic Constant Matrix: (Units=GPa)
#
#
# Indices 1 2 3 4 5 6 
#
# 1 147.7409 33.4371 22.4710 -10.7649 -19.3741 23.9416
# 2 33.4371 52.8253 13.9581 -8.9958 -12.2848 18.0611
# 3 22.4710 13.9581 114.6390 -2.7447 -17.0020 14.9872
# 4 -10.7649 -8.9958 -2.7447 24.7754 8.4467 -6.6269
# 5 -19.3741 -12.2848 -17.0020 8.4467 43.6269 -8.3945
# 6 23.9416 18.0611 14.9872 -6.6269 -8.3945 37.0371
#
#
#
# Elastic Compliance Matrix: (Units=1/GPa)
#
#
# Indices 1 2 3 4 5 6 
#
# 1 0.008445 -0.003643 -0.000548 0.000905 0.001779 -0.002896
# 2 -0.003643 0.025750 -0.000790 0.004453 0.002839 -0.008442
# 3 -0.000548 -0.000790 0.009702 -0.001209 0.003026 -0.002717
# 4 0.000905 0.004453 -0.001209 0.045736 -0.006830 0.004368
# 5 0.001779 0.002839 0.003026 -0.006830 0.027242 0.001194
# 6 -0.002896 -0.008442 -0.002717 0.004368 0.001194 0.035140
#
#
# Mechanical properties :
#
#
# Convention : Reuss Voigt Hill
#
# Bulk Modulus (GPa) = 29.46774 50.54862 40.00818
# Shear Modulus (GPa) = 28.85388 37.44381 33.14885
#
# Velocity S-wave (km/s) = 3.60284 4.10424 3.86169
# Velocity P-wave (km/s) = 5.52846 6.72310 6.15483
#
# Compressibility (1/GPa) = 0.03393541
#
# Stress axis : x y z
#
# Youngs Moduli (GPa) = 118.41578 38.83528 103.07497
#
# Poissons Ratio (x) = 0.14147 0.05646
# Poissons Ratio (y) = 0.43137 0.08142
# Poissons Ratio (z) = 0.06486 0.03067
#
# Static dielectric constant tensor:
#      x y z
#    x 1.888570 -0.056580 -0.010050 
#    y -0.056580 1.934960 -0.034910 
#    z -0.010050 -0.034910 1.800060 
# 
# From -- ./inp_files/519707.got.cif
#   From: 2010.05.17/outbox.cif.g08.bks.cpg/sg2_260_cif.got.tgz:519707.got - 2010.06.03 11:33:40.
