data_PCOD9085676
_publ_section_title
;
Structure prediction by ZEFSAII (Michael W. Deem and Ramdas Pophale) SiO2 
 PCOD9085676
Probable space group: P -1
;
_chemical_formula_sum "Si O2"
_cell_formula_units_Z 16
_cell_length_a 31.996534
_cell_length_b 8.588217
_cell_length_c 15.916408
_cell_angle_alpha 47.953161
_cell_angle_beta 17.916338
_cell_angle_gamma 37.352573
_cell_volume 723.065108
_symmetry_space_group_name_H-M "P -1"
_symmetry_group_IT_number 2
_symmetry_cell_setting 'triclinic'
loop_
_space_group_symop_operation_xyz
x,y,z
-x,-y,-z
loop_
_atom_site_type_symbol
_atom_site_label
_atom_site_fract_x
_atom_site_fract_y
_atom_site_fract_z
Si Si1 0.280207 0.808191 0.820784
Si Si2 0.572183 0.622919 0.764758
Si Si3 0.774267 0.201508 0.256424
Si Si4 0.246886 0.162751 0.092116
Si Si5 0.509118 0.806030 0.488943
Si Si6 0.864267 0.409577 0.709565
Si Si7 0.836315 0.036076 0.383421
Si Si8 0.582539 0.932909 0.959995
O O1 0.500000 0.500000 0.500000
O O2 0.203307 0.927307 0.831586
O O3 0.318237 0.973904 0.742719
O O4 0.168058 0.758468 0.108788
O O5 0.756287 0.338638 0.467762
O O6 0.500000 0.500000 0.000000
O O7 0.423992 0.834891 0.898333
O O8 0.562826 0.826993 0.776287
O O9 0.576200 0.529648 0.509449
O O10 0.787584 0.066241 0.367012
O O11 0.941632 0.191762 0.948005
O O12 0.174239 0.337149 0.255197
O O13 0.083977 0.207150 0.340598
O O14 0.323753 0.290488 0.855119
O O15 0.500000 0.000000 0.500000
O O16 0.700473 0.603208 0.883421
O O17 0.738027 0.950055 0.648485
O O18 0.500000 0.000000 0.000000
#
# Coordination Sequence:
#
# PCOD9085676 Si02
#       8
#     2   2   2   2   2   2   2   2
#     4  10  21  37  61  90 118 159 203 251 304 370
#     4   9  20  36  58  85 117 156 203 245 309 355
#     4  10  21  37  63  85 119 159 207 249 305 373
#     4  10  19  35  62  88 116 155 200 255 298 358
#     4  11  22  38  61  90 123 157 201 255 317 369
#     4  10  20  36  62  91 117 154 207 252 300 359
#     4  10  21  39  59  87 118 163 204 248 308 369
#     4  10  22  35  60  86 122 161 200 247 299 372
#
# _framework density 22.128021
#
# number of rings (size 3 to 8) (size 9 to 14) (size 15 to 20)
#    0.000    2.000    2.500    1.500    8.750    0.000 
#    0.000    3.125    0.000    3.750    0.000    0.000 
#    0.000    0.000    0.000    0.000    0.000    0.000 
#
# Total GULP energy -89108.719418 kJ/mol
# GULP energy per Si atom -5569.294964 kJ/mol
# Density = 2.207766 g / cm^3
# Si number density = 22.128021 Si / 1000 Ang^3
#
#
#
# Elastic Constant Matrix: (Units=GPa)
#
#
# Indices 1 2 3 4 5 6 
#
# 1 155.0345 31.0621 15.8891 -5.6826 -8.5786 -18.4688
# 2 31.0621 42.5747 9.9884 -6.7951 -1.2493 -12.9919
# 3 15.8891 9.9884 59.2312 -22.9586 -4.8803 -7.0133
# 4 -5.6826 -6.7951 -22.9586 25.6913 -2.2405 -0.5768
# 5 -8.5786 -1.2493 -4.8803 -2.2405 16.9342 -2.7747
# 6 -18.4688 -12.9919 -7.0133 -0.5768 -2.7747 31.2533
#
#
#
# Elastic Compliance Matrix: (Units=1/GPa)
#
#
# Indices 1 2 3 4 5 6 
#
# 1 0.008042 -0.004588 -0.000424 0.000624 0.004210 0.003135
# 2 -0.004588 0.031455 0.000796 0.008537 0.003154 0.010980
# 3 -0.000424 0.000796 0.029946 0.028256 0.013610 0.008530
# 4 0.000624 0.008537 0.028256 0.068645 0.020356 0.013333
# 5 0.004210 0.003154 0.013610 0.020356 0.070239 0.013465
# 6 0.003135 0.010980 0.008530 0.013333 0.013465 0.041770
#
#
# Mechanical properties :
#
#
# Convention : Reuss Voigt Hill
#
# Bulk Modulus (GPa) = 16.39045 41.19107 28.79076
# Shear Modulus (GPa) = 17.92975 28.10250 23.01612
#
# Velocity S-wave (km/s) = 2.84962 3.56757 3.22861
# Velocity P-wave (km/s) = 4.27203 5.96870 5.19016
#
# Compressibility (1/GPa) = 0.06101115
#
# Stress axis : x y z
#
# Youngs Moduli (GPa) = 124.34413 31.79157 33.39314
#
# Poissons Ratio (x) = 0.14587 0.01414
# Poissons Ratio (y) = 0.57051 -0.02657
# Poissons Ratio (z) = 0.05266 -0.02529
#
# Static dielectric constant tensor:
#      x y z
#    x 1.955500 0.015490 0.027480 
#    y 0.015490 1.785760 -0.035430 
#    z 0.027480 -0.035430 1.911220 
# 
# From -- ./inp_files/509195.got.cif
#   From: 2010.05.17/outbox.cif.g08.bks.cpg/sg2_255_cif.got.tgz:509195.got - 2010.06.03 11:33:40.
