data_PCOD9085287
_publ_section_title
;
Structure prediction by ZEFSAII (Michael W. Deem and Ramdas Pophale) SiO2 
 PCOD9085287
Probable space group: P -1
;
_chemical_formula_sum "Si O2"
_cell_formula_units_Z 16
_cell_length_a 18.983774
_cell_length_b 9.163190
_cell_length_c 11.672212
_cell_angle_alpha 64.589961
_cell_angle_beta 153.943925
_cell_angle_gamma 106.592743
_cell_volume 779.615478
_symmetry_space_group_name_H-M "P -1"
_symmetry_group_IT_number 2
_symmetry_cell_setting 'triclinic'
loop_
_space_group_symop_operation_xyz
x,y,z
-x,-y,-z
loop_
_atom_site_type_symbol
_atom_site_label
_atom_site_fract_x
_atom_site_fract_y
_atom_site_fract_z
Si Si1 0.688365 0.488722 0.812515
Si Si2 0.878434 0.244149 0.700792
Si Si3 0.386172 0.135840 0.434610
Si Si4 0.249402 0.101862 0.692221
Si Si5 0.626888 0.073722 0.300169
Si Si6 0.768412 0.118799 0.054052
Si Si7 0.138908 0.965880 0.034891
Si Si8 0.992948 0.550297 0.842786
O O1 0.500000 0.500000 0.500000
O O2 0.684162 0.677353 0.782537
O O3 0.753961 0.303567 0.025440
O O4 0.816714 0.466425 0.904227
O O5 0.702353 0.219251 0.410960
O O6 0.889457 0.174565 0.871231
O O7 0.918989 0.420844 0.704816
O O8 0.008920 0.126852 0.844243
O O9 0.580096 0.117345 0.743352
O O10 0.327394 0.087303 0.492238
O O11 0.318250 0.005008 0.304313
O O12 0.124966 0.270896 0.415418
O O13 0.292255 0.980911 0.686033
O O14 0.429315 0.127521 0.981973
O O15 0.181426 0.018594 0.728299
O O16 0.868759 0.076854 0.095420
O O17 0.000000 0.500000 0.000000
#
# Coordination Sequence:
#
# PCOD9085287 Si02
#       8
#     2   2   2   2   2   2   2   2
#     4  10  21  37  57  87 124 156 195 251 302 357
#     4  10  22  37  62  90 121 160 203 260 303 356
#     4   9  17  36  62  86 120 156 206 250 300 355
#     4  10  23  40  63  89 125 164 202 254 308 374
#     4   9  20  41  63  90 124 162 203 252 313 362
#     4  10  21  36  57  88 122 163 202 244 308 368
#     4  10  19  35  59  91 120 155 199 254 304 361
#     4  12  24  40  66  94 118 156 216 263 302 367
#
# _framework density 20.522936000000001
#
# number of rings (size 3 to 8) (size 9 to 14) (size 15 to 20)
#    0.000    2.000    1.250    1.875    5.250    2.000 
#    0.000    1.875    0.000    0.000    0.000    0.000 
#    0.000    0.000    0.000    0.000    0.000    0.000 
#
# Total GULP energy -89157.034679 kJ/mol
# GULP energy per Si atom -5572.314667 kJ/mol
# Density = 2.047622 g / cm^3
# Si number density = 20.522936 Si / 1000 Ang^3
#
#
#
# Elastic Constant Matrix: (Units=GPa)
#
#
# Indices 1 2 3 4 5 6 
#
# 1 108.8202 35.1142 40.9967 -2.4104 -3.1010 7.1431
# 2 35.1142 84.0431 47.7337 5.1249 -0.5529 16.4478
# 3 40.9967 47.7337 85.1842 -5.1057 -4.4536 4.9971
# 4 -2.4104 5.1249 -5.1057 35.8060 7.1261 -0.9848
# 5 -3.1010 -0.5529 -4.4536 7.1261 28.1199 5.2846
# 6 7.1431 16.4478 4.9971 -0.9848 5.2846 21.1739
#
#
#
# Elastic Compliance Matrix: (Units=1/GPa)
#
#
# Indices 1 2 3 4 5 6 
#
# 1 0.011606 -0.002197 -0.004215 0.000307 0.000752 -0.001387
# 2 -0.002197 0.022193 -0.010706 -0.005815 0.002779 -0.014936
# 3 -0.004215 -0.010706 0.019734 0.004118 0.000436 0.005163
# 4 0.000307 -0.005815 0.004118 0.031291 -0.008686 0.007065
# 5 0.000752 0.002779 0.000436 -0.008686 0.040414 -0.013006
# 6 -0.001387 -0.014936 0.005163 0.007065 -0.013006 0.061654
#
#
# Mechanical properties :
#
#
# Convention : Reuss Voigt Hill
#
# Bulk Modulus (GPa) = 51.82368 58.41520 55.11944
# Shear Modulus (GPa) = 21.97227 27.30015 24.63621
#
# Velocity S-wave (km/s) = 3.27558 3.65118 3.46847
# Velocity P-wave (km/s) = 6.29383 6.80441 6.55410
#
# Compressibility (1/GPa) = 0.01929620
#
# Stress axis : x y z
#
# Youngs Moduli (GPa) = 86.16390 45.05928 50.67497
#
# Poissons Ratio (x) = 0.09901 0.21361
# Poissons Ratio (y) = 0.18932 0.54251
# Poissons Ratio (z) = 0.36320 0.48239
#
# Static dielectric constant tensor:
#      x y z
#    x 1.726000 0.017490 0.019530 
#    y 0.017490 1.774010 0.019310 
#    z 0.019530 0.019310 1.783410 
# 
# From -- ./inp_files/436766.got.cif
#   From: 2010.05.17/outbox.cif.g08.bks.cpg/sg2_219_cif.got.tgz:436766.got - 2010.06.03 11:33:40.
