data_PCOD9085141
_publ_section_title
;
Structure prediction by ZEFSAII (Michael W. Deem and Ramdas Pophale) SiO2 
 PCOD9085141
Probable space group: P -1
;
_chemical_formula_sum "Si O2"
_cell_formula_units_Z 12
_cell_length_a 6.833433
_cell_length_b 8.461401
_cell_length_c 10.802482
_cell_angle_alpha 58.303200
_cell_angle_beta 52.933783
_cell_angle_gamma 63.584046
_cell_volume 416.427824
_symmetry_space_group_name_H-M "P -1"
_symmetry_group_IT_number 2
_symmetry_cell_setting 'triclinic'
loop_
_space_group_symop_operation_xyz
x,y,z
-x,-y,-z
loop_
_atom_site_type_symbol
_atom_site_label
_atom_site_fract_x
_atom_site_fract_y
_atom_site_fract_z
Si Si1 0.980447 0.720063 0.543887
Si Si2 0.194856 0.725960 0.023519
Si Si3 0.345144 0.090198 0.748064
Si Si4 0.412381 0.407861 0.417915
Si Si5 0.335008 0.375576 0.941759
Si Si6 0.836750 0.948572 0.756248
O O1 0.755913 0.624672 0.623035
O O2 0.230217 0.562024 0.506951
O O3 0.004792 0.886769 0.367607
O O4 0.926693 0.822631 0.652435
O O5 0.393063 0.706733 0.069149
O O6 0.922339 0.797234 0.153157
O O7 0.215711 0.529772 0.025403
O O8 0.289863 0.879777 0.834436
O O9 0.459251 0.207289 0.551428
O O10 0.558509 0.059604 0.784433
O O11 0.629032 0.507330 0.242288
O O12 0.185312 0.203676 0.068018
#
# Coordination Sequence:
#
# PCOD9085141 Si02
#       6
#     2   2   2   2   2   2
#     4  10  22  39  60  82 114 156 192 224 278 349
#     4   9  18  34  56  83 114 153 190 223 277 350
#     4  10  20  34  58  88 115 144 190 242 280 322
#     4  11  21  36  61  89 113 142 191 243 280 324
#     4  10  19  35  59  82 112 152 190 226 279 345
#     4  10  22  40  60  82 114 155 191 226 280 345
#
# _framework density 28.816519
#
# number of rings (size 3 to 8) (size 9 to 14) (size 15 to 20)
#    0.000    2.000    0.000    6.000    0.000    4.000 
#    0.000    0.000    0.000    8.000    0.000    0.000 
#    0.000    0.000    0.000    0.000    0.000    0.000 
#
# Total GULP energy -67426.954436 kJ/mol
# GULP energy per Si atom -5618.912870 kJ/mol
# Density = 2.875093 g / cm^3
# Si number density = 28.816519 Si / 1000 Ang^3
#
#
#
# Elastic Constant Matrix: (Units=GPa)
#
#
# Indices 1 2 3 4 5 6 
#
# 1 91.5049 26.5110 33.6970 -6.1314 -13.8944 -10.3356
# 2 26.5110 104.5783 49.3984 -1.4457 -11.2116 -1.7406
# 3 33.6970 49.3984 237.5770 -63.8817 -5.2892 9.3784
# 4 -6.1314 -1.4457 -63.8817 81.4430 7.5968 -14.6911
# 5 -13.8944 -11.2116 -5.2892 7.5968 48.1173 -3.4212
# 6 -10.3356 -1.7406 9.3784 -14.6911 -3.4212 43.1899
#
#
#
# Elastic Compliance Matrix: (Units=1/GPa)
#
#
# Indices 1 2 3 4 5 6 
#
# 1 0.013018 -0.002217 -0.001405 0.000189 0.003318 0.003658
# 2 -0.002217 0.011568 -0.002645 -0.002249 0.002113 -0.000088
# 3 -0.001405 -0.002645 0.006233 0.004794 -0.001112 -0.000254
# 4 0.000189 -0.002249 0.004794 0.017046 -0.002312 0.004529
# 5 0.003318 0.002113 -0.001112 -0.002312 0.022627 0.002127
# 6 0.003658 -0.000088 -0.000254 0.004529 0.002127 0.025789
#
#
# Mechanical properties :
#
#
# Convention : Reuss Voigt Hill
#
# Bulk Modulus (GPa) = 54.69350 72.54145 63.61748
# Shear Modulus (GPa) = 43.51250 56.15363 49.83307
#
# Velocity S-wave (km/s) = 3.89007 4.41915 4.16302
# Velocity P-wave (km/s) = 6.26083 7.16008 6.72550
#
# Compressibility (1/GPa) = 0.01828371
#
# Stress axis : x y z
#
# Youngs Moduli (GPa) = 76.81747 86.44800 160.44287
#
# Poissons Ratio (x) = 0.19166 0.22545
# Poissons Ratio (y) = 0.17031 0.42437
# Poissons Ratio (z) = 0.10794 0.22866
#
# Static dielectric constant tensor:
#      x y z
#    x 2.210880 -0.025160 0.048400 
#    y -0.025160 2.160300 -0.000390 
#    z 0.048400 -0.000390 2.192760 
# 
# From -- ./inp_files/237702.got.cif
#   From: 2010.05.17/outbox.cif.g08.bks.cpg/sg2_119_cif.got.tgz:237702.got - 2010.06.03 11:33:40.
