data_PCOD9085476
_publ_section_title
;
Structure prediction by ZEFSAII (Michael W. Deem and Ramdas Pophale) SiO2 
 PCOD9085476
Probable space group: P -1
;
_chemical_formula_sum "Si O2"
_cell_formula_units_Z 16
_cell_length_a 9.657733
_cell_length_b 13.176974
_cell_length_c 15.642992
_cell_angle_alpha 144.469081
_cell_angle_beta 53.697917
_cell_angle_gamma 146.730678
_cell_volume 609.768499
_symmetry_space_group_name_H-M "P -1"
_symmetry_group_IT_number 2
_symmetry_cell_setting 'triclinic'
loop_
_space_group_symop_operation_xyz
x,y,z
-x,-y,-z
loop_
_atom_site_type_symbol
_atom_site_label
_atom_site_fract_x
_atom_site_fract_y
_atom_site_fract_z
Si Si1 0.940558 0.437418 0.717798
Si Si2 0.639248 0.927790 0.276035
Si Si3 0.867740 0.108788 0.144916
Si Si4 0.113877 0.998871 0.607520
Si Si5 0.158247 0.680212 0.982149
Si Si6 0.658419 0.355277 0.561949
Si Si7 0.409418 0.354279 0.521956
Si Si8 0.327766 0.128618 0.115782
O O1 0.956609 0.257851 0.553433
O O2 0.132581 0.708619 0.782053
O O3 0.650481 0.300790 0.732426
O O4 0.011521 0.479018 0.818766
O O5 0.646488 0.893820 0.148993
O O6 0.829889 0.946925 0.274162
O O7 0.706193 0.186066 0.441052
O O8 0.104877 0.347417 0.286301
O O9 0.860182 0.980583 0.973892
O O10 0.893626 0.926133 0.581904
O O11 0.395755 0.222253 0.613082
O O12 0.196996 0.910405 0.090344
O O13 0.443729 0.813957 0.970169
O O14 0.000000 0.500000 0.000000
O O15 0.575915 0.318828 0.469185
O O16 0.500000 0.500000 0.500000
O O17 0.513220 0.586777 0.707423
#
# Coordination Sequence:
#
# PCOD9085476 Si02
#       8
#     2   2   2   2   2   2   2   2
#     4  10  19  35  60  94 127 154 203 275 311 367
#     4  11  21  36  69 100 121 164 221 268 319 377
#     4  11  21  38  67  93 126 160 216 271 322 367
#     4  11  21  42  63  93 130 162 225 268 316 371
#     4  10  20  38  66  94 130 167 212 264 327 374
#     4  11  23  40  65  94 130 177 208 267 323 382
#     4  12  27  43  63  91 136 177 215 260 328 395
#     4  10  24  41  61  95 131 168 213 271 315 387
#
# _framework density 26.239464999999999
#
# number of rings (size 3 to 8) (size 9 to 14) (size 15 to 20)
#    0.000    1.250    3.750    3.000    1.750    2.500 
#    2.250    0.000    0.000    1.500    0.000    0.000 
#    0.000    0.000    0.000    0.000    0.000    0.000 
#
# Total GULP energy -89322.095579 kJ/mol
# GULP energy per Si atom -5582.630974 kJ/mol
# Density = 2.617974 g / cm^3
# Si number density = 26.239465 Si / 1000 Ang^3
#
#
#
# Elastic Constant Matrix: (Units=GPa)
#
#
# Indices 1 2 3 4 5 6 
#
# 1 128.4947 39.5200 48.3502 -6.3383 50.5992 -1.3656
# 2 39.5200 124.9487 30.9469 -17.7971 7.3733 -18.8415
# 3 48.3502 30.9469 83.5757 -13.6078 22.5118 -3.8257
# 4 -6.3383 -17.7971 -13.6078 30.7126 -5.8163 18.4294
# 5 50.5992 7.3733 22.5118 -5.8163 45.1244 -4.1350
# 6 -1.3656 -18.8415 -3.8257 18.4294 -4.1350 44.7304
#
#
#
# Elastic Compliance Matrix: (Units=1/GPa)
#
#
# Indices 1 2 3 4 5 6 
#
# 1 0.017222 -0.004041 -0.004437 -0.002781 -0.016978 -0.001980
# 2 -0.004041 0.010476 -0.002098 0.003260 0.004579 0.003190
# 3 -0.004437 -0.002098 0.016909 0.006332 -0.002522 -0.002415
# 4 -0.002781 0.003260 0.006332 0.047981 0.004001 -0.017569
# 5 -0.016978 0.004579 -0.002522 0.004001 0.042543 0.003479
# 6 -0.001980 0.003190 -0.002415 -0.017569 0.003479 0.030993
#
#
# Mechanical properties :
#
#
# Convention : Reuss Voigt Hill
#
# Bulk Modulus (GPa) = 42.63498 63.85037 53.24267
# Shear Modulus (GPa) = 25.62855 38.66028 32.14442
#
# Velocity S-wave (km/s) = 3.12864 3.84261 3.50386
# Velocity P-wave (km/s) = 5.41617 6.63883 6.05842
#
# Compressibility (1/GPa) = 0.02345492
#
# Stress axis : x y z
#
# Youngs Moduli (GPa) = 58.06428 95.45452 59.14036
#
# Poissons Ratio (x) = 0.38572 0.26243
# Poissons Ratio (y) = 0.23463 0.12407
# Poissons Ratio (z) = 0.25766 0.20025
#
# Static dielectric constant tensor:
#      x y z
#    x 2.734750 0.093980 -0.141190 
#    y 0.093980 2.122910 -0.031940 
#    z -0.141190 -0.031940 2.140950 
# 
# From -- ./inp_files/500828.got.cif
#   From: 2010.05.17/outbox.cif.g08.bks.cpg/sg2_251_cif.got.tgz:500828.got - 2010.06.03 11:33:40.
