data_PCOD9085359
_publ_section_title
;
Structure prediction by ZEFSAII (Michael W. Deem and Ramdas Pophale) SiO2 
 PCOD9085359
Probable space group: P -1
;
_chemical_formula_sum "Si O2"
_cell_formula_units_Z 16
_cell_length_a 15.384774
_cell_length_b 19.398803
_cell_length_c 11.502252
_cell_angle_alpha 27.171486
_cell_angle_beta 43.526244
_cell_angle_gamma 28.162507
_cell_volume 711.352123
_symmetry_space_group_name_H-M "P -1"
_symmetry_group_IT_number 2
_symmetry_cell_setting 'triclinic'
loop_
_space_group_symop_operation_xyz
x,y,z
-x,-y,-z
loop_
_atom_site_type_symbol
_atom_site_label
_atom_site_fract_x
_atom_site_fract_y
_atom_site_fract_z
Si Si1 0.534102 0.003422 0.285613
Si Si2 0.387073 0.209828 0.706686
Si Si3 0.123197 0.240403 0.268564
Si Si4 0.066870 0.721550 0.241316
Si Si5 0.060361 0.792055 0.874946
Si Si6 0.616817 0.673668 0.865505
Si Si7 0.244563 0.932868 0.422811
Si Si8 0.209182 0.929764 0.833513
O O1 0.334991 0.098329 0.311609
O O2 0.452336 0.232213 0.076668
O O3 0.640890 0.868576 0.263972
O O4 0.638305 0.816532 0.566938
O O5 0.187307 0.468024 0.546835
O O6 0.534407 0.221462 0.539597
O O7 0.500000 0.000000 0.000000
O O8 0.085072 0.135672 0.549951
O O9 0.135595 0.169321 0.233518
O O10 0.000000 0.500000 0.000000
O O11 0.861748 0.929151 0.189142
O O12 0.058368 0.722385 0.108747
O O13 0.166702 0.790759 0.075769
O O14 0.171383 0.851730 0.683459
O O15 0.193003 0.584688 0.965009
O O16 0.846602 0.002454 0.713909
O O17 0.435610 0.750527 0.869557
#
# Coordination Sequence:
#
# PCOD9085359 Si02
#       8
#     2   2   2   2   2   2   2   2
#     4   9  20  35  57  87 116 154 205 240 303 367
#     4  11  24  42  61  91 129 166 203 255 314 371
#     4  10  19  35  60  85 121 161 198 252 302 365
#     4  11  23  42  62  89 124 166 207 253 310 369
#     4  11  21  40  67  91 121 160 208 263 303 365
#     4  10  19  38  61  89 118 156 205 252 299 360
#     4  10  23  38  62  95 119 158 213 253 308 365
#     4  10  23  38  62  90 122 164 209 249 306 370
#
# _framework density 22.492377999999999
#
# number of rings (size 3 to 8) (size 9 to 14) (size 15 to 20)
#    0.000    1.750    2.500    1.500    3.500    2.000 
#    0.000    1.250    0.000    4.500    0.000    0.000 
#    0.000    0.000    0.000    0.000    0.000    0.000 
#
# Total GULP energy -89145.907160 kJ/mol
# GULP energy per Si atom -5571.619198 kJ/mol
# Density = 2.244118 g / cm^3
# Si number density = 22.492378 Si / 1000 Ang^3
#
#
#
# Elastic Constant Matrix: (Units=GPa)
#
#
# Indices 1 2 3 4 5 6 
#
# 1 57.9436 16.6235 -0.6193 -4.0019 -2.0503 7.4566
# 2 16.6235 54.9085 11.1827 -21.9560 1.6286 9.2476
# 3 -0.6193 11.1827 78.4203 -13.6973 -4.0117 13.9569
# 4 -4.0019 -21.9560 -13.6973 32.8637 5.1484 -9.5247
# 5 -2.0503 1.6286 -4.0117 5.1484 28.3752 -4.6923
# 6 7.4566 9.2476 13.9569 -9.5247 -4.6923 29.8234
#
#
#
# Elastic Compliance Matrix: (Units=1/GPa)
#
#
# Indices 1 2 3 4 5 6 
#
# 1 0.019616 -0.006812 0.001424 -0.003064 0.001881 -0.004141
# 2 -0.006812 0.028113 -0.000906 0.017971 -0.005786 -0.001761
# 3 0.001424 -0.000906 0.014601 0.003952 0.000584 -0.005554
# 4 -0.003064 0.017971 0.003952 0.047027 -0.008053 0.007096
# 5 0.001881 -0.005786 0.000584 -0.008053 0.037991 0.004456
# 6 -0.004141 -0.001761 -0.005554 0.007096 0.004456 0.040679
#
#
# Mechanical properties :
#
#
# Convention : Reuss Voigt Hill
#
# Bulk Modulus (GPa) = 20.10384 27.29402 23.69893
# Shear Modulus (GPa) = 23.02080 29.15151 26.08615
#
# Velocity S-wave (km/s) = 3.20268 3.60399 3.40925
# Velocity P-wave (km/s) = 4.75749 5.42950 5.10456
#
# Compressibility (1/GPa) = 0.04974174
#
# Stress axis : x y z
#
# Youngs Moduli (GPa) = 50.97993 35.57052 68.48860
#
# Poissons Ratio (x) = 0.24231 -0.09756
# Poissons Ratio (y) = 0.34728 0.06208
# Poissons Ratio (z) = -0.07262 0.03224
#
# Static dielectric constant tensor:
#      x y z
#    x 1.924960 0.061450 -0.025900 
#    y 0.061450 1.897330 0.028160 
#    z -0.025900 0.028160 1.866240 
# 
# From -- ./inp_files/256338.got.cif
#   From: 2010.05.17/outbox.cif.g08.bks.cpg/sg2_129_cif.got.tgz:256338.got - 2010.06.03 11:33:40.
