data_PCOD9085597
_publ_section_title
;
Structure prediction by ZEFSAII (Michael W. Deem and Ramdas Pophale) SiO2 
 PCOD9085597
Probable space group: P -1
;
_chemical_formula_sum "Si O2"
_cell_formula_units_Z 16
_cell_length_a 11.565779
_cell_length_b 13.397396
_cell_length_c 8.171648
_cell_angle_alpha 64.753830
_cell_angle_beta 113.051280
_cell_angle_gamma 136.626494
_cell_volume 779.707509
_symmetry_space_group_name_H-M "P -1"
_symmetry_group_IT_number 2
_symmetry_cell_setting 'triclinic'
loop_
_space_group_symop_operation_xyz
x,y,z
-x,-y,-z
loop_
_atom_site_type_symbol
_atom_site_label
_atom_site_fract_x
_atom_site_fract_y
_atom_site_fract_z
Si Si1 0.062828 0.124055 0.818478
Si Si2 0.872849 0.632505 0.086116
Si Si3 0.700124 0.959925 0.691800
Si Si4 0.474633 0.607422 0.822188
Si Si5 0.343683 0.423418 0.294700
Si Si6 0.257925 0.860691 0.088673
Si Si7 0.356563 0.261766 0.660431
Si Si8 0.400730 0.051690 0.704433
O O1 0.116299 0.265333 0.844180
O O2 0.222899 0.163752 0.796394
O O3 0.892607 0.048092 0.677055
O O4 0.000000 0.000000 0.000000
O O5 0.714798 0.467260 0.181797
O O6 0.063919 0.704664 0.111347
O O7 0.801675 0.641288 0.871208
O O8 0.598549 0.785035 0.790689
O O9 0.625038 0.984436 0.478723
O O10 0.712498 0.033213 0.820261
O O11 0.520601 0.589668 0.681063
O O12 0.500000 0.500000 0.000000
O O13 0.279785 0.326439 0.488523
O O14 0.457800 0.597659 0.267134
O O15 0.404556 0.858176 0.203328
O O16 0.292143 0.927340 0.876371
O O17 0.361700 0.157220 0.628303
#
# Coordination Sequence:
#
# PCOD9085597 Si02
#       8
#     2   2   2   2   2   2   2   2
#     4  11  22  34  58  96 123 155 200 248 315 375
#     4  10  21  38  63  85 125 159 202 252 309 368
#     4  11  23  41  67  90 126 166 204 258 313 368
#     4  10  19  35  61  91 122 157 193 245 323 376
#     4  10  21  35  59  92 128 155 189 252 324 371
#     4  10  25  45  63  90 121 169 219 261 292 358
#     4  11  22  36  59  92 127 157 197 255 307 381
#     4  11  24  42  66  87 126 167 218 251 305 363
#
# _framework density 20.520517000000002
#
# number of rings (size 3 to 8) (size 9 to 14) (size 15 to 20)
#    0.000    1.500    2.500    3.375    7.000    0.500 
#    0.000    1.250    0.000    0.000    0.000    0.000 
#    0.000    0.000    0.000    0.000    0.000    0.000 
#
# Total GULP energy -89081.180921 kJ/mol
# GULP energy per Si atom -5567.573808 kJ/mol
# Density = 2.047381 g / cm^3
# Si number density = 20.520517 Si / 1000 Ang^3
#
#
#
# Elastic Constant Matrix: (Units=GPa)
#
#
# Indices 1 2 3 4 5 6 
#
# 1 29.0837 -3.4555 0.3212 9.0454 -9.8188 7.5039
# 2 -3.4555 80.3073 23.1038 12.9594 -5.4831 10.2428
# 3 0.3212 23.1038 91.2662 8.6554 -4.7250 7.7445
# 4 9.0454 12.9594 8.6554 25.5733 7.0547 2.9293
# 5 -9.8188 -5.4831 -4.7250 7.0547 21.8564 5.3650
# 6 7.5039 10.2428 7.7445 2.9293 5.3650 25.2205
#
#
#
# Elastic Compliance Matrix: (Units=1/GPa)
#
#
# Indices 1 2 3 4 5 6 
#
# 1 0.110104 0.028628 0.009792 -0.077059 0.098199 -0.059332
# 2 0.028628 0.023303 0.000311 -0.028757 0.033419 -0.021846
# 3 0.009792 0.000311 0.013256 -0.010681 0.012905 -0.008615
# 4 -0.077059 -0.028757 -0.010681 0.103882 -0.088639 0.044677
# 5 0.098199 0.033419 0.012905 -0.088639 0.146238 -0.067566
# 6 -0.059332 -0.021846 -0.008615 0.044677 -0.067566 0.078005
#
#
# Mechanical properties :
#
#
# Convention : Reuss Voigt Hill
#
# Bulk Modulus (GPa) = 4.46178 26.73291 15.59734
# Shear Modulus (GPa) = 10.59244 26.57586 18.58415
#
# Velocity S-wave (km/s) = 2.27444 3.60264 3.01265
# Velocity P-wave (km/s) = 3.01272 5.51008 4.44058
#
# Compressibility (1/GPa) = 0.22412586
#
# Stress axis : x y z
#
# Youngs Moduli (GPa) = 9.08231 42.91268 75.43863
#
# Poissons Ratio (x) = -1.22850 -0.73870
# Poissons Ratio (y) = -0.26001 -0.02348
# Poissons Ratio (z) = -0.08894 -0.01336
#
# Static dielectric constant tensor:
#      x y z
#    x 1.767490 0.051570 -0.054160 
#    y 0.051570 1.763400 -0.012880 
#    z -0.054160 -0.012880 1.907640 
# 
# From -- ./inp_files/272230.got.cif
#   From: 2010.05.17/outbox.cif.g08.bks.cpg/sg2_137_cif.got.tgz:272230.got - 2010.06.03 11:33:40.
