data_PCOD9085776
_publ_section_title
;
Structure prediction by ZEFSAII (Michael W. Deem and Ramdas Pophale) SiO2 
 PCOD9085776
Probable space group: P -1
;
_chemical_formula_sum "Si O2"
_cell_formula_units_Z 16
_cell_length_a 26.441925
_cell_length_b 8.730896
_cell_length_c 13.265542
_cell_angle_alpha 141.960365
_cell_angle_beta 156.002554
_cell_angle_gamma 39.520225
_cell_volume 750.857314
_symmetry_space_group_name_H-M "P -1"
_symmetry_group_IT_number 2
_symmetry_cell_setting 'triclinic'
loop_
_space_group_symop_operation_xyz
x,y,z
-x,-y,-z
loop_
_atom_site_type_symbol
_atom_site_label
_atom_site_fract_x
_atom_site_fract_y
_atom_site_fract_z
Si Si1 0.625636 0.858111 0.914234
Si Si2 0.867784 0.459323 0.196680
Si Si3 0.864375 0.183471 0.841531
Si Si4 0.643588 0.925639 0.384907
Si Si5 0.260415 0.932741 0.147799
Si Si6 0.353044 0.595934 0.814553
Si Si7 0.751672 0.519823 0.641521
Si Si8 0.516524 0.723472 0.440772
O O1 0.577695 0.706206 0.655021
O O2 0.507432 0.948998 0.823620
O O3 0.747621 0.695378 0.107879
O O4 0.658082 0.102953 0.041307
O O5 0.000000 0.500000 0.500000
O O6 0.864711 0.387355 0.036205
O O7 0.845953 0.210268 0.086310
O O8 0.849564 0.321386 0.779510
O O9 0.743885 0.048801 0.569485
O O10 0.000000 0.000000 0.000000
O O11 0.665499 0.620951 0.252506
O O12 0.677615 0.978815 0.591379
O O13 0.369748 0.720834 0.185789
O O14 0.222300 0.195772 0.155189
O O15 0.260492 0.563494 0.537368
O O16 0.500000 0.500000 0.000000
O O17 0.612359 0.538217 0.448128
O O18 0.500000 0.000000 0.500000
#
# Coordination Sequence:
#
# PCOD9085776 Si02
#       8
#     2   2   2   2   2   2   2   2
#     4  10  19  35  63  86 114 153 188 235 287 339
#     4  11  24  41  57  83 119 154 194 236 285 342
#     4  11  24  41  59  83 118 151 198 238 281 338
#     4   8  18  37  61  86 111 150 194 234 277 345
#     4   8  18  35  59  85 111 144 196 232 280 349
#     4   9  18  36  58  88 120 146 189 231 288 347
#     4  10  19  36  60  85 113 151 189 235 287 336
#     4   9  16  31  60  91 110 139 186 244 284 326
#
# _framework density 21.308973999999999
#
# number of rings (size 3 to 8) (size 9 to 14) (size 15 to 20)
#    0.000    2.500    1.250    2.250    3.500    1.500 
#    2.250   10.000    0.000    0.000    0.000    0.000 
#    0.000    0.000    0.000    0.000    0.000    0.000 
#
# Total GULP energy -89182.897592 kJ/mol
# GULP energy per Si atom -5573.931099 kJ/mol
# Density = 2.126047 g / cm^3
# Si number density = 21.308974 Si / 1000 Ang^3
#
#
#
# Elastic Constant Matrix: (Units=GPa)
#
#
# Indices 1 2 3 4 5 6 
#
# 1 21.8843 14.9444 12.4295 -7.7887 -1.5038 4.6161
# 2 14.9444 116.6874 51.3312 -26.3053 3.5031 11.1596
# 3 12.4295 51.3312 101.9650 -9.3428 2.9351 11.8288
# 4 -7.7887 -26.3053 -9.3428 35.1907 -2.2267 -3.6215
# 5 -1.5038 3.5031 2.9351 -2.2267 11.9207 -2.3670
# 6 4.6161 11.1596 11.8288 -3.6215 -2.3670 25.4121
#
#
#
# Elastic Compliance Matrix: (Units=1/GPa)
#
#
# Indices 1 2 3 4 5 6 
#
# 1 0.054904 -0.003086 -0.004071 0.008902 0.009592 -0.004561
# 2 -0.003086 0.013232 -0.005325 0.007477 -0.001945 -0.001887
# 3 -0.004071 -0.005325 0.013334 -0.001935 -0.003331 -0.003715
# 4 0.008902 0.007477 -0.001935 0.036052 0.006482 0.001742
# 5 0.009592 -0.001945 -0.003331 0.006482 0.089674 0.009938
# 6 -0.004561 -0.001887 -0.003715 0.001742 0.009938 0.043911
#
#
# Mechanical properties :
#
#
# Convention : Reuss Voigt Hill
#
# Bulk Modulus (GPa) = 17.69717 44.21631 30.95674
# Shear Modulus (GPa) = 16.95460 25.29348 21.12404
#
# Velocity S-wave (km/s) = 2.82380 3.44901 3.15194
# Velocity P-wave (km/s) = 4.35371 6.05442 5.27308
#
# Compressibility (1/GPa) = 0.05650622
#
# Stress axis : x y z
#
# Youngs Moduli (GPa) = 18.21374 75.57371 74.99731
#
# Poissons Ratio (x) = 0.23322 0.30528
# Poissons Ratio (y) = 0.05621 0.39937
# Poissons Ratio (z) = 0.07414 0.40244
#
# Static dielectric constant tensor:
#      x y z
#    x 1.853800 -0.009710 0.010200 
#    y -0.009710 1.821490 0.036740 
#    z 0.010200 0.036740 1.802190 
# 
# From -- ./inp_files/177688.got.cif
#   From: 2010.05.17/outbox.cif.g08.bks.cpg/sg2_89_cif.got.tgz:177688.got - 2010.06.03 11:33:40.
