data_PCOD9085335
_publ_section_title
;
Structure prediction by ZEFSAII (Michael W. Deem and Ramdas Pophale) SiO2 
 PCOD9085335
Probable space group: P -1
;
_chemical_formula_sum "Si O2"
_cell_formula_units_Z 16
_cell_length_a 8.135014
_cell_length_b 11.338342
_cell_length_c 19.876218
_cell_angle_alpha 22.032190
_cell_angle_beta 68.891753
_cell_angle_gamma 68.681082
_cell_volume 639.269249
_symmetry_space_group_name_H-M "P -1"
_symmetry_group_IT_number 2
_symmetry_cell_setting 'triclinic'
loop_
_space_group_symop_operation_xyz
x,y,z
-x,-y,-z
loop_
_atom_site_type_symbol
_atom_site_label
_atom_site_fract_x
_atom_site_fract_y
_atom_site_fract_z
Si Si1 0.126430 0.075138 0.018736
Si Si2 0.991504 0.116765 0.597459
Si Si3 0.771048 0.748466 0.260500
Si Si4 0.924904 0.714804 0.700416
Si Si5 0.508358 0.871946 0.809771
Si Si6 0.205941 0.923529 0.234215
Si Si7 0.696125 0.582537 0.689742
Si Si8 0.484496 0.391267 0.424191
O O1 0.179652 0.109561 0.070536
O O2 0.266122 0.798656 0.117443
O O3 0.940688 0.915940 0.124416
O O4 0.067714 0.423919 0.818945
O O5 0.848662 0.417386 0.454549
O O6 0.983243 0.062366 0.707142
O O7 0.161389 0.235710 0.471845
O O8 0.927582 0.822803 0.720032
O O9 0.629578 0.637551 0.287019
O O10 0.667156 0.974790 0.208841
O O11 0.740927 0.659269 0.719586
O O12 0.000000 0.000000 0.500000
O O13 0.662606 0.936244 0.806165
O O14 0.520415 0.082752 0.628648
O O15 0.500000 0.500000 0.000000
O O16 0.302147 0.584977 0.375279
O O17 0.525138 0.666576 0.624101
#
# Coordination Sequence:
#
# PCOD9085335 Si02
#       8
#     2   2   2   2   2   2   2   2
#     4  10  22  35  64  89 112 143 200 241 278 336
#     4  10  19  35  60  83 118 148 188 236 284 337
#     4  10  20  37  56  86 116 154 184 232 287 342
#     4  10  22  40  57  83 116 153 190 243 286 326
#     4  11  22  34  55  84 126 153 179 225 289 357
#     4  10  20  37  57  91 116 150 184 231 295 341
#     4   9  21  37  62  83 110 156 198 232 279 333
#     4  10  19  38  58  81 121 156 183 224 293 347
#
# _framework density 25.028579000000001
#
# number of rings (size 3 to 8) (size 9 to 14) (size 15 to 20)
#    0.000    2.000    2.500    1.125    3.500    4.000 
#    0.000    1.250    0.000    3.000    0.000    0.000 
#    0.000    0.000    0.000    0.000    0.000    0.000 
#
# Total GULP energy -89384.267411 kJ/mol
# GULP energy per Si atom -5586.516713 kJ/mol
# Density = 2.497161 g / cm^3
# Si number density = 25.028579 Si / 1000 Ang^3
#
#
#
# Elastic Constant Matrix: (Units=GPa)
#
#
# Indices 1 2 3 4 5 6 
#
# 1 65.3700 21.2687 31.1313 -6.5772 11.7027 24.7744
# 2 21.2687 101.1550 29.4381 -20.5441 3.8470 14.8862
# 3 31.1313 29.4381 141.2347 -21.1693 11.0850 23.8513
# 4 -6.5772 -20.5441 -21.1693 30.6102 6.6115 -1.7044
# 5 11.7027 3.8470 11.0850 6.6115 25.0349 5.2965
# 6 24.7744 14.8862 23.8513 -1.7044 5.2965 46.0225
#
#
#
# Elastic Compliance Matrix: (Units=1/GPa)
#
#
# Indices 1 2 3 4 5 6 
#
# 1 0.022068 -0.001701 -0.001732 0.003671 -0.008281 -0.009343
# 2 -0.001701 0.012454 -0.000407 0.008145 -0.002603 -0.002300
# 3 -0.001732 -0.000407 0.009403 0.006637 -0.004397 -0.003057
# 4 0.003671 0.008145 0.006637 0.047037 -0.017418 -0.004304
# 5 -0.008281 -0.002603 -0.004397 -0.017418 0.050525 0.001119
# 6 -0.009343 -0.002300 -0.003057 -0.004304 0.001119 0.028798
#
#
# Mechanical properties :
#
#
# Convention : Reuss Voigt Hill
#
# Bulk Modulus (GPa) = 27.58936 52.38177 39.98557
# Shear Modulus (GPa) = 26.30914 35.39494 30.85204
#
# Velocity S-wave (km/s) = 3.24568 3.76464 3.51475
# Velocity P-wave (km/s) = 5.00929 6.31434 5.69929
#
# Compressibility (1/GPa) = 0.03624586
#
# Stress axis : x y z
#
# Youngs Moduli (GPa) = 45.31385 80.29721 106.34500
#
# Poissons Ratio (x) = 0.13655 0.18418
# Poissons Ratio (y) = 0.07706 0.04331
# Poissons Ratio (z) = 0.07848 0.03270
#
# Static dielectric constant tensor:
#      x y z
#    x 2.036000 0.015490 -0.024700 
#    y 0.015490 2.105770 0.081720 
#    z -0.024700 0.081720 1.990130 
# 
# From -- ./inp_files/218060.got.cif
#   From: 2010.05.17/outbox.cif.g08.bks.cpg/sg2_110_cif.got.tgz:218060.got - 2010.06.03 11:33:40.
