data_PCOD9085268
_publ_section_title
;
Structure prediction by ZEFSAII (Michael W. Deem and Ramdas Pophale) SiO2 
 PCOD9085268
Probable space group: P -1
;
_chemical_formula_sum "Si O2"
_cell_formula_units_Z 14
_cell_length_a 13.171655
_cell_length_b 12.044823
_cell_length_c 12.397330
_cell_angle_alpha 91.012750
_cell_angle_beta 37.438954
_cell_angle_gamma 122.495426
_cell_volume 608.480609
_symmetry_space_group_name_H-M "P -1"
_symmetry_group_IT_number 2
_symmetry_cell_setting 'triclinic'
loop_
_space_group_symop_operation_xyz
x,y,z
-x,-y,-z
loop_
_atom_site_type_symbol
_atom_site_label
_atom_site_fract_x
_atom_site_fract_y
_atom_site_fract_z
Si Si1 0.017051 0.851298 0.580393
Si Si2 0.747892 0.583092 0.989588
Si Si3 0.372916 0.822511 0.768838
Si Si4 0.001773 0.819935 0.137812
Si Si5 0.755908 0.319050 0.354374
Si Si6 0.604967 0.683729 0.281997
Si Si7 0.997499 0.906138 0.369683
O O1 0.082492 0.875445 0.398564
O O2 0.343169 0.031382 0.381401
O O3 0.889248 0.904378 0.699054
O O4 0.780233 0.630957 0.837533
O O5 0.748512 0.698171 0.059720
O O6 0.401809 0.326178 0.302224
O O7 0.051879 0.678909 0.765845
O O8 0.444640 0.824504 0.587215
O O9 0.256811 0.883608 0.867662
O O10 0.060132 0.571357 0.065079
O O11 0.847236 0.815859 0.182351
O O12 0.701415 0.568505 0.425708
O O13 0.126427 0.942356 0.146092
O O14 0.539172 0.275562 0.611940
#
# Coordination Sequence:
#
# PCOD9085268 Si02
#       7
#     2   2   2   2   2   2   2
#     4  11  23  38  61  86 115 160 202 235 292 350
#     4  11  21  40  63  88 119 154 194 246 293 346
#     4  10  19  35  59  90 119 153 196 238 297 353
#     4   9  17  34  60  84 118 155 192 241 293 345
#     4  10  19  35  63  87 122 154 186 247 298 345
#     4   9  18  33  59  92 115 151 195 235 299 354
#     4  10  22  41  60  82 118 160 199 242 284 347
#
# _framework density 23.008127999999999
#
# number of rings (size 3 to 8) (size 9 to 14) (size 15 to 20)
#    0.000    2.000    2.857    1.286    4.000    1.143 
#    2.571    1.429    0.000    3.429    0.000    0.000 
#    0.000    0.000    0.000    0.000    0.000    0.000 
#
# Total GULP energy -78276.723501 kJ/mol
# GULP energy per Si atom -5591.194536 kJ/mol
# Density = 2.295576 g / cm^3
# Si number density = 23.008128 Si / 1000 Ang^3
#
#
#
# Elastic Constant Matrix: (Units=GPa)
#
#
# Indices 1 2 3 4 5 6 
#
# 1 130.0180 38.7733 28.9387 31.1890 -7.1892 4.7134
# 2 38.7733 84.9063 24.8834 25.5026 -3.5890 -4.3960
# 3 28.9387 24.8834 74.2814 4.3015 -5.6575 -5.0638
# 4 31.1890 25.5026 4.3015 31.0556 -4.3606 -5.8408
# 5 -7.1892 -3.5890 -5.6575 -4.3606 35.2970 -1.1007
# 6 4.7134 -4.3960 -5.0638 -5.8408 -1.1007 41.0589
#
#
#
# Elastic Compliance Matrix: (Units=1/GPa)
#
#
# Indices 1 2 3 4 5 6 
#
# 1 0.011587 -0.001117 -0.003733 -0.010822 0.000204 -0.003444
# 2 -0.001117 0.017457 -0.004765 -0.012747 -0.000804 -0.000425
# 3 -0.003733 -0.004765 0.016522 0.006237 0.002265 0.002904
# 4 -0.010822 -0.012747 0.006237 0.054926 0.004553 0.008582
# 5 0.000204 -0.000804 0.002265 0.004553 0.029266 0.001602
# 6 -0.003444 -0.000425 0.002904 0.008582 0.001602 0.026327
#
#
# Mechanical properties :
#
#
# Convention : Reuss Voigt Hill
#
# Bulk Modulus (GPa) = 37.96868 52.71071 45.33969
# Shear Modulus (GPa) = 27.16024 34.58966 30.87495
#
# Velocity S-wave (km/s) = 3.43951 3.88153 3.66719
# Velocity P-wave (km/s) = 5.68435 6.56108 6.13838
#
# Compressibility (1/GPa) = 0.02633750
#
# Stress axis : x y z
#
# Youngs Moduli (GPa) = 86.30213 57.28454 60.52555
#
# Poissons Ratio (x) = 0.06396 0.22592
# Poissons Ratio (y) = 0.09637 0.28840
# Poissons Ratio (z) = 0.32214 0.27295
#
# Static dielectric constant tensor:
#      x y z
#    x 1.833060 -0.018610 0.024290 
#    y -0.018610 1.881400 -0.054680 
#    z 0.024290 -0.054680 1.891630 
# 
# From -- ./inp_files/202053.got.cif
#   From: 2010.05.17/outbox.cif.g08.bks.cpg/sg2_102_cif.got.tgz:202053.got - 2010.06.03 11:33:40.
