data_PCOD9085962
_publ_section_title
;
Structure prediction by ZEFSAII (Michael W. Deem and Ramdas Pophale) SiO2 
 PCOD9085962
Probable space group: P -1
;
_chemical_formula_sum "Si O2"
_cell_formula_units_Z 16
_cell_length_a 14.385094
_cell_length_b 9.176606
_cell_length_c 15.472883
_cell_angle_alpha 141.064559
_cell_angle_beta 142.000567
_cell_angle_gamma 59.894989
_cell_volume 756.807922
_symmetry_space_group_name_H-M "P -1"
_symmetry_group_IT_number 2
_symmetry_cell_setting 'triclinic'
loop_
_space_group_symop_operation_xyz
x,y,z
-x,-y,-z
loop_
_atom_site_type_symbol
_atom_site_label
_atom_site_fract_x
_atom_site_fract_y
_atom_site_fract_z
Si Si1 0.143971 0.734024 0.797718
Si Si2 0.279443 0.477723 0.914098
Si Si3 0.612840 0.854519 0.281575
Si Si4 0.696622 0.360189 0.803144
Si Si5 0.655168 0.418731 0.602589
Si Si6 0.163655 0.126467 0.128528
Si Si7 0.331615 0.142496 0.422696
Si Si8 0.791129 0.599381 0.425291
O O1 0.144318 0.537041 0.783004
O O2 0.252956 0.664186 0.772059
O O3 0.977858 0.699264 0.613821
O O4 0.181074 0.985719 0.989653
O O5 0.324595 0.239955 0.804441
O O6 0.434287 0.694911 0.098307
O O7 0.247099 0.491727 0.999197
O O8 0.715867 0.767398 0.389543
O O9 0.630971 0.137541 0.433140
O O10 0.696609 0.467548 0.757476
O O11 0.510602 0.234118 0.625473
O O12 0.759808 0.124136 0.732289
O O13 0.500000 0.500000 0.500000
O O14 0.802266 0.593408 0.739286
O O15 0.304456 0.106300 0.285002
O O16 0.000000 0.000000 0.000000
O O17 0.263151 0.359495 0.500211
#
# Coordination Sequence:
#
# PCOD9085962 Si02
#       8
#     2   2   2   2   2   2   2   2
#     4  10  21  35  60  92 121 161 213 249 307 378
#     4  10  19  35  65  94 124 163 212 258 310 388
#     4  10  20  37  61  93 126 167 208 257 322 370
#     4  11  20  36  62  94 123 163 211 263 318 369
#     4  12  24  40  61  95 132 161 210 275 319 364
#     4  12  24  40  62  89 124 168 213 257 314 384
#     4  11  19  36  62  92 122 162 211 253 318 375
#     4  10  19  36  62  90 123 162 205 258 310 380
#
# _framework density 21.141427
#
# number of rings (size 3 to 8) (size 9 to 14) (size 15 to 20)
#    0.000    1.250    6.250    1.500    0.000    0.000 
#    0.000    4.375    0.000    1.500    0.000    0.000 
#    0.000    0.000    0.000    0.000    0.000    0.000 
#
# Total GULP energy -89108.398786 kJ/mol
# GULP energy per Si atom -5569.274924 kJ/mol
# Density = 2.109331 g / cm^3
# Si number density = 21.141427 Si / 1000 Ang^3
#
#
#
# Elastic Constant Matrix: (Units=GPa)
#
#
# Indices 1 2 3 4 5 6 
#
# 1 68.4600 24.6872 32.7619 18.5410 -20.0484 -2.5655
# 2 24.6872 85.2919 32.2192 5.6031 3.7636 -4.0347
# 3 32.7619 32.2192 78.9902 7.0298 -25.5743 -5.2177
# 4 18.5410 5.6031 7.0298 42.2928 -3.0448 -10.7530
# 5 -20.0484 3.7636 -25.5743 -3.0448 33.6769 3.4298
# 6 -2.5655 -4.0347 -5.2177 -10.7530 3.4298 34.3606
#
#
#
# Elastic Compliance Matrix: (Units=1/GPa)
#
#
# Indices 1 2 3 4 5 6 
#
# 1 0.024193 -0.005952 -0.003033 -0.009318 0.012278 -0.003495
# 2 -0.005952 0.017130 -0.008359 0.001359 -0.011876 0.001909
# 3 -0.003033 -0.008359 0.022629 0.000000 0.016251 0.000606
# 4 -0.009318 0.001359 0.000000 0.029583 -0.003953 0.009116
# 5 0.012278 -0.011876 0.016251 -0.003953 0.050753 -0.004313
# 6 -0.003495 0.001909 0.000606 0.009116 -0.004313 0.032442
#
#
# Mechanical properties :
#
#
# Convention : Reuss Voigt Hill
#
# Bulk Modulus (GPa) = 34.17100 45.78653 39.97877
# Shear Modulus (GPa) = 22.60701 31.60432 27.10567
#
# Velocity S-wave (km/s) = 3.27360 3.87059 3.58454
# Velocity P-wave (km/s) = 5.52148 6.45597 6.00692
#
# Compressibility (1/GPa) = 0.02926458
#
# Stress axis : x y z
#
# Youngs Moduli (GPa) = 41.33440 58.37843 44.19164
#
# Poissons Ratio (x) = 0.34745 0.13404
# Poissons Ratio (y) = 0.24601 0.36938
# Poissons Ratio (z) = 0.12537 0.48796
#
# Static dielectric constant tensor:
#      x y z
#    x 1.853350 -0.067260 -0.044410 
#    y -0.067260 1.851800 -0.010640 
#    z -0.044410 -0.010640 1.815250 
# 
# From -- ./inp_files/529179.got.cif
#   From: 2010.05.17/outbox.cif.g08.bks.cpg/sg2_265_cif.got.tgz:529179.got - 2010.06.03 11:33:40.
