data_PCOD9085086
_publ_section_title
;
Structure prediction by ZEFSAII (Michael W. Deem and Ramdas Pophale) SiO2 
 PCOD9085086
Probable space group: P -1
;
_chemical_formula_sum "Si O2"
_cell_formula_units_Z 16
_cell_length_a 14.954904
_cell_length_b 15.975448
_cell_length_c 12.287465
_cell_angle_alpha 119.894296
_cell_angle_beta 151.464178
_cell_angle_gamma 79.256909
_cell_volume 966.041040
_symmetry_space_group_name_H-M "P -1"
_symmetry_group_IT_number 2
_symmetry_cell_setting 'triclinic'
loop_
_space_group_symop_operation_xyz
x,y,z
-x,-y,-z
loop_
_atom_site_type_symbol
_atom_site_label
_atom_site_fract_x
_atom_site_fract_y
_atom_site_fract_z
Si Si1 0.071048 0.284287 0.429627
Si Si2 0.661982 0.315185 0.214820
Si Si3 0.524286 0.086361 0.674667
Si Si4 0.119138 0.933545 0.570092
Si Si5 0.497793 0.044662 0.865869
Si Si6 0.441859 0.271428 0.711133
Si Si7 0.745295 0.697948 0.131525
Si Si8 0.805712 0.515632 0.154766
O O1 0.226887 0.278256 0.503395
O O2 0.111561 0.241637 0.561129
O O3 0.157915 0.418148 0.645719
O O4 0.800054 0.201203 0.054738
O O5 0.936193 0.427074 0.577240
O O6 0.621501 0.188466 0.108835
O O7 0.563030 0.305011 0.981690
O O8 0.498655 0.322426 0.128004
O O9 0.457435 0.023817 0.680909
O O10 0.384796 0.142451 0.540195
O O11 0.500000 0.000000 0.500000
O O12 0.912881 0.791371 0.278456
O O13 0.255714 0.968241 0.624750
O O14 0.324494 0.977391 0.906904
O O15 0.000000 0.000000 0.500000
O O16 0.627762 0.373840 0.892007
O O17 0.707312 0.571339 0.010429
#
# Coordination Sequence:
#
# PCOD9085086 Si02
#       8
#     2   2   2   2   2   2   2   2
#     4   9  18  30  46  68 102 124 162 197 245 292
#     4  10  16  26  44  67 101 126 154 186 249 300
#     4  11  22  36  50  68 103 141 172 201 231 284
#     4  11  18  28  49  69 101 131 158 201 256 297
#     4  10  19  31  45  72  98 131 165 202 239 296
#     4  10  19  29  48  70  94 139 162 197 249 293
#     4   9  17  27  42  71 101 127 149 195 245 297
#     4  10  17  28  46  71 104 126 157 202 249 307
#
# _framework density 16.562443999999999
#
# number of rings (size 3 to 8) (size 9 to 14) (size 15 to 20)
#    0.750    1.250    6.250    0.750    0.000    0.500 
#    0.000    0.000    0.000    0.000    0.000    0.875 
#    0.000    3.000    0.000    0.000    0.000    0.000 
#
# Total GULP energy -89068.584540 kJ/mol
# GULP energy per Si atom -5566.786534 kJ/mol
# Density = 1.652475 g / cm^3
# Si number density = 16.562444 Si / 1000 Ang^3
#
#
#
# Elastic Constant Matrix: (Units=GPa)
#
#
# Indices 1 2 3 4 5 6 
#
# 1 97.3023 36.0756 28.7748 5.3511 23.0872 2.0992
# 2 36.0756 72.6986 14.8474 -0.2147 8.8943 4.5995
# 3 28.7748 14.8474 14.2395 -1.3333 11.7008 -4.4333
# 4 5.3511 -0.2147 -1.3333 18.1920 -4.2733 12.9714
# 5 23.0872 8.8943 11.7008 -4.2733 27.8001 -0.9949
# 6 2.0992 4.5995 -4.4333 12.9714 -0.9949 25.7035
#
#
#
# Elastic Compliance Matrix: (Units=1/GPa)
#
#
# Indices 1 2 3 4 5 6 
#
# 1 0.029844 -0.001359 -0.063477 -0.006016 0.001082 -0.010064
# 2 -0.001359 0.019831 -0.026652 0.009143 0.006964 -0.012379
# 3 -0.063477 -0.026652 0.302026 -0.027716 -0.067510 0.073420
# 4 -0.006016 0.009143 -0.027716 0.101058 0.027272 -0.055869
# 5 0.001082 0.006964 -0.067510 0.027272 0.064584 -0.024242
# 6 -0.010064 -0.012379 0.073420 -0.055869 -0.024242 0.081862
#
#
# Mechanical properties :
#
#
# Convention : Reuss Voigt Hill
#
# Bulk Modulus (GPa) = 5.92675 38.18177 22.05426
# Shear Modulus (GPa) = 5.96358 21.30862 13.63610
#
# Velocity S-wave (km/s) = 1.89960 3.59076 2.87246
# Velocity P-wave (km/s) = 2.89785 6.34781 4.93418
#
# Compressibility (1/GPa) = 0.16872643
#
# Stress axis : x y z
#
# Youngs Moduli (GPa) = 33.50738 50.42560 3.31097
#
# Poissons Ratio (x) = 0.06853 0.21017
# Poissons Ratio (y) = 0.04554 0.08824
# Poissons Ratio (z) = 2.12695 1.34393
#
# Static dielectric constant tensor:
#      x y z
#    x 1.568350 -0.016970 0.031080 
#    y -0.016970 1.612030 -0.010020 
#    z 0.031080 -0.010020 1.542040 
# 
# From -- ./inp_files/454016.got.cif
#   From: 2010.05.17/outbox.cif.g08.bks.cpg/sg2_228_cif.got.tgz:454016.got - 2010.06.03 11:33:40.
