data_PCOD9085971
_publ_section_title
;
Structure prediction by ZEFSAII (Michael W. Deem and Ramdas Pophale) SiO2 
 PCOD9085971
Probable space group: P -1
;
_chemical_formula_sum "Si O2"
_cell_formula_units_Z 14
_cell_length_a 11.701171
_cell_length_b 10.080254
_cell_length_c 8.258902
_cell_angle_alpha 104.985267
_cell_angle_beta 144.593709
_cell_angle_gamma 87.561636
_cell_volume 519.990537
_symmetry_space_group_name_H-M "P -1"
_symmetry_group_IT_number 2
_symmetry_cell_setting 'triclinic'
loop_
_space_group_symop_operation_xyz
x,y,z
-x,-y,-z
loop_
_atom_site_type_symbol
_atom_site_label
_atom_site_fract_x
_atom_site_fract_y
_atom_site_fract_z
Si Si1 0.289760 0.630243 0.225506
Si Si2 0.955989 0.002595 0.142736
Si Si3 0.675817 0.220527 0.359045
Si Si4 0.752967 0.966564 0.184768
Si Si5 0.729189 0.392076 0.158506
Si Si6 0.767446 0.680435 0.429673
Si Si7 0.217824 0.326915 0.185371
O O1 0.198908 0.460696 0.103068
O O2 0.538937 0.662725 0.526861
O O3 0.245786 0.717151 0.355842
O O4 0.227327 0.662547 0.983948
O O5 0.753772 0.019224 0.013310
O O6 0.908508 0.831147 0.070783
O O7 0.000000 0.000000 0.000000
O O8 0.772662 0.321098 0.351907
O O9 0.870390 0.847908 0.564248
O O10 0.701209 0.067240 0.293699
O O11 0.000000 0.000000 0.500000
O O12 0.575473 0.814733 0.941333
O O13 0.815777 0.564997 0.329167
O O14 0.479492 0.354921 0.862104
O O15 0.830690 0.652279 0.676495
#
# Coordination Sequence:
#
# PCOD9085971 Si02
#       7
#     2   2   2   2   2   2   2
#     4  10  19  35  65  98 132 179 231 282 334 413
#     4  10  20  37  64  95 133 180 222 280 346 400
#     4  11  23  45  70  99 140 178 232 290 341 417
#     4  11  25  45  68 100 138 180 226 289 357 413
#     4  10  20  36  62  99 133 181 234 277 339 415
#     4   9  18  32  59  98 136 177 232 279 335 407
#     4   9  17  32  60  96 135 177 229 280 340 403
#
# _framework density 26.923566999999998
#
# number of rings (size 3 to 8) (size 9 to 14) (size 15 to 20)
#    0.000    2.000    2.857    0.857    2.000    1.143 
#    2.571    2.143    0.000    1.714    0.000    0.000 
#    0.000    0.000    0.000    0.000    0.000    0.000 
#
# Total GULP energy -78238.832050 kJ/mol
# GULP energy per Si atom -5588.488004 kJ/mol
# Density = 2.686229 g / cm^3
# Si number density = 26.923567 Si / 1000 Ang^3
#
#
#
# Elastic Constant Matrix: (Units=GPa)
#
#
# Indices 1 2 3 4 5 6 
#
# 1 195.7445 52.9125 54.5982 18.8038 -33.6991 4.7498
# 2 52.9125 160.7752 43.9671 46.8126 -15.4328 13.9358
# 3 54.5982 43.9671 123.1569 36.5624 -12.9250 12.7155
# 4 18.8038 46.8126 36.5624 47.0025 -2.9681 0.1335
# 5 -33.6991 -15.4328 -12.9250 -2.9681 58.5380 11.1574
# 6 4.7498 13.9358 12.7155 0.1335 11.1574 43.2297
#
#
#
# Elastic Compliance Matrix: (Units=1/GPa)
#
#
# Indices 1 2 3 4 5 6 
#
# 1 0.006590 -0.001448 -0.002278 0.000770 0.003018 -0.000368
# 2 -0.001448 0.009833 0.000554 -0.009501 0.002102 -0.003687
# 3 -0.002278 0.000554 0.012208 -0.009009 0.001828 -0.003963
# 4 0.000770 -0.009501 -0.009009 0.037207 -0.003382 0.006386
# 5 0.003018 0.002102 0.001828 -0.003382 0.020929 -0.006938
# 6 -0.000368 -0.003687 -0.003963 0.006386 -0.006938 0.027298
#
#
# Mechanical properties :
#
#
# Convention : Reuss Voigt Hill
#
# Bulk Modulus (GPa) = 44.87356 86.95914 65.91635
# Shear Modulus (GPa) = 39.11156 51.63395 45.37276
#
# Velocity S-wave (km/s) = 3.81555 4.38402 4.10962
# Velocity P-wave (km/s) = 6.00953 7.61543 6.85964
#
# Compressibility (1/GPa) = 0.02228484
#
# Stress axis : x y z
#
# Youngs Moduli (GPa) = 151.73804 101.69969 81.91442
#
# Poissons Ratio (x) = 0.14730 0.18663
# Poissons Ratio (y) = 0.21978 -0.04535
# Poissons Ratio (z) = 0.34571 -0.05630
#
# Static dielectric constant tensor:
#      x y z
#    x 2.330930 0.137040 -0.340230 
#    y 0.137040 2.285990 -0.510850 
#    z -0.340230 -0.510850 3.006200 
# 
# From -- ./inp_files/203646.got.cif
#   From: 2010.05.17/outbox.cif.g08.bks.cpg/sg2_102_cif.got.tgz:203646.got - 2010.06.03 11:33:40.
