data_PCOD9085186
_publ_section_title
;
Structure prediction by ZEFSAII (Michael W. Deem and Ramdas Pophale) SiO2 
 PCOD9085186
Probable space group: P -1
;
_chemical_formula_sum "Si O2"
_cell_formula_units_Z 14
_cell_length_a 9.550757
_cell_length_b 12.225288
_cell_length_c 19.481061
_cell_angle_alpha 21.768945
_cell_angle_beta 137.839702
_cell_angle_gamma 130.209318
_cell_volume 557.772521
_symmetry_space_group_name_H-M "P -1"
_symmetry_group_IT_number 2
_symmetry_cell_setting 'triclinic'
loop_
_space_group_symop_operation_xyz
x,y,z
-x,-y,-z
loop_
_atom_site_type_symbol
_atom_site_label
_atom_site_fract_x
_atom_site_fract_y
_atom_site_fract_z
Si Si1 0.802617 0.738611 0.709182
Si Si2 0.807233 0.136575 0.753324
Si Si3 0.770391 0.202565 0.222861
Si Si4 0.030678 0.925293 0.819156
Si Si5 0.643031 0.782598 0.305429
Si Si6 0.242633 0.230927 0.920772
Si Si7 0.549121 0.256681 0.257772
O O1 0.981415 0.788648 0.688963
O O2 0.896332 0.857290 0.743735
O O3 0.581457 0.933598 0.492768
O O4 0.813019 0.386455 0.925769
O O5 0.633681 0.435028 0.512715
O O6 0.751131 0.882212 0.931675
O O7 0.880095 0.020257 0.773120
O O8 0.012338 0.236021 0.804701
O O9 0.651937 0.209194 0.247622
O O10 0.723175 0.928675 0.318763
O O11 0.666067 0.506701 0.967158
O O12 0.178804 0.167143 0.713981
O O13 0.416356 0.984431 0.090394
O O14 0.309430 0.552157 0.757460
#
# Coordination Sequence:
#
# PCOD9085186 Si02
#       7
#     2   2   2   2   2   2   2
#     4  10  20  38  57  81 116 150 183 236 283 331
#     4  11  22  39  58  82 114 151 190 236 282 332
#     4   9  19  34  58  87 111 143 192 233 281 342
#     4  10  22  38  59  85 116 152 194 227 280 349
#     4  10  21  39  57  82 117 149 185 236 281 331
#     4  10  22  37  59  86 110 146 197 234 278 341
#     4  10  19  35  59  85 114 147 185 237 287 328
#
# _framework density 25.099837999999998
#
# number of rings (size 3 to 8) (size 9 to 14) (size 15 to 20)
#    0.000    2.000    0.000    3.857    0.000    2.857 
#    0.000   18.571    0.000    0.000    0.000    0.000 
#    0.000    0.000    0.000    0.000    0.000    0.000 
#
# Total GULP energy -78450.534331 kJ/mol
# GULP energy per Si atom -5603.609595 kJ/mol
# Density = 2.504271 g / cm^3
# Si number density = 25.099838 Si / 1000 Ang^3
#
#
#
# Elastic Constant Matrix: (Units=GPa)
#
#
# Indices 1 2 3 4 5 6 
#
# 1 86.5663 1.0741 6.3885 -7.2711 10.4286 -21.2382
# 2 1.0741 38.2729 20.7600 -2.6805 3.7137 -0.7200
# 3 6.3885 20.7600 161.0936 -2.6922 0.1132 -11.9201
# 4 -7.2711 -2.6805 -2.6922 24.0731 3.2110 9.7271
# 5 10.4286 3.7137 0.1132 3.2110 27.5328 -2.7558
# 6 -21.2382 -0.7200 -11.9201 9.7271 -2.7558 34.0611
#
#
#
# Elastic Compliance Matrix: (Units=1/GPa)
#
#
# Indices 1 2 3 4 5 6 
#
# 1 0.014240 0.000334 0.000017 0.001754 -0.004843 0.007999
# 2 0.000334 0.028920 -0.003823 0.004398 -0.004741 -0.002158
# 3 0.000017 -0.003823 0.006881 -0.000832 0.000843 0.002643
# 4 0.001754 0.004398 -0.000832 0.049169 -0.008372 -0.013823
# 5 -0.004843 -0.004741 0.000843 -0.008372 0.040048 0.002806
# 6 0.007999 -0.002158 0.002643 -0.013823 0.002806 0.039401
#
#
# Mechanical properties :
#
#
# Convention : Reuss Voigt Hill
#
# Bulk Modulus (GPa) = 23.20358 38.04199 30.62279
# Shear Modulus (GPa) = 25.00414 34.31407 29.65911
#
# Velocity S-wave (km/s) = 3.15967 3.70145 3.44124
# Velocity P-wave (km/s) = 4.75141 5.78418 5.29305
#
# Compressibility (1/GPa) = 0.04309680
#
# Stress axis : x y z
#
# Youngs Moduli (GPa) = 70.22631 34.57832 145.33473
#
# Poissons Ratio (x) = -0.01156 -0.00244
# Poissons Ratio (y) = -0.02349 0.55561
# Poissons Ratio (z) = -0.00118 0.13219
#
# Static dielectric constant tensor:
#      x y z
#    x 2.001770 0.008060 -0.017600 
#    y 0.008060 1.952570 0.017160 
#    z -0.017600 0.017160 1.925250 
# 
# From -- ./inp_files/188041.got.cif
#   From: 2010.05.17/outbox.cif.g08.bks.cpg/sg2_95_cif.got.tgz:188041.got - 2010.06.03 11:33:40.
