data_PCOD9085630
_publ_section_title
;
Structure prediction by ZEFSAII (Michael W. Deem and Ramdas Pophale) SiO2 
 PCOD9085630
Probable space group: P -1
;
_chemical_formula_sum "Si O2"
_cell_formula_units_Z 14
_cell_length_a 18.716333
_cell_length_b 11.324886
_cell_length_c 22.721749
_cell_angle_alpha 37.200991
_cell_angle_beta 162.676342
_cell_angle_gamma 150.738846
_cell_volume 678.809372
_symmetry_space_group_name_H-M "P -1"
_symmetry_group_IT_number 2
_symmetry_cell_setting 'triclinic'
loop_
_space_group_symop_operation_xyz
x,y,z
-x,-y,-z
loop_
_atom_site_type_symbol
_atom_site_label
_atom_site_fract_x
_atom_site_fract_y
_atom_site_fract_z
Si Si1 0.308851 0.875644 0.459369
Si Si2 0.219244 0.008253 0.121529
Si Si3 0.450754 0.992755 0.101517
Si Si4 0.905380 0.594282 0.587580
Si Si5 0.682910 0.483037 0.860924
Si Si6 0.687941 0.769754 0.010074
Si Si7 0.582316 0.251179 0.993053
O O1 0.522739 0.968706 0.647069
O O2 0.146419 0.586393 0.433364
O O3 0.045431 0.901403 0.247486
O O4 0.500000 0.000000 0.500000
O O5 0.357900 0.233183 0.094940
O O6 0.000000 0.000000 0.000000
O O7 0.996898 0.755786 0.009193
O O8 0.275294 0.706668 0.061036
O O9 0.811963 0.126471 0.321669
O O10 0.396312 0.068264 0.090075
O O11 0.396894 0.140339 0.952294
O O12 0.585966 0.532541 0.375891
O O13 0.064645 0.566989 0.779243
O O14 0.546011 0.381649 0.859876
O O15 0.500000 0.500000 0.000000
O O16 0.500000 0.000000 0.000000
#
# Coordination Sequence:
#
# PCOD9085630 Si02
#       7
#     2   2   2   2   2   2   2
#     4  12  23  42  68  95 132 174 220 266 325 395
#     4  12  26  41  67  99 125 181 223 262 328 394
#     4   9  22  39  61  96 128 171 206 272 338 364
#     4  10  19  35  61  95 123 169 212 263 325 377
#     4  11  20  40  65  92 134 163 223 265 314 404
#     4  12  25  46  65  96 140 169 216 281 325 385
#     4   8  18  33  57  92 123 163 210 255 321 379
#
# _framework density 20.624345999999999
#
# number of rings (size 3 to 8) (size 9 to 14) (size 15 to 20)
#    0.857    0.571    4.286    1.286    2.000    1.143 
#    2.571    0.714    0.000    0.000    0.000    0.000 
#    0.000    0.000    0.000    0.000    0.000    0.000 
#
# Total GULP energy -78026.692000 kJ/mol
# GULP energy per Si atom -5573.335143 kJ/mol
# Density = 2.057740 g / cm^3
# Si number density = 20.624346 Si / 1000 Ang^3
#
#
#
# Elastic Constant Matrix: (Units=GPa)
#
#
# Indices 1 2 3 4 5 6 
#
# 1 90.3312 23.2220 20.2256 -0.1293 -4.2925 6.8290
# 2 23.2220 88.0571 15.3323 16.1759 -8.8100 -6.7622
# 3 20.2256 15.3323 108.7668 4.3552 -6.9105 -1.7825
# 4 -0.1293 16.1759 4.3552 26.9338 -1.7620 -6.1061
# 5 -4.2925 -8.8100 -6.9105 -1.7620 21.5836 -0.4000
# 6 6.8290 -6.7622 -1.7825 -6.1061 -0.4000 36.6126
#
#
#
# Elastic Compliance Matrix: (Units=1/GPa)
#
#
# Indices 1 2 3 4 5 6 
#
# 1 0.012645 -0.003499 -0.001943 0.001883 0.000567 -0.002779
# 2 -0.003499 0.014440 -0.000762 -0.007822 0.004353 0.002026
# 3 -0.001943 -0.000762 0.009859 -0.000856 0.002400 0.000585
# 4 0.001883 -0.007822 -0.000856 0.043227 0.000536 0.005378
# 5 0.000567 0.004353 0.002400 0.000536 0.049060 0.001441
# 6 -0.002779 0.002026 0.000585 0.005378 0.001441 0.029147
#
#
# Mechanical properties :
#
#
# Convention : Reuss Voigt Hill
#
# Bulk Modulus (GPa) = 40.75714 44.96831 42.86273
# Shear Modulus (GPa) = 27.93869 32.25102 30.09486
#
# Velocity S-wave (km/s) = 3.68454 3.95870 3.82408
# Velocity P-wave (km/s) = 6.15676 6.53804 6.35026
#
# Compressibility (1/GPa) = 0.02453558
#
# Stress axis : x y z
#
# Youngs Moduli (GPa) = 79.08488 69.25424 101.42952
#
# Poissons Ratio (x) = 0.24232 0.19708
# Poissons Ratio (y) = 0.27671 0.07727
# Poissons Ratio (z) = 0.15366 0.05276
#
# Static dielectric constant tensor:
#      x y z
#    x 1.709490 0.073870 -0.046690 
#    y 0.073870 1.783290 0.022680 
#    z -0.046690 0.022680 1.730740 
# 
# From -- ./inp_files/600066.got.cif
#   From: 2010.05.17/outbox.cif.g08.bks.cpg/sg2_301_cif.got.tgz:600066.got - 2010.06.03 11:33:40.
