data_PCOD9085438
_publ_section_title
;
Structure prediction by ZEFSAII (Michael W. Deem and Ramdas Pophale) SiO2 
 PCOD9085438
Probable space group: P -1
;
_chemical_formula_sum "Si O2"
_cell_formula_units_Z 12
_cell_length_a 7.392454
_cell_length_b 8.908718
_cell_length_c 11.079821
_cell_angle_alpha 105.618195
_cell_angle_beta 49.999016
_cell_angle_gamma 127.961755
_cell_volume 430.973892
_symmetry_space_group_name_H-M "P -1"
_symmetry_group_IT_number 2
_symmetry_cell_setting 'triclinic'
loop_
_space_group_symop_operation_xyz
x,y,z
-x,-y,-z
loop_
_atom_site_type_symbol
_atom_site_label
_atom_site_fract_x
_atom_site_fract_y
_atom_site_fract_z
Si Si1 0.760401 0.540525 0.595854
Si Si2 0.343370 0.113745 0.895185
Si Si3 0.112224 0.558010 0.166775
Si Si4 0.187767 0.251857 0.642553
Si Si5 0.504094 0.135437 0.343987
Si Si6 0.405614 0.244385 0.155128
O O1 0.427379 0.353293 0.670169
O O2 0.785422 0.648939 0.480032
O O3 0.789565 0.683686 0.716433
O O4 0.000000 0.500000 0.500000
O O5 0.622035 0.343116 0.827680
O O6 0.438317 0.022447 0.736430
O O7 0.325957 0.101425 0.048021
O O8 0.000000 0.000000 0.000000
O O9 0.052753 0.718008 0.203103
O O10 0.810657 0.350525 0.280767
O O11 0.273496 0.560716 0.978209
O O12 0.256742 0.102896 0.533918
O O13 0.414673 0.149147 0.250538
#
# Coordination Sequence:
#
# PCOD9085438 Si02
#       6
#     2   2   2   2   2   2
#     4  10  19  35  60  90 121 154 202 244 302 356
#     4  10  25  37  56  90 122 153 202 247 296 356
#     4  10  20  38  63  88 116 157 204 240 301 359
#     4  10  20  37  60  91 120 157 198 250 300 356
#     4  11  19  40  64  82 122 157 195 249 302 350
#     4   9  21  37  61  87 118 153 204 244 294 363
#
# _framework density 27.843913000000001
#
# number of rings (size 3 to 8) (size 9 to 14) (size 15 to 20)
#    1.000    1.000    5.000    1.000    2.333    1.333 
#    3.000    0.000    0.000    2.000    0.000    0.000 
#    0.000    0.000    0.000    0.000    0.000    0.000 
#
# Total GULP energy -66814.765849 kJ/mol
# GULP energy per Si atom -5567.897154 kJ/mol
# Density = 2.778054 g / cm^3
# Si number density = 27.843913 Si / 1000 Ang^3
#
#
#
# Elastic Constant Matrix: (Units=GPa)
#
#
# Indices 1 2 3 4 5 6 
#
# 1 129.3907 38.6847 38.8170 0.7664 -29.8112 26.2141
# 2 38.6847 135.9687 41.0411 2.9862 -8.6279 8.9311
# 3 38.8170 41.0411 145.2298 40.3549 -22.6567 4.6900
# 4 0.7664 2.9862 40.3549 45.5309 9.3903 -3.6934
# 5 -29.8112 -8.6279 -22.6567 9.3903 42.9611 6.5753
# 6 26.2141 8.9311 4.6900 -3.6934 6.5753 43.5689
#
#
#
# Elastic Compliance Matrix: (Units=1/GPa)
#
#
# Indices 1 2 3 4 5 6 
#
# 1 0.012605 -0.002275 -0.000044 -0.002861 0.010255 -0.008903
# 2 -0.002275 0.008651 -0.002808 0.002384 -0.001902 0.000387
# 3 -0.000044 -0.002808 0.013199 -0.013844 0.009927 -0.003491
# 4 -0.002861 0.002384 -0.013844 0.038678 -0.018611 0.008811
# 5 0.010255 -0.001902 0.009927 -0.018611 0.041564 -0.014699
# 6 -0.008903 0.000387 -0.003491 0.008811 -0.014699 0.031571
#
#
# Mechanical properties :
#
#
# Convention : Reuss Voigt Hill
#
# Bulk Modulus (GPa) = 41.31939 71.96387 56.64163
# Shear Modulus (GPa) = 30.37857 45.88195 38.13026
#
# Velocity S-wave (km/s) = 3.30666 4.06375 3.70459
# Velocity P-wave (km/s) = 5.42683 6.92245 6.21976
#
# Compressibility (1/GPa) = 0.02420171
#
# Stress axis : x y z
#
# Youngs Moduli (GPa) = 79.33188 115.59306 75.76179
#
# Poissons Ratio (x) = 0.26294 0.00332
# Poissons Ratio (y) = 0.18046 0.21277
# Poissons Ratio (z) = 0.00348 0.32463
#
# Static dielectric constant tensor:
#      x y z
#    x 2.259350 -0.133020 0.110740 
#    y -0.133020 2.574090 -0.221520 
#    z 0.110740 -0.221520 2.369250 
# 
# From -- ./inp_files/498167.got.cif
#   From: 2010.05.17/outbox.cif.g08.bks.cpg/sg2_250_cif.got.tgz:498167.got - 2010.06.03 11:33:40.
