data_PCOD9085100
_publ_section_title
;
Structure prediction by ZEFSAII (Michael W. Deem and Ramdas Pophale) SiO2 
 PCOD9085100
Probable space group: P -1
;
_chemical_formula_sum "Si O2"
_cell_formula_units_Z 16
_cell_length_a 13.806480
_cell_length_b 11.196836
_cell_length_c 11.435953
_cell_angle_alpha 47.364145
_cell_angle_beta 67.026874
_cell_angle_gamma 105.296602
_cell_volume 749.619370
_symmetry_space_group_name_H-M "P -1"
_symmetry_group_IT_number 2
_symmetry_cell_setting 'triclinic'
loop_
_space_group_symop_operation_xyz
x,y,z
-x,-y,-z
loop_
_atom_site_type_symbol
_atom_site_label
_atom_site_fract_x
_atom_site_fract_y
_atom_site_fract_z
Si Si1 0.536896 0.230409 0.342249
Si Si2 0.689002 0.494168 0.346611
Si Si3 0.915143 0.491752 0.655197
Si Si4 0.408341 0.027160 0.950032
Si Si5 0.083315 0.523712 0.771836
Si Si6 0.810275 0.073069 0.377719
Si Si7 0.681813 0.660730 0.857916
Si Si8 0.803426 0.939148 0.867128
O O1 0.618399 0.358130 0.343696
O O2 0.500000 0.000000 0.500000
O O3 0.359923 0.110712 0.493782
O O4 0.658041 0.442907 0.041205
O O5 0.538274 0.297465 0.639456
O O6 0.815167 0.501334 0.316671
O O7 0.771201 0.767605 0.098271
O O8 0.000000 0.500000 0.500000
O O9 0.972756 0.478751 0.756808
O O10 0.001695 0.772892 0.424870
O O11 0.718330 0.224422 0.907726
O O12 0.299660 0.021003 0.082511
O O13 0.500000 0.000000 0.000000
O O14 0.192731 0.794338 0.605778
O O15 0.968673 0.303855 0.071010
O O16 0.812766 0.898462 0.549874
O O17 0.730735 0.788842 0.877635
O O18 0.500000 0.500000 0.000000
#
# Coordination Sequence:
#
# PCOD9085100 Si02
#       8
#     2   2   2   2   2   2   2   2
#     4  10  19  35  58  90 124 161 209 254 310 375
#     4  11  22  39  62  91 128 166 210 258 313 374
#     4  10  21  41  64  88 123 164 209 258 313 373
#     4  11  24  41  66  93 118 164 215 262 319 377
#     4  11  21  37  62  87 124 166 205 254 310 377
#     4  10  20  36  58  88 124 164 205 251 314 362
#     4   9  19  35  61  88 121 162 199 256 309 366
#     4  10  21  41  63  93 129 159 207 266 313 374
#
# _framework density 21.344165
#
# number of rings (size 3 to 8) (size 9 to 14) (size 15 to 20)
#    0.000    1.750    2.500    2.625    0.000    0.000 
#    0.000   15.625    0.000    0.000    0.000    0.000 
#    0.000    0.000    0.000    0.000    0.000    0.000 
#
# Total GULP energy -89299.200454 kJ/mol
# GULP energy per Si atom -5581.200028 kJ/mol
# Density = 2.129559 g / cm^3
# Si number density = 21.344165 Si / 1000 Ang^3
#
#
#
# Elastic Constant Matrix: (Units=GPa)
#
#
# Indices 1 2 3 4 5 6 
#
# 1 70.1792 15.4831 24.7003 -17.0326 16.6193 7.1257
# 2 15.4831 40.3436 16.5954 -20.2039 8.4270 3.4610
# 3 24.7003 16.5954 119.5578 -20.3925 34.9211 0.2667
# 4 -17.0326 -20.2039 -20.3925 31.8547 -0.9506 -0.2582
# 5 16.6193 8.4270 34.9211 -0.9506 39.7238 -3.4795
# 6 7.1257 3.4610 0.2667 -0.2582 -3.4795 32.3694
#
#
#
# Elastic Compliance Matrix: (Units=1/GPa)
#
#
# Indices 1 2 3 4 5 6 
#
# 1 0.019116 -0.000315 0.000222 0.009875 -0.008327 -0.004993
# 2 -0.000315 0.039480 0.001796 0.025693 -0.009645 -0.004999
# 3 0.000222 0.001796 0.013150 0.009306 -0.011947 -0.001559
# 4 0.009875 0.025693 0.009306 0.058370 -0.016923 -0.006351
# 5 -0.008327 -0.009645 -0.011947 -0.016923 0.041440 0.007282
# 6 -0.004993 -0.004999 -0.001559 -0.006351 0.007282 0.033272
#
#
# Mechanical properties :
#
#
# Convention : Reuss Voigt Hill
#
# Bulk Modulus (GPa) = 13.30651 38.18201 25.74426
# Shear Modulus (GPa) = 22.07792 32.34306 27.21049
#
# Velocity S-wave (km/s) = 3.21966 3.89692 3.57437
# Velocity P-wave (km/s) = 4.47989 6.17864 5.39653
#
# Compressibility (1/GPa) = 0.07515117
#
# Stress axis : x y z
#
# Youngs Moduli (GPa) = 52.31202 25.32956 76.04828
#
# Poissons Ratio (x) = 0.00797 -0.01689
# Poissons Ratio (y) = 0.01646 -0.13656
# Poissons Ratio (z) = -0.01162 -0.04548
#
# Static dielectric constant tensor:
#      x y z
#    x 1.789190 -0.032040 -0.026100 
#    y -0.032040 1.762640 -0.005400 
#    z -0.026100 -0.005400 1.849530 
# 
# From -- ./inp_files/226385.got.cif
#   From: 2010.05.17/outbox.cif.g08.bks.cpg/sg2_114_cif.got.tgz:226385.got - 2010.06.03 11:33:40.
