data_PCOD9085494
_publ_section_title
;
Structure prediction by ZEFSAII (Michael W. Deem and Ramdas Pophale) SiO2 
 PCOD9085494
Probable space group: P -1
;
_chemical_formula_sum "Si O2"
_cell_formula_units_Z 16
_cell_length_a 22.345877
_cell_length_b 14.387750
_cell_length_c 6.756668
_cell_angle_alpha 86.198166
_cell_angle_beta 84.084311
_cell_angle_gamma 21.206809
_cell_volume 778.936923
_symmetry_space_group_name_H-M "P -1"
_symmetry_group_IT_number 2
_symmetry_cell_setting 'triclinic'
loop_
_space_group_symop_operation_xyz
x,y,z
-x,-y,-z
loop_
_atom_site_type_symbol
_atom_site_label
_atom_site_fract_x
_atom_site_fract_y
_atom_site_fract_z
Si Si1 0.370458 0.253372 0.882198
Si Si2 0.853461 0.731472 0.801412
Si Si3 0.588246 0.055361 0.523677
Si Si4 0.401915 0.501173 0.631221
Si Si5 0.352767 0.803058 0.064629
Si Si6 0.819433 0.646686 0.181256
Si Si7 0.325208 0.659973 0.236470
Si Si8 0.193919 0.697912 0.007051
O O1 0.478489 0.142574 0.681555
O O2 0.224042 0.398246 0.828748
O O3 0.278173 0.472937 0.996910
O O4 0.500000 0.000000 0.000000
O O5 0.023332 0.540746 0.722731
O O6 0.744597 0.859515 0.634156
O O7 0.752999 0.951717 0.935567
O O8 0.860976 0.631261 0.955394
O O9 0.484197 0.299721 0.504743
O O10 0.656058 0.920308 0.312293
O O11 0.540937 0.345029 0.746359
O O12 0.314985 0.688925 0.469913
O O13 0.279955 0.628993 0.807745
O O14 0.249850 0.856549 0.113013
O O15 0.484064 0.612898 0.869510
O O16 0.246573 0.677149 0.189490
O O17 0.000000 0.000000 0.000000
#
# Coordination Sequence:
#
# PCOD9085494 Si02
#       8
#     2   2   2   2   2   2   2   2
#     4  11  23  41  64  88 119 158 209 245 284 362
#     4  10  21  37  56  88 124 148 193 250 303 348
#     4  10  20  38  60  86 119 154 200 245 296 354
#     4   9  19  35  60  85 112 151 196 241 286 355
#     4   9  19  34  56  87 113 149 193 241 287 356
#     4  11  22  36  61  85 121 158 194 245 307 344
#     4  10  19  35  61  80 114 156 197 230 296 347
#     4  10  24  41  58  85 122 154 194 248 294 342
#
# _framework density 20.540814999999998
#
# number of rings (size 3 to 8) (size 9 to 14) (size 15 to 20)
#    0.000    2.000    1.250    2.625    3.500    0.500 
#    0.000    1.250    0.000    0.000    0.000    0.000 
#    0.000    0.000    0.000    0.000    0.000    0.000 
#
# Total GULP energy -89124.326003 kJ/mol
# GULP energy per Si atom -5570.270375 kJ/mol
# Density = 2.049406 g / cm^3
# Si number density = 20.540815 Si / 1000 Ang^3
#
#
#
# Elastic Constant Matrix: (Units=GPa)
#
#
# Indices 1 2 3 4 5 6 
#
# 1 127.5083 34.4927 13.9182 2.4269 -6.4133 -7.8420
# 2 34.4927 57.2007 4.9944 -2.8678 0.7884 -7.7559
# 3 13.9182 4.9944 46.5920 -8.2230 -1.7484 -4.4339
# 4 2.4269 -2.8678 -8.2230 19.0575 6.2195 4.5233
# 5 -6.4133 0.7884 -1.7484 6.2195 19.1465 -0.5592
# 6 -7.8420 -7.7559 -4.4339 4.5233 -0.5592 27.5134
#
#
#
# Elastic Compliance Matrix: (Units=1/GPa)
#
#
# Indices 1 2 3 4 5 6 
#
# 1 0.010304 -0.006064 -0.003066 -0.005709 0.005327 0.001780
# 2 -0.006064 0.021891 0.000502 0.004840 -0.004352 0.003639
# 3 -0.003066 0.000502 0.024381 0.011513 -0.002525 0.001253
# 4 -0.005709 0.004840 0.011513 0.069098 -0.023805 -0.010251
# 5 0.005327 -0.004352 -0.002525 -0.023805 0.061842 0.005055
# 6 0.001780 0.003639 0.001253 -0.010251 0.005055 0.039869
#
#
# Mechanical properties :
#
#
# Convention : Reuss Voigt Hill
#
# Bulk Modulus (GPa) = 25.43221 37.56793 31.50007
# Shear Modulus (GPa) = 19.39878 25.00320 22.20099
#
# Velocity S-wave (km/s) = 3.07645 3.49269 3.29115
# Velocity P-wave (km/s) = 5.00275 5.88169 5.45994
#
# Compressibility (1/GPa) = 0.03932022
#
# Stress axis : x y z
#
# Youngs Moduli (GPa) = 97.05197 45.68060 41.01480
#
# Poissons Ratio (x) = 0.27700 0.12576
# Poissons Ratio (y) = 0.58851 -0.02059
# Poissons Ratio (z) = 0.29758 -0.02293
#
# Static dielectric constant tensor:
#      x y z
#    x 1.864860 0.013470 -0.003060 
#    y 0.013470 1.780920 -0.009520 
#    z -0.003060 -0.009520 1.707030 
# 
# From -- ./inp_files/124175.got.cif
#   From: 2010.05.17/outbox.cif.g08.bks.cpg/sg2_63_cif.got.tgz:124175.got - 2010.06.03 11:33:40.
