data_PCOD9085415
_publ_section_title
;
Structure prediction by ZEFSAII (Michael W. Deem and Ramdas Pophale) SiO2 
 PCOD9085415
Probable space group: P -1
;
_chemical_formula_sum "Si O2"
_cell_formula_units_Z 16
_cell_length_a 17.349887
_cell_length_b 11.875762
_cell_length_c 11.436450
_cell_angle_alpha 51.993298
_cell_angle_beta 144.866557
_cell_angle_gamma 140.556987
_cell_volume 860.718756
_symmetry_space_group_name_H-M "P -1"
_symmetry_group_IT_number 2
_symmetry_cell_setting 'triclinic'
loop_
_space_group_symop_operation_xyz
x,y,z
-x,-y,-z
loop_
_atom_site_type_symbol
_atom_site_label
_atom_site_fract_x
_atom_site_fract_y
_atom_site_fract_z
Si Si1 0.889742 0.042431 0.264629
Si Si2 0.510494 0.137464 0.761437
Si Si3 0.787252 0.522482 0.246369
Si Si4 0.097738 0.618383 0.934301
Si Si5 0.485405 0.189320 0.965236
Si Si6 0.933635 0.372601 0.668206
Si Si7 0.109225 0.100348 0.887009
Si Si8 0.222250 0.028444 0.300761
O O1 0.939516 0.237787 0.225482
O O2 0.700541 0.906187 0.159887
O O3 0.899744 0.016422 0.155348
O O4 0.000000 0.000000 0.500000
O O5 0.492114 0.198163 0.827214
O O6 0.388711 0.125620 0.521211
O O7 0.702839 0.266238 0.880700
O O8 0.463518 0.940591 0.850716
O O9 0.819940 0.432968 0.448625
O O10 0.818204 0.706270 0.197593
O O11 0.929715 0.574775 0.294933
O O12 0.612340 0.378172 0.061667
O O13 0.035258 0.483809 0.835720
O O14 0.000000 0.500000 0.000000
O O15 0.826853 0.161731 0.681106
O O16 0.926780 0.012535 0.772629
O O17 0.219918 0.121939 0.121292
#
# Coordination Sequence:
#
# PCOD9085415 Si02
#       8
#     2   2   2   2   2   2   2   2
#     4  11  23  40  59  84 121 160 190 232 301 349
#     4  10  20  38  62  89 114 148 202 241 291 333
#     4  10  19  35  60  89 110 149 195 245 282 329
#     4  11  23  40  60  88 118 152 193 245 287 345
#     4  10  20  36  62  88 116 147 199 251 277 338
#     4  10  19  35  63  86 113 145 199 241 286 333
#     4  10  22  37  57  85 124 154 190 227 295 360
#     4  10  20  39  62  84 116 159 189 237 289 348
#
# _framework density 18.589113999999999
#
# number of rings (size 3 to 8) (size 9 to 14) (size 15 to 20)
#    0.000    1.750    2.500    2.250    0.000    0.500 
#    4.500    2.500    0.000    0.000    0.000    0.000 
#    0.000    0.000    0.000    0.000    0.000    0.000 
#
# Total GULP energy -89338.716558 kJ/mol
# GULP energy per Si atom -5583.669785 kJ/mol
# Density = 1.854680 g / cm^3
# Si number density = 18.589114 Si / 1000 Ang^3
#
#
#
# Elastic Constant Matrix: (Units=GPa)
#
#
# Indices 1 2 3 4 5 6 
#
# 1 47.6752 4.8518 16.1017 0.1925 0.2580 -2.7503
# 2 4.8518 43.5873 4.7028 6.9511 8.2064 7.5882
# 3 16.1017 4.7028 112.1486 2.8752 -0.1348 4.7774
# 4 0.1925 6.9511 2.8752 23.3788 -5.8873 -7.9662
# 5 0.2580 8.2064 -0.1348 -5.8873 13.9379 0.2997
# 6 -2.7503 7.5882 4.7774 -7.9662 0.2997 17.2260
#
#
#
# Elastic Compliance Matrix: (Units=1/GPa)
#
#
# Indices 1 2 3 4 5 6 
#
# 1 0.023482 -0.006538 -0.003755 0.007581 0.006343 0.011066
# 2 -0.006538 0.042520 0.001512 -0.034648 -0.038770 -0.035542
# 3 -0.003755 0.001512 0.009748 -0.004221 -0.002383 -0.005880
# 4 0.007581 -0.034648 -0.004221 0.086947 0.055722 0.056883
# 5 0.006343 -0.038770 -0.002383 0.055722 0.117057 0.042485
# 6 0.011066 -0.035542 -0.005880 0.056883 0.042485 0.102673
#
#
# Mechanical properties :
#
#
# Convention : Reuss Voigt Hill
#
# Bulk Modulus (GPa) = 17.18625 28.30264 22.74444
# Shear Modulus (GPa) = 11.92215 22.75887 17.34051
#
# Velocity S-wave (km/s) = 2.53524 3.50281 3.05754
# Velocity P-wave (km/s) = 4.22319 5.62299 4.97259
#
# Compressibility (1/GPa) = 0.05818606
#
# Stress axis : x y z
#
# Youngs Moduli (GPa) = 42.58494 23.51846 102.58137
#
# Poissons Ratio (x) = 0.15377 0.38524
# Poissons Ratio (y) = 0.27844 -0.15505
# Poissons Ratio (z) = 0.15993 -0.03555
#
# Static dielectric constant tensor:
#      x y z
#    x 1.623780 -0.012830 0.001380 
#    y -0.012830 1.636430 -0.018650 
#    z 0.001380 -0.018650 1.636240 
# 
# From -- ./inp_files/209070.got.cif
#   From: 2010.05.17/outbox.cif.g08.bks.cpg/sg2_105_cif.got.tgz:209070.got - 2010.06.03 11:33:40.
