data_PCOD9085593
_publ_section_title
;
Structure prediction by ZEFSAII (Michael W. Deem and Ramdas Pophale) SiO2 
 PCOD9085593
Probable space group: P -1
;
_chemical_formula_sum "Si O2"
_cell_formula_units_Z 16
_cell_length_a 21.045339
_cell_length_b 14.139106
_cell_length_c 8.851996
_cell_angle_alpha 40.104741
_cell_angle_beta 26.201373
_cell_angle_gamma 36.165459
_cell_volume 677.959887
_symmetry_space_group_name_H-M "P -1"
_symmetry_group_IT_number 2
_symmetry_cell_setting 'triclinic'
loop_
_space_group_symop_operation_xyz
x,y,z
-x,-y,-z
loop_
_atom_site_type_symbol
_atom_site_label
_atom_site_fract_x
_atom_site_fract_y
_atom_site_fract_z
Si Si1 0.966607 0.369266 0.585972
Si Si2 0.267728 0.974396 0.712319
Si Si3 0.682575 0.614129 0.690440
Si Si4 0.532025 0.048218 0.206683
Si Si5 0.795920 0.300024 0.654551
Si Si6 0.072064 0.752803 0.886323
Si Si7 0.894445 0.679174 0.940145
Si Si8 0.830231 0.993665 0.463055
O O1 0.807455 0.505843 0.684544
O O2 0.107323 0.363631 0.181615
O O3 0.014820 0.174215 0.695367
O O4 0.943123 0.376657 0.806388
O O5 0.421381 0.003404 0.385230
O O6 0.250641 0.954017 0.593436
O O7 0.263707 0.829199 0.998261
O O8 0.110957 0.132804 0.903471
O O9 0.524121 0.756608 0.918772
O O10 0.680467 0.473623 0.758652
O O11 0.749775 0.715528 0.316248
O O12 0.500000 0.000000 0.500000
O O13 0.712943 0.959571 0.871252
O O14 0.818422 0.309815 0.416691
O O15 0.978829 0.244892 0.391547
O O16 0.134125 0.871378 0.693704
O O17 0.000000 0.500000 0.000000
#
# Coordination Sequence:
#
# PCOD9085593 Si02
#       8
#     2   2   2   2   2   2   2   2
#     4   9  18  36  62  89 121 161 209 259 306 366
#     4  11  23  42  66  94 129 170 213 261 318 382
#     4  10  21  41  63  91 129 170 209 261 318 376
#     4  12  26  44  64  93 131 172 210 259 324 384
#     4  10  19  35  61  90 121 162 211 258 303 364
#     4  11  20  35  65 102 127 161 214 266 315 375
#     4   8  15  31  54  83 116 155 196 248 300 349
#     4  11  22  40  64  96 131 167 209 262 320 380
#
# _framework density 23.600216
#
# number of rings (size 3 to 8) (size 9 to 14) (size 15 to 20)
#    0.000    2.000    0.000    7.500    0.000    1.000 
#    0.000   23.125    0.000    0.000    0.000    0.000 
#    0.000    0.000    0.000    0.000    0.000    0.000 
#
# Total GULP energy -89169.651810 kJ/mol
# GULP energy per Si atom -5573.103238 kJ/mol
# Density = 2.354650 g / cm^3
# Si number density = 23.600216 Si / 1000 Ang^3
#
#
#
# Elastic Constant Matrix: (Units=GPa)
#
#
# Indices 1 2 3 4 5 6 
#
# 1 87.0841 11.3796 26.8956 -11.8352 24.4893 8.3916
# 2 11.3796 106.2432 8.6472 6.0390 12.6512 -0.6474
# 3 26.8956 8.6472 91.6553 -16.8727 22.2355 0.9229
# 4 -11.8352 6.0390 -16.8727 30.5151 -6.7454 5.3699
# 5 24.4893 12.6512 22.2355 -6.7454 42.7625 0.8917
# 6 8.3916 -0.6474 0.9229 5.3699 0.8917 18.5139
#
#
#
# Elastic Compliance Matrix: (Units=1/GPa)
#
#
# Indices 1 2 3 4 5 6 
#
# 1 0.015550 -0.001072 -0.001805 0.005215 -0.006656 -0.008188
# 2 -0.001072 0.010128 -0.000713 -0.003769 -0.002650 0.002097
# 3 -0.001805 -0.000713 0.013880 0.006282 -0.004951 -0.001483
# 4 0.005215 -0.003769 0.006282 0.042071 0.001813 -0.015098
# 5 -0.006656 -0.002650 -0.004951 0.001813 0.030817 0.001161
# 6 -0.008188 0.002097 -0.001483 -0.015098 0.001161 0.062195
#
#
# Mechanical properties :
#
#
# Convention : Reuss Voigt Hill
#
# Bulk Modulus (GPa) = 30.88539 42.09195 36.48867
# Shear Modulus (GPa) = 25.95879 34.22896 30.09387
#
# Velocity S-wave (km/s) = 3.32013 3.81250 3.57480
# Velocity P-wave (km/s) = 5.27380 6.10363 5.70383
#
# Compressibility (1/GPa) = 0.03237776
#
# Stress axis : x y z
#
# Youngs Moduli (GPa) = 64.30777 98.73818 72.04734
#
# Poissons Ratio (x) = 0.10588 0.13002
# Poissons Ratio (y) = 0.06896 0.05137
# Poissons Ratio (z) = 0.11605 0.07040
#
# Static dielectric constant tensor:
#      x y z
#    x 2.057200 -0.031440 -0.038530 
#    y -0.031440 1.981440 -0.015230 
#    z -0.038530 -0.015230 2.062540 
# 
# From -- ./inp_files/347456.got.cif
#   From: 2010.05.17/outbox.cif.g08.bks.cpg/sg2_174_cif.got.tgz:347456.got - 2010.06.03 11:33:40.
