data_PCOD9085431
_publ_section_title
;
Structure prediction by ZEFSAII (Michael W. Deem and Ramdas Pophale) SiO2 
 PCOD9085431
Probable space group: P -1
;
_chemical_formula_sum "Si O2"
_cell_formula_units_Z 16
_cell_length_a 8.686115
_cell_length_b 9.199668
_cell_length_c 22.318660
_cell_angle_alpha 140.155747
_cell_angle_beta 148.037784
_cell_angle_gamma 48.785156
_cell_volume 604.738372
_symmetry_space_group_name_H-M "P -1"
_symmetry_group_IT_number 2
_symmetry_cell_setting 'triclinic'
loop_
_space_group_symop_operation_xyz
x,y,z
-x,-y,-z
loop_
_atom_site_type_symbol
_atom_site_label
_atom_site_fract_x
_atom_site_fract_y
_atom_site_fract_z
Si Si1 0.836564 0.175281 0.885741
Si Si2 0.815868 0.383022 0.816353
Si Si3 0.659460 0.093160 0.920813
Si Si4 0.348045 0.728987 0.783268
Si Si5 0.303103 0.805684 0.400565
Si Si6 0.172227 0.491679 0.493037
Si Si7 0.792104 0.341408 0.558292
Si Si8 0.221593 0.714359 0.863621
O O1 0.792577 0.231031 0.819485
O O2 0.586814 0.137977 0.841563
O O3 0.021373 0.941183 0.870649
O O4 0.993578 0.397348 0.035406
O O5 0.493008 0.490278 0.737400
O O6 0.903665 0.262398 0.744688
O O7 0.468800 0.907502 0.832932
O O8 0.650454 0.295520 0.030517
O O9 0.000000 0.000000 0.000000
O O10 0.434578 0.751608 0.889146
O O11 0.000234 0.713229 0.661346
O O12 0.500313 0.578795 0.406406
O O13 0.229714 0.853769 0.461209
O O14 0.500000 0.000000 0.500000
O O15 0.138066 0.699554 0.501589
O O16 0.000000 0.500000 0.500000
O O17 0.500000 0.500000 0.500000
O O18 0.037803 0.497650 0.718085
#
# Coordination Sequence:
#
# PCOD9085431 Si02
#       8
#     2   2   2   2   2   2   2   2
#     4  10  23  37  62  93 118 161 198 252 303 364
#     4  11  22  39  60  86 130 154 199 249 312 355
#     4  10  19  35  60  90 113 158 203 239 294 367
#     4  11  21  37  61  89 122 156 197 254 306 358
#     4  11  24  42  63  89 122 167 205 251 304 361
#     4  10  21  40  62  90 116 158 207 255 301 354
#     4   9  21  36  61  88 116 156 209 246 289 364
#     4  10  20  36  65  87 120 154 207 245 301 361
#
# _framework density 26.457720999999999
#
# number of rings (size 3 to 8) (size 9 to 14) (size 15 to 20)
#    0.000    1.750    3.750    1.125    7.000    0.000 
#    0.000    3.750    0.000    0.000    0.000    0.000 
#    0.000    0.000    0.000    0.000    0.000    0.000 
#
# Total GULP energy -89243.311927 kJ/mol
# GULP energy per Si atom -5577.706995 kJ/mol
# Density = 2.639750 g / cm^3
# Si number density = 26.457721 Si / 1000 Ang^3
#
#
#
# Elastic Constant Matrix: (Units=GPa)
#
#
# Indices 1 2 3 4 5 6 
#
# 1 153.7774 50.5050 9.6494 -12.1769 -32.0236 65.7863
# 2 50.5050 95.9648 15.9944 -9.8227 -17.6916 33.5400
# 3 9.6494 15.9944 57.3357 -13.3215 -11.0250 19.9432
# 4 -12.1769 -9.8227 -13.3215 24.1447 10.0894 -6.0132
# 5 -32.0236 -17.6916 -11.0250 10.0894 47.9136 -11.8911
# 6 65.7863 33.5400 19.9432 -6.0132 -11.8911 65.6232
#
#
#
# Elastic Compliance Matrix: (Units=1/GPa)
#
#
# Indices 1 2 3 4 5 6 
#
# 1 0.013854 -0.002207 0.004543 0.003031 0.005666 -0.012837
# 2 -0.002207 0.013706 -0.001272 0.001997 0.001910 -0.003877
# 3 0.004543 -0.001272 0.023510 0.011009 0.003315 -0.009439
# 4 0.003031 0.001997 0.011009 0.051598 -0.006527 -0.003860
# 5 0.005666 0.001910 0.003315 -0.006527 0.026648 -0.003433
# 6 -0.012837 -0.003877 -0.009439 -0.003860 -0.003433 0.031981
#
#
# Mechanical properties :
#
#
# Convention : Reuss Voigt Hill
#
# Bulk Modulus (GPa) = 18.79802 51.04170 34.91986
# Shear Modulus (GPa) = 28.26407 42.93158 35.59782
#
# Velocity S-wave (km/s) = 3.27199 4.03258 3.67203
# Velocity P-wave (km/s) = 4.62546 6.40437 5.58618
#
# Compressibility (1/GPa) = 0.05319709
#
# Stress axis : x y z
#
# Youngs Moduli (GPa) = 72.17963 72.96319 42.53494
#
# Poissons Ratio (x) = 0.16104 -0.19323
# Poissons Ratio (y) = 0.15931 0.05411
# Poissons Ratio (z) = -0.32791 0.09282
#
# Static dielectric constant tensor:
#      x y z
#    x 2.418420 0.035230 -0.140890 
#    y 0.035230 2.143410 -0.117370 
#    z -0.140890 -0.117370 2.341080 
# 
# From -- ./inp_files/351861.got.cif
#   From: 2010.05.17/outbox.cif.g08.bks.cpg/sg2_176_cif.got.tgz:351861.got - 2010.06.03 11:33:40.
