data_PCOD9085019
_publ_section_title
;
Structure prediction by ZEFSAII (Michael W. Deem and Ramdas Pophale) SiO2 
 PCOD9085019
Probable space group: P -1
;
_chemical_formula_sum "Si O2"
_cell_formula_units_Z 14
_cell_length_a 9.780818
_cell_length_b 10.672265
_cell_length_c 9.962906
_cell_angle_alpha 116.121499
_cell_angle_beta 118.134088
_cell_angle_gamma 38.668359
_cell_volume 568.078238
_symmetry_space_group_name_H-M "P -1"
_symmetry_group_IT_number 2
_symmetry_cell_setting 'triclinic'
loop_
_space_group_symop_operation_xyz
x,y,z
-x,-y,-z
loop_
_atom_site_type_symbol
_atom_site_label
_atom_site_fract_x
_atom_site_fract_y
_atom_site_fract_z
Si Si1 0.346162 0.323973 0.644512
Si Si2 0.047856 0.932733 0.687604
Si Si3 0.047055 0.199968 0.643817
Si Si4 0.515269 0.319420 0.088106
Si Si5 0.122535 0.392832 0.296709
Si Si6 0.510433 0.033321 0.819700
Si Si7 0.714315 0.277839 0.875784
O O1 0.276103 0.317635 0.463844
O O2 0.482721 0.124357 0.703538
O O3 0.505408 0.353171 0.727958
O O4 0.118452 0.498864 0.706627
O O5 0.926502 0.048239 0.824616
O O6 0.966101 0.118134 0.648522
O O7 0.968853 0.841958 0.538090
O O8 0.315258 0.763539 0.750733
O O9 0.300590 0.066439 0.742521
O O10 0.916454 0.430418 0.704154
O O11 0.287469 0.557998 0.086516
O O12 0.485017 0.175354 0.980369
O O13 0.645909 0.292860 0.003802
O O14 0.253177 0.198571 0.174077
#
# Coordination Sequence:
#
# PCOD9085019 Si02
#       7
#     2   2   2   2   2   2   2
#     4   9  19  33  57  88 114 148 198 239 286 346
#     4  11  23  41  61  84 118 156 192 241 288 337
#     4  10  24  40  59  88 115 152 204 233 278 355
#     4  10  23  38  60  89 116 151 197 236 288 350
#     4  10  19  35  58  84 118 154 189 241 291 335
#     4  10  21  38  58  85 118 151 190 241 289 337
#     4  10  21  39  61  87 119 151 190 243 292 340
#
# _framework density 24.644493000000001
#
# number of rings (size 3 to 8) (size 9 to 14) (size 15 to 20)
#    0.000    2.000    0.000    2.571    0.000   14.286 
#    0.000    5.000    0.000    0.000    0.000    0.000 
#    0.000    0.000    0.000    0.000    0.000    0.000 
#
# Total GULP energy -78307.183254 kJ/mol
# GULP energy per Si atom -5593.370232 kJ/mol
# Density = 2.458840 g / cm^3
# Si number density = 24.644493 Si / 1000 Ang^3
#
#
#
# Elastic Constant Matrix: (Units=GPa)
#
#
# Indices 1 2 3 4 5 6 
#
# 1 40.7754 14.3489 9.7625 6.6046 13.0282 13.0753
# 2 14.3489 108.8775 28.6427 9.8189 21.7353 -1.3668
# 3 9.7625 28.6427 65.9547 1.2032 21.7866 -7.3449
# 4 6.6046 9.8189 1.2032 36.2489 6.0654 0.5285
# 5 13.0282 21.7353 21.7866 6.0654 33.6379 -3.7671
# 6 13.0753 -1.3668 -7.3449 0.5285 -3.7671 15.9533
#
#
#
# Elastic Compliance Matrix: (Units=1/GPa)
#
#
# Indices 1 2 3 4 5 6 
#
# 1 0.047553 -0.001358 -0.005394 -0.004374 -0.018384 -0.045771
# 2 -0.001358 0.011258 -0.003268 -0.001965 -0.004321 -0.000382
# 3 -0.005394 -0.003268 0.021600 0.002467 -0.008902 0.011902
# 4 -0.004374 -0.001965 0.002467 0.029402 -0.003631 0.002721
# 5 -0.018384 -0.004321 -0.008902 -0.003631 0.048545 0.022182
# 6 -0.045771 -0.000382 0.011902 0.002721 0.022182 0.110791
#
#
# Mechanical properties :
#
#
# Convention : Reuss Voigt Hill
#
# Bulk Modulus (GPa) = 16.56375 35.67953 26.12164
# Shear Modulus (GPa) = 16.16484 28.02492 22.09488
#
# Velocity S-wave (km/s) = 2.56387 3.37585 2.99748
# Velocity P-wave (km/s) = 3.93704 5.45016 4.75418
#
# Compressibility (1/GPa) = 0.06037279
#
# Stress axis : x y z
#
# Youngs Moduli (GPa) = 21.02902 88.82417 46.29593
#
# Poissons Ratio (x) = 0.12065 0.24970
# Poissons Ratio (y) = 0.02856 0.15128
# Poissons Ratio (z) = 0.11342 0.29024
#
# Static dielectric constant tensor:
#      x y z
#    x 1.988980 0.033340 -0.036720 
#    y 0.033340 1.986380 0.049550 
#    z -0.036720 0.049550 1.986930 
# 
# From -- ./inp_files/82716.got.cif
#   From: 2010.05.17/outbox.cif.g08.bks.cpg/sg2_42_cif.got.tgz:82716.got - 2010.06.03 11:33:40.
