data_PCOD9085725
_publ_section_title
;
Structure prediction by ZEFSAII (Michael W. Deem and Ramdas Pophale) SiO2 
 PCOD9085725
Probable space group: P -1
;
_chemical_formula_sum "Si O2"
_cell_formula_units_Z 14
_cell_length_a 22.941149
_cell_length_b 8.937235
_cell_length_c 7.501912
_cell_angle_alpha 73.190925
_cell_angle_beta 47.028063
_cell_angle_gamma 38.316702
_cell_volume 586.640868
_symmetry_space_group_name_H-M "P -1"
_symmetry_group_IT_number 2
_symmetry_cell_setting 'triclinic'
loop_
_space_group_symop_operation_xyz
x,y,z
-x,-y,-z
loop_
_atom_site_type_symbol
_atom_site_label
_atom_site_fract_x
_atom_site_fract_y
_atom_site_fract_z
Si Si1 0.990781 0.066443 0.205441
Si Si2 0.654128 0.702948 0.675802
Si Si3 0.059033 0.617980 0.310961
Si Si4 0.593585 0.473684 0.912286
Si Si5 0.910340 0.783440 0.182851
Si Si6 0.213069 0.075409 0.113152
Si Si7 0.354132 0.938033 0.512667
O O1 0.821949 0.387264 0.503790
O O2 0.057077 0.808456 0.261598
O O3 0.085211 0.068442 0.998693
O O4 0.000000 0.000000 0.000000
O O5 0.679466 0.822400 0.477472
O O6 0.617778 0.591982 0.709462
O O7 0.500000 0.000000 0.000000
O O8 0.201444 0.272204 0.144999
O O9 0.992509 0.689636 0.227666
O O10 0.951644 0.714504 0.644183
O O11 0.514962 0.654417 0.197078
O O12 0.500000 0.500000 0.000000
O O13 0.734002 0.147971 0.790568
O O14 0.749725 0.971768 0.450516
O O15 0.000000 0.500000 0.000000
O O16 0.315079 0.918851 0.783690
#
# Coordination Sequence:
#
# PCOD9085725 Si02
#       7
#     2   2   2   2   2   2   2
#     4  10  19  35  62  92 122 159 207 249 297 366
#     4  10  21  39  61  90 124 165 201 248 310 367
#     4  10  21  36  62  88 129 161 197 253 308 362
#     4  11  24  42  67  86 119 163 214 250 303 375
#     4  11  19  36  64  95 121 159 210 246 301 369
#     4  11  21  39  61  90 125 160 199 254 313 355
#     4  11  22  39  65  92 123 162 200 254 307 367
#
# _framework density 23.864688000000001
#
# number of rings (size 3 to 8) (size 9 to 14) (size 15 to 20)
#    0.000    1.429    4.286    2.143    2.000    0.000 
#    0.000    1.429   15.714    0.000    0.000    0.000 
#    0.000    0.000    0.000    0.000    0.000    0.000 
#
# Total GULP energy -77967.758934 kJ/mol
# GULP energy per Si atom -5569.125638 kJ/mol
# Density = 2.381037 g / cm^3
# Si number density = 23.864688 Si / 1000 Ang^3
#
#
#
# Elastic Constant Matrix: (Units=GPa)
#
#
# Indices 1 2 3 4 5 6 
#
# 1 59.0647 34.2556 7.4693 -14.2941 0.4760 24.6450
# 2 34.2556 164.2115 24.7335 -14.6106 -6.2425 55.3070
# 3 7.4693 24.7335 84.0130 3.9253 6.5237 15.1068
# 4 -14.2941 -14.6106 3.9253 54.6838 16.4848 -14.3468
# 5 0.4760 -6.2425 6.5237 16.4848 33.4436 -6.3646
# 6 24.6450 55.3070 15.1068 -14.3468 -6.3646 33.6734
#
#
#
# Elastic Compliance Matrix: (Units=1/GPa)
#
#
# Indices 1 2 3 4 5 6 
#
# 1 0.025890 0.002180 0.001545 0.003036 -0.006154 -0.023092
# 2 0.002180 0.014160 0.000580 -0.002154 -0.001445 -0.026305
# 3 0.001545 0.000580 0.013701 -0.001920 -0.003487 -0.009707
# 4 0.003036 -0.002154 -0.001920 0.024499 -0.010109 0.010704
# 5 -0.006154 -0.001445 -0.003487 -0.010109 0.037519 0.011227
# 6 -0.023092 -0.026305 -0.009707 0.010704 0.011227 0.100839
#
#
# Mechanical properties :
#
#
# Convention : Reuss Voigt Hill
#
# Bulk Modulus (GPa) = 16.03551 48.91179 32.47365
# Shear Modulus (GPa) = 21.85452 40.41553 31.13503
#
# Velocity S-wave (km/s) = 3.02945 4.11972 3.61591
# Velocity P-wave (km/s) = 4.35554 6.57034 5.57405
#
# Compressibility (1/GPa) = 0.06236159
#
# Stress axis : x y z
#
# Youngs Moduli (GPa) = 38.62426 70.61942 72.98848
#
# Poissons Ratio (x) = -0.15396 -0.11274
# Poissons Ratio (y) = -0.08421 -0.04235
# Poissons Ratio (z) = -0.05966 -0.04097
#
# Static dielectric constant tensor:
#      x y z
#    x 2.005890 -0.088730 -0.039300 
#    y -0.088730 2.132460 0.134950 
#    z -0.039300 0.134950 2.050310 
# 
# From -- ./inp_files/258905.got.cif
#   From: 2010.05.17/outbox.cif.g08.bks.cpg/sg2_130_cif.got.tgz:258905.got - 2010.06.03 11:33:40.
