data_PCOD9085461
_publ_section_title
;
Structure prediction by ZEFSAII (Michael W. Deem and Ramdas Pophale) SiO2 
 PCOD9085461
Probable space group: P -1
;
_chemical_formula_sum "Si O2"
_cell_formula_units_Z 16
_cell_length_a 5.542384
_cell_length_b 16.145034
_cell_length_c 9.799314
_cell_angle_alpha 63.181649
_cell_angle_beta 84.774057
_cell_angle_gamma 75.908083
_cell_volume 758.819838
_symmetry_space_group_name_H-M "P -1"
_symmetry_group_IT_number 2
_symmetry_cell_setting 'triclinic'
loop_
_space_group_symop_operation_xyz
x,y,z
-x,-y,-z
loop_
_atom_site_type_symbol
_atom_site_label
_atom_site_fract_x
_atom_site_fract_y
_atom_site_fract_z
Si Si1 0.207205 0.844954 0.909190
Si Si2 0.402863 0.235225 0.265543
Si Si3 0.490520 0.568518 0.815967
Si Si4 0.039664 0.496499 0.834741
Si Si5 0.338111 0.118857 0.617079
Si Si6 0.470293 0.115453 0.916617
Si Si7 0.891364 0.718152 0.015483
Si Si8 0.093064 0.986201 0.351396
O O1 0.411030 0.840956 0.782359
O O2 0.271560 0.878521 0.028808
O O3 0.971837 0.918042 0.804491
O O4 0.160951 0.739707 0.004569
O O5 0.533031 0.321875 0.225389
O O6 0.322740 0.192958 0.439423
O O7 0.174000 0.273297 0.147932
O O8 0.255979 0.551761 0.756050
O O9 0.765416 0.538291 0.759139
O O10 0.500000 0.500000 0.000000
O O11 0.126287 0.386985 0.866552
O O12 0.000000 0.500000 0.000000
O O13 0.387572 0.150613 0.743307
O O14 0.609505 0.047971 0.631924
O O15 0.088692 0.077536 0.655912
O O16 0.288241 0.196094 0.957840
O O17 0.500000 0.000000 0.000000
O O18 0.000000 0.000000 0.500000
#
# Coordination Sequence:
#
# PCOD9085461 Si02
#       8
#     2   2   2   2   2   2   2   2
#     4  11  23  38  66  89 127 171 222 260 316 374
#     4  11  23  38  63  99 126 160 211 272 324 382
#     4  10  19  35  60  92 127 154 196 259 333 374
#     4  10  19  35  61  94 126 154 204 264 323 372
#     4  12  27  42  63  92 129 172 213 263 325 374
#     4  11  25  44  61  89 131 180 220 257 307 387
#     4  11  23  38  66  97 126 167 219 266 316 383
#     4  12  24  42  64  90 129 167 217 269 318 367
#
# _framework density 21.085373000000001
#
# number of rings (size 3 to 8) (size 9 to 14) (size 15 to 20)
#    0.000    1.000    5.000    3.375    5.250    1.000 
#    0.000    0.000    0.000    1.500    0.000    0.000 
#    0.000    0.000    0.000    0.000    0.000    0.000 
#
# Total GULP energy -89175.197842 kJ/mol
# GULP energy per Si atom -5573.449865 kJ/mol
# Density = 2.103738 g / cm^3
# Si number density = 21.085373 Si / 1000 Ang^3
#
#
#
# Elastic Constant Matrix: (Units=GPa)
#
#
# Indices 1 2 3 4 5 6 
#
# 1 103.0387 37.2043 0.9682 -0.5420 6.4571 20.0784
# 2 37.2043 108.5290 24.2158 5.4377 -5.0227 18.0025
# 3 0.9682 24.2158 64.4614 19.0788 8.8903 11.3139
# 4 -0.5420 5.4377 19.0788 19.7837 4.6279 1.2155
# 5 6.4571 -5.0227 8.8903 4.6279 21.9919 -0.5630
# 6 20.0784 18.0025 11.3139 1.2155 -0.5630 44.9896
#
#
#
# Elastic Compliance Matrix: (Units=1/GPa)
#
#
# Indices 1 2 3 4 5 6 
#
# 1 0.012616 -0.004542 0.003086 0.000351 -0.006183 -0.004676
# 2 -0.004542 0.012485 -0.005248 0.000143 0.006236 -0.001575
# 3 0.003086 -0.005248 0.025723 -0.021034 -0.008212 -0.005281
# 4 0.000351 0.000143 -0.021034 0.072177 -0.006678 0.003042
# 5 -0.006183 0.006236 -0.008212 -0.006678 0.053517 0.003179
# 6 -0.004676 -0.001575 -0.005281 0.003042 0.003179 0.026230
#
#
# Mechanical properties :
#
#
# Convention : Reuss Voigt Hill
#
# Bulk Modulus (GPa) = 26.72526 44.53397 35.62962
# Shear Modulus (GPa) = 21.86958 31.59576 26.73267
#
# Velocity S-wave (km/s) = 3.22404 3.87521 3.56452
# Velocity P-wave (km/s) = 5.15379 6.41791 5.82027
#
# Compressibility (1/GPa) = 0.03741778
#
# Stress axis : x y z
#
# Youngs Moduli (GPa) = 79.26139 80.09856 38.87545
#
# Poissons Ratio (x) = 0.36378 -0.11997
# Poissons Ratio (y) = 0.35998 0.20401
# Poissons Ratio (z) = -0.24461 0.42033
#
# Static dielectric constant tensor:
#      x y z
#    x 1.951720 -0.014570 -0.019310 
#    y -0.014570 1.810830 -0.013920 
#    z -0.019310 -0.013920 1.730400 
# 
# From -- ./inp_files/38773.got.cif
#   From: 2010.05.17/outbox.cif.g08.bks.cpg/sg2_20_cif.got.tgz:38773.got - 2010.06.03 11:33:40.
