data_PCOD9085230
_publ_section_title
;
Structure prediction by ZEFSAII (Michael W. Deem and Ramdas Pophale) SiO2 
 PCOD9085230
Probable space group: P -1
;
_chemical_formula_sum "Si O2"
_cell_formula_units_Z 16
_cell_length_a 9.593205
_cell_length_b 5.376260
_cell_length_c 16.689687
_cell_angle_alpha 80.095040
_cell_angle_beta 122.327485
_cell_angle_gamma 106.210287
_cell_volume 698.172308
_symmetry_space_group_name_H-M "P -1"
_symmetry_group_IT_number 2
_symmetry_cell_setting 'triclinic'
loop_
_space_group_symop_operation_xyz
x,y,z
-x,-y,-z
loop_
_atom_site_type_symbol
_atom_site_label
_atom_site_fract_x
_atom_site_fract_y
_atom_site_fract_z
Si Si1 0.085419 0.265566 0.772332
Si Si2 0.580709 0.334772 0.920149
Si Si3 0.735175 0.192017 0.577937
Si Si4 0.763897 0.200907 0.402631
Si Si5 0.680486 0.639862 0.622407
Si Si6 0.441444 0.347954 0.698223
Si Si7 0.713877 0.844552 0.026568
Si Si8 0.927718 0.208185 0.297111
O O1 0.112296 0.159053 0.873651
O O2 0.165435 0.573592 0.776375
O O3 0.895585 0.248918 0.684172
O O4 0.154019 0.080105 0.741451
O O5 0.512926 0.332842 0.809686
O O6 0.426790 0.245071 0.941298
O O7 0.674644 0.623080 0.959779
O O8 0.694990 0.123501 0.976089
O O9 0.798091 0.172960 0.508071
O O10 0.657764 0.442684 0.551308
O O11 0.624962 0.911732 0.584076
O O12 0.682719 0.450628 0.353720
O O13 0.923777 0.235234 0.390139
O O14 0.642361 0.935152 0.347964
O O15 0.595802 0.477711 0.680128
O O16 0.884326 0.738693 0.683350
#
# Coordination Sequence:
#
# PCOD9085230 Si02
#       8
#     2   2   2   2   2   2   2   2
#     4  10  20  36  61  87 120 157 198 246 306 361
#     4  10  21  35  57  86 118 153 198 249 303 359
#     4  10  23  40  61  89 121 162 207 251 298 358
#     4  12  24  38  64  94 122 160 213 256 295 355
#     4  10  23  41  61  84 126 169 201 246 310 363
#     4  12  25  41  62  92 127 163 203 253 306 367
#     4  10  19  35  59  87 116 152 196 251 307 357
#     4  10  21  38  61  88 122 163 204 252 303 354
#
# _framework density 22.916978
#
# number of rings (size 3 to 8) (size 9 to 14) (size 15 to 20)
#    0.000    1.500    0.000    5.250    0.000    9.000 
#    0.000    0.000    0.000   18.000    0.000    0.000 
#    0.000    0.000    0.000    0.000    0.000    0.000 
#
# Total GULP energy -89434.458975 kJ/mol
# GULP energy per Si atom -5589.653686 kJ/mol
# Density = 2.286482 g / cm^3
# Si number density = 22.916978 Si / 1000 Ang^3
#
#
#
# Elastic Constant Matrix: (Units=GPa)
#
#
# Indices 1 2 3 4 5 6 
#
# 1 67.9907 25.3483 24.0887 1.8682 -5.2542 -8.1777
# 2 25.3483 161.6837 36.7192 -0.2060 3.7711 -38.9511
# 3 24.0887 36.7192 109.6527 7.4287 15.9901 -4.2183
# 4 1.8682 -0.2060 7.4287 34.3973 -3.7806 -4.8339
# 5 -5.2542 3.7711 15.9901 -3.7806 26.4914 -4.5320
# 6 -8.1777 -38.9511 -4.2183 -4.8339 -4.5320 33.5081
#
#
#
# Elastic Compliance Matrix: (Units=1/GPa)
#
#
# Indices 1 2 3 4 5 6 
#
# 1 0.017663 -0.001002 -0.004544 0.001335 0.007219 0.003743
# 2 -0.001002 0.009767 -0.003184 0.002706 0.002679 0.011461
# 3 -0.004544 -0.003184 0.012675 -0.004284 -0.009587 -0.005129
# 4 0.001335 0.002706 -0.004284 0.032105 0.008539 0.008718
# 5 0.007219 0.002679 -0.009587 0.008539 0.047747 0.011359
# 6 0.003743 0.011461 -0.005129 0.008718 0.011359 0.046228
#
#
# Mechanical properties :
#
#
# Convention : Reuss Voigt Hill
#
# Bulk Modulus (GPa) = 44.15894 56.84883 50.50389
# Shear Modulus (GPa) = 26.15170 35.75743 30.95456
#
# Velocity S-wave (km/s) = 3.38176 3.95435 3.67921
# Velocity P-wave (km/s) = 5.87871 6.76088 6.33517
#
# Compressibility (1/GPa) = 0.02264547
#
# Stress axis : x y z
#
# Youngs Moduli (GPa) = 56.61640 102.38526 78.89543
#
# Poissons Ratio (x) = 0.10261 0.35849
# Poissons Ratio (y) = 0.05674 0.25117
# Poissons Ratio (z) = 0.25725 0.32595
#
# Static dielectric constant tensor:
#      x y z
#    x 1.969180 0.016310 0.092140 
#    y 0.016310 1.947880 0.015810 
#    z 0.092140 0.015810 1.865200 
# 
# From -- ./inp_files/510901.got.cif
#   From: 2010.05.17/outbox.cif.g08.bks.cpg/sg2_256_cif.got.tgz:510901.got - 2010.06.03 11:33:40.
