data_PCOD9085197
_publ_section_title
;
Structure prediction by ZEFSAII (Michael W. Deem and Ramdas Pophale) SiO2 
 PCOD9085197
Probable space group: P -1
;
_chemical_formula_sum "Si O2"
_cell_formula_units_Z 13
_cell_length_a 12.331309
_cell_length_b 6.787181
_cell_length_c 8.977878
_cell_angle_alpha 105.935431
_cell_angle_beta 139.355089
_cell_angle_gamma 88.128692
_cell_volume 451.742521
_symmetry_space_group_name_H-M "P -1"
_symmetry_group_IT_number 2
_symmetry_cell_setting 'triclinic'
loop_
_space_group_symop_operation_xyz
x,y,z
-x,-y,-z
loop_
_atom_site_type_symbol
_atom_site_label
_atom_site_fract_x
_atom_site_fract_y
_atom_site_fract_z
Si Si1 0.719517 0.635705 0.643631
Si Si2 0.668202 0.053987 0.525228
Si Si3 0.899333 0.278970 0.054698
Si Si4 0.176636 0.092162 0.621073
Si Si5 0.313975 0.123611 0.081727
Si Si6 0.000000 0.500000 0.500000
Si Si7 0.670635 0.462082 0.250915
O O1 0.650517 0.457693 0.406866
O O2 0.925625 0.693942 0.849992
O O3 0.661267 0.832974 0.553510
O O4 0.675052 0.656312 0.773334
O O5 0.778883 0.044007 0.492480
O O6 0.477407 0.044183 0.277938
O O7 0.753604 0.243068 0.767119
O O8 0.935599 0.471635 0.249204
O O9 0.848049 0.056259 0.049855
O O10 0.172370 0.320235 0.590088
O O11 0.000000 0.000000 0.500000
O O12 0.311784 0.148077 0.907998
O O13 0.206693 0.677454 0.705431
O O14 0.500000 0.500000 0.000000
#
# Coordination Sequence:
#
# PCOD9085197 Si02
#       7
#     2   2   2   2   2   1   2
#     4   9  18  35  56  86 112 158 197 240 297 349
#     4  10  20  32  57  90 114 153 196 251 293 354
#     4  10  19  35  59  85 118 155 204 241 291 362
#     4  11  22  40  59  89 121 154 196 256 309 344
#     4  11  20  33  60  88 118 147 198 258 297 345
#     4  10  22  36  62  88 112 164 204 238 290 366
#     4  10  23  40  64  85 122 161 203 245 297 372
#
# _framework density 28.777453000000001
#
# number of rings (size 3 to 8) (size 9 to 14) (size 15 to 20)
#    0.000    1.846    0.000    7.846    6.462    0.000 
#    2.769    0.769    0.000    5.538    0.000    0.000 
#    0.000    0.000    0.000    0.000    0.000    0.000 
#
# Total GULP energy -72642.758796 kJ/mol
# GULP energy per Si atom -5587.904523 kJ/mol
# Density = 2.871195 g / cm^3
# Si number density = 28.777453 Si / 1000 Ang^3
#
#
#
# Elastic Constant Matrix: (Units=GPa)
#
#
# Indices 1 2 3 4 5 6 
#
# 1 182.4256 20.8835 33.6287 8.8374 -26.7523 -15.5295
# 2 20.8835 78.5002 2.0387 12.5092 -2.2732 -9.2260
# 3 33.6287 2.0387 185.1851 -5.0843 -21.2336 -12.0215
# 4 8.8374 12.5092 -5.0843 34.5868 -8.4483 -3.4783
# 5 -26.7523 -2.2732 -21.2336 -8.4483 68.2833 10.6907
# 6 -15.5295 -9.2260 -12.0215 -3.4783 10.6907 47.8614
#
#
#
# Elastic Compliance Matrix: (Units=1/GPa)
#
#
# Indices 1 2 3 4 5 6 
#
# 1 0.006188 -0.001339 -0.000843 -0.000656 0.001868 0.001073
# 2 -0.001339 0.014081 -0.000017 -0.004778 -0.000989 0.002149
# 3 -0.000843 -0.000017 0.005833 0.001548 0.001524 0.000960
# 4 -0.000656 -0.004778 0.001548 0.032065 0.003921 0.000709
# 5 0.001868 -0.000989 0.001524 0.003921 0.016718 -0.002651
# 6 0.001073 0.002149 0.000960 0.000709 -0.002651 0.022541
#
#
# Mechanical properties :
#
#
# Convention : Reuss Voigt Hill
#
# Bulk Modulus (GPa) = 46.07715 62.13474 54.10595
# Shear Modulus (GPa) = 45.84690 56.11696 50.98193
#
# Velocity S-wave (km/s) = 3.99576 4.42071 4.21360
# Velocity P-wave (km/s) = 6.11019 6.90617 6.52034
#
# Compressibility (1/GPa) = 0.02170273
#
# Stress axis : x y z
#
# Youngs Moduli (GPa) = 161.61574 71.01773 171.44210
#
# Poissons Ratio (x) = 0.09512 0.14453
# Poissons Ratio (y) = 0.21647 0.00289
# Poissons Ratio (z) = 0.13625 0.00120
#
# Static dielectric constant tensor:
#      x y z
#    x 1.873710 0.517100 -0.106120 
#    y 0.517100 1.826910 0.235140 
#    z -0.106120 0.235140 2.343320 
# 
# From -- ./inp_files/178147.got.cif
#   From: 2010.05.17/outbox.cif.g08.bks.cpg/sg2_90_cif.got.tgz:178147.got - 2010.06.03 11:33:40.
