data_PCOD9085996
_publ_section_title
;
Structure prediction by ZEFSAII (Michael W. Deem and Ramdas Pophale) SiO2 
 PCOD9085996
Probable space group: P -1
;
_chemical_formula_sum "Si O2"
_cell_formula_units_Z 12
_cell_length_a 12.324492
_cell_length_b 9.563150
_cell_length_c 14.540134
_cell_angle_alpha 28.759796
_cell_angle_beta 39.769764
_cell_angle_gamma 51.539938
_cell_volume 519.923029
_symmetry_space_group_name_H-M "P -1"
_symmetry_group_IT_number 2
_symmetry_cell_setting 'triclinic'
loop_
_space_group_symop_operation_xyz
x,y,z
-x,-y,-z
loop_
_atom_site_type_symbol
_atom_site_label
_atom_site_fract_x
_atom_site_fract_y
_atom_site_fract_z
Si Si1 0.545817 0.565061 0.560916
Si Si2 0.847726 0.548092 0.138302
Si Si3 0.965281 0.316575 0.883452
Si Si4 0.307192 0.051210 0.604514
Si Si5 0.637418 0.966347 0.090807
Si Si6 0.146513 0.439165 0.368734
O O1 0.344502 0.606611 0.676866
O O2 0.667567 0.660469 0.511603
O O3 0.615212 0.784466 0.306065
O O4 0.522662 0.215750 0.755599
O O5 0.806722 0.882568 0.978444
O O6 0.898312 0.506017 0.236072
O O7 0.000000 0.500000 0.000000
O O8 0.924625 0.518677 0.710374
O O9 0.803105 0.211236 0.116014
O O10 0.000000 0.000000 0.000000
O O11 0.209100 0.138452 0.529122
O O12 0.500000 0.000000 0.500000
O O13 0.681489 0.308680 0.881366
O O14 0.000000 0.500000 0.500000
#
# Coordination Sequence:
#
# PCOD9085996 Si02
#       6
#     2   2   2   2   2   2
#     4   9  19  39  64  89 131 176 207 273 331 392
#     4  10  19  35  66  94 130 176 209 271 342 381
#     4  12  21  43  68  95 135 175 225 274 324 405
#     4  12  25  41  67  98 137 173 219 285 340 382
#     4   9  19  38  61  92 124 171 221 260 325 395
#     4  12  24  39  72 103 125 179 238 267 328 412
#
# _framework density 23.080338000000001
#
# number of rings (size 3 to 8) (size 9 to 14) (size 15 to 20)
#    1.000    0.333    5.000    1.000    0.000    1.333 
#    0.000    0.000    0.000    5.000    0.000    0.000 
#    0.000    0.000    0.000    0.000    0.000    0.000 
#
# Total GULP energy -66860.508360 kJ/mol
# GULP energy per Si atom -5571.709030 kJ/mol
# Density = 2.302781 g / cm^3
# Si number density = 23.080338 Si / 1000 Ang^3
#
#
#
# Elastic Constant Matrix: (Units=GPa)
#
#
# Indices 1 2 3 4 5 6 
#
# 1 123.0081 0.7077 34.3882 -10.8046 16.1169 -6.7760
# 2 0.7077 58.3119 25.3095 22.1794 9.8482 -20.1158
# 3 34.3882 25.3095 115.4291 20.8999 0.8301 -17.8065
# 4 -10.8046 22.1794 20.8999 29.3103 -0.1618 -14.2619
# 5 16.1169 9.8482 0.8301 -0.1618 45.6949 -5.3561
# 6 -6.7760 -20.1158 -17.8065 -14.2619 -5.3561 32.7606
#
#
#
# Elastic Compliance Matrix: (Units=1/GPa)
#
#
# Indices 1 2 3 4 5 6 
#
# 1 0.010635 0.000175 -0.004204 0.008265 -0.003322 0.003076
# 2 0.000175 0.027594 -0.001994 -0.015338 -0.005043 0.008394
# 3 -0.004204 -0.001994 0.011974 -0.007964 0.001813 0.001244
# 4 0.008265 -0.015338 -0.007964 0.061927 0.002553 0.015340
# 5 -0.003322 -0.005043 0.001813 0.002553 0.024389 0.002300
# 6 0.003076 0.008394 0.001244 0.015340 0.002300 0.044045
#
#
# Mechanical properties :
#
#
# Convention : Reuss Voigt Hill
#
# Bulk Modulus (GPa) = 26.20938 46.39555 36.30247
# Shear Modulus (GPa) = 24.35114 37.30938 30.83026
#
# Velocity S-wave (km/s) = 3.25169 4.02493 3.65880
# Velocity P-wave (km/s) = 5.04761 6.46108 5.79758
#
# Compressibility (1/GPa) = 0.03815428
#
# Stress axis : x y z
#
# Youngs Moduli (GPa) = 94.03221 36.24017 83.51481
#
# Poissons Ratio (x) = -0.00633 0.35114
# Poissons Ratio (y) = -0.01642 0.16654
# Poissons Ratio (z) = 0.39536 0.07227
#
# Static dielectric constant tensor:
#      x y z
#    x 1.952200 0.048080 -0.020020 
#    y 0.048080 1.966840 0.018710 
#    z -0.020020 0.018710 1.848550 
# 
# From -- ./inp_files/518504.got.cif
#   From: 2010.05.17/outbox.cif.g08.bks.cpg/sg2_260_cif.got.tgz:518504.got - 2010.06.03 11:33:40.
