data_PCOD9085702
_publ_section_title
;
Structure prediction by ZEFSAII (Michael W. Deem and Ramdas Pophale) SiO2 
 PCOD9085702
Probable space group: P -1
;
_chemical_formula_sum "Si O2"
_cell_formula_units_Z 12
_cell_length_a 9.185736
_cell_length_b 14.183154
_cell_length_c 5.293801
_cell_angle_alpha 68.567595
_cell_angle_beta 73.015141
_cell_angle_gamma 117.880880
_cell_volume 469.107691
_symmetry_space_group_name_H-M "P -1"
_symmetry_group_IT_number 2
_symmetry_cell_setting 'triclinic'
loop_
_space_group_symop_operation_xyz
x,y,z
-x,-y,-z
loop_
_atom_site_type_symbol
_atom_site_label
_atom_site_fract_x
_atom_site_fract_y
_atom_site_fract_z
Si Si1 0.218461 0.130698 0.350976
Si Si2 0.936529 0.590393 0.332748
Si Si3 0.143358 0.700452 0.613584
Si Si4 0.497767 0.567179 0.188899
Si Si5 0.018172 0.837915 0.242257
Si Si6 0.424834 0.080615 0.909769
O O1 0.153699 0.154427 0.628504
O O2 0.326172 0.276677 0.043098
O O3 0.361582 0.106307 0.180331
O O4 0.000000 0.000000 0.500000
O O5 0.916813 0.375835 0.546605
O O6 0.715508 0.470885 0.648957
O O7 0.951420 0.721460 0.204240
O O8 0.016433 0.604922 0.001572
O O9 0.078653 0.790893 0.499663
O O10 0.379757 0.786813 0.446733
O O11 0.500000 0.500000 0.500000
O O12 0.500000 0.500000 0.000000
O O13 0.226685 0.983013 0.935056
O O14 0.500000 0.000000 0.000000
#
# Coordination Sequence:
#
# PCOD9085702 Si02
#       6
#     2   2   2   2   2   2
#     4  10  20  40  69 101 138 172 235 282 339 403
#     4  10  19  35  62  90 121 169 211 266 324 392
#     4   9  19  36  60  87 126 167 214 256 327 385
#     4  12  23  42  71 101 139 176 222 281 353 401
#     4   8  17  34  60  90 124 163 218 270 326 381
#     4   9  18  37  63  93 133 184 219 272 335 403
#
# _framework density 25.580480000000001
#
# number of rings (size 3 to 8) (size 9 to 14) (size 15 to 20)
#    1.000    1.333    1.667    2.000    0.000    0.667 
#    0.000    4.167   11.000    0.000    0.000    0.000 
#    0.000    0.000    0.000    0.000    0.000    0.000 
#
# Total GULP energy -66927.749949 kJ/mol
# GULP energy per Si atom -5577.312496 kJ/mol
# Density = 2.552226 g / cm^3
# Si number density = 25.580480 Si / 1000 Ang^3
#
#
#
# Elastic Constant Matrix: (Units=GPa)
#
#
# Indices 1 2 3 4 5 6 
#
# 1 78.6939 38.2160 57.9352 0.8198 -22.1912 -22.6714
# 2 38.2160 140.5582 68.4064 11.5150 -4.0856 -18.2015
# 3 57.9352 68.4064 155.2277 5.8315 -27.6853 -1.7850
# 4 0.8198 11.5150 5.8315 55.6480 2.0301 -19.5165
# 5 -22.1912 -4.0856 -27.6853 2.0301 44.4817 5.8319
# 6 -22.6714 -18.2015 -1.7850 -19.5165 5.8319 45.2273
#
#
#
# Elastic Compliance Matrix: (Units=1/GPa)
#
#
# Indices 1 2 3 4 5 6 
#
# 1 0.023927 -0.001570 -0.007322 0.004931 0.005371 0.012508
# 2 -0.001570 0.010003 -0.004300 -0.000328 -0.002960 0.003309
# 3 -0.007322 -0.004300 0.011870 -0.002746 0.004341 -0.006677
# 4 0.004931 -0.000328 -0.002746 0.022615 -0.001916 0.012237
# 5 0.005371 -0.002960 0.004341 -0.001916 0.028041 -0.002770
# 6 0.012508 0.003309 -0.006677 0.012237 -0.002770 0.035087
#
#
# Mechanical properties :
#
#
# Convention : Reuss Voigt Hill
#
# Bulk Modulus (GPa) = 51.50059 78.17721 64.83890
# Shear Modulus (GPa) = 30.41374 43.06622 36.73998
#
# Velocity S-wave (km/s) = 3.45185 4.10757 3.79390
# Velocity P-wave (km/s) = 6.00529 7.28861 6.67785
#
# Compressibility (1/GPa) = 0.01941725
#
# Stress axis : x y z
#
# Youngs Moduli (GPa) = 41.79359 99.96662 84.24355
#
# Poissons Ratio (x) = 0.15697 0.61682
# Poissons Ratio (y) = 0.06562 0.36223
# Poissons Ratio (z) = 0.30601 0.42983
#
# Static dielectric constant tensor:
#      x y z
#    x 2.409480 -0.040140 0.360370 
#    y -0.040140 2.172650 -0.032450 
#    z 0.360370 -0.032450 2.324720 
# 
# From -- ./inp_files/69538.got.cif
#   From: 2010.05.17/outbox.cif.g08.bks.cpg/sg2_35_cif.got.tgz:69538.got - 2010.06.03 11:33:40.
