data_PCOD9085791
_publ_section_title
;
Structure prediction by ZEFSAII (Michael W. Deem and Ramdas Pophale) SiO2 
 PCOD9085791
Probable space group: P -1
;
_chemical_formula_sum "Si O2"
_cell_formula_units_Z 16
_cell_length_a 9.378350
_cell_length_b 12.663769
_cell_length_c 11.591634
_cell_angle_alpha 86.158936
_cell_angle_beta 58.210886
_cell_angle_gamma 124.822580
_cell_volume 816.332247
_symmetry_space_group_name_H-M "P -1"
_symmetry_group_IT_number 2
_symmetry_cell_setting 'triclinic'
loop_
_space_group_symop_operation_xyz
x,y,z
-x,-y,-z
loop_
_atom_site_type_symbol
_atom_site_label
_atom_site_fract_x
_atom_site_fract_y
_atom_site_fract_z
Si Si1 0.876167 0.543150 0.986046
Si Si2 0.364770 0.873486 0.732304
Si Si3 0.551964 0.172554 0.527661
Si Si4 0.503501 0.268376 0.762505
Si Si5 0.048065 0.475011 0.300214
Si Si6 0.409500 0.923946 0.167850
Si Si7 0.615381 0.570629 0.255456
Si Si8 0.134106 0.371604 0.623586
O O1 0.087426 0.725589 0.881500
O O2 0.823903 0.491366 0.878780
O O3 0.000000 0.500000 0.000000
O O4 0.661917 0.493923 0.155960
O O5 0.458371 0.826500 0.606060
O O6 0.409419 0.004889 0.639860
O O7 0.502939 0.950492 0.786382
O O8 0.473735 0.229841 0.642060
O O9 0.839198 0.294625 0.423201
O O10 0.765344 0.424528 0.684003
O O11 0.480912 0.143120 0.841435
O O12 0.349500 0.304657 0.840499
O O13 0.908440 0.522830 0.342827
O O14 0.122266 0.784347 0.300139
O O15 0.500000 0.000000 0.000000
O O16 0.352053 0.451073 0.436005
O O17 0.795447 0.645173 0.281532
#
# Coordination Sequence:
#
# PCOD9085791 Si02
#       8
#     2   2   2   2   2   2   2   2
#     4  11  22  38  60  85 121 163 203 248 303 367
#     4   9  20  33  60  87 114 159 201 242 295 356
#     4   9  17  35  56  90 114 146 202 248 289 355
#     4  10  21  34  64  90 119 155 202 252 294 354
#     4  10  19  35  63  88 114 159 201 245 297 362
#     4  10  21  38  61  93 125 162 202 241 297 377
#     4  11  22  37  60  93 124 153 205 254 306 347
#     4  10  21  36  62  92 119 158 203 248 299 356
#
# _framework density 19.599864
#
# number of rings (size 3 to 8) (size 9 to 14) (size 15 to 20)
#    0.000    2.000    2.500    1.125    5.250    0.500 
#    0.000    5.625    0.000    3.000    0.000    0.000 
#    0.000    0.000    0.000    0.000    0.000    0.000 
#
# Total GULP energy -89133.552757 kJ/mol
# GULP energy per Si atom -5570.847047 kJ/mol
# Density = 1.955525 g / cm^3
# Si number density = 19.599864 Si / 1000 Ang^3
#
#
#
# Elastic Constant Matrix: (Units=GPa)
#
#
# Indices 1 2 3 4 5 6 
#
# 1 84.8737 25.6789 24.4531 8.9109 0.0883 -7.6679
# 2 25.6789 96.8100 39.5360 9.9043 0.8805 13.0551
# 3 24.4531 39.5360 92.4540 25.7097 1.9150 0.1005
# 4 8.9109 9.9043 25.7097 32.5663 -6.2441 -1.6715
# 5 0.0883 0.8805 1.9150 -6.2441 18.4010 6.4509
# 6 -7.6679 13.0551 0.1005 -1.6715 6.4509 26.5141
#
#
#
# Elastic Compliance Matrix: (Units=1/GPa)
#
#
# Indices 1 2 3 4 5 6 
#
# 1 0.014149 -0.003768 -0.001648 -0.001576 -0.002518 0.006467
# 2 -0.003768 0.014730 -0.005721 0.001278 0.003532 -0.009100
# 3 -0.001648 -0.005721 0.017367 -0.012688 -0.006940 0.003163
# 4 -0.001576 0.001278 -0.012688 0.043903 0.017009 -0.002407
# 5 -0.002518 0.003532 -0.006940 0.017009 0.066865 -0.017637
# 6 0.006467 -0.009100 0.003163 -0.002407 -0.017637 0.048194
#
#
# Mechanical properties :
#
#
# Convention : Reuss Voigt Hill
#
# Bulk Modulus (GPa) = 41.71434 50.38597 46.05016
# Shear Modulus (GPa) = 21.23390 27.79426 24.51408
#
# Velocity S-wave (km/s) = 3.29503 3.76983 3.54040
# Velocity P-wave (km/s) = 5.98377 6.68670 6.34498
#
# Compressibility (1/GPa) = 0.02397257
#
# Stress axis : x y z
#
# Youngs Moduli (GPa) = 70.67483 67.89070 57.58045
#
# Poissons Ratio (x) = 0.25583 0.09487
# Poissons Ratio (y) = 0.26632 0.32941
# Poissons Ratio (z) = 0.11645 0.38839
#
# Static dielectric constant tensor:
#      x y z
#    x 1.707200 -0.015600 0.020450 
#    y -0.015600 1.721760 0.016970 
#    z 0.020450 0.016970 1.727050 
# 
# From -- ./inp_files/392568.got.cif
#   From: 2010.05.17/outbox.cif.g08.bks.cpg/sg2_197_cif.got.tgz:392568.got - 2010.06.03 11:33:40.
