data_PCOD9085358
_publ_section_title
;
Structure prediction by ZEFSAII (Michael W. Deem and Ramdas Pophale) SiO2 
 PCOD9085358
Probable space group: P -1
;
_chemical_formula_sum "Si O2"
_cell_formula_units_Z 16
_cell_length_a 16.406128
_cell_length_b 23.193471
_cell_length_c 5.998653
_cell_angle_alpha 52.543016
_cell_angle_beta 51.296122
_cell_angle_gamma 22.329831
_cell_volume 673.364234
_symmetry_space_group_name_H-M "P -1"
_symmetry_group_IT_number 2
_symmetry_cell_setting 'triclinic'
loop_
_space_group_symop_operation_xyz
x,y,z
-x,-y,-z
loop_
_atom_site_type_symbol
_atom_site_label
_atom_site_fract_x
_atom_site_fract_y
_atom_site_fract_z
Si Si1 0.903687 0.615579 0.714707
Si Si2 0.713252 0.628315 0.630426
Si Si3 0.023793 0.171332 0.890752
Si Si4 0.267859 0.895553 0.910719
Si Si5 0.739500 0.353450 0.550626
Si Si6 0.145029 0.191188 0.013750
Si Si7 0.382398 0.169466 0.918753
Si Si8 0.035938 0.910167 0.428913
O O1 0.812302 0.618527 0.675723
O O2 0.720680 0.771931 0.794223
O O3 0.111124 0.525535 0.445982
O O4 0.000000 0.500000 0.000000
O O5 0.512316 0.716322 0.893710
O O6 0.616994 0.746751 0.345885
O O7 0.802194 0.324113 0.773355
O O8 0.211675 0.013388 0.798384
O O9 0.111319 0.190167 0.815396
O O10 0.978151 0.140387 0.235313
O O11 0.152437 0.915765 0.246655
O O12 0.173566 0.944819 0.706224
O O13 0.500000 0.500000 0.500000
O O14 0.815548 0.224391 0.685746
O O15 0.922624 0.296390 0.262558
O O16 0.218187 0.224498 0.908034
O O17 0.370397 0.009269 0.108940
#
# Coordination Sequence:
#
# PCOD9085358 Si02
#       8
#     2   2   2   2   2   2   2   2
#     4   9  20  37  54  81 120 155 198 248 301 358
#     4  10  19  35  60  85 120 162 196 247 310 368
#     4  10  19  36  63  91 122 166 203 256 314 366
#     4  10  19  35  61  91 125 153 202 258 305 371
#     4  10  22  41  59  85 129 166 207 259 306 370
#     4  10  22  37  62  90 120 161 210 252 309 361
#     4  10  20  38  61  90 122 158 206 259 300 369
#     4   9  20  36  58  91 122 155 206 252 308 368
#
# _framework density 23.761285000000001
#
# number of rings (size 3 to 8) (size 9 to 14) (size 15 to 20)
#    0.000    2.250    0.000    3.375    0.000    4.000 
#    6.750    3.125    8.250    0.000    0.000    0.000 
#    0.000    0.000    0.000    0.000    0.000    0.000 
#
# Total GULP energy -89068.837364 kJ/mol
# GULP energy per Si atom -5566.802335 kJ/mol
# Density = 2.370720 g / cm^3
# Si number density = 23.761285 Si / 1000 Ang^3
#
#
#
# Elastic Constant Matrix: (Units=GPa)
#
#
# Indices 1 2 3 4 5 6 
#
# 1 72.7932 15.3179 12.6316 12.2242 -4.8155 -9.8384
# 2 15.3179 93.5978 29.1074 18.8261 -3.0965 -26.0107
# 3 12.6316 29.1074 94.6222 14.7624 3.9153 -15.2333
# 4 12.2242 18.8261 14.7624 36.5028 -2.1701 2.3968
# 5 -4.8155 -3.0965 3.9153 -2.1701 30.5779 -1.5183
# 6 -9.8384 -26.0107 -15.2333 2.3968 -1.5183 36.7790
#
#
#
# Elastic Compliance Matrix: (Units=1/GPa)
#
#
# Indices 1 2 3 4 5 6 
#
# 1 0.015436 -0.000053 -0.000680 -0.005004 0.002368 0.004234
# 2 -0.000053 0.016098 -0.001958 -0.008116 0.001851 0.011165
# 3 -0.000680 -0.001958 0.012628 -0.004244 -0.002032 0.003857
# 4 -0.005004 -0.008116 -0.004244 0.035758 0.000919 -0.011128
# 5 0.002368 0.001851 -0.002032 0.000919 0.033710 0.002432
# 6 0.004234 0.011165 0.003857 -0.011128 0.002432 0.038641
#
#
# Mechanical properties :
#
#
# Convention : Reuss Voigt Hill
#
# Bulk Modulus (GPa) = 25.78658 41.68079 33.73369
# Shear Modulus (GPa) = 29.31176 34.36901 31.84039
#
# Velocity S-wave (km/s) = 3.51606 3.80732 3.66459
# Velocity P-wave (km/s) = 5.23063 6.07513 5.66863
#
# Compressibility (1/GPa) = 0.03877986
#
# Stress axis : x y z
#
# Youngs Moduli (GPa) = 64.78406 62.11994 79.18638
#
# Poissons Ratio (x) = 0.00332 0.05384
# Poissons Ratio (y) = 0.00346 0.15503
# Poissons Ratio (z) = 0.04405 0.12162
#
# Static dielectric constant tensor:
#      x y z
#    x 2.015810 -0.037250 0.029150 
#    y -0.037250 1.988380 0.033620 
#    z 0.029150 0.033620 2.042200 
# 
# From -- ./inp_files/113204.got.cif
#   From: 2010.05.17/outbox.cif.g08.bks.cpg/sg2_57_cif.got.tgz:113204.got - 2010.06.03 11:33:40.
