data_PCOD9085519
_publ_section_title
;
Structure prediction by ZEFSAII (Michael W. Deem and Ramdas Pophale) SiO2 
 PCOD9085519
Probable space group: P -1
;
_chemical_formula_sum "Si O2"
_cell_formula_units_Z 16
_cell_length_a 12.475678
_cell_length_b 8.334795
_cell_length_c 11.368459
_cell_angle_alpha 111.216314
_cell_angle_beta 50.214327
_cell_angle_gamma 89.922079
_cell_volume 800.800156
_symmetry_space_group_name_H-M "P -1"
_symmetry_group_IT_number 2
_symmetry_cell_setting 'triclinic'
loop_
_space_group_symop_operation_xyz
x,y,z
-x,-y,-z
loop_
_atom_site_type_symbol
_atom_site_label
_atom_site_fract_x
_atom_site_fract_y
_atom_site_fract_z
Si Si1 0.091615 0.857703 0.001414
Si Si2 0.917151 0.280395 0.470403
Si Si3 0.641685 0.052858 0.392753
Si Si4 0.737412 0.382685 0.377722
Si Si5 0.772192 0.655187 0.762935
Si Si6 0.879314 0.915175 0.381808
Si Si7 0.325393 0.050201 0.902679
Si Si8 0.345493 0.225587 0.372231
O O1 0.997047 0.830188 0.172122
O O2 0.169900 0.677109 0.822753
O O3 0.215859 0.938530 0.988225
O O4 0.000000 0.000000 0.000000
O O5 0.845003 0.322042 0.400696
O O6 0.817943 0.436916 0.667946
O O7 0.076425 0.302019 0.354654
O O8 0.925218 0.079029 0.447821
O O9 0.632320 0.257051 0.419800
O O10 0.500000 0.000000 0.500000
O O11 0.734208 0.013336 0.434242
O O12 0.716906 0.923303 0.197502
O O13 0.657138 0.594679 0.506974
O O14 0.666769 0.731494 0.746316
O O15 0.704720 0.765311 0.955677
O O16 0.810048 0.804739 0.490231
O O17 0.498516 0.931096 0.757015
#
# Coordination Sequence:
#
# PCOD9085519 Si02
#       8
#     2   2   2   2   2   2   2   2
#     4  11  18  34  62  83 107 146 191 234 270 335
#     4   9  18  36  61  81 104 145 197 235 261 325
#     4  10  19  35  61  85 109 145 186 232 276 333
#     4   9  20  36  59  83 113 148 186 223 289 332
#     4  10  20  37  60  80 108 153 195 222 276 332
#     4  11  20  36  58  88 111 142 188 237 284 319
#     4  11  20  36  59  82 113 150 189 219 286 334
#     4  11  24  36  55  83 122 150 178 230 283 341
#
# _framework density 19.980018000000001
#
# number of rings (size 3 to 8) (size 9 to 14) (size 15 to 20)
#    0.000    1.750    6.250    0.375    0.000    3.000 
#    0.000    0.625    2.750    0.000    0.000    0.000 
#    0.000    0.000    0.000    0.000    0.000    0.000 
#
# Total GULP energy -89106.480168 kJ/mol
# GULP energy per Si atom -5569.155010 kJ/mol
# Density = 1.993454 g / cm^3
# Si number density = 19.980018 Si / 1000 Ang^3
#
#
#
# Elastic Constant Matrix: (Units=GPa)
#
#
# Indices 1 2 3 4 5 6 
#
# 1 57.2733 8.6415 14.9963 7.3804 0.0398 12.6148
# 2 8.6415 52.9993 50.1807 5.8441 12.7756 20.9398
# 3 14.9963 50.1807 104.4731 21.4543 9.6462 20.6725
# 4 7.3804 5.8441 21.4543 35.8951 17.4893 1.0537
# 5 0.0398 12.7756 9.6462 17.4893 33.0599 1.4017
# 6 12.6148 20.9398 20.6725 1.0537 1.4017 26.7943
#
#
#
# Elastic Compliance Matrix: (Units=1/GPa)
#
#
# Indices 1 2 3 4 5 6 
#
# 1 0.020288 0.001181 -0.000770 -0.004976 0.002793 -0.009831
# 2 0.001181 0.051800 -0.021460 0.014903 -0.020624 -0.023988
# 3 -0.000770 -0.021460 0.021957 -0.014002 0.009284 0.000258
# 4 -0.004976 0.014903 -0.014002 0.048001 -0.027104 0.001029
# 5 0.002793 -0.020624 0.009284 -0.027104 0.049586 0.006112
# 6 -0.009831 -0.023988 0.000258 0.001029 0.006112 0.060137
#
#
# Mechanical properties :
#
#
# Convention : Reuss Voigt Hill
#
# Bulk Modulus (GPa) = 19.25040 40.26474 29.75757
# Shear Modulus (GPa) = 16.06776 28.54502 22.30639
#
# Velocity S-wave (km/s) = 2.83890 3.78389 3.34493
# Velocity P-wave (km/s) = 4.51681 6.26791 5.46298
#
# Compressibility (1/GPa) = 0.05194697
#
# Stress axis : x y z
#
# Youngs Moduli (GPa) = 49.28983 19.30515 45.54314
#
# Poissons Ratio (x) = -0.02279 0.03508
# Poissons Ratio (y) = -0.05820 0.97733
# Poissons Ratio (z) = 0.03796 0.41428
#
# Static dielectric constant tensor:
#      x y z
#    x 1.741570 0.008180 -0.026310 
#    y 0.008180 1.762720 -0.025830 
#    z -0.026310 -0.025830 1.756410 
# 
# From -- ./inp_files/312141.got.cif
#   From: 2010.05.17/outbox.cif.g08.bks.cpg/sg2_157_cif.got.tgz:312141.got - 2010.06.03 11:33:40.
