data_PCOD9085715
_publ_section_title
;
Structure prediction by ZEFSAII (Michael W. Deem and Ramdas Pophale) SiO2 
 PCOD9085715
Probable space group: P -1
;
_chemical_formula_sum "Si O2"
_cell_formula_units_Z 16
_cell_length_a 11.209735
_cell_length_b 9.519713
_cell_length_c 13.307085
_cell_angle_alpha 110.821118
_cell_angle_beta 124.847406
_cell_angle_gamma 113.464467
_cell_volume 676.386200
_symmetry_space_group_name_H-M "P -1"
_symmetry_group_IT_number 2
_symmetry_cell_setting 'triclinic'
loop_
_space_group_symop_operation_xyz
x,y,z
-x,-y,-z
loop_
_atom_site_type_symbol
_atom_site_label
_atom_site_fract_x
_atom_site_fract_y
_atom_site_fract_z
Si Si1 0.957694 0.016642 0.824387
Si Si2 0.471094 0.780445 0.544839
Si Si3 0.273407 0.446914 0.948807
Si Si4 0.635586 0.165991 0.848345
Si Si5 0.794708 0.535755 0.464602
Si Si6 0.697886 0.147333 0.215775
Si Si7 0.950614 0.715402 0.870471
Si Si8 0.765194 0.712862 0.314390
O O1 0.117003 0.184225 0.849263
O O2 0.699224 0.873120 0.646653
O O3 0.945535 0.837124 0.811859
O O4 0.066332 0.201779 0.015216
O O5 0.375164 0.634558 0.567567
O O6 0.258647 0.572310 0.315939
O O7 0.539645 0.008363 0.661220
O O8 0.223125 0.409782 0.795978
O O9 0.226780 0.565421 0.014474
O O10 0.540262 0.622567 0.146926
O O11 0.419164 0.014516 0.781333
O O12 0.808303 0.180785 0.982234
O O13 0.767162 0.371469 0.335962
O O14 0.729626 0.623788 0.387318
O O15 0.070041 0.753091 0.678949
O O16 0.500000 0.000000 0.000000
O O17 0.000000 0.000000 0.500000
#
# Coordination Sequence:
#
# PCOD9085715 Si02
#       8
#     2   2   2   2   2   2   2   2
#     4  10  24  42  67  96 128 175 216 274 329 391
#     4  10  22  40  67  98 128 164 221 276 320 388
#     4  11  26  45  65  92 140 173 221 272 335 387
#     4  10  22  40  62  95 130 170 213 270 327 395
#     4  10  22  36  61  96 125 161 220 260 314 391
#     4  10  19  35  62  91 127 168 203 266 324 373
#     4  10  22  40  67  96 128 166 224 269 328 386
#     4  11  26  43  64  93 132 182 221 264 329 402
#
# _framework density 23.655128000000001
#
# number of rings (size 3 to 8) (size 9 to 14) (size 15 to 20)
#    0.000    1.750    0.000    2.625    8.750    7.000 
#    0.000    1.250    0.000    0.000    0.000    0.000 
#    0.000    0.000    0.000    0.000    0.000    0.000 
#
# Total GULP energy -89504.246937 kJ/mol
# GULP energy per Si atom -5594.015434 kJ/mol
# Density = 2.360129 g / cm^3
# Si number density = 23.655128 Si / 1000 Ang^3
#
#
#
# Elastic Constant Matrix: (Units=GPa)
#
#
# Indices 1 2 3 4 5 6 
#
# 1 65.3924 3.3515 37.4958 7.0588 -5.6403 -6.7530
# 2 3.3515 54.9446 -0.9150 12.0996 0.9548 -3.4281
# 3 37.4958 -0.9150 148.8368 11.5404 0.2346 -6.4491
# 4 7.0588 12.0996 11.5404 16.1769 -0.9584 -6.4420
# 5 -5.6403 0.9548 0.2346 -0.9584 36.8412 13.9285
# 6 -6.7530 -3.4281 -6.4491 -6.4420 13.9285 28.6388
#
#
#
# Elastic Compliance Matrix: (Units=1/GPa)
#
#
# Indices 1 2 3 4 5 6 
#
# 1 0.018553 -0.000237 -0.004296 -0.004186 0.002259 0.001339
# 2 -0.000237 0.022153 0.001555 -0.017894 -0.000831 -0.000675
# 3 -0.004296 0.001555 0.008221 -0.005061 -0.001028 0.000386
# 4 -0.004186 -0.017894 -0.005061 0.087372 -0.004520 0.017583
# 5 0.002259 -0.000831 -0.001028 -0.004520 0.033951 -0.017327
# 6 0.001339 -0.000675 0.000386 0.017583 -0.017327 0.047621
#
#
# Mechanical properties :
#
#
# Convention : Reuss Voigt Hill
#
# Bulk Modulus (GPa) = 23.27110 38.78205 31.02658
# Shear Modulus (GPa) = 20.99504 31.61415 26.30459
#
# Velocity S-wave (km/s) = 2.98241 3.65973 3.33829
# Velocity P-wave (km/s) = 4.66033 5.85564 5.29184
#
# Compressibility (1/GPa) = 0.04297175
#
# Stress axis : x y z
#
# Youngs Moduli (GPa) = 53.89974 45.13988 121.63300
#
# Poissons Ratio (x) = 0.01070 0.52258
# Poissons Ratio (y) = 0.01278 -0.18919
# Poissons Ratio (z) = 0.23157 -0.07021
#
# Static dielectric constant tensor:
#      x y z
#    x 1.924960 0.011850 -0.058370 
#    y 0.011850 1.892450 0.013750 
#    z -0.058370 0.013750 1.880350 
# 
# From -- ./inp_files/515993.got.cif
#   From: 2010.05.17/outbox.cif.g08.bks.cpg/sg2_258_cif.got.tgz:515993.got - 2010.06.03 11:33:40.
