data_PCOD9085000
_publ_section_title
;
Structure prediction by ZEFSAII (Michael W. Deem and Ramdas Pophale) SiO2 
 PCOD9085000
Probable space group: P -1
;
_chemical_formula_sum "Si O2"
_cell_formula_units_Z 16
_cell_length_a 9.237539
_cell_length_b 13.488677
_cell_length_c 7.786944
_cell_angle_alpha 102.518257
_cell_angle_beta 129.465076
_cell_angle_gamma 60.615648
_cell_volume 646.134014
_symmetry_space_group_name_H-M "P -1"
_symmetry_group_IT_number 2
_symmetry_cell_setting 'triclinic'
loop_
_space_group_symop_operation_xyz
x,y,z
-x,-y,-z
loop_
_atom_site_type_symbol
_atom_site_label
_atom_site_fract_x
_atom_site_fract_y
_atom_site_fract_z
Si Si1 0.729636 0.169286 0.139546
Si Si2 0.423243 0.951325 0.766133
Si Si3 0.652887 0.558968 0.643379
Si Si4 0.878830 0.638886 0.081164
Si Si5 0.061695 0.906719 0.196900
Si Si6 0.487256 0.228562 0.637711
Si Si7 0.948104 0.810407 0.414810
Si Si8 0.170375 0.196501 0.200281
O O1 0.626704 0.144161 0.222536
O O2 0.859598 0.235307 0.322858
O O3 0.888953 0.037656 0.148801
O O4 0.561765 0.230925 0.886676
O O5 0.617879 0.900102 0.766463
O O6 0.216502 0.063573 0.593867
O O7 0.500000 0.000000 0.000000
O O8 0.500000 0.500000 0.500000
O O9 0.558031 0.662615 0.474273
O O10 0.894335 0.467321 0.742881
O O11 0.697998 0.602981 0.879046
O O12 0.848109 0.732379 0.238323
O O13 0.904524 0.693834 0.940392
O O14 0.303721 0.876570 0.331870
O O15 0.041209 0.839220 0.321439
O O16 0.995174 0.851327 0.965882
O O17 0.271067 0.217741 0.455550
#
# Coordination Sequence:
#
# PCOD9085000 Si02
#       8
#     2   2   2   2   2   2   2   2
#     4  11  22  35  54  86 122 154 179 232 288 333
#     4  11  18  35  58  85 115 151 199 222 262 344
#     4  10  20  37  62  81 106 145 193 241 283 336
#     4   9  19  35  58  84 104 136 194 243 272 320
#     4  10  19  36  57  82 115 156 191 223 272 336
#     4  11  23  37  55  86 119 147 189 236 293 335
#     4  10  19  35  58  83 113 150 192 229 272 338
#     4  10  19  36  59  84 113 148 194 233 270 341
#
# _framework density 24.762663
#
# number of rings (size 3 to 8) (size 9 to 14) (size 15 to 20)
#    0.000    1.750    3.750    4.875    0.000    1.500 
#    2.250    0.625    0.000    1.500    0.000    0.000 
#    0.000    0.000    0.000    0.000    0.000    0.000 
#
# Total GULP energy -89465.185602 kJ/mol
# GULP energy per Si atom -5591.574100 kJ/mol
# Density = 2.470630 g / cm^3
# Si number density = 24.762663 Si / 1000 Ang^3
#
#
#
# Elastic Constant Matrix: (Units=GPa)
#
#
# Indices 1 2 3 4 5 6 
#
# 1 55.6642 26.0241 25.2159 3.0279 9.2153 10.2565
# 2 26.0241 90.0260 67.9237 19.0885 7.3676 -1.2652
# 3 25.2159 67.9237 214.2239 26.1122 13.6485 16.6112
# 4 3.0279 19.0885 26.1122 43.6137 7.0682 18.9498
# 5 9.2153 7.3676 13.6485 7.0682 42.9178 10.4752
# 6 10.2565 -1.2652 16.6112 18.9498 10.4752 24.0555
#
#
#
# Elastic Compliance Matrix: (Units=1/GPa)
#
#
# Indices 1 2 3 4 5 6 
#
# 1 0.026067 -0.010695 0.000564 0.011792 -0.000750 -0.021029
# 2 -0.010695 0.022042 -0.005475 -0.014945 -0.002772 0.022480
# 3 0.000564 -0.005475 0.006683 0.000897 -0.000030 -0.005836
# 4 0.011792 -0.014945 0.000897 0.047115 0.002929 -0.044824
# 5 -0.000750 -0.002772 -0.000030 0.002929 0.026832 -0.013797
# 6 -0.021029 0.022480 -0.005836 -0.044824 -0.013797 0.097067
#
#
# Mechanical properties :
#
#
# Convention : Reuss Voigt Hill
#
# Bulk Modulus (GPa) = 42.40996 66.47128 54.44062
# Shear Modulus (GPa) = 18.87666 38.16742 28.52204
#
# Velocity S-wave (km/s) = 2.76398 3.93024 3.39752
# Velocity P-wave (km/s) = 5.22971 6.89183 6.11748
#
# Compressibility (1/GPa) = 0.02357937
#
# Stress axis : x y z
#
# Youngs Moduli (GPa) = 38.36260 45.36833 149.64094
#
# Poissons Ratio (x) = 0.48522 -0.08437
# Poissons Ratio (y) = 0.41029 0.81924
# Poissons Ratio (z) = -0.02163 0.24838
#
# Static dielectric constant tensor:
#      x y z
#    x 2.045710 -0.027840 -0.011090 
#    y -0.027840 1.983190 0.049490 
#    z -0.011090 0.049490 2.034890 
# 
# From -- ./inp_files/273505.got.cif
#   From: 2010.05.17/outbox.cif.g08.bks.cpg/sg2_137_cif.got.tgz:273505.got - 2010.06.03 11:33:40.
