data_PCOD9085247
_publ_section_title
;
Structure prediction by ZEFSAII (Michael W. Deem and Ramdas Pophale) SiO2 
 PCOD9085247
Probable space group: P -1
;
_chemical_formula_sum "Si O2"
_cell_formula_units_Z 16
_cell_length_a 17.375210
_cell_length_b 9.152285
_cell_length_c 11.938087
_cell_angle_alpha 93.424280
_cell_angle_beta 47.749666
_cell_angle_gamma 54.303633
_cell_volume 752.273768
_symmetry_space_group_name_H-M "P -1"
_symmetry_group_IT_number 2
_symmetry_cell_setting 'triclinic'
loop_
_space_group_symop_operation_xyz
x,y,z
-x,-y,-z
loop_
_atom_site_type_symbol
_atom_site_label
_atom_site_fract_x
_atom_site_fract_y
_atom_site_fract_z
Si Si1 0.913741 0.745498 0.656776
Si Si2 0.560271 0.777890 0.118481
Si Si3 0.604173 0.527492 0.872732
Si Si4 0.670290 0.463516 0.421108
Si Si5 0.004418 0.102499 0.247252
Si Si6 0.584241 0.500398 0.260019
Si Si7 0.038844 0.800440 0.355533
Si Si8 0.523148 0.150001 0.189591
O O1 0.024366 0.720238 0.637535
O O2 0.895252 0.877921 0.575293
O O3 0.000000 0.500000 0.500000
O O4 0.730376 0.917493 0.917244
O O5 0.506749 0.775386 0.050106
O O6 0.797347 0.501584 0.873157
O O7 0.517447 0.704623 0.248554
O O8 0.468497 0.044895 0.232631
O O9 0.596317 0.590877 0.756530
O O10 0.815813 0.278340 0.710453
O O11 0.500000 0.500000 0.000000
O O12 0.668067 0.471675 0.290200
O O13 0.592402 0.395059 0.528603
O O14 0.873940 0.261569 0.270948
O O15 0.509692 0.760388 0.647655
O O16 0.957679 0.005158 0.351949
O O17 0.236132 0.806139 0.982508
#
# Coordination Sequence:
#
# PCOD9085247 Si02
#       8
#     2   2   2   2   2   2   2   2
#     4  12  22  37  58  91 132 171 202 250 317 385
#     4   9  21  37  61  85 129 165 201 261 316 373
#     4  10  19  35  59  88 123 161 205 255 314 372
#     4  11  24  40  70  94 119 168 214 267 318 363
#     4  11  22  42  65  92 126 162 213 260 317 368
#     4  10  22  46  67  93 122 161 221 266 311 372
#     4   9  21  38  55  86 124 163 202 250 305 379
#     4  12  22  37  60  90 130 164 207 256 313 384
#
# _framework density 21.268854000000001
#
# number of rings (size 3 to 8) (size 9 to 14) (size 15 to 20)
#    0.750    0.750    2.500    3.375    0.000    3.500 
#    0.000    0.000    0.000    0.750    0.000    0.000 
#    0.000    0.000    0.000    0.000    0.000    0.000 
#
# Total GULP energy -89226.188617 kJ/mol
# GULP energy per Si atom -5576.636789 kJ/mol
# Density = 2.122045 g / cm^3
# Si number density = 21.268854 Si / 1000 Ang^3
#
#
#
# Elastic Constant Matrix: (Units=GPa)
#
#
# Indices 1 2 3 4 5 6 
#
# 1 73.3459 15.9132 4.7162 12.8197 15.1061 3.1095
# 2 15.9132 61.4900 12.0376 11.5653 8.2596 17.4401
# 3 4.7162 12.0376 61.0112 9.6349 8.8178 6.5160
# 4 12.8197 11.5653 9.6349 30.6101 -0.3463 4.5137
# 5 15.1061 8.2596 8.8178 -0.3463 43.0601 -0.1239
# 6 3.1095 17.4401 6.5160 4.5137 -0.1239 33.3736
#
#
#
# Elastic Compliance Matrix: (Units=1/GPa)
#
#
# Indices 1 2 3 4 5 6 
#
# 1 0.016353 -0.002647 0.000991 -0.006296 -0.005481 0.000497
# 2 -0.002647 0.021444 -0.001755 -0.005007 -0.002894 -0.009950
# 3 0.000991 -0.001755 0.018255 -0.005240 -0.003797 -0.002045
# 4 -0.006296 -0.005007 -0.005240 0.039051 0.004553 -0.001039
# 5 -0.005481 -0.002894 -0.003797 0.004553 0.026522 0.002247
# 6 0.000497 -0.009950 -0.002045 -0.001039 0.002247 0.035665
#
#
# Mechanical properties :
#
#
# Convention : Reuss Voigt Hill
#
# Bulk Modulus (GPa) = 20.31203 29.02013 24.66608
# Shear Modulus (GPa) = 27.69771 32.28743 29.99257
#
# Velocity S-wave (km/s) = 3.61261 3.90046 3.75929
# Velocity P-wave (km/s) = 5.19347 5.82742 5.51955
#
# Compressibility (1/GPa) = 0.04923192
#
# Stress axis : x y z
#
# Youngs Moduli (GPa) = 61.15164 46.63335 54.78059
#
# Poissons Ratio (x) = 0.12342 -0.05431
# Poissons Ratio (y) = 0.16184 0.09612
# Poissons Ratio (z) = -0.06063 0.08182
#
# Static dielectric constant tensor:
#      x y z
#    x 1.781370 0.003280 -0.025870 
#    y 0.003280 1.751750 0.070750 
#    z -0.025870 0.070750 1.898550 
# 
# From -- ./inp_files/216782.got.cif
#   From: 2010.05.17/outbox.cif.g08.bks.cpg/sg2_109_cif.got.tgz:216782.got - 2010.06.03 11:33:40.
