data_PCOD9085728
_publ_section_title
;
Structure prediction by ZEFSAII (Michael W. Deem and Ramdas Pophale) SiO2 
 PCOD9085728
Probable space group: P -1
;
_chemical_formula_sum "Si O2"
_cell_formula_units_Z 16
_cell_length_a 8.558576
_cell_length_b 15.818133
_cell_length_c 14.731296
_cell_angle_alpha 44.790764
_cell_angle_beta 128.464083
_cell_angle_gamma 89.252439
_cell_volume 623.512896
_symmetry_space_group_name_H-M "P -1"
_symmetry_group_IT_number 2
_symmetry_cell_setting 'triclinic'
loop_
_space_group_symop_operation_xyz
x,y,z
-x,-y,-z
loop_
_atom_site_type_symbol
_atom_site_label
_atom_site_fract_x
_atom_site_fract_y
_atom_site_fract_z
Si Si1 0.799713 0.134605 0.102659
Si Si2 0.737557 0.751143 0.455621
Si Si3 0.189420 0.113441 0.467357
Si Si4 0.124202 0.552038 0.448589
Si Si5 0.683936 0.520688 0.606334
Si Si6 0.879485 0.338907 0.013537
Si Si7 0.471373 0.725257 0.894083
Si Si8 0.949036 0.244251 0.583869
O O1 0.622445 0.207391 0.083099
O O2 0.535339 0.322822 0.789862
O O3 0.047620 0.125450 0.213390
O O4 0.948523 0.938590 0.268493
O O5 0.630472 0.901257 0.376467
O O6 0.801480 0.787311 0.356168
O O7 0.513974 0.739057 0.382374
O O8 0.143595 0.514638 0.806098
O O9 0.819261 0.231494 0.273291
O O10 0.101077 0.253353 0.249234
O O11 0.404813 0.885027 0.698547
O O12 0.021799 0.598462 0.272716
O O13 0.016404 0.730353 0.319071
O O14 0.000000 0.500000 0.500000
O O15 0.500000 0.500000 0.500000
O O16 0.820117 0.430723 0.825375
O O17 0.470518 0.531063 0.755150
#
# Coordination Sequence:
#
# PCOD9085728 Si02
#       8
#     2   2   2   2   2   2   2   2
#     4  10  19  35  62  92 125 156 207 255 317 370
#     4  12  22  38  67  97 127 166 217 259 312 380
#     4  10  21  36  66  98 132 160 206 259 326 373
#     4  11  21  41  63  89 120 160 213 269 315 358
#     4  12  24  45  66  83 131 182 209 259 321 369
#     4  10  23  42  62  91 136 166 201 258 323 380
#     4  10  19  36  63 104 130 155 200 273 320 372
#     4  11  20  36  64  95 119 160 211 262 306 372
#
# _framework density 25.661052999999999
#
# number of rings (size 3 to 8) (size 9 to 14) (size 15 to 20)
#    0.000    1.250    8.750    0.375    0.000    1.000 
#    0.000    4.375    0.000    0.000    0.000    0.000 
#    0.000    0.000    0.000    0.000    0.000    0.000 
#
# Total GULP energy -89154.856265 kJ/mol
# GULP energy per Si atom -5572.178517 kJ/mol
# Density = 2.560265 g / cm^3
# Si number density = 25.661053 Si / 1000 Ang^3
#
#
#
# Elastic Constant Matrix: (Units=GPa)
#
#
# Indices 1 2 3 4 5 6 
#
# 1 62.9742 22.4920 18.6610 5.9706 -24.2818 -4.6818
# 2 22.4920 130.0194 22.6887 -19.9368 -25.0571 -0.4596
# 3 18.6610 22.6887 90.0016 -12.1613 -16.0850 -12.7317
# 4 5.9706 -19.9368 -12.1613 48.6876 -1.2917 -17.5868
# 5 -24.2818 -25.0571 -16.0850 -1.2917 39.9098 15.8599
# 6 -4.6818 -0.4596 -12.7317 -17.5868 15.8599 40.8502
#
#
#
# Elastic Compliance Matrix: (Units=1/GPa)
#
#
# Indices 1 2 3 4 5 6 
#
# 1 0.023076 -0.001676 -0.003700 -0.006509 0.013969 -0.006753
# 2 -0.001676 0.009698 -0.000740 0.003900 0.005149 -0.000634
# 3 -0.003700 -0.000740 0.013834 0.005849 0.000599 0.006165
# 4 -0.006509 0.003900 0.005849 0.029965 -0.004442 0.015746
# 5 0.013969 0.005149 0.000599 -0.004442 0.043647 -0.017013
# 6 -0.006753 -0.000634 0.006165 0.015746 -0.017013 0.039004
#
#
# Mechanical properties :
#
#
# Convention : Reuss Voigt Hill
#
# Bulk Modulus (GPa) = 29.09008 45.63094 37.36051
# Shear Modulus (GPa) = 27.33501 40.49974 33.91737
#
# Velocity S-wave (km/s) = 3.26733 3.97704 3.63953
# Velocity P-wave (km/s) = 5.05913 6.23778 5.67912
#
# Compressibility (1/GPa) = 0.03437599
#
# Stress axis : x y z
#
# Youngs Moduli (GPa) = 43.33500 103.11124 72.28474
#
# Poissons Ratio (x) = 0.17282 0.26748
# Poissons Ratio (y) = 0.07263 0.05348
# Poissons Ratio (z) = 0.16036 0.07628
#
# Static dielectric constant tensor:
#      x y z
#    x 2.322530 0.093970 0.012100 
#    y 0.093970 2.126390 0.051720 
#    z 0.012100 0.051720 2.086950 
# 
# From -- ./inp_files/503899.got.cif
#   From: 2010.05.17/outbox.cif.g08.bks.cpg/sg2_252_cif.got.tgz:503899.got - 2010.06.03 11:33:40.
