data_PCOD9085200
_publ_section_title
;
Structure prediction by ZEFSAII (Michael W. Deem and Ramdas Pophale) SiO2 
 PCOD9085200
Probable space group: P -1
;
_chemical_formula_sum "Si O2"
_cell_formula_units_Z 14
_cell_length_a 19.717791
_cell_length_b 16.475482
_cell_length_c 8.538750
_cell_angle_alpha 35.002270
_cell_angle_beta 40.550515
_cell_angle_gamma 22.654145
_cell_volume 612.757370
_symmetry_space_group_name_H-M "P -1"
_symmetry_group_IT_number 2
_symmetry_cell_setting 'triclinic'
loop_
_space_group_symop_operation_xyz
x,y,z
-x,-y,-z
loop_
_atom_site_type_symbol
_atom_site_label
_atom_site_fract_x
_atom_site_fract_y
_atom_site_fract_z
Si Si1 0.534854 0.700475 0.126675
Si Si2 0.563360 0.416194 0.757371
Si Si3 0.064957 0.609946 0.562771
Si Si4 0.299498 0.618044 0.126576
Si Si5 0.285385 0.139499 0.105337
Si Si6 0.555762 0.076755 0.504086
Si Si7 0.255976 0.309307 0.422181
O O1 0.435206 0.729169 0.114521
O O2 0.394786 0.039646 0.230552
O O3 0.690773 0.624731 0.898059
O O4 0.400353 0.937746 0.090603
O O5 0.693377 0.297648 0.862695
O O6 0.598657 0.505943 0.435778
O O7 0.363761 0.635651 0.834858
O O8 0.132494 0.697397 0.288475
O O9 0.191437 0.384427 0.818318
O O10 0.087327 0.516454 0.498632
O O11 0.871557 0.795371 0.672441
O O12 0.465737 0.325203 0.305445
O O13 0.406062 0.165666 0.520052
O O14 0.721415 0.860516 0.443340
#
# Coordination Sequence:
#
# PCOD9085200 Si02
#       7
#     2   2   2   2   2   2   2
#     4  11  20  36  58  89 112 145 194 240 274 341
#     4  10  21  33  62  85 114 145 198 235 278 318
#     4  10  23  40  55  87 118 151 183 239 290 345
#     4  10  19  38  59  86 111 151 193 240 270 344
#     4  11  23  37  60  83 121 150 185 233 302 334
#     4  10  19  35  59  86 107 150 191 239 282 334
#     4  10  21  35  62  84 113 144 199 240 282 329
#
# _framework density 22.847543000000002
#
# number of rings (size 3 to 8) (size 9 to 14) (size 15 to 20)
#    0.000    1.714    4.286    2.571    2.000    3.429 
#    0.000    1.429    0.000    0.000    0.000    0.000 
#    0.000    0.000    0.000    0.000    0.000    0.000 
#
# Total GULP energy -78073.509564 kJ/mol
# GULP energy per Si atom -5576.679255 kJ/mol
# Density = 2.279554 g / cm^3
# Si number density = 22.847543 Si / 1000 Ang^3
#
#
#
# Elastic Constant Matrix: (Units=GPa)
#
#
# Indices 1 2 3 4 5 6 
#
# 1 71.9613 33.3638 2.4625 5.8977 9.0798 16.5674
# 2 33.3638 65.3069 12.4417 14.0729 4.6080 26.6500
# 3 2.4625 12.4417 120.4990 23.7134 9.2098 -8.1059
# 4 5.8977 14.0729 23.7134 34.9240 4.6483 -0.5977
# 5 9.0798 4.6080 9.2098 4.6483 28.6559 10.7321
# 6 16.5674 26.6500 -8.1059 -0.5977 10.7321 35.5397
#
#
#
# Elastic Compliance Matrix: (Units=1/GPa)
#
#
# Indices 1 2 3 4 5 6 
#
# 1 0.018877 -0.009691 0.000840 0.000798 -0.004877 0.000145
# 2 -0.009691 0.032026 -0.003292 -0.010687 0.009429 -0.023276
# 3 0.000840 -0.003292 0.010352 -0.005169 -0.004347 0.005664
# 4 0.000798 -0.010687 -0.005169 0.037306 -0.006292 0.008990
# 5 -0.004877 0.009429 -0.004347 -0.006292 0.044594 -0.019361
# 6 0.000145 -0.023276 0.005664 0.008990 -0.019361 0.052813
#
#
# Mechanical properties :
#
#
# Convention : Reuss Voigt Hill
#
# Bulk Modulus (GPa) = 27.04922 39.36702 33.20812
# Shear Modulus (GPa) = 21.49819 33.79054 27.64436
#
# Velocity S-wave (km/s) = 3.07080 3.84989 3.48221
# Velocity P-wave (km/s) = 4.94346 6.08522 5.54381
#
# Compressibility (1/GPa) = 0.03696964
#
# Stress axis : x y z
#
# Youngs Moduli (GPa) = 52.97373 31.22449 96.60013
#
# Poissons Ratio (x) = 0.30260 -0.08116
# Poissons Ratio (y) = 0.51337 0.31801
# Poissons Ratio (z) = -0.04451 0.10279
#
# Static dielectric constant tensor:
#      x y z
#    x 1.868020 -0.036420 -0.026430 
#    y -0.036420 1.953650 0.001790 
#    z -0.026430 0.001790 1.986600 
# 
# From -- ./inp_files/354027.got.cif
#   From: 2010.05.17/outbox.cif.g08.bks.cpg/sg2_178_cif.got.tgz:354027.got - 2010.06.03 11:33:40.
