data_PCOD9085386
_publ_section_title
;
Structure prediction by ZEFSAII (Michael W. Deem and Ramdas Pophale) SiO2 
 PCOD9085386
Probable space group: P -1
;
_chemical_formula_sum "Si O2"
_cell_formula_units_Z 16
_cell_length_a 11.081479
_cell_length_b 9.394636
_cell_length_c 17.027775
_cell_angle_alpha 40.514957
_cell_angle_beta 138.064115
_cell_angle_gamma 122.207529
_cell_volume 767.466565
_symmetry_space_group_name_H-M "P -1"
_symmetry_group_IT_number 2
_symmetry_cell_setting 'triclinic'
loop_
_space_group_symop_operation_xyz
x,y,z
-x,-y,-z
loop_
_atom_site_type_symbol
_atom_site_label
_atom_site_fract_x
_atom_site_fract_y
_atom_site_fract_z
Si Si1 0.634851 0.640929 0.457093
Si Si2 0.316905 0.120335 0.893488
Si Si3 0.735553 0.393824 0.272370
Si Si4 0.880196 0.880747 0.055403
Si Si5 0.436815 0.068815 0.227661
Si Si6 0.222481 0.769072 0.366919
Si Si7 0.975557 0.109202 0.627051
Si Si8 0.000987 0.220286 0.355303
O O1 0.500000 0.500000 0.500000
O O2 0.544463 0.885605 0.301081
O O3 0.687289 0.478783 0.478385
O O4 0.813511 0.672842 0.581276
O O5 0.333600 0.362409 0.837367
O O6 0.168896 0.148933 0.740790
O O7 0.226205 0.994376 0.975575
O O8 0.500000 0.000000 0.000000
O O9 0.892373 0.296046 0.448912
O O10 0.830157 0.368942 0.242859
O O11 0.575324 0.230600 0.261936
O O12 0.719636 0.810462 0.951210
O O13 0.037128 0.744936 0.237844
O O14 0.000000 0.000000 0.000000
O O15 0.345541 0.925815 0.310858
O O16 0.165250 0.880366 0.373894
O O17 0.997232 0.876646 0.690279
O O18 0.000000 0.000000 0.500000
#
# Coordination Sequence:
#
# PCOD9085386 Si02
#       8
#     2   2   2   2   2   2   2   2
#     4  10  19  36  59  92 115 156 210 245 290 364
#     4  11  25  41  62  94 120 159 211 257 312 365
#     4  11  23  40  62  88 124 164 200 252 317 369
#     4   9  20  40  63  82 120 166 202 245 303 372
#     4  10  20  37  62  90 119 160 210 253 296 373
#     4   9  20  38  62  88 123 161 205 249 311 359
#     4  10  21  40  63  86 126 160 197 256 315 362
#     4  10  19  35  60  87 121 156 199 243 306 363
#
# _framework density 20.847814
#
# number of rings (size 3 to 8) (size 9 to 14) (size 15 to 20)
#    0.000    2.000    2.500    1.875    1.750    3.000 
#    2.250    0.000    2.750    2.250    0.000    0.000 
#    0.000    0.000    0.000    0.000    0.000    0.000 
#
# Total GULP energy -89162.497536 kJ/mol
# GULP energy per Si atom -5572.656096 kJ/mol
# Density = 2.080036 g / cm^3
# Si number density = 20.847814 Si / 1000 Ang^3
#
#
#
# Elastic Constant Matrix: (Units=GPa)
#
#
# Indices 1 2 3 4 5 6 
#
# 1 142.2671 70.7299 48.6848 -6.5325 21.8276 -22.0759
# 2 70.7299 148.2554 45.4386 -1.8870 21.4839 -9.8463
# 3 48.6848 45.4386 81.6002 -5.7797 11.6228 -11.0533
# 4 -6.5325 -1.8870 -5.7797 27.7568 -6.2355 11.2019
# 5 21.8276 21.4839 11.6228 -6.2355 32.4310 1.2958
# 6 -22.0759 -9.8463 -11.0533 11.2019 1.2958 37.7301
#
#
#
# Elastic Compliance Matrix: (Units=1/GPa)
#
#
# Indices 1 2 3 4 5 6 
#
# 1 0.011408 -0.003300 -0.003686 -0.001514 -0.004676 0.005344
# 2 -0.003300 0.009758 -0.003040 -0.001667 -0.003488 0.000340
# 3 -0.003686 -0.003040 0.016636 0.001497 -0.001240 0.001521
# 4 -0.001514 -0.001667 0.001497 0.044036 0.010626 -0.014321
# 5 -0.004676 -0.003488 -0.001240 0.010626 0.039120 -0.008508
# 6 0.005344 0.000340 0.001521 -0.014321 -0.008508 0.034709
#
#
# Mechanical properties :
#
#
# Convention : Reuss Voigt Hill
#
# Bulk Modulus (GPa) = 56.33940 77.98103 67.16022
# Shear Modulus (GPa) = 27.52764 33.40155 30.46459
#
# Velocity S-wave (km/s) = 3.63769 4.00704 3.82682
# Velocity P-wave (km/s) = 6.68778 7.67428 7.19795
#
# Compressibility (1/GPa) = 0.01774957
#
# Stress axis : x y z
#
# Youngs Moduli (GPa) = 87.65739 102.48166 60.11083
#
# Poissons Ratio (x) = 0.33814 0.22159
# Poissons Ratio (y) = 0.28923 0.18275
# Poissons Ratio (z) = 0.32314 0.31157
#
# Static dielectric constant tensor:
#      x y z
#    x 1.806430 -0.010270 -0.006180 
#    y -0.010270 1.855190 -0.055130 
#    z -0.006180 -0.055130 1.780320 
# 
# From -- ./inp_files/565775.got.cif
#   From: 2010.05.17/outbox.cif.g08.bks.cpg/sg2_283_cif.got.tgz:565775.got - 2010.06.03 11:33:40.
