data_PCOD9085420
_publ_section_title
;
Structure prediction by ZEFSAII (Michael W. Deem and Ramdas Pophale) SiO2 
 PCOD9085420
Probable space group: P -1
;
_chemical_formula_sum "Si O2"
_cell_formula_units_Z 14
_cell_length_a 7.939222
_cell_length_b 11.823817
_cell_length_c 9.692294
_cell_angle_alpha 114.157999
_cell_angle_beta 101.636125
_cell_angle_gamma 54.917596
_cell_volume 678.649405
_symmetry_space_group_name_H-M "P -1"
_symmetry_group_IT_number 2
_symmetry_cell_setting 'triclinic'
loop_
_space_group_symop_operation_xyz
x,y,z
-x,-y,-z
loop_
_atom_site_type_symbol
_atom_site_label
_atom_site_fract_x
_atom_site_fract_y
_atom_site_fract_z
Si Si1 0.284570 0.711541 0.697622
Si Si2 0.835568 0.793481 0.759183
Si Si3 0.401815 0.623943 0.376977
Si Si4 0.697166 0.336389 0.924957
Si Si5 0.986040 0.440059 0.115759
Si Si6 0.193838 0.370387 0.555814
Si Si7 0.246531 0.916329 0.000552
O O1 0.264033 0.700558 0.525931
O O2 0.490276 0.553924 0.693655
O O3 0.077922 0.735175 0.743055
O O4 0.310158 0.840216 0.823002
O O5 0.765162 0.775204 0.587508
O O6 0.830547 0.684723 0.817801
O O7 0.716184 0.959463 0.881764
O O8 0.288593 0.692029 0.249446
O O9 0.600364 0.632329 0.430201
O O10 0.675906 0.217461 0.945138
O O11 0.500000 0.500000 0.000000
O O12 0.877419 0.352577 0.017170
O O13 0.867397 0.581497 0.270889
O O14 0.000000 0.500000 0.000000
O O15 0.000000 0.500000 0.500000
O O16 0.000000 0.000000 0.000000
#
# Coordination Sequence:
#
# PCOD9085420 Si02
#       7
#     2   2   2   2   2   2   2
#     4  10  19  35  60  89 114 153 199 244 295 350
#     4  10  20  40  60  83 117 163 195 236 296 365
#     4  11  21  33  60  92 119 146 205 251 291 338
#     4  12  20  39  62  92 118 150 201 254 287 343
#     4  11  22  35  59  91 118 152 198 245 292 346
#     4  10  19  38  55  83 121 157 197 236 294 359
#     4  10  19  40  64  83 121 159 197 238 304 357
#
# _framework density 20.62921
#
# number of rings (size 3 to 8) (size 9 to 14) (size 15 to 20)
#    0.000    1.429    8.571    0.000    2.000    1.143 
#    0.000    5.714    0.000    0.000    0.000    0.000 
#    0.000    0.000    0.000    0.000    0.000    0.000 
#
# Total GULP energy -78003.245977 kJ/mol
# GULP energy per Si atom -5571.660427 kJ/mol
# Density = 2.058226 g / cm^3
# Si number density = 20.629210 Si / 1000 Ang^3
#
#
#
# Elastic Constant Matrix: (Units=GPa)
#
#
# Indices 1 2 3 4 5 6 
#
# 1 37.1150 4.1372 31.3986 0.3688 3.1167 6.0495
# 2 4.1372 77.2564 46.7192 12.4359 -5.6016 19.0519
# 3 31.3986 46.7192 177.2797 7.4908 0.2481 18.4914
# 4 0.3688 12.4359 7.4908 46.4737 12.1418 6.5738
# 5 3.1167 -5.6016 0.2481 12.1418 34.5170 -1.0268
# 6 6.0495 19.0519 18.4914 6.5738 -1.0268 23.4572
#
#
#
# Elastic Compliance Matrix: (Units=1/GPa)
#
#
# Indices 1 2 3 4 5 6 
#
# 1 0.033067 0.003051 -0.006010 0.001715 -0.003256 -0.006891
# 2 0.003051 0.019109 -0.004193 -0.003801 0.003843 -0.011768
# 3 -0.006010 -0.004193 0.007946 0.000158 -0.000291 -0.001366
# 4 0.001715 -0.003801 0.000158 0.025843 -0.010017 -0.005161
# 5 -0.003256 0.003843 -0.000291 -0.010017 0.033481 0.002221
# 6 -0.006891 -0.011768 -0.001366 -0.005161 0.002221 0.056586
#
#
# Mechanical properties :
#
#
# Convention : Reuss Voigt Hill
#
# Bulk Modulus (GPa) = 21.82580 50.68457 36.25519
# Shear Modulus (GPa) = 24.31804 34.84932 29.58368
#
# Velocity S-wave (km/s) = 3.43711 4.11459 3.79102
# Velocity P-wave (km/s) = 5.13368 6.86992 6.06426
#
# Compressibility (1/GPa) = 0.04581734
#
# Stress axis : x y z
#
# Youngs Moduli (GPa) = 30.24178 52.33142 125.84200
#
# Poissons Ratio (x) = -0.15964 0.75626
# Poissons Ratio (y) = -0.09226 0.52772
# Poissons Ratio (z) = 0.18174 0.21945
#
# Static dielectric constant tensor:
#      x y z
#    x 1.730240 0.050920 -0.076610 
#    y 0.050920 1.726260 0.082690 
#    z -0.076610 0.082690 1.672500 
# 
# From -- ./inp_files/181628.got.cif
#   From: 2010.05.17/outbox.cif.g08.bks.cpg/sg2_91_cif.got.tgz:181628.got - 2010.06.03 11:33:40.
