data_PCOD9085858
_publ_section_title
;
Structure prediction by ZEFSAII (Michael W. Deem and Ramdas Pophale) SiO2 
 PCOD9085858
Probable space group: P -1
;
_chemical_formula_sum "Si O2"
_cell_formula_units_Z 16
_cell_length_a 8.457266
_cell_length_b 9.948058
_cell_length_c 8.866002
_cell_angle_alpha 61.661927
_cell_angle_beta 94.465207
_cell_angle_gamma 95.988667
_cell_volume 652.611321
_symmetry_space_group_name_H-M "P -1"
_symmetry_group_IT_number 2
_symmetry_cell_setting 'triclinic'
loop_
_space_group_symop_operation_xyz
x,y,z
-x,-y,-z
loop_
_atom_site_type_symbol
_atom_site_label
_atom_site_fract_x
_atom_site_fract_y
_atom_site_fract_z
Si Si1 0.594574 0.656525 0.227396
Si Si2 0.435872 0.889382 0.920750
Si Si3 0.830711 0.056663 0.338740
Si Si4 0.042877 0.258215 0.428076
Si Si5 0.844397 0.311347 0.664777
Si Si6 0.637413 0.586766 0.595270
Si Si7 0.921562 0.831339 0.032352
Si Si8 0.276042 0.015644 0.300691
O O1 0.600264 0.685626 0.392422
O O2 0.528369 0.476871 0.308548
O O3 0.760770 0.741256 0.139365
O O4 0.458054 0.727548 0.081959
O O5 0.266282 0.924399 0.829102
O O6 0.553711 0.912277 0.776887
O O7 0.500000 0.000000 0.000000
O O8 0.732632 0.010723 0.507979
O O9 0.921221 0.218032 0.306437
O O10 0.934331 0.910501 0.410261
O O11 0.216198 0.326087 0.354099
O O12 0.962938 0.345859 0.511503
O O13 0.726414 0.442210 0.613406
O O14 0.752661 0.149961 0.694672
O O15 0.945827 0.278909 0.840078
O O16 0.851920 0.875795 0.839986
O O17 0.000000 0.000000 0.000000
#
# Coordination Sequence:
#
# PCOD9085858 Si02
#       8
#     2   2   2   2   2   2   2   2
#     4  10  22  36  57  93 130 162 206 264 318 376
#     4  11  21  37  64  94 122 161 215 273 322 377
#     4  10  22  40  63  88 128 166 213 266 328 385
#     4  10  21  38  61  88 124 175 213 264 318 383
#     4  10  19  35  63  97 122 168 215 262 314 378
#     4  11  21  38  61  94 134 167 214 262 322 386
#     4   9  18  35  61  93 129 157 213 269 311 362
#     4   9  20  37  61  93 126 163 205 269 330 375
#
# _framework density 24.51689
#
# number of rings (size 3 to 8) (size 9 to 14) (size 15 to 20)
#    0.000    2.000    1.250    2.250    1.750    1.000 
#    9.000    0.625    0.000    4.500    0.000    0.000 
#    0.000    0.000    0.000    0.000    0.000    0.000 
#
# Total GULP energy -89267.360378 kJ/mol
# GULP energy per Si atom -5579.210024 kJ/mol
# Density = 2.446109 g / cm^3
# Si number density = 24.516890 Si / 1000 Ang^3
#
#
#
# Elastic Constant Matrix: (Units=GPa)
#
#
# Indices 1 2 3 4 5 6 
#
# 1 86.3417 27.7604 46.3552 3.5724 1.4432 16.4551
# 2 27.7604 72.3074 26.4779 4.3328 -0.4128 16.5695
# 3 46.3552 26.4779 115.4283 3.8440 7.3261 17.1232
# 4 3.5724 4.3328 3.8440 27.0991 12.9650 -2.4158
# 5 1.4432 -0.4128 7.3261 12.9650 70.9906 -10.5676
# 6 16.4551 16.5695 17.1232 -2.4158 -10.5676 41.5009
#
#
#
# Elastic Compliance Matrix: (Units=1/GPa)
#
#
# Indices 1 2 3 4 5 6 
#
# 1 0.016106 -0.003558 -0.005183 -0.001053 -0.000053 -0.002902
# 2 -0.003558 0.017072 -0.001693 -0.002490 0.000082 -0.004831
# 3 -0.005183 -0.001693 0.011591 -0.000227 -0.001420 -0.002426
# 4 -0.001053 -0.002490 -0.000227 0.041083 -0.007164 0.002072
# 5 -0.000053 0.000082 -0.001420 -0.007164 0.016180 0.004277
# 6 -0.002902 -0.004831 -0.002426 0.002072 0.004277 0.029386
#
#
# Mechanical properties :
#
#
# Convention : Reuss Voigt Hill
#
# Bulk Modulus (GPa) = 41.83828 52.80716 47.32272
# Shear Modulus (GPa) = 31.20072 39.48372 35.34222
#
# Velocity S-wave (km/s) = 3.57125 4.01742 3.80089
# Velocity P-wave (km/s) = 5.84014 6.56547 6.21340
#
# Compressibility (1/GPa) = 0.02390155
#
# Stress axis : x y z
#
# Youngs Moduli (GPa) = 62.08900 58.57383 86.27499
#
# Poissons Ratio (x) = 0.20839 0.44717
# Poissons Ratio (y) = 0.22090 0.14607
# Poissons Ratio (z) = 0.32181 0.09917
#
# Static dielectric constant tensor:
#      x y z
#    x 2.069200 0.012970 -0.033000 
#    y 0.012970 2.023880 -0.003360 
#    z -0.033000 -0.003360 1.954500 
# 
# From -- ./inp_files/175369.got.cif
#   From: 2010.05.17/outbox.cif.g08.bks.cpg/sg2_88_cif.got.tgz:175369.got - 2010.06.03 11:33:40.
