data_PCOD9085611
_publ_section_title
;
Structure prediction by ZEFSAII (Michael W. Deem and Ramdas Pophale) SiO2 
 PCOD9085611
Probable space group: P -1
;
_chemical_formula_sum "Si O2"
_cell_formula_units_Z 15
_cell_length_a 11.498544
_cell_length_b 24.273848
_cell_length_c 17.403609
_cell_angle_alpha 21.159138
_cell_angle_beta 28.342989
_cell_angle_gamma 26.471984
_cell_volume 749.950485
_symmetry_space_group_name_H-M "P -1"
_symmetry_group_IT_number 2
_symmetry_cell_setting 'triclinic'
loop_
_space_group_symop_operation_xyz
x,y,z
-x,-y,-z
loop_
_atom_site_type_symbol
_atom_site_label
_atom_site_fract_x
_atom_site_fract_y
_atom_site_fract_z
Si Si1 0.598469 0.513001 0.304319
Si Si2 0.723124 0.792149 0.794204
Si Si3 0.169667 0.299900 0.650212
Si Si4 0.950518 0.960835 0.845917
Si Si5 0.500000 0.000000 0.500000
Si Si6 0.797190 0.910312 0.242544
Si Si7 0.700227 0.212918 0.534295
Si Si8 0.133402 0.734889 0.402413
O O1 0.538091 0.375325 0.472295
O O2 0.343474 0.637177 0.340899
O O3 0.828826 0.400496 0.377943
O O4 0.690139 0.624550 0.052035
O O5 0.022904 0.771722 0.664266
O O6 0.634149 0.850215 0.683318
O O7 0.505249 0.944398 0.774103
O O8 0.129115 0.231865 0.679610
O O9 0.492736 0.235101 0.558567
O O10 0.000000 0.500000 0.500000
O O11 0.081313 0.199910 0.895598
O O12 0.801411 0.039748 0.749874
O O13 0.809762 0.116407 0.786351
O O14 0.260020 0.935907 0.700274
O O15 0.840166 0.831454 0.407039
O O16 0.000000 0.000000 0.000000
#
# Coordination Sequence:
#
# PCOD9085611 Si02
#       8
#     2   2   2   2   1   2   2   2
#     4  10  20  36  60  93 129 157 208 268 308 367
#     4  11  21  38  63  93 124 168 210 265 308 376
#     4  12  25  40  63  94 128 166 209 264 319 379
#     4  10  20  40  61  91 122 166 209 260 310 379
#     4  10  20  34  66  94 120 154 218 260 304 360
#     4  12  21  39  66  88 121 167 218 260 305 374
#     4  10  24  38  57  92 127 168 203 254 328 376
#     4  10  19  35  61  93 116 160 212 258 309 361
#
# _framework density 20.001321000000001
#
# number of rings (size 3 to 8) (size 9 to 14) (size 15 to 20)
#    0.000    1.333    4.000    1.600    1.867    0.533 
#    0.000    1.333    0.000    4.000    0.000    0.000 
#    0.000    0.000    0.000    0.000    0.000    0.000 
#
# Total GULP energy -83510.368185 kJ/mol
# GULP energy per Si atom -5567.357879 kJ/mol
# Density = 1.995580 g / cm^3
# Si number density = 20.001321 Si / 1000 Ang^3
#
#
#
# Elastic Constant Matrix: (Units=GPa)
#
#
# Indices 1 2 3 4 5 6 
#
# 1 111.5227 8.7288 40.9892 -9.5255 1.9621 -21.3799
# 2 8.7288 77.0665 9.4179 -16.3629 -13.0712 -16.4565
# 3 40.9892 9.4179 122.7698 -22.5814 27.6179 -15.1885
# 4 -9.5255 -16.3629 -22.5814 27.4650 -0.5547 -3.2345
# 5 1.9621 -13.0712 27.6179 -0.5547 28.3067 -3.4725
# 6 -21.3799 -16.4565 -15.1885 -3.2345 -3.4725 30.7981
#
#
#
# Elastic Compliance Matrix: (Units=1/GPa)
#
#
# Indices 1 2 3 4 5 6 
#
# 1 0.012037 0.002728 -0.003472 0.004118 0.005010 0.009099
# 2 0.002728 0.021654 -0.000538 0.015575 0.012635 0.016260
# 3 -0.003472 -0.000538 0.015057 0.011082 -0.013951 0.004319
# 4 0.004118 0.015575 0.011082 0.058920 0.000051 0.022840
# 5 0.005010 0.012635 -0.013951 0.000051 0.055608 0.009624
# 6 0.009099 0.016260 0.004319 0.022840 0.009624 0.053088
#
#
# Mechanical properties :
#
#
# Convention : Reuss Voigt Hill
#
# Bulk Modulus (GPa) = 21.65224 47.73677 34.69450
# Shear Modulus (GPa) = 21.33811 34.12883 27.73347
#
# Velocity S-wave (km/s) = 3.26979 4.13525 3.72772
# Velocity P-wave (km/s) = 5.01041 6.83513 5.99263
#
# Compressibility (1/GPa) = 0.04618460
#
# Stress axis : x y z
#
# Youngs Moduli (GPa) = 83.07480 46.17982 66.41532
#
# Poissons Ratio (x) = -0.12598 0.23059
# Poissons Ratio (y) = -0.22662 0.03573
# Poissons Ratio (z) = 0.28843 0.02484
#
# Static dielectric constant tensor:
#      x y z
#    x 1.756510 0.009030 0.040010 
#    y 0.009030 1.618430 -0.012100 
#    z 0.040010 -0.012100 1.686040 
# 
# From -- ./inp_files/570867.got.cif
#   From: 2010.05.17/outbox.cif.g08.bks.cpg/sg2_286_cif.got.tgz:570867.got - 2010.06.03 11:33:40.
