data_PCOD9085328
_publ_section_title
;
Structure prediction by ZEFSAII (Michael W. Deem and Ramdas Pophale) SiO2 
 PCOD9085328
Probable space group: P -1
;
_chemical_formula_sum "Si O2"
_cell_formula_units_Z 16
_cell_length_a 19.024620
_cell_length_b 15.896972
_cell_length_c 8.072133
_cell_angle_alpha 100.437259
_cell_angle_beta 73.709758
_cell_angle_gamma 163.482074
_cell_volume 630.833415
_symmetry_space_group_name_H-M "P -1"
_symmetry_group_IT_number 2
_symmetry_cell_setting 'triclinic'
loop_
_space_group_symop_operation_xyz
x,y,z
-x,-y,-z
loop_
_atom_site_type_symbol
_atom_site_label
_atom_site_fract_x
_atom_site_fract_y
_atom_site_fract_z
Si Si1 0.720390 0.798459 0.357528
Si Si2 0.564148 0.744432 0.181667
Si Si3 0.734584 0.202915 0.352879
Si Si4 0.825592 0.588618 0.109173
Si Si5 0.086528 0.724101 0.487233
Si Si6 0.420784 0.769389 0.153190
Si Si7 0.081341 0.890917 0.376896
Si Si8 0.637854 0.561376 0.095637
O O1 0.500000 0.500000 0.500000
O O2 0.588148 0.735303 0.346894
O O3 0.954049 0.089285 0.431474
O O4 0.784116 0.806679 0.166771
O O5 0.459127 0.718896 0.190317
O O6 0.393256 0.483533 0.095721
O O7 0.874832 0.094041 0.041272
O O8 0.728427 0.112155 0.440665
O O9 0.997923 0.550944 0.354045
O O10 0.500000 0.000000 0.500000
O O11 0.673171 0.107818 0.171276
O O12 0.750215 0.599774 0.110631
O O13 0.637542 0.312564 0.031001
O O14 0.847088 0.610188 0.301217
O O15 0.834551 0.474772 0.674706
O O16 0.176986 0.906711 0.387418
O O17 0.326228 0.210556 0.233847
#
# Coordination Sequence:
#
# PCOD9085328 Si02
#       8
#     2   2   2   2   2   2   2   2
#     4  10  20  35  55  80 111 144 183 232 278 318
#     4  10  20  37  57  79 109 147 187 225 270 325
#     4   9  19  34  57  86 113 140 176 222 268 325
#     4  10  21  36  55  79 109 148 188 222 269 327
#     4  10  20  36  59  86 111 139 180 224 274 326
#     4  10  19  35  60  82 107 146 184 221 268 327
#     4  10  21  36  54  81 113 143 180 229 275 323
#     4   9  21  37  55  77 109 149 186 229 273 321
#
# _framework density 25.363271000000001
#
# number of rings (size 3 to 8) (size 9 to 14) (size 15 to 20)
#    0.000    2.250    0.000    2.625    0.000    5.000 
#    0.000    5.625    0.000   19.500    0.000    0.000 
#    0.000    0.000    0.000    0.000    0.000    0.000 
#
# Total GULP energy -89460.163615 kJ/mol
# GULP energy per Si atom -5591.260226 kJ/mol
# Density = 2.530554 g / cm^3
# Si number density = 25.363271 Si / 1000 Ang^3
#
#
#
# Elastic Constant Matrix: (Units=GPa)
#
#
# Indices 1 2 3 4 5 6 
#
# 1 96.8199 7.8136 39.4377 20.8202 -3.0554 16.9077
# 2 7.8136 92.6585 69.8147 48.2591 -4.6169 -5.0094
# 3 39.4377 69.8147 129.9558 70.8631 -0.6201 -3.0551
# 4 20.8202 48.2591 70.8631 75.6180 1.8236 -5.4700
# 5 -3.0554 -4.6169 -0.6201 1.8236 31.4449 5.2089
# 6 16.9077 -5.0094 -3.0551 -5.4700 5.2089 38.3909
#
#
#
# Elastic Compliance Matrix: (Units=1/GPa)
#
#
# Indices 1 2 3 4 5 6 
#
# 1 0.013822 0.003460 -0.005347 -0.001557 0.002943 -0.006683
# 2 0.003460 0.020274 -0.008768 -0.005827 0.003627 -0.000898
# 3 -0.005347 -0.008768 0.020732 -0.012250 -0.000892 0.001236
# 4 -0.001557 -0.005827 -0.012250 0.029197 -0.003536 0.003590
# 5 0.002943 0.003627 -0.000892 -0.003536 0.033799 -0.005984
# 6 -0.006683 -0.000898 0.001236 0.003590 -0.005984 0.030295
#
#
# Mechanical properties :
#
#
# Convention : Reuss Voigt Hill
#
# Bulk Modulus (GPa) = 29.83488 61.50734 45.67111
# Shear Modulus (GPa) = 27.68518 42.58199 35.13358
#
# Velocity S-wave (km/s) = 3.30744 4.10186 3.72589
# Velocity P-wave (km/s) = 5.13557 6.83644 6.04612
#
# Compressibility (1/GPa) = 0.03351781
#
# Stress axis : x y z
#
# Youngs Moduli (GPa) = 72.34854 49.32464 48.23391
#
# Poissons Ratio (x) = -0.17064 0.25791
# Poissons Ratio (y) = -0.25030 0.42290
# Poissons Ratio (z) = 0.38686 0.43246
#
# Static dielectric constant tensor:
#      x y z
#    x 1.956380 0.020870 -0.061350 
#    y 0.020870 2.049960 0.018190 
#    z -0.061350 0.018190 2.084750 
# 
# From -- ./inp_files/105237.got.cif
#   From: 2010.05.17/outbox.cif.g08.bks.cpg/sg2_53_cif.got.tgz:105237.got - 2010.06.03 11:33:40.
