data_PCOD9085204
_publ_section_title
;
Structure prediction by ZEFSAII (Michael W. Deem and Ramdas Pophale) SiO2 
 PCOD9085204
Probable space group: P -1
;
_chemical_formula_sum "Si O2"
_cell_formula_units_Z 16
_cell_length_a 7.275177
_cell_length_b 18.154465
_cell_length_c 14.612232
_cell_angle_alpha 27.421519
_cell_angle_beta 53.755658
_cell_angle_gamma 67.584257
_cell_volume 661.179062
_symmetry_space_group_name_H-M "P -1"
_symmetry_group_IT_number 2
_symmetry_cell_setting 'triclinic'
loop_
_space_group_symop_operation_xyz
x,y,z
-x,-y,-z
loop_
_atom_site_type_symbol
_atom_site_label
_atom_site_fract_x
_atom_site_fract_y
_atom_site_fract_z
Si Si1 0.455067 0.525444 0.359455
Si Si2 0.763788 0.625745 0.583851
Si Si3 0.343070 0.773780 0.408234
Si Si4 0.865777 0.749071 0.111601
Si Si5 0.680833 0.418225 0.997873
Si Si6 0.196657 0.949061 0.085933
Si Si7 0.432620 0.890384 0.733193
Si Si8 0.664171 0.236088 0.384646
O O1 0.341506 0.524824 0.294476
O O2 0.591388 0.390828 0.454052
O O3 0.654323 0.701101 0.148024
O O4 0.236510 0.427775 0.603333
O O5 0.860365 0.559130 0.719295
O O6 0.557295 0.697203 0.600825
O O7 0.965252 0.788775 0.293147
O O8 0.279532 0.850003 0.250563
O O9 0.196419 0.737409 0.587843
O O10 0.599333 0.943337 0.165342
O O11 0.138641 0.805579 0.929986
O O12 0.868617 0.908238 0.996733
O O13 0.500000 0.500000 0.000000
O O14 0.509719 0.271549 0.139040
O O15 0.778196 0.340124 0.141532
O O16 0.500000 0.000000 0.500000
O O17 0.567264 0.032814 0.612177
#
# Coordination Sequence:
#
# PCOD9085204 Si02
#       8
#     2   2   2   2   2   2   2   2
#     4   9  21  36  58  86 122 155 191 230 299 342
#     4  10  19  35  59  86 111 155 194 235 284 350
#     4   9  20  35  57  86 119 149 190 240 286 348
#     4  10  20  37  58  85 122 155 187 243 288 345
#     4   9  20  36  57  80 113 146 193 244 281 339
#     4  10  20  34  58  87 120 149 190 237 292 338
#     4  10  20  35  60  83 113 151 199 239 288 336
#     4   9  18  36  59  80 111 152 195 234 285 342
#
# _framework density 24.199193999999999
#
# number of rings (size 3 to 8) (size 9 to 14) (size 15 to 20)
#    0.000    2.500    1.250    0.000    3.500    2.500 
#    0.000    1.250   13.750    4.500    0.000    0.000 
#    0.000    0.000    0.000    0.000    0.000    0.000 
#
# Total GULP energy -89169.709506 kJ/mol
# GULP energy per Si atom -5573.106844 kJ/mol
# Density = 2.414412 g / cm^3
# Si number density = 24.199194 Si / 1000 Ang^3
#
#
#
# Elastic Constant Matrix: (Units=GPa)
#
#
# Indices 1 2 3 4 5 6 
#
# 1 51.8758 16.4993 9.9279 12.7064 14.6602 22.5909
# 2 16.4993 122.2989 30.3401 -1.1115 1.3508 23.7064
# 3 9.9279 30.3401 96.7611 2.8861 -0.3809 8.7647
# 4 12.7064 -1.1115 2.8861 30.1177 9.1037 1.5549
# 5 14.6602 1.3508 -0.3809 9.1037 25.3751 5.4829
# 6 22.5909 23.7064 8.7647 1.5549 5.4829 36.2988
#
#
#
# Elastic Compliance Matrix: (Units=1/GPa)
#
#
# Indices 1 2 3 4 5 6 
#
# 1 0.033084 -0.000663 -0.001359 -0.009332 -0.011943 -0.017626
# 2 -0.000663 0.010002 -0.002584 0.000983 0.000678 -0.005640
# 3 -0.001359 -0.002584 0.011358 -0.001061 0.001560 -0.000400
# 4 -0.009332 0.000983 -0.001061 0.040088 -0.010192 0.005245
# 5 -0.011943 0.000678 0.001560 -0.010192 0.050063 -0.000512
# 6 -0.017626 -0.005640 -0.000400 0.005245 -0.000512 0.042151
#
#
# Mechanical properties :
#
#
# Convention : Reuss Voigt Hill
#
# Bulk Modulus (GPa) = 22.10748 42.71894 32.41321
# Shear Modulus (GPa) = 23.69268 32.63624 28.16446
#
# Velocity S-wave (km/s) = 3.13240 3.67638 3.41524
# Velocity P-wave (km/s) = 4.71572 5.97599 5.38286
#
# Compressibility (1/GPa) = 0.04523355
#
# Stress axis : x y z
#
# Youngs Moduli (GPa) = 30.22600 99.98145 88.04098
#
# Poissons Ratio (x) = 0.06625 0.11964
# Poissons Ratio (y) = 0.02003 0.22749
# Poissons Ratio (z) = 0.04107 0.25834
#
# Static dielectric constant tensor:
#      x y z
#    x 2.122160 0.035880 -0.111290 
#    y 0.035880 1.934590 -0.020380 
#    z -0.111290 -0.020380 2.056680 
# 
# From -- ./inp_files/218596.got.cif
#   From: 2010.05.17/outbox.cif.g08.bks.cpg/sg2_110_cif.got.tgz:218596.got - 2010.06.03 11:33:40.
