data_PCOD9085331
_publ_section_title
;
Structure prediction by ZEFSAII (Michael W. Deem and Ramdas Pophale) SiO2 
 PCOD9085331
Probable space group: P -1
;
_chemical_formula_sum "Si O2"
_cell_formula_units_Z 16
_cell_length_a 8.947828
_cell_length_b 19.285254
_cell_length_c 8.200406
_cell_angle_alpha 132.876342
_cell_angle_beta 99.330680
_cell_angle_gamma 47.615934
_cell_volume 640.805477
_symmetry_space_group_name_H-M "P -1"
_symmetry_group_IT_number 2
_symmetry_cell_setting 'triclinic'
loop_
_space_group_symop_operation_xyz
x,y,z
-x,-y,-z
loop_
_atom_site_type_symbol
_atom_site_label
_atom_site_fract_x
_atom_site_fract_y
_atom_site_fract_z
Si Si1 0.569721 0.894362 0.991771
Si Si2 0.669371 0.152257 0.539276
Si Si3 0.854381 0.394525 0.321719
Si Si4 0.866044 0.441575 0.738472
Si Si5 0.708540 0.829921 0.438540
Si Si6 0.285225 0.838904 0.794493
Si Si7 0.902915 0.466117 0.134054
Si Si8 0.803648 0.205243 0.956028
O O1 0.856198 0.741601 0.811325
O O2 0.437867 0.859715 0.884311
O O3 0.500000 0.000000 0.000000
O O4 0.453368 0.998905 0.300801
O O5 0.458197 0.177788 0.556073
O O6 0.660072 0.214793 0.468606
O O7 0.673750 0.212700 0.799375
O O8 0.920151 0.969597 0.282760
O O9 0.738436 0.466602 0.594882
O O10 0.787524 0.503830 0.348015
O O11 0.805710 0.316045 0.113085
O O12 0.078700 0.264536 0.539936
O O13 0.762042 0.512298 0.014193
O O14 0.989984 0.481161 0.776109
O O15 0.868338 0.717840 0.135210
O O16 0.303483 0.764461 0.836424
O O17 0.000000 0.000000 0.000000
#
# Coordination Sequence:
#
# PCOD9085331 Si02
#       8
#     2   2   2   2   2   2   2   2
#     4  12  19  34  58  93 117 142 191 229 294 337
#     4  10  19  36  51  78 119 152 180 222 283 347
#     4  12  21  36  62  86 116 149 189 242 277 345
#     4   9  20  39  57  84 114 142 198 245 282 322
#     4  10  19  35  60  82 118 144 182 246 276 339
#     4  10  21  34  52  74 123 158 173 218 280 350
#     4   9  22  36  57  89 108 151 191 241 289 321
#     4  10  23  34  51  82 122 152 182 218 286 355
#
# _framework density 24.968575999999999
#
# number of rings (size 3 to 8) (size 9 to 14) (size 15 to 20)
#    0.750    1.000    3.750    1.125    1.750    4.500 
#    0.000    0.000    0.000    1.500    0.000    0.000 
#    0.000    0.000    0.000    0.000    0.000    0.000 
#
# Total GULP energy -89461.745943 kJ/mol
# GULP energy per Si atom -5591.359121 kJ/mol
# Density = 2.491175 g / cm^3
# Si number density = 24.968576 Si / 1000 Ang^3
#
#
#
# Elastic Constant Matrix: (Units=GPa)
#
#
# Indices 1 2 3 4 5 6 
#
# 1 66.1083 12.5826 -0.1461 0.6707 -13.9132 -0.4474
# 2 12.5826 108.1219 10.2923 -9.6019 -10.3556 -2.6227
# 3 -0.1461 10.2923 126.5555 -15.4788 -11.7412 -4.2788
# 4 0.6707 -9.6019 -15.4788 44.3612 2.7534 -6.0106
# 5 -13.9132 -10.3556 -11.7412 2.7534 38.5699 0.6427
# 6 -0.4474 -2.6227 -4.2788 -6.0106 0.6427 34.5774
#
#
#
# Elastic Compliance Matrix: (Units=1/GPa)
#
#
# Indices 1 2 3 4 5 6 
#
# 1 0.016649 -0.001502 0.000590 -0.000742 0.005836 -0.000063
# 2 -0.001502 0.009839 -0.000347 0.002054 0.001831 0.001007
# 3 0.000590 -0.000347 0.008575 0.002958 0.002494 0.001510
# 4 -0.000742 0.002054 0.002958 0.024725 -0.000661 0.004822
# 5 0.005836 0.001831 0.002494 -0.000661 0.029332 -0.000137
# 6 -0.000063 0.001007 0.001510 0.004822 -0.000137 0.030024
#
#
# Mechanical properties :
#
#
# Convention : Reuss Voigt Hill
#
# Bulk Modulus (GPa) = 30.72668 38.47148 34.59908
# Shear Modulus (GPa) = 37.73305 42.03882 39.88593
#
# Velocity S-wave (km/s) = 3.89166 4.10771 4.00114
# Velocity P-wave (km/s) = 5.70318 6.15947 5.93571
#
# Compressibility (1/GPa) = 0.03254501
#
# Stress axis : x y z
#
# Youngs Moduli (GPa) = 60.06264 101.63808 116.62179
#
# Poissons Ratio (x) = 0.15267 -0.06880
# Poissons Ratio (y) = 0.09022 0.04044
# Poissons Ratio (z) = -0.03544 0.03524
#
# Static dielectric constant tensor:
#      x y z
#    x 1.887400 -0.025590 -0.082880 
#    y -0.025590 2.006360 -0.012330 
#    z -0.082880 -0.012330 2.032280 
# 
# From -- ./inp_files/218624.got.cif
#   From: 2010.05.17/outbox.cif.g08.bks.cpg/sg2_110_cif.got.tgz:218624.got - 2010.06.03 11:33:40.
