data_PCOD9085318
_publ_section_title
;
Structure prediction by ZEFSAII (Michael W. Deem and Ramdas Pophale) SiO2 
 PCOD9085318
Probable space group: P -1
;
_chemical_formula_sum "Si O2"
_cell_formula_units_Z 12
_cell_length_a 12.598691
_cell_length_b 8.927406
_cell_length_c 5.839829
_cell_angle_alpha 108.860578
_cell_angle_beta 67.190291
_cell_angle_gamma 61.683143
_cell_volume 416.094717
_symmetry_space_group_name_H-M "P -1"
_symmetry_group_IT_number 2
_symmetry_cell_setting 'triclinic'
loop_
_space_group_symop_operation_xyz
x,y,z
-x,-y,-z
loop_
_atom_site_type_symbol
_atom_site_label
_atom_site_fract_x
_atom_site_fract_y
_atom_site_fract_z
Si Si1 0.118559 0.867351 0.618695
Si Si2 0.682199 0.191602 0.209529
Si Si3 0.497390 0.117940 0.785645
Si Si4 0.816957 0.549301 0.512838
Si Si5 0.845727 0.855507 0.565954
Si Si6 0.342314 0.470285 0.753865
O O1 0.282157 0.765999 0.555549
O O2 0.129851 0.660235 0.490552
O O3 0.082126 0.054138 0.571966
O O4 0.000000 0.000000 0.000000
O O5 0.500047 0.323193 0.390842
O O6 0.720519 0.295542 0.052441
O O7 0.794171 0.947553 0.915113
O O8 0.418937 0.347154 0.860437
O O9 0.500000 0.000000 0.500000
O O10 0.677218 0.983912 0.639109
O O11 0.354243 0.220700 0.135167
O O12 0.921491 0.608752 0.405813
O O13 0.780881 0.518039 0.272625
#
# Coordination Sequence:
#
# PCOD9085318 Si02
#       6
#     2   2   2   2   2   2
#     4  11  27  47  63  87 125 173 221 260 299 360
#     4  10  21  37  63  92 126 163 210 257 313 369
#     4  12  21  34  63 104 135 157 195 253 327 391
#     4  11  24  40  65  99 130 159 204 256 320 381
#     4  12  23  39  66  95 126 165 205 259 319 371
#     4  10  19  35  59  98 132 160 194 255 322 384
#
# _framework density 28.839590999999999
#
# number of rings (size 3 to 8) (size 9 to 14) (size 15 to 20)
#    0.000    1.000    5.000    2.500    0.000    2.667 
#    0.000    0.833    0.000    0.000    0.000    0.000 
#    0.000    0.000    0.000    0.000    0.000    0.000 
#
# Total GULP energy -66879.878029 kJ/mol
# GULP energy per Si atom -5573.323169 kJ/mol
# Density = 2.877395 g / cm^3
# Si number density = 28.839591 Si / 1000 Ang^3
#
#
#
# Elastic Constant Matrix: (Units=GPa)
#
#
# Indices 1 2 3 4 5 6 
#
# 1 116.0872 52.8392 23.2828 2.0976 5.4620 36.7823
# 2 52.8392 223.2940 8.5337 -14.4086 -16.6386 40.9735
# 3 23.2828 8.5337 104.6808 23.1675 -15.8188 29.2359
# 4 2.0976 -14.4086 23.1675 42.3215 5.5471 -1.5010
# 5 5.4620 -16.6386 -15.8188 5.5471 30.7935 3.0200
# 6 36.7823 40.9735 29.2359 -1.5010 3.0200 63.5812
#
#
#
# Elastic Compliance Matrix: (Units=1/GPa)
#
#
# Indices 1 2 3 4 5 6 
#
# 1 0.011462 -0.002132 -0.001721 -0.000026 -0.003644 -0.004293
# 2 -0.002132 0.005951 0.001552 0.000549 0.004637 -0.003523
# 3 -0.001721 0.001552 0.016183 -0.010123 0.012091 -0.008259
# 4 -0.000026 0.000549 -0.010123 0.031002 -0.011030 0.005572
# 5 -0.003644 0.004637 0.012091 -0.011030 0.044690 -0.008823
# 6 -0.004293 -0.003523 -0.008259 0.005572 -0.008823 0.024830
#
#
# Mechanical properties :
#
#
# Convention : Reuss Voigt Hill
#
# Bulk Modulus (GPa) = 34.49001 68.15260 51.32130
# Shear Modulus (GPa) = 33.69615 51.29964 42.49789
#
# Velocity S-wave (km/s) = 3.42189 4.22215 3.84291
# Velocity P-wave (km/s) = 5.25335 6.88851 6.12574
#
# Compressibility (1/GPa) = 0.02899391
#
# Stress axis : x y z
#
# Youngs Moduli (GPa) = 87.24470 168.03990 61.79197
#
# Poissons Ratio (x) = 0.35826 0.10636
# Poissons Ratio (y) = 0.18600 -0.09591
# Poissons Ratio (z) = 0.15018 -0.26081
#
# Static dielectric constant tensor:
#      x y z
#    x 2.314720 0.053930 -0.051410 
#    y 0.053930 2.400630 -0.100340 
#    z -0.051410 -0.100340 2.325990 
# 
# From -- ./inp_files/27971.got.cif
#   From: 2010.05.17/outbox.cif.g08.bks.cpg/sg2_14_cif.got.tgz:27971.got - 2010.06.03 11:33:40.
