data_PCOD9085554
_publ_section_title
;
Structure prediction by ZEFSAII (Michael W. Deem and Ramdas Pophale) SiO2 
 PCOD9085554
Probable space group: P -1
;
_chemical_formula_sum "Si O2"
_cell_formula_units_Z 16
_cell_length_a 16.957022
_cell_length_b 10.852988
_cell_length_c 8.696704
_cell_angle_alpha 127.630973
_cell_angle_beta 32.707912
_cell_angle_gamma 131.578072
_cell_volume 641.533336
_symmetry_space_group_name_H-M "P -1"
_symmetry_group_IT_number 2
_symmetry_cell_setting 'triclinic'
loop_
_space_group_symop_operation_xyz
x,y,z
-x,-y,-z
loop_
_atom_site_type_symbol
_atom_site_label
_atom_site_fract_x
_atom_site_fract_y
_atom_site_fract_z
Si Si1 0.649228 0.952808 0.414540
Si Si2 0.637600 0.354333 0.304214
Si Si3 0.920648 0.171080 0.337827
Si Si4 0.378514 0.194904 0.130693
Si Si5 0.377489 0.363974 0.946541
Si Si6 0.293548 0.626864 0.133324
Si Si7 0.072386 0.130877 0.750021
Si Si8 0.778935 0.141299 0.060537
O O1 0.483531 0.837050 0.659284
O O2 0.702934 0.817181 0.134781
O O3 0.764597 0.032867 0.420717
O O4 0.667617 0.091741 0.359102
O O5 0.408907 0.322695 0.035858
O O6 0.676527 0.427060 0.127670
O O7 0.776158 0.314866 0.131253
O O8 0.855829 0.317324 0.589077
O O9 0.960818 0.066740 0.326934
O O10 0.038088 0.198599 0.022960
O O11 0.462696 0.570381 0.366090
O O12 0.248709 0.215533 0.472390
O O13 0.292025 0.013489 0.057394
O O14 0.545432 0.228903 0.964021
O O15 0.277216 0.478329 0.164882
O O16 0.948772 0.155072 0.851563
#
# Coordination Sequence:
#
# PCOD9085554 Si02
#       8
#     2   2   2   2   2   2   2   2
#     4   8  18  34  60  89 119 147 190 247 299 339
#     4  10  20  35  62  90 119 154 195 244 299 343
#     4  10  21  38  63  92 121 150 197 252 296 341
#     4  11  22  37  62  91 120 153 202 246 293 348
#     4   9  23  39  59  89 124 155 190 247 305 345
#     4  12  23  38  63  92 118 153 203 248 291 350
#     4  10  22  38  59  90 124 158 190 247 302 350
#     4  10  19  35  61  87 122 153 198 238 296 353
#
# _framework density 24.940248
#
# number of rings (size 3 to 8) (size 9 to 14) (size 15 to 20)
#    0.750    1.250    0.000    3.750    3.500    1.500 
#    0.000    0.625    0.000   12.750    0.000    0.000 
#    0.000    0.000    0.000    0.000    0.000    0.000 
#
# Total GULP energy -89397.702500 kJ/mol
# GULP energy per Si atom -5587.356406 kJ/mol
# Density = 2.488348 g / cm^3
# Si number density = 24.940248 Si / 1000 Ang^3
#
#
#
# Elastic Constant Matrix: (Units=GPa)
#
#
# Indices 1 2 3 4 5 6 
#
# 1 90.6305 18.7669 26.0845 1.5590 -18.2349 -23.5029
# 2 18.7669 47.8092 27.5230 -8.4822 -4.1217 -4.0065
# 3 26.0845 27.5230 122.6597 -8.4913 -17.6125 -20.5486
# 4 1.5590 -8.4822 -8.4913 25.4861 1.9006 0.6961
# 5 -18.2349 -4.1217 -17.6125 1.9006 29.4535 5.3477
# 6 -23.5029 -4.0065 -20.5486 0.6961 5.3477 28.0917
#
#
#
# Elastic Compliance Matrix: (Units=1/GPa)
#
#
# Indices 1 2 3 4 5 6 
#
# 1 0.016987 -0.006008 0.000722 -0.003741 0.008091 0.012436
# 2 -0.006008 0.027194 -0.005490 0.007932 -0.002833 -0.004821
# 3 0.000722 -0.005490 0.011222 0.001301 0.005027 0.007041
# 4 -0.003741 0.007932 0.001301 0.042798 -0.002908 -0.001554
# 5 0.008091 -0.002833 0.005027 -0.002908 0.041351 0.002243
# 6 0.012436 -0.004821 0.007041 -0.001554 0.002243 0.050076
#
#
# Mechanical properties :
#
#
# Convention : Reuss Voigt Hill
#
# Bulk Modulus (GPa) = 29.53989 45.09426 37.31708
# Shear Modulus (GPa) = 22.47542 29.18793 25.83167
#
# Velocity S-wave (km/s) = 3.00521 3.42470 3.22179
# Velocity P-wave (km/s) = 4.88996 5.81018 5.36982
#
# Compressibility (1/GPa) = 0.03385253
#
# Stress axis : x y z
#
# Youngs Moduli (GPa) = 58.86704 36.77267 89.10842
#
# Poissons Ratio (x) = 0.22092 -0.06431
# Poissons Ratio (y) = 0.35366 0.48917
# Poissons Ratio (z) = -0.04248 0.20187
#
# Static dielectric constant tensor:
#      x y z
#    x 1.987070 0.015250 -0.016620 
#    y 0.015250 2.042530 0.045800 
#    z -0.016620 0.045800 2.015010 
# 
# From -- ./inp_files/332429.got.cif
#   From: 2010.05.17/outbox.cif.g08.bks.cpg/sg2_167_cif.got.tgz:332429.got - 2010.06.03 11:33:40.
