data_PCOD9085340
_publ_section_title
;
Structure prediction by ZEFSAII (Michael W. Deem and Ramdas Pophale) SiO2 
 PCOD9085340
Probable space group: P -1
;
_chemical_formula_sum "Si O2"
_cell_formula_units_Z 16
_cell_length_a 10.916782
_cell_length_b 13.487636
_cell_length_c 8.934774
_cell_angle_alpha 122.104510
_cell_angle_beta 71.849161
_cell_angle_gamma 60.178045
_cell_volume 600.736766
_symmetry_space_group_name_H-M "P -1"
_symmetry_group_IT_number 2
_symmetry_cell_setting 'triclinic'
loop_
_space_group_symop_operation_xyz
x,y,z
-x,-y,-z
loop_
_atom_site_type_symbol
_atom_site_label
_atom_site_fract_x
_atom_site_fract_y
_atom_site_fract_z
Si Si1 0.918861 0.427820 0.502859
Si Si2 0.490279 0.906171 0.569768
Si Si3 0.277608 0.816440 0.105508
Si Si4 0.436120 0.466184 0.812749
Si Si5 0.175071 0.994805 0.583860
Si Si6 0.691525 0.883975 0.707382
Si Si7 0.172723 0.473592 0.076057
Si Si8 0.565762 0.645395 0.573577
O O1 0.741108 0.571555 0.823037
O O2 0.803189 0.470447 0.431325
O O3 0.000000 0.500000 0.500000
O O4 0.121451 0.199440 0.313517
O O5 0.253420 0.050562 0.691542
O O6 0.527804 0.000094 0.716231
O O7 0.524245 0.788555 0.599051
O O8 0.686391 0.726764 0.230729
O O9 0.213595 0.967210 0.366652
O O10 0.437459 0.601119 0.954088
O O11 0.385709 0.777650 0.880916
O O12 0.061852 0.894253 0.216523
O O13 0.645270 0.234095 0.604192
O O14 0.443051 0.452335 0.619097
O O15 0.217573 0.559246 0.034150
O O16 0.906303 0.653453 0.355806
O O17 0.500000 0.000000 0.000000
#
# Coordination Sequence:
#
# PCOD9085340 Si02
#       8
#     2   2   2   2   2   2   2   2
#     4  10  19  35  60  84 111 154 194 238 284 358
#     4  10  19  38  61  83 117 159 195 237 293 360
#     4  11  21  39  58  88 118 154 202 248 288 350
#     4  10  21  38  60  84 121 157 195 247 293 350
#     4   9  22  38  58  83 117 157 201 236 301 350
#     4  10  21  36  56  91 118 144 189 249 295 346
#     4   8  19  36  59  82 115 160 193 227 298 360
#     4  10  19  35  60  90 111 154 203 236 291 350
#
# _framework density 26.633960999999999
#
# number of rings (size 3 to 8) (size 9 to 14) (size 15 to 20)
#    0.750    1.750    1.250    2.625    0.000    3.000 
#    4.500    0.000    0.000    4.500    0.000    0.000 
#    0.000    0.000    0.000    0.000    0.000    0.000 
#
# Total GULP energy -89125.601234 kJ/mol
# GULP energy per Si atom -5570.350077 kJ/mol
# Density = 2.657334 g / cm^3
# Si number density = 26.633961 Si / 1000 Ang^3
#
#
#
# Elastic Constant Matrix: (Units=GPa)
#
#
# Indices 1 2 3 4 5 6 
#
# 1 108.8717 50.6318 24.4426 -0.9190 -1.8390 -14.8498
# 2 50.6318 126.8114 41.1032 -36.6147 5.2153 -15.3294
# 3 24.4426 41.1032 148.9418 -26.7712 -18.1387 -1.5663
# 4 -0.9190 -36.6147 -26.7712 46.7797 -0.8190 2.6120
# 5 -1.8390 5.2153 -18.1387 -0.8190 38.8016 -5.0907
# 6 -14.8498 -15.3294 -1.5663 2.6120 -5.0907 45.7256
#
#
#
# Elastic Compliance Matrix: (Units=1/GPa)
#
#
# Indices 1 2 3 4 5 6 
#
# 1 0.012467 -0.005805 -0.001213 -0.005112 0.001020 0.002467
# 2 -0.005805 0.013780 -0.001360 0.009749 -0.002311 0.001874
# 3 -0.001213 -0.001360 0.008481 0.003855 0.004129 -0.000320
# 4 -0.005112 0.009749 0.003855 0.031125 0.000915 0.000064
# 5 0.001020 -0.002311 0.004129 0.000915 0.028450 0.002813
# 6 0.002467 0.001874 -0.000320 0.000064 0.002813 0.023598
#
#
# Mechanical properties :
#
#
# Convention : Reuss Voigt Hill
#
# Bulk Modulus (GPa) = 55.63598 68.55335 62.09466
# Shear Modulus (GPa) = 35.54980 44.15786 39.85383
#
# Velocity S-wave (km/s) = 3.65739 4.07621 3.87247
# Velocity P-wave (km/s) = 6.22654 6.92452 6.58479
#
# Compressibility (1/GPa) = 0.01797398
#
# Stress axis : x y z
#
# Youngs Moduli (GPa) = 80.20880 72.56665 117.91250
#
# Poissons Ratio (x) = 0.42122 0.14302
# Poissons Ratio (y) = 0.46558 0.16035
# Poissons Ratio (z) = 0.09729 0.09869
#
# Static dielectric constant tensor:
#      x y z
#    x 2.458480 0.067320 -0.044110 
#    y 0.067320 2.227740 0.053790 
#    z -0.044110 0.053790 2.087160 
# 
# From -- ./inp_files/278254.got.cif
#   From: 2010.05.17/outbox.cif.g08.bks.cpg/sg2_140_cif.got.tgz:278254.got - 2010.06.03 11:33:40.
