data_PCOD9085843
_publ_section_title
;
Structure prediction by ZEFSAII (Michael W. Deem and Ramdas Pophale) SiO2 
 PCOD9085843
Probable space group: P -1
;
_chemical_formula_sum "Si O2"
_cell_formula_units_Z 16
_cell_length_a 10.640335
_cell_length_b 12.435615
_cell_length_c 11.326270
_cell_angle_alpha 130.082454
_cell_angle_beta 95.924267
_cell_angle_gamma 122.501849
_cell_volume 694.285596
_symmetry_space_group_name_H-M "P -1"
_symmetry_group_IT_number 2
_symmetry_cell_setting 'triclinic'
loop_
_space_group_symop_operation_xyz
x,y,z
-x,-y,-z
loop_
_atom_site_type_symbol
_atom_site_label
_atom_site_fract_x
_atom_site_fract_y
_atom_site_fract_z
Si Si1 0.957319 0.298232 0.340768
Si Si2 0.849217 0.856891 0.514893
Si Si3 0.321654 0.695372 0.213381
Si Si4 0.621444 0.449052 0.341829
Si Si5 0.480702 0.104815 0.887095
Si Si6 0.741316 0.665678 0.124400
Si Si7 0.275145 0.951485 0.355598
Si Si8 0.302795 0.994590 0.116255
O O1 0.000000 0.500000 0.500000
O O2 0.166076 0.405100 0.470918
O O3 0.764902 0.095142 0.264738
O O4 0.878224 0.191915 0.126844
O O5 0.672342 0.648701 0.439947
O O6 0.822523 0.730847 0.312490
O O7 0.795400 0.964496 0.537741
O O8 0.088506 0.079072 0.737164
O O9 0.440896 0.814001 0.182035
O O10 0.192448 0.726955 0.231949
O O11 0.481692 0.840889 0.440336
O O12 0.234540 0.461734 0.029106
O O13 0.430302 0.243631 0.262927
O O14 0.581694 0.309259 0.128016
O O15 0.545803 0.008426 0.873687
O O16 0.500000 0.500000 0.000000
O O17 0.232832 0.935161 0.202036
#
# Coordination Sequence:
#
# PCOD9085843 Si02
#       8
#     2   2   2   2   2   2   2   2
#     4  11  19  34  61  93 123 163 214 265 309 366
#     4  11  25  40  65  96 129 167 214 260 320 382
#     4  10  21  42  70  92 125 173 207 261 328 368
#     4  11  21  36  61  94 122 168 208 261 315 363
#     4  10  19  35  63  94 124 155 210 269 311 365
#     4  11  23  42  66  95 127 162 213 270 313 374
#     4  10  23  44  63  94 131 171 213 252 320 394
#     4  10  21  39  59  89 132 164 207 261 311 373
#
# _framework density 23.045273000000002
#
# number of rings (size 3 to 8) (size 9 to 14) (size 15 to 20)
#    0.000    1.500    5.000    0.750    1.750    1.000 
#    2.250    0.625    0.000    0.000    0.000    0.000 
#    0.000    0.000    0.000    0.000    0.000    0.000 
#
# Total GULP energy -89302.048817 kJ/mol
# GULP energy per Si atom -5581.378051 kJ/mol
# Density = 2.299282 g / cm^3
# Si number density = 23.045273 Si / 1000 Ang^3
#
#
#
# Elastic Constant Matrix: (Units=GPa)
#
#
# Indices 1 2 3 4 5 6 
#
# 1 56.8605 9.8128 25.6513 12.3251 -5.5264 -17.7237
# 2 9.8128 62.2419 30.5192 12.2961 3.2361 -4.2611
# 3 25.6513 30.5192 142.0143 21.1282 9.4215 -6.8642
# 4 12.3251 12.2961 21.1282 34.0703 -1.6095 -11.8034
# 5 -5.5264 3.2361 9.4215 -1.6095 31.7526 2.3076
# 6 -17.7237 -4.2611 -6.8642 -11.8034 2.3076 18.9149
#
#
#
# Elastic Compliance Matrix: (Units=1/GPa)
#
#
# Indices 1 2 3 4 5 6 
#
# 1 0.027256 -0.001222 -0.004031 0.001720 0.004383 0.024341
# 2 -0.001222 0.018708 -0.003036 -0.004787 -0.001400 -0.000849
# 3 -0.004031 -0.003036 0.009120 -0.004486 -0.003066 -0.003576
# 4 0.001720 -0.004787 -0.004486 0.041938 0.002443 0.024778
# 5 0.004383 -0.001400 -0.003066 0.002443 0.033423 0.000126
# 6 0.024341 -0.000849 -0.003576 0.024778 0.000126 0.089634
#
#
# Mechanical properties :
#
#
# Convention : Reuss Voigt Hill
#
# Bulk Modulus (GPa) = 25.96904 43.67591 34.82247
# Shear Modulus (GPa) = 20.04080 29.95645 24.99863
#
# Velocity S-wave (km/s) = 2.95214 3.60932 3.29714
# Velocity P-wave (km/s) = 4.78679 6.03017 5.44409
#
# Compressibility (1/GPa) = 0.03850739
#
# Stress axis : x y z
#
# Youngs Moduli (GPa) = 36.68865 53.45342 109.65128
#
# Poissons Ratio (x) = 0.06532 0.44198
# Poissons Ratio (y) = 0.04484 0.33285
# Poissons Ratio (z) = 0.14788 0.16226
#
# Static dielectric constant tensor:
#      x y z
#    x 1.917830 -0.015930 0.014630 
#    y -0.015930 1.982170 0.032380 
#    z 0.014630 0.032380 1.888650 
# 
# From -- ./inp_files/428935.got.cif
#   From: 2010.05.17/outbox.cif.g08.bks.cpg/sg2_215_cif.got.tgz:428935.got - 2010.06.03 11:33:40.
