data_PCOD9085473
_publ_section_title
;
Structure prediction by ZEFSAII (Michael W. Deem and Ramdas Pophale) SiO2 
 PCOD9085473
Probable space group: P -1
;
_chemical_formula_sum "Si O2"
_cell_formula_units_Z 16
_cell_length_a 14.282604
_cell_length_b 12.728994
_cell_length_c 8.966986
_cell_angle_alpha 137.362514
_cell_angle_beta 40.015475
_cell_angle_gamma 137.050538
_cell_volume 654.708331
_symmetry_space_group_name_H-M "P -1"
_symmetry_group_IT_number 2
_symmetry_cell_setting 'triclinic'
loop_
_space_group_symop_operation_xyz
x,y,z
-x,-y,-z
loop_
_atom_site_type_symbol
_atom_site_label
_atom_site_fract_x
_atom_site_fract_y
_atom_site_fract_z
Si Si1 0.479170 0.888672 0.057873
Si Si2 0.086232 0.381168 0.322113
Si Si3 0.306070 0.632728 0.538878
Si Si4 0.236630 0.977448 0.966663
Si Si5 0.638579 0.901402 0.386333
Si Si6 0.874635 0.309051 0.767257
Si Si7 0.878595 0.618014 0.234882
Si Si8 0.874757 0.837824 0.227561
O O1 0.311717 0.740822 0.072519
O O2 0.650890 0.902976 0.917434
O O3 0.434903 0.963894 0.341111
O O4 0.500000 0.000000 0.000000
O O5 0.240814 0.504813 0.347755
O O6 0.000000 0.500000 0.500000
O O7 0.960383 0.270514 0.481274
O O8 0.115278 0.273965 0.043820
O O9 0.251102 0.792703 0.763783
O O10 0.495085 0.721933 0.393774
O O11 0.238095 0.514661 0.643918
O O12 0.291222 0.060752 0.824033
O O13 0.053949 0.949354 0.168572
O O14 0.761700 0.922051 0.390588
O O15 0.960772 0.261597 0.751590
O O16 0.933326 0.508881 0.936165
O O17 0.803944 0.719386 0.331568
#
# Coordination Sequence:
#
# PCOD9085473 Si02
#       8
#     2   2   2   2   2   2   2   2
#     4  11  22  39  64  89 114 159 209 247 283 360
#     4  11  20  34  63  91 113 153 205 251 285 358
#     4  10  21  40  61  91 115 156 210 247 298 347
#     4  11  22  40  63  86 124 160 204 246 291 361
#     4  11  26  40  59  88 130 163 191 247 307 358
#     4  10  19  35  60  94 112 149 207 251 291 341
#     4  10  20  37  64  88 124 152 193 259 301 350
#     4  12  23  40  60  91 125 160 196 246 313 352
#
# _framework density 24.438364
#
# number of rings (size 3 to 8) (size 9 to 14) (size 15 to 20)
#    0.000    1.250    2.500    6.375    1.750    1.000 
#    0.000    5.000    0.000    0.000    0.000    0.000 
#    0.000    0.000    0.000    0.000    0.000    0.000 
#
# Total GULP energy -89349.129120 kJ/mol
# GULP energy per Si atom -5584.320570 kJ/mol
# Density = 2.438274 g / cm^3
# Si number density = 24.438364 Si / 1000 Ang^3
#
#
#
# Elastic Constant Matrix: (Units=GPa)
#
#
# Indices 1 2 3 4 5 6 
#
# 1 161.1435 76.7223 3.9067 -25.0436 -0.5519 10.8411
# 2 76.7223 119.9187 21.5207 -38.9044 -5.8000 21.7360
# 3 3.9067 21.5207 51.5269 -4.4709 5.3620 -2.5364
# 4 -25.0436 -38.9044 -4.4709 32.9028 0.7853 3.8857
# 5 -0.5519 -5.8000 5.3620 0.7853 32.0136 -4.1766
# 6 10.8411 21.7360 -2.5364 3.8857 -4.1766 53.9057
#
#
#
# Elastic Compliance Matrix: (Units=1/GPa)
#
#
# Indices 1 2 3 4 5 6 
#
# 1 0.009183 -0.006767 0.002244 -0.000788 -0.001301 0.000943
# 2 -0.006767 0.023355 -0.008157 0.022423 0.003656 -0.009773
# 3 0.002244 -0.008157 0.022870 -0.005184 -0.004630 0.003929
# 4 -0.000788 0.022423 -0.005184 0.057107 0.001807 -0.013104
# 5 -0.001301 0.003656 -0.004630 0.001807 0.032735 0.000976
# 6 0.000943 -0.009773 0.003929 -0.013104 0.000976 0.023507
#
#
# Mechanical properties :
#
#
# Convention : Reuss Voigt Hill
#
# Bulk Modulus (GPa) = 33.28223 59.65426 46.46825
# Shear Modulus (GPa) = 24.49374 39.12703 31.81039
#
# Velocity S-wave (km/s) = 3.16929 4.00565 3.61176
# Velocity P-wave (km/s) = 5.20009 6.77176 6.03729
#
# Compressibility (1/GPa) = 0.03004606
#
# Stress axis : x y z
#
# Youngs Moduli (GPa) = 108.89880 42.81672 43.72601
#
# Poissons Ratio (x) = 0.28975 -0.09810
# Poissons Ratio (y) = 0.73693 0.35669
# Poissons Ratio (z) = -0.24433 0.34927
#
# Static dielectric constant tensor:
#      x y z
#    x 2.153120 -0.189960 -0.043730 
#    y -0.189960 2.374590 -0.003790 
#    z -0.043730 -0.003790 1.967660 
# 
# From -- ./inp_files/262979.got.cif
#   From: 2010.05.17/outbox.cif.g08.bks.cpg/sg2_132_cif.got.tgz:262979.got - 2010.06.03 11:33:40.
