data_PCOD9085943
_publ_section_title
;
Structure prediction by ZEFSAII (Michael W. Deem and Ramdas Pophale) SiO2 
 PCOD9085943
Probable space group: P -1
;
_chemical_formula_sum "Si O2"
_cell_formula_units_Z 16
_cell_length_a 9.565298
_cell_length_b 11.962108
_cell_length_c 16.984092
_cell_angle_alpha 22.258879
_cell_angle_beta 119.250688
_cell_angle_gamma 106.968294
_cell_volume 561.568792
_symmetry_space_group_name_H-M "P -1"
_symmetry_group_IT_number 2
_symmetry_cell_setting 'triclinic'
loop_
_space_group_symop_operation_xyz
x,y,z
-x,-y,-z
loop_
_atom_site_type_symbol
_atom_site_label
_atom_site_fract_x
_atom_site_fract_y
_atom_site_fract_z
Si Si1 0.295247 0.834041 0.468299
Si Si2 0.744077 0.083934 0.772283
Si Si3 0.624959 0.795420 0.348905
Si Si4 0.321910 0.558511 0.095300
Si Si5 0.285919 0.599702 0.885367
Si Si6 0.824524 0.331471 0.850473
Si Si7 0.856262 0.640934 0.296466
Si Si8 0.945142 0.232880 0.438463
O O1 0.289201 0.979490 0.286000
O O2 0.289614 0.491192 0.662649
O O3 0.129139 0.976630 0.392688
O O4 0.479392 0.717005 0.642011
O O5 0.702891 0.466478 0.529675
O O6 0.593727 0.057270 0.801905
O O7 0.961694 0.856028 0.990323
O O8 0.034888 0.540779 0.635206
O O9 0.696672 0.634085 0.560853
O O10 0.278131 0.463695 0.059744
O O11 0.193254 0.590944 0.111951
O O12 0.332049 0.907055 0.858259
O O13 0.205600 0.565890 0.801221
O O14 0.500000 0.500000 0.000000
O O15 0.132321 0.992743 0.602379
O O16 0.770179 0.038524 0.015848
O O17 0.000000 0.500000 0.500000
#
# Coordination Sequence:
#
# PCOD9085943 Si02
#       8
#     2   2   2   2   2   2   2   2
#     4  10  20  39  65  96 131 185 225 275 343 412
#     4  11  23  43  60  96 149 180 221 287 339 415
#     4  11  28  42  60 106 145 183 233 285 343 419
#     4  12  25  43  74 100 138 192 237 283 349 414
#     4  11  20  41  64  98 133 173 238 295 339 400
#     4  12  24  45  69  99 147 188 227 281 351 421
#     4  10  19  35  65 103 132 179 229 271 342 425
#     4   9  22  36  62 104 132 172 239 287 336 416
#
# _framework density 28.491610000000001
#
# number of rings (size 3 to 8) (size 9 to 14) (size 15 to 20)
#    0.750    0.500    3.750    2.625    5.250    1.000 
#    4.500    0.000    0.000    3.000    0.000    7.000 
#    0.000    0.000    0.000    0.000    0.000    0.000 
#
# Total GULP energy -89612.935441 kJ/mol
# GULP energy per Si atom -5600.808465 kJ/mol
# Density = 2.842676 g / cm^3
# Si number density = 28.491610 Si / 1000 Ang^3
#
#
#
# Elastic Constant Matrix: (Units=GPa)
#
#
# Indices 1 2 3 4 5 6 
#
# 1 95.0088 41.9385 33.7094 -1.5714 9.1202 -45.1217
# 2 41.9385 209.2143 68.4734 41.0699 9.2124 -18.1863
# 3 33.7094 68.4734 166.0352 37.2164 6.2277 -20.5960
# 4 -1.5714 41.0699 37.2164 56.3529 -13.1023 6.8440
# 5 9.1202 9.2124 6.2277 -13.1023 53.2460 6.3894
# 6 -45.1217 -18.1863 -20.5960 6.8440 6.3894 45.2211
#
#
#
# Elastic Compliance Matrix: (Units=1/GPa)
#
#
# Indices 1 2 3 4 5 6 
#
# 1 0.023372 -0.001721 -0.000239 -0.002506 -0.007163 0.023911
# 2 -0.001721 0.006648 -0.001025 -0.004895 -0.002124 0.001530
# 3 -0.000239 -0.001025 0.008535 -0.006108 -0.002830 0.004561
# 4 -0.002506 -0.004895 -0.006108 0.029397 0.010812 -0.013227
# 5 -0.007163 -0.002124 -0.002830 0.010812 0.025103 -0.014474
# 6 0.023911 0.001530 0.004561 -0.013227 -0.014474 0.052711
#
#
# Mechanical properties :
#
#
# Convention : Reuss Voigt Hill
#
# Bulk Modulus (GPa) = 30.68993 84.27789 57.48391
# Shear Modulus (GPa) = 30.75044 52.70644 41.72844
#
# Velocity S-wave (km/s) = 3.28880 4.30570 3.83114
# Velocity P-wave (km/s) = 5.02161 7.37312 6.30791
#
# Compressibility (1/GPa) = 0.03258398
#
# Stress axis : x y z
#
# Youngs Moduli (GPa) = 42.78675 150.42291 117.16089
#
# Poissons Ratio (x) = 0.25889 0.02800
# Poissons Ratio (y) = 0.07364 0.12014
# Poissons Ratio (z) = 0.01022 0.15425
#
# Static dielectric constant tensor:
#      x y z
#    x 2.342900 0.056750 -0.112270 
#    y 0.056750 2.238050 -0.052740 
#    z -0.112270 -0.052740 2.224320 
# 
# From -- ./inp_files/561714.got.cif
#   From: 2010.05.17/outbox.cif.g08.bks.cpg/sg2_281_cif.got.tgz:561714.got - 2010.06.03 11:33:40.
