data_PCOD9085234
_publ_section_title
;
Structure prediction by ZEFSAII (Michael W. Deem and Ramdas Pophale) SiO2 
 PCOD9085234
Probable space group: P -1
;
_chemical_formula_sum "Si O2"
_cell_formula_units_Z 16
_cell_length_a 20.108782
_cell_length_b 14.460703
_cell_length_c 11.156154
_cell_angle_alpha 27.663295
_cell_angle_beta 32.248719
_cell_angle_gamma 30.952444
_cell_volume 722.442683
_symmetry_space_group_name_H-M "P -1"
_symmetry_group_IT_number 2
_symmetry_cell_setting 'triclinic'
loop_
_space_group_symop_operation_xyz
x,y,z
-x,-y,-z
loop_
_atom_site_type_symbol
_atom_site_label
_atom_site_fract_x
_atom_site_fract_y
_atom_site_fract_z
Si Si1 0.605813 0.285496 0.431113
Si Si2 0.685422 0.871760 0.622180
Si Si3 0.604275 0.050064 0.950548
Si Si4 0.089867 0.360627 0.634842
Si Si5 0.687914 0.528573 0.396795
Si Si6 0.909101 0.877602 0.735240
Si Si7 0.177838 0.575554 0.941323
Si Si8 0.093850 0.560412 0.639833
O O1 0.574020 0.184463 0.717953
O O2 0.458995 0.476992 0.391623
O O3 0.723544 0.356253 0.207710
O O4 0.661477 0.101798 0.454159
O O5 0.767409 0.816269 0.435891
O O6 0.534740 0.872740 0.848371
O O7 0.777972 0.678085 0.796141
O O8 0.745510 0.037401 0.805344
O O9 0.645249 0.792145 0.156641
O O10 0.112693 0.515651 0.521544
O O11 0.000000 0.500000 0.500000
O O12 0.983257 0.278978 0.950941
O O13 0.783175 0.429089 0.250455
O O14 0.775423 0.441331 0.484761
O O15 0.962325 0.780657 0.631702
O O16 0.924033 0.654588 0.036735
O O17 0.000000 0.000000 0.500000
#
# Coordination Sequence:
#
# PCOD9085234 Si02
#       8
#     2   2   2   2   2   2   2   2
#     4  11  21  33  61  93 116 145 192 246 294 342
#     4  10  21  39  54  81 120 154 196 235 280 342
#     4  10  19  35  59  87 120 147 189 242 294 340
#     4  10  23  40  60  80 117 166 200 232 281 352
#     4  10  19  37  59  88 121 144 188 247 299 342
#     4  10  22  36  61  94 120 146 187 247 305 340
#     4  11  20  34  59  90 115 150 192 237 297 342
#     4  10  22  40  58  84 122 154 195 237 291 349
#
# _framework density 22.147085000000001
#
# number of rings (size 3 to 8) (size 9 to 14) (size 15 to 20)
#    0.000    1.750    2.500    3.375    5.250    0.500 
#    0.000    8.125    0.000    3.750    0.000    0.000 
#    0.000    0.000    0.000    0.000    0.000    0.000 
#
# Total GULP energy -89383.677777 kJ/mol
# GULP energy per Si atom -5586.479861 kJ/mol
# Density = 2.209668 g / cm^3
# Si number density = 22.147085 Si / 1000 Ang^3
#
#
#
# Elastic Constant Matrix: (Units=GPa)
#
#
# Indices 1 2 3 4 5 6 
#
# 1 150.3295 56.5030 34.4129 35.4666 -26.1776 12.3097
# 2 56.5030 150.9970 53.4446 49.3286 -9.7494 13.3361
# 3 34.4129 53.4446 49.9227 24.7093 -20.4722 6.1798
# 4 35.4666 49.3286 24.7093 45.5545 -10.2697 4.7526
# 5 -26.1776 -9.7494 -20.4722 -10.2697 35.1056 11.6933
# 6 12.3097 13.3361 6.1798 4.7526 11.6933 33.9829
#
#
#
# Elastic Compliance Matrix: (Units=1/GPa)
#
#
# Indices 1 2 3 4 5 6 
#
# 1 0.009848 -0.001772 0.001005 -0.003930 0.008044 -0.005273
# 2 -0.001772 0.014128 -0.013026 -0.008827 -0.008068 0.001477
# 3 0.001005 -0.013026 0.049578 -0.005666 0.028850 -0.013403
# 4 -0.003930 -0.008827 -0.005666 0.038269 0.002621 -0.000336
# 5 0.008044 -0.008068 0.028850 0.002621 0.058302 -0.025422
# 6 -0.005273 0.001477 -0.013403 -0.000336 -0.025422 0.041989
#
#
# Mechanical properties :
#
#
# Convention : Reuss Voigt Hill
#
# Bulk Modulus (GPa) = 21.75425 71.10782 46.43104
# Shear Modulus (GPa) = 19.60611 36.72118 28.16365
#
# Velocity S-wave (km/s) = 2.97857 4.07634 3.56991
# Velocity P-wave (km/s) = 4.65544 7.37104 6.16463
#
# Compressibility (1/GPa) = 0.04596803
#
# Stress axis : x y z
#
# Youngs Moduli (GPa) = 101.54773 70.77892 20.17021
#
# Poissons Ratio (x) = 0.12540 -0.02027
# Poissons Ratio (y) = 0.17992 0.26274
# Poissons Ratio (z) = -0.10206 0.92199
#
# Static dielectric constant tensor:
#      x y z
#    x 1.859210 -0.033560 -0.018660 
#    y -0.033560 1.879000 -0.009860 
#    z -0.018660 -0.009860 1.885270 
# 
# From -- ./inp_files/427643.got.cif
#   From: 2010.05.17/outbox.cif.g08.bks.cpg/sg2_214_cif.got.tgz:427643.got - 2010.06.03 11:33:40.
