data_PCOD9085585
_publ_section_title
;
Structure prediction by ZEFSAII (Michael W. Deem and Ramdas Pophale) SiO2 
 PCOD9085585
Probable space group: P -1
;
_chemical_formula_sum "Si O2"
_cell_formula_units_Z 14
_cell_length_a 15.412975
_cell_length_b 5.450478
_cell_length_c 24.966868
_cell_angle_alpha 102.955191
_cell_angle_beta 17.073973
_cell_angle_gamma 106.405062
_cell_volume 582.885387
_symmetry_space_group_name_H-M "P -1"
_symmetry_group_IT_number 2
_symmetry_cell_setting 'triclinic'
loop_
_space_group_symop_operation_xyz
x,y,z
-x,-y,-z
loop_
_atom_site_type_symbol
_atom_site_label
_atom_site_fract_x
_atom_site_fract_y
_atom_site_fract_z
Si Si1 0.687629 0.861510 0.114199
Si Si2 0.844262 0.466265 0.791360
Si Si3 0.620118 0.038488 0.491314
Si Si4 0.782982 0.401560 0.243432
Si Si5 0.255208 0.286805 0.808071
Si Si6 0.757996 0.227150 0.939614
Si Si7 0.597248 0.314082 0.826692
O O1 0.633099 0.745116 0.199947
O O2 0.401066 0.791544 0.240203
O O3 0.941211 0.740654 0.928909
O O4 0.891984 0.153144 0.013165
O O5 0.878882 0.383656 0.705346
O O6 0.068821 0.742276 0.684222
O O7 0.500000 0.500000 0.000000
O O8 0.847185 0.255868 0.825739
O O9 0.435955 0.156697 0.651482
O O10 0.500000 0.000000 0.500000
O O11 0.527036 0.743377 0.553118
O O12 0.711074 0.438630 0.225910
O O13 0.944910 0.654772 0.194096
O O14 0.529862 0.423044 0.089413
O O15 0.613425 0.940440 0.032051
#
# Coordination Sequence:
#
# PCOD9085585 Si02
#       7
#     2   2   2   2   2   2   2
#     4   9  19  35  61  88 122 158 213 251 306 374
#     4  10  22  40  61  85 124 169 209 252 314 380
#     4  11  23  40  57  91 129 158 206 262 317 369
#     4  10  19  35  61  89 127 159 205 256 319 364
#     4  10  20  36  58  90 121 164 202 259 314 364
#     4  10  19  36  60  91 122 161 205 259 307 371
#     4  10  20  37  60  91 120 159 213 257 304 369
#
# _framework density 24.018446000000001
#
# number of rings (size 3 to 8) (size 9 to 14) (size 15 to 20)
#    0.000    2.000    2.857    0.857    2.000    0.571 
#   10.286    0.714    0.000    0.857    0.000    0.000 
#    0.000    0.000    0.000    0.000    0.000    0.000 
#
# Total GULP energy -77994.093510 kJ/mol
# GULP energy per Si atom -5571.006679 kJ/mol
# Density = 2.396378 g / cm^3
# Si number density = 24.018446 Si / 1000 Ang^3
#
#
#
# Elastic Constant Matrix: (Units=GPa)
#
#
# Indices 1 2 3 4 5 6 
#
# 1 219.3288 15.9364 36.6097 -37.1547 13.5140 10.9636
# 2 15.9364 63.6216 20.4209 -24.5691 -1.0467 -2.2037
# 3 36.6097 20.4209 56.6810 -27.7668 -10.0691 7.0550
# 4 -37.1547 -24.5691 -27.7668 43.3243 4.2898 6.6085
# 5 13.5140 -1.0467 -10.0691 4.2898 24.4529 -15.9248
# 6 10.9636 -2.2037 7.0550 6.6085 -15.9248 38.5715
#
#
#
# Elastic Compliance Matrix: (Units=1/GPa)
#
#
# Indices 1 2 3 4 5 6 
#
# 1 0.007229 0.001524 -0.002503 0.007698 -0.011152 -0.007433
# 2 0.001524 0.020816 -0.003150 0.012056 -0.005254 -0.002902
# 3 -0.002503 -0.003150 0.029640 0.014867 0.008209 -0.004048
# 4 0.007698 0.012056 0.014867 0.051383 -0.020668 -0.021555
# 5 -0.011152 -0.005254 0.008209 -0.020668 0.078012 0.037117
# 6 -0.007433 -0.002902 -0.004048 -0.021555 0.037117 0.047631
#
#
# Mechanical properties :
#
#
# Convention : Reuss Voigt Hill
#
# Bulk Modulus (GPa) = 20.23207 53.95173 37.09190
# Shear Modulus (GPa) = 19.27194 39.04737 29.15966
#
# Velocity S-wave (km/s) = 2.83571 4.03640 3.48811
# Velocity P-wave (km/s) = 4.37761 6.65092 5.63020
#
# Compressibility (1/GPa) = 0.04942648
#
# Stress axis : x y z
#
# Youngs Moduli (GPa) = 138.32920 48.04010 33.73832
#
# Poissons Ratio (x) = -0.07323 0.08446
# Poissons Ratio (y) = -0.21088 0.10628
# Poissons Ratio (z) = 0.34630 0.15134
#
# Static dielectric constant tensor:
#      x y z
#    x 2.021550 0.026640 -0.009700 
#    y 0.026640 2.145820 0.035820 
#    z -0.009700 0.035820 1.919920 
# 
# From -- ./inp_files/65416.got.cif
#   From: 2010.05.17/outbox.cif.g08.bks.cpg/sg2_33_cif.got.tgz:65416.got - 2010.06.03 11:33:40.
