data_PCOD9085076
_publ_section_title
;
Structure prediction by ZEFSAII (Michael W. Deem and Ramdas Pophale) SiO2 
 PCOD9085076
Probable space group: P -1
;
_chemical_formula_sum "Si O2"
_cell_formula_units_Z 16
_cell_length_a 16.225840
_cell_length_b 8.071796
_cell_length_c 9.060786
_cell_angle_alpha 61.548082
_cell_angle_beta 107.153219
_cell_angle_gamma 62.060013
_cell_volume 686.685474
_symmetry_space_group_name_H-M "P -1"
_symmetry_group_IT_number 2
_symmetry_cell_setting 'triclinic'
loop_
_space_group_symop_operation_xyz
x,y,z
-x,-y,-z
loop_
_atom_site_type_symbol
_atom_site_label
_atom_site_fract_x
_atom_site_fract_y
_atom_site_fract_z
Si Si1 0.555758 0.181103 0.508303
Si Si2 0.852589 0.767309 0.575994
Si Si3 0.087336 0.561472 0.680415
Si Si4 0.210514 0.716616 0.597940
Si Si5 0.313212 0.012410 0.862522
Si Si6 0.177932 0.448081 0.105731
Si Si7 0.560481 0.629265 0.318083
Si Si8 0.680714 0.442465 0.949983
O O1 0.570860 0.384107 0.426373
O O2 0.487092 0.241289 0.600471
O O3 0.459912 0.278315 0.286520
O O4 0.690486 0.872936 0.701844
O O5 0.892859 0.538250 0.803449
O O6 0.957319 0.657886 0.557553
O O7 0.824625 0.008029 0.542360
O O8 0.729966 0.894610 0.368174
O O9 0.093505 0.760654 0.529336
O O10 0.209468 0.269876 0.802049
O O11 0.106489 0.541162 0.875020
O O12 0.305532 0.510748 0.606082
O O13 0.284433 0.578135 0.852147
O O14 0.451417 0.855233 0.048718
O O15 0.308996 0.794070 0.976158
O O16 0.221196 0.594683 0.079273
#
# Coordination Sequence:
#
# PCOD9085076 Si02
#       8
#     2   2   2   2   2   2   2   2
#     4  10  19  35  58  88 123 149 185 233 298 346
#     4  11  23  39  63  84 116 155 199 238 282 338
#     4  11  23  42  58  85 118 158 195 237 282 343
#     4  10  22  39  62  88 115 150 197 239 289 339
#     4  10  22  40  59  84 120 152 190 241 290 340
#     4  11  21  39  58  88 114 156 195 235 285 344
#     4  10  20  36  61  90 117 151 185 241 294 347
#     4   9  22  36  58  86 120 150 188 239 289 346
#
# _framework density 23.300331
#
# number of rings (size 3 to 8) (size 9 to 14) (size 15 to 20)
#    0.000    1.750    2.500    1.500    1.750    3.000 
#    0.000    0.625    0.000    0.000    0.000    0.000 
#    0.000    0.000    0.000    0.000    0.000    0.000 
#
# Total GULP energy -89494.706736 kJ/mol
# GULP energy per Si atom -5593.419171 kJ/mol
# Density = 2.324730 g / cm^3
# Si number density = 23.300331 Si / 1000 Ang^3
#
#
#
# Elastic Constant Matrix: (Units=GPa)
#
#
# Indices 1 2 3 4 5 6 
#
# 1 100.3697 14.7765 10.8098 13.1845 -16.3263 -18.7281
# 2 14.7765 55.3546 -10.5197 -10.8351 -2.0087 -11.3144
# 3 10.8098 -10.5197 52.4755 -0.1380 -1.6045 5.3002
# 4 13.1845 -10.8351 -0.1380 16.7068 -7.4399 5.0907
# 5 -16.3263 -2.0087 -1.6045 -7.4399 26.1150 -2.4801
# 6 -18.7281 -11.3144 5.3002 5.0907 -2.4801 30.3765
#
#
#
# Elastic Compliance Matrix: (Units=1/GPa)
#
#
# Indices 1 2 3 4 5 6 
#
# 1 0.017666 -0.006898 -0.006235 -0.019956 0.005701 0.013220
# 2 -0.006898 0.026381 0.006869 0.024748 0.005252 0.000656
# 3 -0.006235 0.006869 0.022498 0.012093 0.000776 -0.007175
# 4 -0.019956 0.024748 0.012093 0.106548 0.018479 -0.021543
# 5 0.005701 0.005252 0.000776 0.018479 0.048158 0.006170
# 6 0.013220 0.000656 -0.007175 -0.021543 0.006170 0.046681
#
#
# Mechanical properties :
#
#
# Convention : Reuss Voigt Hill
#
# Bulk Modulus (GPa) = 18.51298 26.48147 22.49722
# Shear Modulus (GPa) = 16.75233 27.51521 22.13377
#
# Velocity S-wave (km/s) = 2.68428 3.44014 3.08544
# Velocity P-wave (km/s) = 4.19163 5.21242 4.72965
#
# Compressibility (1/GPa) = 0.05401616
#
# Stress axis : x y z
#
# Youngs Moduli (GPa) = 56.60728 37.90614 44.44815
#
# Poissons Ratio (x) = 0.26147 0.27715
# Poissons Ratio (y) = 0.39047 -0.30531
# Poissons Ratio (z) = 0.35296 -0.26037
#
# Static dielectric constant tensor:
#      x y z
#    x 1.930620 0.020630 -0.003320 
#    y 0.020630 1.850510 -0.005120 
#    z -0.003320 -0.005120 1.877380 
# 
# From -- ./inp_files/170228.got.cif
#   From: 2010.05.17/outbox.cif.g08.bks.cpg/sg2_86_cif.got.tgz:170228.got - 2010.06.03 11:33:40.
