data_PCOD9085199
_publ_section_title
;
Structure prediction by ZEFSAII (Michael W. Deem and Ramdas Pophale) SiO2 
 PCOD9085199
Probable space group: P -1
;
_chemical_formula_sum "Si O2"
_cell_formula_units_Z 14
_cell_length_a 9.315082
_cell_length_b 18.253316
_cell_length_c 9.493019
_cell_angle_alpha 134.927496
_cell_angle_beta 129.023418
_cell_angle_gamma 39.381039
_cell_volume 712.350733
_symmetry_space_group_name_H-M "P -1"
_symmetry_group_IT_number 2
_symmetry_cell_setting 'triclinic'
loop_
_space_group_symop_operation_xyz
x,y,z
-x,-y,-z
loop_
_atom_site_type_symbol
_atom_site_label
_atom_site_fract_x
_atom_site_fract_y
_atom_site_fract_z
Si Si1 0.988892 0.220584 0.763844
Si Si2 0.069780 0.942483 0.714025
Si Si3 0.811778 0.236232 0.964811
Si Si4 0.030594 0.615768 0.281165
Si Si5 0.618826 0.638157 0.942379
Si Si6 0.496279 0.892610 0.055776
Si Si7 0.884866 0.849014 0.703858
O O1 0.254734 0.143042 0.874023
O O2 0.944703 0.129959 0.525322
O O3 0.829706 0.279662 0.882155
O O4 0.948712 0.325211 0.769695
O O5 0.023203 0.889901 0.754854
O O6 0.313252 0.920238 0.859009
O O7 0.869124 0.095054 0.787663
O O8 0.583548 0.332097 0.042783
O O9 0.013495 0.202720 0.149378
O O10 0.277039 0.477800 0.263322
O O11 0.930053 0.729821 0.485366
O O12 0.835281 0.594893 0.114843
O O13 0.543083 0.769818 0.000319
O O14 0.366332 0.018247 0.247396
#
# Coordination Sequence:
#
# PCOD9085199 Si02
#       7
#     2   2   2   2   2   2   2
#     4  10  23  35  54  86 117 144 178 228 283 325
#     4  10  19  36  55  87 110 145 185 225 269 342
#     4  11  20  35  56  83 114 142 179 232 279 319
#     4   9  22  37  56  84 106 145 194 221 270 335
#     4  10  19  37  61  77 110 148 185 229 270 323
#     4  10  19  37  61  80 114 144 181 234 271 318
#     4  10  19  35  59  86 104 140 196 225 264 335
#
# _framework density 19.653241000000001
#
# number of rings (size 3 to 8) (size 9 to 14) (size 15 to 20)
#    0.000    2.000    2.857    1.286    2.000    5.143 
#    2.571    0.000    0.000    2.571    0.000    0.000 
#    0.000    0.000    0.000    0.000    0.000    0.000 
#
# Total GULP energy -78027.418129 kJ/mol
# GULP energy per Si atom -5573.387009 kJ/mol
# Density = 1.960851 g / cm^3
# Si number density = 19.653241 Si / 1000 Ang^3
#
#
#
# Elastic Constant Matrix: (Units=GPa)
#
#
# Indices 1 2 3 4 5 6 
#
# 1 17.5943 11.4052 -115.4874 -14.0434 52.5996 -11.2056
# 2 11.4052 60.2615 -37.0121 20.3855 20.5903 -19.7069
# 3 -115.4874 -37.0121-1476.1387 -149.9881 657.3225 50.2572
# 4 -14.0434 20.3855 -149.9881 14.3917 70.2735 -0.5055
# 5 52.5996 20.5903 657.3225 70.2735 -254.2571 -25.7954
# 6 -11.2056 -19.7069 50.2572 -0.5055 -25.7954 25.9880
#
#
#
# Elastic Compliance Matrix: (Units=1/GPa)
#
#
# Indices 1 2 3 4 5 6 
#
# 1 0.062665 -0.013153 -0.005677 0.020995 0.000128 0.028560
# 2 -0.013153 0.034589 0.003484 -0.026668 0.000333 0.013632
# 3 -0.005677 0.003484 0.005934 -0.008019 0.012166 0.000639
# 4 0.020995 -0.026668 -0.008019 0.057952 -0.002804 0.002683
# 5 0.000128 0.000333 0.012166 -0.002804 0.026492 0.003021
# 6 0.028560 0.013632 0.000639 0.002683 0.003021 0.062945
#
#
# Mechanical properties :
#
#
# Convention : Reuss Voigt Hill
#
# Bulk Modulus (GPa) = 13.79386 -186.71904 -86.46259
# Shear Modulus (GPa) = 16.37007 -126.58807 -55.10900
#
# Velocity S-wave (km/s) = 2.88921 -8.03434 -5.30109
# Velocity P-wave (km/s) = 4.26191 13.46404 9.03096
#
# Compressibility (1/GPa) = 0.07249600
#
# Stress axis : x y z
#
# Youngs Moduli (GPa) = 15.95783 28.91074 168.53162
#
# Poissons Ratio (x) = 0.38026 0.95669
# Poissons Ratio (y) = 0.20989 -0.58711
# Poissons Ratio (z) = 0.09059 -0.10072
#
# Static dielectric constant tensor:
#      x y z
#    x 1.676910 -0.017100 0.017280 
#    y -0.017100 1.758640 0.025220 
#    z 0.017280 0.025220 1.739100 
# 
# From -- ./inp_files/149120.got.cif
#   From: 2010.05.17/outbox.cif.g08.bks.cpg/sg2_75_cif.got.tgz:149120.got - 2010.06.03 11:33:40.
