data_PCOD9085361
_publ_section_title
;
Structure prediction by ZEFSAII (Michael W. Deem and Ramdas Pophale) SiO2 
 PCOD9085361
Probable space group: P -1
;
_chemical_formula_sum "Si O2"
_cell_formula_units_Z 14
_cell_length_a 9.535712
_cell_length_b 15.881840
_cell_length_c 6.657991
_cell_angle_alpha 136.708119
_cell_angle_beta 79.510936
_cell_angle_gamma 122.491055
_cell_volume 543.810907
_symmetry_space_group_name_H-M "P -1"
_symmetry_group_IT_number 2
_symmetry_cell_setting 'triclinic'
loop_
_space_group_symop_operation_xyz
x,y,z
-x,-y,-z
loop_
_atom_site_type_symbol
_atom_site_label
_atom_site_fract_x
_atom_site_fract_y
_atom_site_fract_z
Si Si1 0.398742 0.507997 0.853223
Si Si2 0.016467 0.910073 0.015556
Si Si3 0.189929 0.888000 0.255570
Si Si4 0.920145 0.571704 0.930304
Si Si5 0.356046 0.761330 0.740514
Si Si6 0.623175 0.733248 0.856562
Si Si7 0.207812 0.812614 0.525483
O O1 0.817731 0.418193 0.556755
O O2 0.504871 0.664102 0.968380
O O3 0.371685 0.389514 0.489093
O O4 0.990223 0.723086 0.041028
O O5 0.307724 0.842027 0.048945
O O6 0.074712 0.814140 0.716663
O O7 0.167294 0.988331 0.284044
O O8 0.000000 0.000000 0.000000
O O9 0.253231 0.932083 0.544493
O O10 0.829009 0.841410 0.049466
O O11 0.778622 0.538016 0.074961
O O12 0.500000 0.500000 0.000000
O O13 0.103066 0.651976 0.150765
O O14 0.524139 0.773272 0.795792
O O15 0.364528 0.833245 0.647525
#
# Coordination Sequence:
#
# PCOD9085361 Si02
#       7
#     2   2   2   2   2   2   2
#     4  11  21  35  55  87 130 153 185 238 292 357
#     4  11  23  44  64  81 110 158 211 252 283 333
#     4   9  22  38  58  88 121 153 201 230 285 356
#     4  10  19  35  60  85 126 162 183 224 289 365
#     4  11  21  34  58  93 124 156 182 235 299 361
#     4  11  24  35  58  89 119 155 193 241 301 340
#     4   9  22  38  59  86 122 152 202 229 284 357
#
# _framework density 25.744243999999998
#
# number of rings (size 3 to 8) (size 9 to 14) (size 15 to 20)
#    0.857    0.857    2.857    1.714    4.000    0.571 
#    0.000    2.857    0.000    1.714    0.000    0.000 
#    0.000    0.000    0.000    0.000    0.000    0.000 
#
# Total GULP energy -78093.711763 kJ/mol
# GULP energy per Si atom -5578.122269 kJ/mol
# Density = 2.568565 g / cm^3
# Si number density = 25.744244 Si / 1000 Ang^3
#
#
#
# Elastic Constant Matrix: (Units=GPa)
#
#
# Indices 1 2 3 4 5 6 
#
# 1 138.2390 50.7708 5.8132 -4.6409 1.7113 -26.7182
# 2 50.7708 104.3083 -3.3230 -27.2172 6.2399 -24.5794
# 3 5.8132 -3.3230 82.3931 -5.0429 6.6397 -1.5563
# 4 -4.6409 -27.2172 -5.0429 28.4827 0.7382 1.6682
# 5 1.7113 6.2399 6.6397 0.7382 24.1693 -7.7773
# 6 -26.7182 -24.5794 -1.5563 1.6682 -7.7773 52.3953
#
#
#
# Elastic Compliance Matrix: (Units=1/GPa)
#
#
# Indices 1 2 3 4 5 6 
#
# 1 0.009570 -0.005131 -0.001222 -0.003779 0.002017 0.002857
# 2 -0.005131 0.017793 0.002489 0.016433 -0.003903 0.004702
# 3 -0.001222 0.002489 0.012945 0.004570 -0.004200 0.000160
# 4 -0.003779 0.016433 0.004570 0.050950 -0.005676 0.003453
# 5 0.002017 -0.003903 -0.004200 -0.005676 0.045500 0.006008
# 6 0.002857 0.004702 0.000160 0.003453 0.006008 0.023535
#
#
# Mechanical properties :
#
#
# Convention : Reuss Voigt Hill
#
# Bulk Modulus (GPa) = 30.69421 47.94025 39.31723
# Shear Modulus (GPa) = 27.95177 39.12143 33.53660
#
# Velocity S-wave (km/s) = 3.29864 3.90246 3.61319
# Velocity P-wave (km/s) = 5.14361 6.24241 5.71946
#
# Compressibility (1/GPa) = 0.03257943
#
# Stress axis : x y z
#
# Youngs Moduli (GPa) = 104.49537 56.20265 77.25126
#
# Poissons Ratio (x) = 0.28835 0.09440
# Poissons Ratio (y) = 0.53612 -0.19225
# Poissons Ratio (z) = 0.12770 -0.13987
#
# Static dielectric constant tensor:
#      x y z
#    x 1.911940 -0.045280 0.092840 
#    y -0.045280 2.195530 0.136450 
#    z 0.092840 0.136450 1.994540 
# 
# From -- ./inp_files/204313.got.cif
#   From: 2010.05.17/outbox.cif.g08.bks.cpg/sg2_103_cif.got.tgz:204313.got - 2010.06.03 11:33:40.
