data_PCOD9085115
_publ_section_title
;
Structure prediction by ZEFSAII (Michael W. Deem and Ramdas Pophale) SiO2 
 PCOD9085115
Probable space group: P -1
;
_chemical_formula_sum "Si O2"
_cell_formula_units_Z 16
_cell_length_a 5.008492
_cell_length_b 12.847577
_cell_length_c 15.631946
_cell_angle_alpha 132.563996
_cell_angle_beta 84.799696
_cell_angle_gamma 71.365551
_cell_volume 630.553044
_symmetry_space_group_name_H-M "P -1"
_symmetry_group_IT_number 2
_symmetry_cell_setting 'triclinic'
loop_
_space_group_symop_operation_xyz
x,y,z
-x,-y,-z
loop_
_atom_site_type_symbol
_atom_site_label
_atom_site_fract_x
_atom_site_fract_y
_atom_site_fract_z
Si Si1 0.253811 0.586807 0.682032
Si Si2 0.563958 0.806212 0.101580
Si Si3 0.822225 0.012858 0.268600
Si Si4 0.902675 0.676453 0.395124
Si Si5 0.581683 0.593395 0.120709
Si Si6 0.073142 0.110902 0.621193
Si Si7 0.852585 0.317480 0.435206
Si Si8 0.567360 0.386827 0.143134
O O1 0.242166 0.434427 0.639254
O O2 0.591440 0.499070 0.576920
O O3 0.023904 0.669458 0.654038
O O4 0.230495 0.697367 0.824546
O O5 0.709013 0.921481 0.157718
O O6 0.726270 0.680157 0.108108
O O7 0.197975 0.921289 0.199716
O O8 0.543108 0.713400 0.967156
O O9 0.748257 0.986271 0.352981
O O10 0.708342 0.201850 0.360893
O O11 0.770319 0.807378 0.394340
O O12 0.926930 0.752600 0.526866
O O13 0.251035 0.542720 0.276736
O O14 0.733605 0.458675 0.117006
O O15 0.260867 0.739926 0.251881
O O16 0.500000 0.500000 0.000000
O O17 0.000000 0.000000 0.500000
#
# Coordination Sequence:
#
# PCOD9085115 Si02
#       8
#     2   2   2   2   2   2   2   2
#     4  10  22  37  65  86 117 163 209 267 302 367
#     4  10  23  41  63  89 128 169 206 249 312 377
#     4  11  24  41  63  92 130 168 199 253 316 379
#     4  10  20  37  63  89 121 160 202 266 311 369
#     4   8  17  36  55  84 123 164 199 250 303 373
#     4  10  19  35  58  93 127 158 206 256 316 375
#     4  10  22  41  57  90 122 159 212 251 321 368
#     4   9  20  39  58  91 119 158 217 255 303 364
#
# _framework density 25.374548999999998
#
# number of rings (size 3 to 8) (size 9 to 14) (size 15 to 20)
#    0.000    2.250    1.250    0.375    5.250    0.000 
#    0.000    8.125    0.000    0.000    0.000    0.000 
#    0.000    0.000    0.000    0.000    0.000    0.000 
#
# Total GULP energy -89448.575475 kJ/mol
# GULP energy per Si atom -5590.535967 kJ/mol
# Density = 2.531680 g / cm^3
# Si number density = 25.374549 Si / 1000 Ang^3
#
#
#
# Elastic Constant Matrix: (Units=GPa)
#
#
# Indices 1 2 3 4 5 6 
#
# 1 76.5915 27.1659 29.3348 2.6043 14.5675 10.6950
# 2 27.1659 141.9348 58.3543 -21.9701 25.5838 5.4627
# 3 29.3348 58.3543 159.0710 -16.0167 33.0956 -0.2320
# 4 2.6043 -21.9701 -16.0167 41.8038 0.8323 8.9096
# 5 14.5675 25.5838 33.0956 0.8323 40.5230 7.3191
# 6 10.6950 5.4627 -0.2320 8.9096 7.3191 27.7427
#
#
#
# Elastic Compliance Matrix: (Units=1/GPa)
#
#
# Indices 1 2 3 4 5 6 
#
# 1 0.015543 -0.001917 -0.001939 -0.001706 -0.001932 -0.004573
# 2 -0.001917 0.009701 -0.001962 0.004926 -0.003606 -0.001818
# 3 -0.001939 -0.001962 0.008749 0.002126 -0.005616 0.002006
# 4 -0.001706 0.004926 0.002126 0.029388 -0.003233 -0.008879
# 5 -0.001932 -0.003606 -0.005616 -0.003233 0.033454 -0.006380
# 6 -0.004573 -0.001818 0.002006 -0.008879 -0.006380 0.042718
#
#
# Mechanical properties :
#
#
# Convention : Reuss Voigt Hill
#
# Bulk Modulus (GPa) = 44.72899 67.47859 56.10379
# Shear Modulus (GPa) = 31.51735 39.53006 35.52371
#
# Velocity S-wave (km/s) = 3.52815 3.95126 3.74568
# Velocity P-wave (km/s) = 5.85345 6.88966 6.39258
#
# Compressibility (1/GPa) = 0.02235687
#
# Stress axis : x y z
#
# Youngs Moduli (GPa) = 64.33678 103.07732 114.29569
#
# Poissons Ratio (x) = 0.19763 0.22167
# Poissons Ratio (y) = 0.12336 0.22422
# Poissons Ratio (z) = 0.12478 0.20221
#
# Static dielectric constant tensor:
#      x y z
#    x 2.026110 -0.031270 -0.016150 
#    y -0.031270 2.091680 -0.012530 
#    z -0.016150 -0.012530 1.988900 
# 
# From -- ./inp_files/75533.got.cif
#   From: 2010.05.17/outbox.cif.g08.bks.cpg/sg2_38_cif.got.tgz:75533.got - 2010.06.03 11:33:40.
