data_PCOD9085978
_publ_section_title
;
Structure prediction by ZEFSAII (Michael W. Deem and Ramdas Pophale) SiO2 
 PCOD9085978
Probable space group: P -1
;
_chemical_formula_sum "Si O2"
_cell_formula_units_Z 16
_cell_length_a 17.795533
_cell_length_b 11.422621
_cell_length_c 23.726085
_cell_angle_alpha 150.610405
_cell_angle_beta 159.458765
_cell_angle_gamma 30.932363
_cell_volume 805.537838
_symmetry_space_group_name_H-M "P -1"
_symmetry_group_IT_number 2
_symmetry_cell_setting 'triclinic'
loop_
_space_group_symop_operation_xyz
x,y,z
-x,-y,-z
loop_
_atom_site_type_symbol
_atom_site_label
_atom_site_fract_x
_atom_site_fract_y
_atom_site_fract_z
Si Si1 0.812182 0.047386 0.935143
Si Si2 0.867840 0.051714 0.180909
Si Si3 0.472229 0.452097 0.100509
Si Si4 0.031103 0.755815 0.068796
Si Si5 0.661499 0.565707 0.595503
Si Si6 0.713692 0.744261 0.474929
Si Si7 0.911842 0.694680 0.161218
Si Si8 0.477622 0.283104 0.559180
O O1 0.666494 0.322023 0.939242
O O2 0.682907 0.838578 0.742358
O O3 0.000000 0.000000 0.000000
O O4 0.935414 0.982600 0.054191
O O5 0.631390 0.238254 0.087389
O O6 0.064949 0.183632 0.359847
O O7 0.887212 0.941846 0.211715
O O8 0.900637 0.829225 0.065815
O O9 0.632720 0.564590 0.300440
O O10 0.308021 0.344699 0.979978
O O11 0.289754 0.707804 0.245296
O O12 0.007238 0.521635 0.918777
O O13 0.500000 0.500000 0.500000
O O14 0.574576 0.565518 0.471017
O O15 0.895444 0.369778 0.684465
O O16 0.711312 0.651571 0.498766
O O17 0.523430 0.999093 0.452253
#
# Coordination Sequence:
#
# PCOD9085978 Si02
#       8
#     2   2   2   2   2   2   2   2
#     4  11  21  39  63  89 120 154 203 246 304 358
#     4  11  25  37  61  92 125 157 207 249 304 357
#     4  12  22  41  62  88 124 167 194 251 308 366
#     4  10  21  40  62  92 117 157 206 253 294 352
#     4  11  22  36  61  95 120 152 201 260 296 349
#     4  10  20  36  60  90 118 156 203 252 294 357
#     4  11  23  41  61  88 125 164 200 248 303 360
#     4  10  19  35  66  90 116 154 209 247 299 353
#
# _framework density 19.862504999999999
#
# number of rings (size 3 to 8) (size 9 to 14) (size 15 to 20)
#    0.000    1.250    5.000    2.625    3.500    1.500 
#    0.000    0.000    0.000    0.750    0.000    0.000 
#    0.000    0.000    0.000    0.000    0.000    0.000 
#
# Total GULP energy -89322.823458 kJ/mol
# GULP energy per Si atom -5582.676466 kJ/mol
# Density = 1.981730 g / cm^3
# Si number density = 19.862505 Si / 1000 Ang^3
#
#
#
# Elastic Constant Matrix: (Units=GPa)
#
#
# Indices 1 2 3 4 5 6 
#
# 1 108.9319 44.6739 39.4216 -18.9300 11.5637 33.6065
# 2 44.6739 86.6113 23.5461 -27.3609 14.2978 12.4027
# 3 39.4216 23.5461 65.7931 -12.1987 5.2404 11.0796
# 4 -18.9300 -27.3609 -12.1987 23.1875 6.4809 -5.7724
# 5 11.5637 14.2978 5.2404 6.4809 33.9372 -7.2955
# 6 33.6065 12.4027 11.0796 -5.7724 -7.2955 40.5756
#
#
#
# Elastic Compliance Matrix: (Units=1/GPa)
#
#
# Indices 1 2 3 4 5 6 
#
# 1 0.019025 -0.001357 -0.005871 0.010119 -0.009966 -0.014092
# 2 -0.001357 0.027147 -0.000009 0.034785 -0.018821 -0.005607
# 3 -0.005871 -0.000009 0.020119 0.006404 -0.002356 -0.000141
# 4 0.010119 0.034785 0.006404 0.104153 -0.041878 -0.013475
# 5 -0.009966 -0.018821 -0.002356 -0.041878 0.053073 0.018235
# 6 -0.014092 -0.005607 -0.000141 -0.013475 0.018235 0.039431
#
#
# Mechanical properties :
#
#
# Convention : Reuss Voigt Hill
#
# Bulk Modulus (GPa) = 19.29894 52.95775 36.12834
# Shear Modulus (GPa) = 16.96676 29.78637 23.37656
#
# Velocity S-wave (km/s) = 2.92586 3.87670 3.43435
# Velocity P-wave (km/s) = 4.59908 6.83802 5.82709
#
# Compressibility (1/GPa) = 0.05181632
#
# Stress axis : x y z
#
# Youngs Moduli (GPa) = 52.56212 36.83635 49.70501
#
# Poissons Ratio (x) = 0.05000 0.29180
# Poissons Ratio (y) = 0.07134 0.00047
# Poissons Ratio (z) = 0.30857 0.00035
#
# Static dielectric constant tensor:
#      x y z
#    x 1.731820 0.046800 -0.002560 
#    y 0.046800 1.724070 0.009820 
#    z -0.002560 0.009820 1.735640 
# 
# From -- ./inp_files/613201.got.cif
#   From: 2010.05.17/outbox.cif.g08.bks.cpg/sg2_307_cif.got.tgz:613201.got - 2010.06.03 11:33:40.
