data_PCOD9085794
_publ_section_title
;
Structure prediction by ZEFSAII (Michael W. Deem and Ramdas Pophale) SiO2 
 PCOD9085794
Probable space group: P -1
;
_chemical_formula_sum "Si O2"
_cell_formula_units_Z 16
_cell_length_a 14.363479
_cell_length_b 7.527552
_cell_length_c 10.646836
_cell_angle_alpha 74.452728
_cell_angle_beta 45.839440
_cell_angle_gamma 58.777807
_cell_volume 698.039829
_symmetry_space_group_name_H-M "P -1"
_symmetry_group_IT_number 2
_symmetry_cell_setting 'triclinic'
loop_
_space_group_symop_operation_xyz
x,y,z
-x,-y,-z
loop_
_atom_site_type_symbol
_atom_site_label
_atom_site_fract_x
_atom_site_fract_y
_atom_site_fract_z
Si Si1 0.875038 0.120612 0.795961
Si Si2 0.415948 0.950887 0.696199
Si Si3 0.268535 0.246795 0.994134
Si Si4 0.969277 0.629867 0.279109
Si Si5 0.605603 0.540646 0.016759
Si Si6 0.116572 0.069641 0.926945
Si Si7 0.304034 0.915393 0.223218
Si Si8 0.318109 0.244954 0.326659
O O1 0.706509 0.293771 0.959872
O O2 0.848018 0.069975 0.688830
O O3 0.972481 0.232911 0.718774
O O4 0.912770 0.931638 0.894383
O O5 0.500000 0.000000 0.500000
O O6 0.289933 0.900425 0.770923
O O7 0.545344 0.810691 0.697740
O O8 0.302724 0.161782 0.838098
O O9 0.352292 0.380771 0.911851
O O10 0.106356 0.402335 0.168512
O O11 0.338364 0.043014 0.057734
O O12 0.835241 0.627741 0.479399
O O13 0.918690 0.736221 0.169351
O O14 0.663918 0.631466 0.831260
O O15 0.429203 0.672050 0.154890
O O16 0.000000 0.000000 0.000000
O O17 0.311046 0.039074 0.316829
#
# Coordination Sequence:
#
# PCOD9085794 Si02
#       8
#     2   2   2   2   2   2   2   2
#     4  10  21  36  59  88 121 171 201 235 317 373
#     4  12  21  38  66  92 117 159 209 255 301 364
#     4  10  20  37  60  93 117 158 208 251 306 366
#     4  10  23  39  60  89 127 164 201 255 305 365
#     4  10  19  35  63  88 124 157 203 257 304 365
#     4  10  21  40  62  87 124 167 203 247 308 370
#     4  11  19  35  62  89 122 159 203 258 304 367
#     4  11  21  38  62  93 123 152 210 264 303 347
#
# _framework density 22.921330000000001
#
# number of rings (size 3 to 8) (size 9 to 14) (size 15 to 20)
#    0.000    1.500    5.000    1.125    0.000    5.500 
#    0.000    0.000    0.000   13.500    0.000    0.000 
#    0.000    0.000    0.000    0.000    0.000    0.000 
#
# Total GULP energy -89170.940881 kJ/mol
# GULP energy per Si atom -5573.183805 kJ/mol
# Density = 2.286916 g / cm^3
# Si number density = 22.921330 Si / 1000 Ang^3
#
#
#
# Elastic Constant Matrix: (Units=GPa)
#
#
# Indices 1 2 3 4 5 6 
#
# 1 107.2818 16.5698 22.0574 8.0343 -28.9911 -7.2410
# 2 16.5698 52.5843 5.0588 1.8789 2.2232 -4.4396
# 3 22.0574 5.0588 111.4969 6.3173 -23.1963 -3.7619
# 4 8.0343 1.8789 6.3173 17.5963 -3.3318 -2.8023
# 5 -28.9911 2.2232 -23.1963 -3.3318 29.5882 -0.9668
# 6 -7.2410 -4.4396 -3.7619 -2.8023 -0.9668 34.9148
#
#
#
# Elastic Compliance Matrix: (Units=1/GPa)
#
#
# Indices 1 2 3 4 5 6 
#
# 1 0.014294 -0.004864 0.000704 -0.003073 0.014662 0.002581
# 2 -0.004864 0.021144 -0.001486 -0.000736 -0.007562 0.001251
# 3 0.000704 -0.001486 0.010975 -0.002166 0.009202 0.001221
# 4 -0.003073 -0.000736 -0.002166 0.060140 0.002246 0.003925
# 5 0.014662 -0.007562 0.009202 0.002246 0.056356 0.004811
# 6 0.002581 0.001251 0.001221 0.003925 0.004811 0.029915
#
#
# Mechanical properties :
#
#
# Convention : Reuss Voigt Hill
#
# Bulk Modulus (GPa) = 28.47255 39.85944 34.16599
# Shear Modulus (GPa) = 23.16699 31.59832 27.38265
#
# Velocity S-wave (km/s) = 3.18263 3.71692 3.46010
# Velocity P-wave (km/s) = 5.09454 5.98733 5.55888
#
# Compressibility (1/GPa) = 0.03512155
#
# Stress axis : x y z
#
# Youngs Moduli (GPa) = 69.95891 47.29367 91.11341
#
# Poissons Ratio (x) = 0.23004 -0.06418
# Poissons Ratio (y) = 0.34029 0.13543
# Poissons Ratio (z) = -0.04928 0.07030
#
# Static dielectric constant tensor:
#      x y z
#    x 2.155060 0.061460 -0.073090 
#    y 0.061460 1.892610 -0.012930 
#    z -0.073090 -0.012930 1.832370 
# 
# From -- ./inp_files/176700.got.cif
#   From: 2010.05.17/outbox.cif.g08.bks.cpg/sg2_89_cif.got.tgz:176700.got - 2010.06.03 11:33:40.
