data_PCOD9085834
_publ_section_title
;
Structure prediction by ZEFSAII (Michael W. Deem and Ramdas Pophale) SiO2 
 PCOD9085834
Probable space group: P -1
;
_chemical_formula_sum "Si O2"
_cell_formula_units_Z 16
_cell_length_a 8.374529
_cell_length_b 15.780564
_cell_length_c 5.376852
_cell_angle_alpha 112.061897
_cell_angle_beta 87.407035
_cell_angle_gamma 105.617542
_cell_volume 632.989775
_symmetry_space_group_name_H-M "P -1"
_symmetry_group_IT_number 2
_symmetry_cell_setting 'triclinic'
loop_
_space_group_symop_operation_xyz
x,y,z
-x,-y,-z
loop_
_atom_site_type_symbol
_atom_site_label
_atom_site_fract_x
_atom_site_fract_y
_atom_site_fract_z
Si Si1 0.347413 0.048760 0.554413
Si Si2 0.086793 0.857044 0.368475
Si Si3 0.093085 0.228111 0.220594
Si Si4 0.472468 0.106323 0.110567
Si Si5 0.306217 0.736009 0.042513
Si Si6 0.360633 0.507065 0.212292
Si Si7 0.985072 0.587034 0.761817
Si Si8 0.451071 0.343629 0.300505
O O1 0.394075 0.117016 0.391972
O O2 0.500000 0.000000 0.500000
O O3 0.179368 0.966981 0.442533
O O4 0.352487 0.097926 0.872683
O O5 0.995466 0.835178 0.613408
O O6 0.234800 0.803355 0.300578
O O7 0.969003 0.817898 0.096316
O O8 0.041787 0.327237 0.313511
O O9 0.289698 0.261738 0.291586
O O10 0.635294 0.190140 0.116367
O O11 0.500000 0.000000 0.000000
O O12 0.463224 0.692597 0.980696
O O13 0.155167 0.641536 0.939445
O O14 0.170209 0.459618 0.096600
O O15 0.378331 0.430748 0.333937
O O16 0.409069 0.610811 0.452463
O O17 0.500000 0.500000 0.000000
O O18 0.000000 0.500000 0.500000
#
# Coordination Sequence:
#
# PCOD9085834 Si02
#       8
#     2   2   2   2   2   2   2   2
#     4  10  19  35  63  93 129 163 204 269 326 380
#     4  11  22  41  67 100 125 168 221 268 320 379
#     4  10  25  40  64  92 134 172 211 261 328 395
#     4  10  20  36  60  98 129 164 206 268 328 376
#     4  11  22  38  66  98 129 168 219 279 316 380
#     4  10  22  42  64  85 126 180 216 263 331 391
#     4  10  21  40  61  97 127 164 221 274 316 374
#     4  10  23  43  60  91 131 175 216 265 332 390
#
# _framework density 25.276869999999999
#
# number of rings (size 3 to 8) (size 9 to 14) (size 15 to 20)
#    0.000    1.750    3.750    0.750   10.500    1.000 
#    2.250    3.125    0.000    4.500    0.000    0.000 
#    0.000    0.000    0.000    0.000    0.000    0.000 
#
# Total GULP energy -89306.711731 kJ/mol
# GULP energy per Si atom -5581.669483 kJ/mol
# Density = 2.521934 g / cm^3
# Si number density = 25.276870 Si / 1000 Ang^3
#
#
#
# Elastic Constant Matrix: (Units=GPa)
#
#
# Indices 1 2 3 4 5 6 
#
# 1 74.2946 40.5363 7.9788 2.0550 -0.9871 28.4298
# 2 40.5363 133.0878 38.9049 3.9948 21.8775 31.5938
# 3 7.9788 38.9049 91.7073 -12.5464 22.9614 10.5453
# 4 2.0550 3.9948 -12.5464 49.7564 2.0917 -5.0493
# 5 -0.9871 21.8775 22.9614 2.0917 24.6711 0.0146
# 6 28.4298 31.5938 10.5453 -5.0493 0.0146 54.5221
#
#
#
# Elastic Compliance Matrix: (Units=1/GPa)
#
#
# Indices 1 2 3 4 5 6 
#
# 1 0.018996 -0.004845 -0.000350 -0.001443 0.005508 -0.007165
# 2 -0.004845 0.012116 -0.002242 -0.001396 -0.008731 -0.004188
# 3 -0.000350 -0.002242 0.015990 0.004666 -0.013303 -0.001175
# 4 -0.001443 -0.001396 0.004666 0.021931 -0.005024 0.002691
# 5 0.005508 -0.008731 -0.013303 -0.005024 0.061300 0.004278
# 6 -0.007165 -0.004188 -0.001175 0.002691 0.004278 0.024979
#
#
# Mechanical properties :
#
#
# Convention : Reuss Voigt Hill
#
# Bulk Modulus (GPa) = 31.02852 52.65885 41.84368
# Shear Modulus (GPa) = 27.63526 39.90123 33.76825
#
# Velocity S-wave (km/s) = 3.31010 3.97743 3.65901
# Velocity P-wave (km/s) = 5.18759 6.47853 5.86866
#
# Compressibility (1/GPa) = 0.03222842
#
# Stress axis : x y z
#
# Youngs Moduli (GPa) = 52.64329 82.53472 62.53870
#
# Poissons Ratio (x) = 0.39986 0.02189
# Poissons Ratio (y) = 0.25504 0.14021
# Poissons Ratio (z) = 0.01843 0.18504
#
# Static dielectric constant tensor:
#      x y z
#    x 2.109640 -0.033820 0.032360 
#    y -0.033820 2.011690 -0.004590 
#    z 0.032360 -0.004590 2.074160 
# 
# From -- ./inp_files/48889.got.cif
#   From: 2010.05.17/outbox.cif.g08.bks.cpg/sg2_25_cif.got.tgz:48889.got - 2010.06.03 11:33:40.
