data_PCOD9085743
_publ_section_title
;
Structure prediction by ZEFSAII (Michael W. Deem and Ramdas Pophale) SiO2 
 PCOD9085743
Probable space group: P -1
;
_chemical_formula_sum "Si O2"
_cell_formula_units_Z 15
_cell_length_a 11.985169
_cell_length_b 15.464188
_cell_length_c 14.964231
_cell_angle_alpha 31.888902
_cell_angle_beta 143.040228
_cell_angle_gamma 153.365677
_cell_volume 647.346962
_symmetry_space_group_name_H-M "P -1"
_symmetry_group_IT_number 2
_symmetry_cell_setting 'triclinic'
loop_
_space_group_symop_operation_xyz
x,y,z
-x,-y,-z
loop_
_atom_site_type_symbol
_atom_site_label
_atom_site_fract_x
_atom_site_fract_y
_atom_site_fract_z
Si Si1 0.216013 0.305505 0.689234
Si Si2 0.697179 0.707504 0.726651
Si Si3 0.675388 0.001939 0.545741
Si Si4 0.245117 0.716392 0.182814
Si Si5 0.383627 0.949105 0.236408
Si Si6 0.000000 0.000000 0.000000
Si Si7 0.255348 0.067675 0.772329
Si Si8 0.835430 0.413979 0.059700
O O1 0.443380 0.562727 0.633376
O O2 0.129002 0.160376 0.850933
O O3 0.308404 0.232482 0.737877
O O4 0.959788 0.223230 0.555447
O O5 0.669231 0.797710 0.720860
O O6 0.731988 0.533055 0.911992
O O7 0.974076 0.928362 0.674990
O O8 0.500000 0.000000 0.500000
O O9 0.557953 0.964318 0.406668
O O10 0.516317 0.797218 0.269064
O O11 0.022584 0.480623 0.201802
O O12 0.209433 0.740995 0.241073
O O13 0.244027 0.884721 0.975813
O O14 0.591980 0.155938 0.123906
O O15 0.210078 0.977315 0.149659
O O16 0.000000 0.500000 0.000000
#
# Coordination Sequence:
#
# PCOD9085743 Si02
#       8
#     2   2   2   2   2   1   2   2
#     4  11  21  42  63  94 131 173 218 278 330 399
#     4  10  21  39  66  92 121 177 220 260 334 396
#     4  11  26  44  61  91 143 180 218 274 340 394
#     4  10  19  35  62  94 129 162 213 271 330 384
#     4  12  24  43  64 100 135 172 223 282 331 397
#     4  12  22  40  70  96 132 172 226 284 326 386
#     4   9  18  35  62  93 123 161 209 275 325 381
#     4  11  22  40  71 105 130 170 229 282 329 397
#
# _framework density 23.171502
#
# number of rings (size 3 to 8) (size 9 to 14) (size 15 to 20)
#    0.000    1.333    4.000    3.200    0.000    1.600 
#    2.400   10.000    0.000    8.000    0.000    0.000 
#    0.000    0.000    0.000    0.000    0.000    0.000 
#
# Total GULP energy -83500.751480 kJ/mol
# GULP energy per Si atom -5566.716765 kJ/mol
# Density = 2.311876 g / cm^3
# Si number density = 23.171502 Si / 1000 Ang^3
#
#
#
# Elastic Constant Matrix: (Units=GPa)
#
#
# Indices 1 2 3 4 5 6 
#
# 1 111.9656 45.0640 23.7449 -0.6618 28.3770 0.8782
# 2 45.0640 158.2318 25.1127 33.2887 13.8657 -19.2395
# 3 23.7449 25.1127 64.2561 16.0303 2.5095 0.2425
# 4 -0.6618 33.2887 16.0303 36.3677 0.2403 5.4918
# 5 28.3770 13.8657 2.5095 0.2403 29.9437 9.2022
# 6 0.8782 -19.2395 0.2425 5.4918 9.2022 19.3915
#
#
#
# Elastic Compliance Matrix: (Units=1/GPa)
#
#
# Indices 1 2 3 4 5 6 
#
# 1 0.014357 -0.003563 -0.004913 0.005811 -0.011494 -0.000315
# 2 -0.003563 0.015190 0.000184 -0.017858 -0.011432 0.025713
# 3 -0.004913 0.000184 0.019468 -0.009087 0.002542 0.001529
# 4 0.005811 -0.017858 -0.009087 0.053971 0.015545 -0.040529
# 5 -0.011494 -0.011432 0.002542 0.015545 0.063141 -0.045220
# 6 -0.000315 0.025713 0.001529 -0.040529 -0.045220 0.110012
#
#
# Mechanical properties :
#
#
# Convention : Reuss Voigt Hill
#
# Bulk Modulus (GPa) = 30.83280 58.03295 44.43287
# Shear Modulus (GPa) = 16.47260 33.17604 24.82432
#
# Velocity S-wave (km/s) = 2.66916 3.78797 3.27667
# Velocity P-wave (km/s) = 4.77854 6.65063 5.79074
#
# Compressibility (1/GPa) = 0.03243300
#
# Stress axis : x y z
#
# Youngs Moduli (GPa) = 69.65174 65.83143 51.36609
#
# Poissons Ratio (x) = 0.23455 0.25235
# Poissons Ratio (y) = 0.24816 -0.00947
# Poissons Ratio (z) = 0.34218 -0.01214
#
# Static dielectric constant tensor:
#      x y z
#    x 1.818090 -0.009590 0.014360 
#    y -0.009590 1.891860 0.012510 
#    z 0.014360 0.012510 1.965790 
# 
# From -- ./inp_files/520757.got.cif
#   From: 2010.05.17/outbox.cif.g08.bks.cpg/sg2_261_cif.got.tgz:520757.got - 2010.06.03 11:33:40.
