data_PCOD9085830
_publ_section_title
;
Structure prediction by ZEFSAII (Michael W. Deem and Ramdas Pophale) SiO2 
 PCOD9085830
Probable space group: P -1
;
_chemical_formula_sum "Si O2"
_cell_formula_units_Z 16
_cell_length_a 12.124751
_cell_length_b 11.363647
_cell_length_c 11.849735
_cell_angle_alpha 65.618052
_cell_angle_beta 48.495070
_cell_angle_gamma 34.079618
_cell_volume 648.126161
_symmetry_space_group_name_H-M "P -1"
_symmetry_group_IT_number 2
_symmetry_cell_setting 'triclinic'
loop_
_space_group_symop_operation_xyz
x,y,z
-x,-y,-z
loop_
_atom_site_type_symbol
_atom_site_label
_atom_site_fract_x
_atom_site_fract_y
_atom_site_fract_z
Si Si1 0.267370 0.736944 0.624027
Si Si2 0.974411 0.340499 0.120359
Si Si3 0.978132 0.790035 0.105925
Si Si4 0.430201 0.851955 0.341026
Si Si5 0.805587 0.748263 0.780146
Si Si6 0.714315 0.746407 0.400023
Si Si7 0.282074 0.341826 0.335925
Si Si8 0.367895 0.711488 0.829648
O O1 0.500000 0.500000 0.500000
O O2 0.046978 0.789496 0.764149
O O3 0.236576 0.884980 0.510325
O O4 0.342883 0.718013 0.708747
O O5 0.690575 0.601617 0.218291
O O6 0.823925 0.727769 0.911537
O O7 0.043066 0.275452 0.969862
O O8 0.897987 0.740029 0.270622
O O9 0.802495 0.042744 0.116059
O O10 0.253993 0.660390 0.976885
O O11 0.520394 0.870367 0.380419
O O12 0.294357 0.042166 0.271357
O O13 0.663761 0.751434 0.788982
O O14 0.099250 0.510322 0.644785
O O15 0.585743 0.818087 0.579812
O O16 0.356722 0.438115 0.258862
O O17 0.000000 0.500000 0.500000
#
# Coordination Sequence:
#
# PCOD9085830 Si02
#       8
#     2   2   2   2   2   2   2   2
#     4   9  18  34  64  91 122 160 208 267 317 367
#     4   9  21  41  57  91 132 163 216 256 314 389
#     4  10  22  39  66  90 127 177 207 260 319 381
#     4  10  19  35  63  93 119 170 206 268 323 359
#     4  10  22  36  59  94 126 161 211 265 313 376
#     4  10  21  39  60  94 128 160 218 261 315 379
#     4  10  21  38  62  94 127 163 209 271 313 364
#     4  10  20  39  65  96 121 168 223 251 319 391
#
# _framework density 24.686551000000001
#
# number of rings (size 3 to 8) (size 9 to 14) (size 15 to 20)
#    0.000    2.250    1.250    0.750    3.500    3.500 
#    0.000    9.375    0.000    0.000    0.000    0.000 
#    0.000    0.000    0.000    0.000    0.000    0.000 
#
# Total GULP energy -89305.876512 kJ/mol
# GULP energy per Si atom -5581.617282 kJ/mol
# Density = 2.463036 g / cm^3
# Si number density = 24.686551 Si / 1000 Ang^3
#
#
#
# Elastic Constant Matrix: (Units=GPa)
#
#
# Indices 1 2 3 4 5 6 
#
# 1 154.0961 20.7096 48.9320 0.5358 10.0621 3.5831
# 2 20.7096 82.5563 19.0781 -10.3256 -0.4766 7.1191
# 3 48.9320 19.0781 109.2271 -16.2617 -24.6173 1.5126
# 4 0.5358 -10.3256 -16.2617 23.3941 12.2784 1.6592
# 5 10.0621 -0.4766 -24.6173 12.2784 46.9715 6.7011
# 6 3.5831 7.1191 1.5126 1.6592 6.7011 33.4088
#
#
#
# Elastic Compliance Matrix: (Units=1/GPa)
#
#
# Indices 1 2 3 4 5 6 
#
# 1 0.008410 -0.001346 -0.004708 -0.002097 -0.003800 0.000464
# 2 -0.001346 0.013724 -0.001146 0.006225 -0.001407 -0.002755
# 3 -0.004708 -0.001146 0.013918 0.005701 0.007025 -0.001573
# 4 -0.002097 0.006225 0.005701 0.055238 -0.010659 -0.001965
# 5 -0.003800 -0.001407 0.007025 -0.010659 0.029264 -0.004951
# 6 0.000464 -0.002755 -0.001573 -0.001965 -0.004951 0.031631
#
#
# Mechanical properties :
#
#
# Convention : Reuss Voigt Hill
#
# Bulk Modulus (GPa) = 46.18511 58.14654 52.16582
# Shear Modulus (GPa) = 28.76832 37.89886 33.33359
#
# Velocity S-wave (km/s) = 3.41742 3.92242 3.67859
# Velocity P-wave (km/s) = 5.85840 6.64220 6.26258
#
# Compressibility (1/GPa) = 0.02165200
#
# Stress axis : x y z
#
# Youngs Moduli (GPa) = 118.90789 72.86733 71.84783
#
# Poissons Ratio (x) = 0.09809 0.33823
# Poissons Ratio (y) = 0.16006 0.08235
# Poissons Ratio (z) = 0.55977 0.08352
#
# Static dielectric constant tensor:
#      x y z
#    x 2.033810 -0.030380 -0.024160 
#    y -0.030380 2.078010 0.002520 
#    z -0.024160 0.002520 2.018230 
# 
# From -- ./inp_files/427720.got.cif
#   From: 2010.05.17/outbox.cif.g08.bks.cpg/sg2_214_cif.got.tgz:427720.got - 2010.06.03 11:33:40.
