data_PCOD9085161
_publ_section_title
;
Structure prediction by ZEFSAII (Michael W. Deem and Ramdas Pophale) SiO2 
 PCOD9085161
Probable space group: P -1
;
_chemical_formula_sum "Si O2"
_cell_formula_units_Z 16
_cell_length_a 14.111967
_cell_length_b 5.355163
_cell_length_c 10.944536
_cell_angle_alpha 98.730981
_cell_angle_beta 132.202714
_cell_angle_gamma 78.257868
_cell_volume 599.741195
_symmetry_space_group_name_H-M "P -1"
_symmetry_group_IT_number 2
_symmetry_cell_setting 'triclinic'
loop_
_space_group_symop_operation_xyz
x,y,z
-x,-y,-z
loop_
_atom_site_type_symbol
_atom_site_label
_atom_site_fract_x
_atom_site_fract_y
_atom_site_fract_z
Si Si1 0.601625 0.063045 0.831706
Si Si2 0.995276 0.407862 0.166671
Si Si3 0.830631 0.848798 0.157427
Si Si4 0.709577 0.396005 0.133101
Si Si5 0.208019 0.549235 0.193028
Si Si6 0.388972 0.749512 0.713861
Si Si7 0.192276 0.012874 0.401999
Si Si8 0.583128 0.695320 0.487264
O O1 0.495313 0.940911 0.810390
O O2 0.548735 0.123834 0.653342
O O3 0.737010 0.884073 0.958051
O O4 0.625950 0.323844 0.939257
O O5 0.964759 0.686762 0.221448
O O6 0.102513 0.389517 0.151374
O O7 0.857719 0.365782 0.986830
O O8 0.059494 0.200981 0.301365
O O9 0.766837 0.656258 0.177545
O O10 0.814736 0.137631 0.212227
O O11 0.626351 0.387254 0.182085
O O12 0.192284 0.799762 0.282496
O O13 0.352688 0.409395 0.336724
O O14 0.246552 0.891304 0.565886
O O15 0.420218 0.557108 0.614584
O O16 0.305137 0.173392 0.470410
#
# Coordination Sequence:
#
# PCOD9085161 Si02
#       8
#     2   2   2   2   2   2   2   2
#     4   9  20  34  58  84 118 154 188 240 279 337
#     4  10  20  38  60  81 113 150 189 244 288 353
#     4  10  24  38  55  87 121 154 192 232 290 341
#     4  10  23  38  57  87 118 159 193 232 283 343
#     4   9  19  36  62  87 105 144 198 237 298 336
#     4  10  19  35  59  83 117 148 199 236 279 335
#     4   9  19  33  57  87 109 145 189 248 283 337
#     4   9  18  33  56  87 116 141 191 245 282 335
#
# _framework density 26.678175
#
# number of rings (size 3 to 8) (size 9 to 14) (size 15 to 20)
#    0.750    1.750    0.000    1.500    5.250    1.000 
#    0.000    1.875    0.000    7.500    0.000    0.000 
#    0.000    0.000    0.000    0.000    0.000    0.000 
#
# Total GULP energy -89424.054338 kJ/mol
# GULP energy per Si atom -5589.003396 kJ/mol
# Density = 2.661745 g / cm^3
# Si number density = 26.678175 Si / 1000 Ang^3
#
#
#
# Elastic Constant Matrix: (Units=GPa)
#
#
# Indices 1 2 3 4 5 6 
#
# 1 127.0304 24.6171 33.7057 -10.2387 -3.7336 11.7825
# 2 24.6171 105.5642 31.5600 -39.1837 19.7823 -2.5566
# 3 33.7057 31.5600 106.6361 -43.2753 13.1802 -11.4583
# 4 -10.2387 -39.1837 -43.2753 54.7920 -8.4743 13.6544
# 5 -3.7336 19.7823 13.1802 -8.4743 18.8941 -14.7494
# 6 11.7825 -2.5566 -11.4583 13.6544 -14.7494 44.1340
#
#
#
# Elastic Compliance Matrix: (Units=1/GPa)
#
#
# Indices 1 2 3 4 5 6 
#
# 1 0.009592 -0.003074 -0.003912 -0.002310 0.005999 -0.001035
# 2 -0.003074 0.018529 0.002919 0.013724 -0.023179 -0.009341
# 3 -0.003912 0.002919 0.016130 0.012958 -0.011070 -0.002307
# 4 -0.002310 0.013724 0.012958 0.038469 -0.016471 -0.012630
# 5 0.005999 -0.023179 -0.011070 -0.016471 0.105737 0.034614
# 6 -0.001035 -0.009341 -0.002307 -0.012630 0.034614 0.037270
#
#
# Mechanical properties :
#
#
# Convention : Reuss Voigt Hill
#
# Bulk Modulus (GPa) = 27.68886 57.66624 42.67755
# Shear Modulus (GPa) = 20.33358 40.18723 30.26040
#
# Velocity S-wave (km/s) = 2.76376 3.88541 3.37155
# Velocity P-wave (km/s) = 4.53716 6.46459 5.58466
#
# Compressibility (1/GPa) = 0.03611560
#
# Stress axis : x y z
#
# Youngs Moduli (GPa) = 104.25355 53.97003 61.99784
#
# Poissons Ratio (x) = 0.16589 0.24255
# Poissons Ratio (y) = 0.32046 -0.18095
# Poissons Ratio (z) = 0.40786 -0.15752
#
# Static dielectric constant tensor:
#      x y z
#    x 2.065680 0.018600 0.054300 
#    y 0.018600 2.146970 -0.057800 
#    z 0.054300 -0.057800 2.122470 
# 
# From -- ./inp_files/369821.got.cif
#   From: 2010.05.17/outbox.cif.g08.bks.cpg/sg2_185_cif.got.tgz:369821.got - 2010.06.03 11:33:40.
