data_PCOD9085808
_publ_section_title
;
Structure prediction by ZEFSAII (Michael W. Deem and Ramdas Pophale) SiO2 
 PCOD9085808
Probable space group: P -1
;
_chemical_formula_sum "Si O2"
_cell_formula_units_Z 16
_cell_length_a 14.014464
_cell_length_b 19.298096
_cell_length_c 25.749866
_cell_angle_alpha 160.759755
_cell_angle_beta 21.396890
_cell_angle_gamma 159.308374
_cell_volume 739.290174
_symmetry_space_group_name_H-M "P -1"
_symmetry_group_IT_number 2
_symmetry_cell_setting 'triclinic'
loop_
_space_group_symop_operation_xyz
x,y,z
-x,-y,-z
loop_
_atom_site_type_symbol
_atom_site_label
_atom_site_fract_x
_atom_site_fract_y
_atom_site_fract_z
Si Si1 0.713224 0.481936 0.491869
Si Si2 0.395368 0.197142 0.677949
Si Si3 0.548879 0.273287 0.540690
Si Si4 0.263309 0.029323 0.825426
Si Si5 0.922140 0.254640 0.836143
Si Si6 0.218057 0.407191 0.169581
Si Si7 0.716040 0.035014 0.680704
Si Si8 0.300318 0.055147 0.178746
O O1 0.702289 0.440135 0.530707
O O2 0.528334 0.239281 0.382297
O O3 0.596675 0.667850 0.673518
O O4 0.042076 0.559218 0.360644
O O5 0.573046 0.334603 0.632514
O O6 0.478779 0.401566 0.823395
O O7 0.500000 0.000000 0.500000
O O8 0.044539 0.068853 0.752644
O O9 0.208362 0.209510 0.656639
O O10 0.658587 0.073665 0.337962
O O11 0.559382 0.102701 0.761938
O O12 0.220831 0.261909 0.014746
O O13 0.983185 0.808959 0.840496
O O14 0.792301 0.217116 0.818035
O O15 0.688616 0.050815 0.846458
O O16 0.000000 0.500000 0.000000
O O17 0.000000 0.000000 0.500000
O O18 0.500000 0.000000 0.000000
#
# Coordination Sequence:
#
# PCOD9085808 Si02
#       8
#     2   2   2   2   2   2   2   2
#     4  10  20  40  62  85 127 157 209 256 305 358
#     4  11  22  40  63  87 124 165 202 246 317 361
#     4   9  20  37  60  89 114 162 200 255 294 367
#     4   9  19  35  60  90 119 149 212 251 295 352
#     4  11  22  38  61  92 123 161 205 247 313 376
#     4   9  19  37  58  88 116 160 196 258 294 359
#     4  10  19  35  63  90 118 162 203 248 309 368
#     4  11  25  41  59  91 133 156 203 265 307 360
#
# _framework density 21.642381
#
# number of rings (size 3 to 8) (size 9 to 14) (size 15 to 20)
#    0.000    2.250    3.750    0.750    3.500    2.500 
#    0.000    3.125    0.000    0.000    0.000    0.000 
#    0.000    0.000    0.000    0.000    0.000    0.000 
#
# Total GULP energy -89091.570022 kJ/mol
# GULP energy per Si atom -5568.223126 kJ/mol
# Density = 2.159312 g / cm^3
# Si number density = 21.642381 Si / 1000 Ang^3
#
#
#
# Elastic Constant Matrix: (Units=GPa)
#
#
# Indices 1 2 3 4 5 6 
#
# 1 29.7049 5.3469 -7.0192 3.0480 1.2008 1.9596
# 2 5.3469 27.1904 11.5061 4.4304 2.3188 12.3688
# 3 -7.0192 11.5061 114.3202 10.8108 10.9009 -8.2576
# 4 3.0480 4.4304 10.8108 36.8080 5.9442 -0.8553
# 5 1.2008 2.3188 10.9009 5.9442 20.1516 4.0069
# 6 1.9596 12.3688 -8.2576 -0.8553 4.0069 29.6206
#
#
#
# Elastic Compliance Matrix: (Units=1/GPa)
#
#
# Indices 1 2 3 4 5 6 
#
# 1 0.036496 -0.009559 0.003948 -0.002463 -0.003086 0.003024
# 2 -0.009559 0.053535 -0.007781 -0.004736 0.004926 -0.024695
# 3 0.003948 -0.007781 0.010999 -0.001457 -0.006223 0.006854
# 4 -0.002463 -0.004736 -0.001457 0.029752 -0.008028 0.003680
# 5 -0.003086 0.004926 -0.006223 -0.008028 0.057275 -0.011567
# 6 0.003024 -0.024695 0.006854 0.003680 -0.011567 0.047454
#
#
# Mechanical properties :
#
#
# Convention : Reuss Voigt Hill
#
# Bulk Modulus (GPa) = 13.46837 21.20924 17.33880
# Shear Modulus (GPa) = 17.41902 28.07482 22.74692
#
# Velocity S-wave (km/s) = 2.84008 3.60559 3.24549
# Velocity P-wave (km/s) = 4.12206 5.21104 4.69821
#
# Compressibility (1/GPa) = 0.07424803
#
# Stress axis : x y z
#
# Youngs Moduli (GPa) = 27.40027 18.67935 90.91645
#
# Poissons Ratio (x) = 0.17855 -0.35898
# Poissons Ratio (y) = 0.26192 0.70739
# Poissons Ratio (z) = -0.10819 0.14534
#
# Static dielectric constant tensor:
#      x y z
#    x 1.829100 -0.013450 -0.056800 
#    y -0.013450 1.823570 -0.043260 
#    z -0.056800 -0.043260 1.764840 
# 
# From -- ./inp_files/619880.got.cif
#   From: 2010.05.17/outbox.cif.g08.bks.cpg/sg2_310_cif.got.tgz:619880.got - 2010.06.03 11:33:40.
