data_PCOD9085989
_publ_section_title
;
Structure prediction by ZEFSAII (Michael W. Deem and Ramdas Pophale) SiO2 
 PCOD9085989
Probable space group: P -1
;
_chemical_formula_sum "Si O2"
_cell_formula_units_Z 16
_cell_length_a 7.344410
_cell_length_b 12.960180
_cell_length_c 14.322449
_cell_angle_alpha 121.939213
_cell_angle_beta 41.874126
_cell_angle_gamma 135.541170
_cell_volume 637.341476
_symmetry_space_group_name_H-M "P -1"
_symmetry_group_IT_number 2
_symmetry_cell_setting 'triclinic'
loop_
_space_group_symop_operation_xyz
x,y,z
-x,-y,-z
loop_
_atom_site_type_symbol
_atom_site_label
_atom_site_fract_x
_atom_site_fract_y
_atom_site_fract_z
Si Si1 0.297111 0.782787 0.437467
Si Si2 0.245688 0.763253 0.924615
Si Si3 0.804838 0.571426 0.847083
Si Si4 0.660153 0.651002 0.227634
Si Si5 0.727802 0.203558 0.344035
Si Si6 0.625559 0.468638 0.530714
Si Si7 0.254411 0.058361 0.039558
Si Si8 0.512368 0.076338 0.763459
O O1 0.638067 0.790205 0.317523
O O2 0.293687 0.855900 0.571428
O O3 0.967797 0.618970 0.499867
O O4 0.285389 0.826907 0.356619
O O5 0.968141 0.676375 0.068105
O O6 0.225471 0.903270 0.978434
O O7 0.596860 0.843207 0.877794
O O8 0.125613 0.649810 0.830277
O O9 0.652590 0.441623 0.767974
O O10 0.916821 0.709430 0.802707
O O11 0.500000 0.500000 0.000000
O O12 0.605740 0.576125 0.311958
O O13 0.659660 0.331371 0.437141
O O14 0.464301 0.064008 0.315218
O O15 0.500000 0.500000 0.500000
O O16 0.878550 0.002698 0.144053
O O17 0.521042 0.142056 0.892458
#
# Coordination Sequence:
#
# PCOD9085989 Si02
#       8
#     2   2   2   2   2   2   2   2
#     4  11  21  40  66  90 123 171 209 254 313 389
#     4  10  20  38  62  94 128 166 206 269 312 360
#     4  10  19  35  66  93 119 167 213 253 316 374
#     4  10  19  40  68  90 124 171 207 254 324 377
#     4  11  21  43  62  89 127 164 210 260 308 377
#     4  11  24  41  65  95 124 160 214 268 316 374
#     4  10  22  38  62  93 134 167 208 258 313 379
#     4  11  23  40  65  96 125 172 214 247 319 385
#
# _framework density 25.104282999999999
#
# number of rings (size 3 to 8) (size 9 to 14) (size 15 to 20)
#    0.000    1.500    5.000    1.125    1.750    0.000 
#    2.250    0.625    0.000    3.750    0.000    0.000 
#    0.000    0.000    0.000    0.000    0.000    0.000 
#
# Total GULP energy -89122.937176 kJ/mol
# GULP energy per Si atom -5570.183573 kJ/mol
# Density = 2.504714 g / cm^3
# Si number density = 25.104283 Si / 1000 Ang^3
#
#
#
# Elastic Constant Matrix: (Units=GPa)
#
#
# Indices 1 2 3 4 5 6 
#
# 1 72.0704 25.0672 11.9489 17.2846 23.5839 17.4064
# 2 25.0672 54.9027 14.3543 -2.6959 12.7921 7.9476
# 3 11.9489 14.3543 140.7083 -18.3077 51.8638 -7.7451
# 4 17.2846 -2.6959 -18.3077 33.3496 -0.6123 20.6841
# 5 23.5839 12.7921 51.8638 -0.6123 37.2090 2.4726
# 6 17.4064 7.9476 -7.7451 20.6841 2.4726 41.9743
#
#
#
# Elastic Compliance Matrix: (Units=1/GPa)
#
#
# Indices 1 2 3 4 5 6 
#
# 1 0.025432 -0.008542 0.004309 -0.010828 -0.019257 -0.001664
# 2 -0.008542 0.023980 0.000218 0.009991 -0.002588 -0.005729
# 3 0.004309 0.000218 0.017732 0.007375 -0.027362 -0.000579
# 4 -0.010828 0.009991 0.007375 0.054370 -0.004457 -0.022571
# 5 -0.019257 -0.002588 -0.027362 -0.004457 0.077967 0.001030
# 6 -0.001664 -0.005729 -0.000579 -0.022571 0.001030 0.036554
#
#
# Mechanical properties :
#
#
# Convention : Reuss Voigt Hill
#
# Bulk Modulus (GPa) = 16.91673 41.15802 29.03737
# Shear Modulus (GPa) = 18.95588 36.92732 27.94160
#
# Velocity S-wave (km/s) = 2.75086 3.83947 3.33982
# Velocity P-wave (km/s) = 4.10401 6.00714 5.14435
#
# Compressibility (1/GPa) = 0.05911309
#
# Stress axis : x y z
#
# Youngs Moduli (GPa) = 39.32038 41.70094 56.39601
#
# Poissons Ratio (x) = 0.35623 -0.24302
# Poissons Ratio (y) = 0.33589 -0.01228
# Poissons Ratio (z) = -0.16944 -0.00908
#
# Static dielectric constant tensor:
#      x y z
#    x 2.040280 -0.040000 0.018770 
#    y -0.040000 2.099140 0.064380 
#    z 0.018770 0.064380 2.065530 
# 
# From -- ./inp_files/502979.got.cif
#   From: 2010.05.17/outbox.cif.g08.bks.cpg/sg2_252_cif.got.tgz:502979.got - 2010.06.03 11:33:40.
