data_PCOD9085163
_publ_section_title
;
Structure prediction by ZEFSAII (Michael W. Deem and Ramdas Pophale) SiO2 
 PCOD9085163
Probable space group: P -1
;
_chemical_formula_sum "Si O2"
_cell_formula_units_Z 16
_cell_length_a 6.762444
_cell_length_b 19.385877
_cell_length_c 9.726096
_cell_angle_alpha 138.496909
_cell_angle_beta 102.167851
_cell_angle_gamma 56.296403
_cell_volume 652.606994
_symmetry_space_group_name_H-M "P -1"
_symmetry_group_IT_number 2
_symmetry_cell_setting 'triclinic'
loop_
_space_group_symop_operation_xyz
x,y,z
-x,-y,-z
loop_
_atom_site_type_symbol
_atom_site_label
_atom_site_fract_x
_atom_site_fract_y
_atom_site_fract_z
Si Si1 0.711944 0.042595 0.506569
Si Si2 0.065070 0.235636 0.867575
Si Si3 0.788719 0.500558 0.050242
Si Si4 0.305859 0.990000 0.865679
Si Si5 0.037333 0.266056 0.204855
Si Si6 0.278267 0.453428 0.414094
Si Si7 0.515241 0.325656 0.973573
Si Si8 0.444066 0.281917 0.423557
O O1 0.637091 0.040967 0.334998
O O2 0.525687 0.196928 0.754263
O O3 0.000000 0.000000 0.500000
O O4 0.760661 0.912506 0.387513
O O5 0.811584 0.260848 0.932615
O O6 0.946348 0.356337 0.925874
O O7 0.175823 0.240578 0.037637
O O8 0.579021 0.562841 0.991232
O O9 0.645775 0.613577 0.313396
O O10 0.000000 0.500000 0.000000
O O11 0.317039 0.868554 0.738279
O O12 0.500000 0.000000 0.000000
O O13 0.052423 0.140157 0.055012
O O14 0.768340 0.408904 0.376909
O O15 0.209586 0.275037 0.353603
O O16 0.471421 0.343302 0.385699
O O17 0.000000 0.500000 0.500000
O O18 0.341581 0.400263 0.191008
#
# Coordination Sequence:
#
# PCOD9085163 Si02
#       8
#     2   2   2   2   2   2   2   2
#     4   9  19  39  63  91 129 170 212 259 329 386
#     4  10  22  40  63  91 126 169 209 262 313 388
#     4  12  23  38  61  93 127 162 209 267 319 371
#     4   9  17  33  59  88 116 165 210 266 313 374
#     4   9  18  34  58  84 119 155 207 252 312 358
#     4  10  20  37  59  88 122 164 205 258 311 379
#     4  11  23  40  65  91 127 170 216 253 324 383
#     4  10  19  35  59  83 120 159 203 254 316 366
#
# _framework density 24.517054000000002
#
# number of rings (size 3 to 8) (size 9 to 14) (size 15 to 20)
#    0.000    2.000    2.500    1.875    1.750    0.500 
#    0.000    6.875    0.000    6.750    0.000    0.000 
#    0.000    0.000    0.000    0.000    0.000    0.000 
#
# Total GULP energy -89229.048245 kJ/mol
# GULP energy per Si atom -5576.815515 kJ/mol
# Density = 2.446125 g / cm^3
# Si number density = 24.517054 Si / 1000 Ang^3
#
#
#
# Elastic Constant Matrix: (Units=GPa)
#
#
# Indices 1 2 3 4 5 6 
#
# 1 45.8435 17.3067 23.0417 3.3157 -5.2460 1.7167
# 2 17.3067 222.3844 107.4241 44.2586 0.0793 26.7791
# 3 23.0417 107.4241 210.5809 34.4804 -5.0884 21.5973
# 4 3.3157 44.2586 34.4804 71.3630 -2.8599 10.6931
# 5 -5.2460 0.0793 -5.0884 -2.8599 27.1595 7.8294
# 6 1.7167 26.7791 21.5973 10.6931 7.8294 37.0369
#
#
#
# Elastic Compliance Matrix: (Units=1/GPa)
#
#
# Indices 1 2 3 4 5 6 
#
# 1 0.023677 -0.000937 -0.002091 0.000715 0.004354 -0.000327
# 2 -0.000937 0.006620 -0.002630 -0.002433 -0.000241 -0.002456
# 3 -0.002091 -0.002630 0.006736 -0.001198 0.001274 -0.001853
# 4 0.000715 -0.002433 -0.001198 0.016602 0.002504 -0.002898
# 5 0.004354 -0.000241 0.001274 0.002504 0.041099 -0.010181
# 6 -0.000327 -0.002456 -0.001853 -0.002898 -0.010181 0.032861
#
#
# Mechanical properties :
#
#
# Convention : Reuss Voigt Hill
#
# Bulk Modulus (GPa) = 38.88478 86.03931 62.46205
# Shear Modulus (GPa) = 33.90219 49.18097 41.54158
#
# Velocity S-wave (km/s) = 3.72264 4.48369 4.12077
# Velocity P-wave (km/s) = 5.86277 7.87239 6.94070
#
# Compressibility (1/GPa) = 0.02571700
#
# Stress axis : x y z
#
# Youngs Moduli (GPa) = 42.23538 151.05172 148.45046
#
# Poissons Ratio (x) = 0.14152 0.31041
# Poissons Ratio (y) = 0.03957 0.39046
# Poissons Ratio (z) = 0.08831 0.39730
#
# Static dielectric constant tensor:
#      x y z
#    x 2.113720 -0.025680 0.055850 
#    y -0.025680 2.019530 0.005590 
#    z 0.055850 0.005590 2.044860 
# 
# From -- ./inp_files/218613.got.cif
#   From: 2010.05.17/outbox.cif.g08.bks.cpg/sg2_110_cif.got.tgz:218613.got - 2010.06.03 11:33:40.
