data_PCOD9085480
_publ_section_title
;
Structure prediction by ZEFSAII (Michael W. Deem and Ramdas Pophale) SiO2 
 PCOD9085480
Probable space group: P -1
;
_chemical_formula_sum "Si O2"
_cell_formula_units_Z 16
_cell_length_a 9.059275
_cell_length_b 22.186758
_cell_length_c 13.527399
_cell_angle_alpha 21.058566
_cell_angle_beta 53.845949
_cell_angle_gamma 54.687312
_cell_volume 785.299418
_symmetry_space_group_name_H-M "P -1"
_symmetry_group_IT_number 2
_symmetry_cell_setting 'triclinic'
loop_
_space_group_symop_operation_xyz
x,y,z
-x,-y,-z
loop_
_atom_site_type_symbol
_atom_site_label
_atom_site_fract_x
_atom_site_fract_y
_atom_site_fract_z
Si Si1 0.797210 0.714090 0.164868
Si Si2 0.967678 0.006308 0.385364
Si Si3 0.686332 0.846497 0.214289
Si Si4 0.651242 0.380735 0.686200
Si Si5 0.024166 0.801644 0.278629
Si Si6 0.293568 0.821954 0.410143
Si Si7 0.319340 0.224333 0.106346
Si Si8 0.872504 0.449058 0.214509
O O1 0.684777 0.774711 0.213543
O O2 0.784299 0.513851 0.473389
O O3 0.708408 0.785620 0.986740
O O4 0.986847 0.806583 0.953807
O O5 0.123000 0.881891 0.457184
O O6 0.770414 0.931114 0.568374
O O7 0.000000 0.000000 0.500000
O O8 0.492274 0.831041 0.366204
O O9 0.858833 0.761187 0.334608
O O10 0.713401 0.041346 0.884755
O O11 0.500000 0.500000 0.500000
O O12 0.780046 0.257012 0.756661
O O13 0.527858 0.267722 0.974808
O O14 0.018018 0.694489 0.543929
O O15 0.000000 0.000000 0.000000
O O16 0.285197 0.641603 0.639768
O O17 0.197753 0.393012 0.932747
O O18 0.000000 0.500000 0.000000
#
# Coordination Sequence:
#
# PCOD9085480 Si02
#       8
#     2   2   2   2   2   2   2   2
#     4   9  18  34  57  86 121 160 208 261 319 379
#     4   9  18  32  56  89 120 161 218 263 307 384
#     4  10  22  36  62  94 130 158 220 272 326 379
#     4  10  20  37  65  93 127 166 223 266 324 385
#     4  12  25  41  64 101 135 166 218 286 327 377
#     4  10  20  37  62  93 123 176 215 261 325 405
#     4  10  19  35  60  95 120 166 225 260 315 395
#     4  12  22  39  68  90 131 177 221 259 331 402
#
# _framework density 20.374395
#
# number of rings (size 3 to 8) (size 9 to 14) (size 15 to 20)
#    0.000    1.750    5.000    0.750    1.750    3.500 
#    0.000    0.625    0.000   11.250    0.000    0.000 
#    0.000    0.000    0.000    0.000    0.000    0.000 
#
# Total GULP energy -89138.149039 kJ/mol
# GULP energy per Si atom -5571.134315 kJ/mol
# Density = 2.032802 g / cm^3
# Si number density = 20.374395 Si / 1000 Ang^3
#
#
#
# Elastic Constant Matrix: (Units=GPa)
#
#
# Indices 1 2 3 4 5 6 
#
# 1 54.6464 41.3023 33.0106 6.3279 -8.0714 -10.2488
# 2 41.3023 94.9399 47.4889 8.3921 -2.2429 -5.1795
# 3 33.0106 47.4889 125.7429 12.3507 -35.5670 -11.5839
# 4 6.3279 8.3921 12.3507 39.0221 -4.3907 -10.5209
# 5 -8.0714 -2.2429 -35.5670 -4.3907 35.1321 0.1201
# 6 -10.2488 -5.1795 -11.5839 -10.5209 0.1201 28.2436
#
#
#
# Elastic Compliance Matrix: (Units=1/GPa)
#
#
# Indices 1 2 3 4 5 6 
#
# 1 0.030487 -0.012097 -0.001325 0.000967 0.004982 0.008640
# 2 -0.012097 0.018796 -0.006492 -0.002150 -0.008405 -0.004370
# 3 -0.001325 -0.006492 0.015382 -0.000400 0.014789 0.004426
# 4 0.000967 -0.002150 -0.000400 0.029315 0.003307 0.010699
# 5 0.004982 -0.008405 0.014789 0.003307 0.044432 0.007375
# 6 0.008640 -0.004370 0.004426 0.010699 0.007375 0.043509
#
#
# Mechanical properties :
#
#
# Convention : Reuss Voigt Hill
#
# Bulk Modulus (GPa) = 40.26011 57.65921 48.95966
# Shear Modulus (GPa) = 21.73660 30.71472 26.22566
#
# Velocity S-wave (km/s) = 3.26982 3.88689 3.59163
# Velocity P-wave (km/s) = 5.83598 6.96456 6.42510
#
# Compressibility (1/GPa) = 0.02483848
#
# Stress axis : x y z
#
# Youngs Moduli (GPa) = 32.80103 53.20393 65.00968
#
# Poissons Ratio (x) = 0.64359 0.08613
# Poissons Ratio (y) = 0.39678 0.42202
# Poissons Ratio (z) = 0.04346 0.34538
#
# Static dielectric constant tensor:
#      x y z
#    x 1.805200 0.007450 -0.097190 
#    y 0.007450 1.712770 0.001810 
#    z -0.097190 0.001810 1.794380 
# 
# From -- ./inp_files/508692.got.cif
#   From: 2010.05.17/outbox.cif.g08.bks.cpg/sg2_255_cif.got.tgz:508692.got - 2010.06.03 11:33:40.
