data_PCOD9085615
_publ_section_title
;
Structure prediction by ZEFSAII (Michael W. Deem and Ramdas Pophale) SiO2 
 PCOD9085615
Probable space group: P -1
;
_chemical_formula_sum "Si O2"
_cell_formula_units_Z 12
_cell_length_a 8.844704
_cell_length_b 14.136891
_cell_length_c 13.489517
_cell_angle_alpha 151.676453
_cell_angle_beta 107.754982
_cell_angle_gamma 54.361474
_cell_volume 547.664389
_symmetry_space_group_name_H-M "P -1"
_symmetry_group_IT_number 2
_symmetry_cell_setting 'triclinic'
loop_
_space_group_symop_operation_xyz
x,y,z
-x,-y,-z
loop_
_atom_site_type_symbol
_atom_site_label
_atom_site_fract_x
_atom_site_fract_y
_atom_site_fract_z
Si Si1 0.772955 0.207742 0.587235
Si Si2 0.257970 0.326566 0.912609
Si Si3 0.940371 0.971485 0.183127
Si Si4 0.602625 0.938253 0.095326
Si Si5 0.592829 0.596839 0.175335
Si Si6 0.670449 0.535053 0.581238
O O1 0.830208 0.123849 0.407618
O O2 0.598471 0.209730 0.603723
O O3 0.702037 0.492270 0.861267
O O4 0.000000 0.000000 0.500000
O O5 0.348624 0.121810 0.834413
O O6 0.355113 0.273391 0.772468
O O7 0.000000 0.500000 0.000000
O O8 0.900627 0.211099 0.335213
O O9 0.797165 0.907844 0.059631
O O10 0.185808 0.678878 0.982503
O O11 0.380547 0.258506 0.324006
O O12 0.617141 0.715732 0.834669
O O13 0.500000 0.500000 0.000000
O O14 0.500000 0.500000 0.500000
#
# Coordination Sequence:
#
# PCOD9085615 Si02
#       6
#     2   2   2   2   2   2
#     4  11  20  36  59  88 126 168 200 242 314 369
#     4  11  19  34  58  90 129 157 195 259 301 361
#     4  11  19  37  62  86 124 162 204 254 308 360
#     4  10  19  35  61  93 122 157 213 253 299 370
#     4  10  21  34  59  91 126 167 203 245 310 373
#     4   9  20  35  62  92 115 166 207 253 311 358
#
# _framework density 21.911231000000001
#
# number of rings (size 3 to 8) (size 9 to 14) (size 15 to 20)
#    0.000    1.667    6.667    0.000    0.000    0.000 
#    0.000    3.333   14.667   13.000    0.000    0.000 
#    0.000    0.000    0.000    0.000    0.000    0.000 
#
# Total GULP energy -66827.797596 kJ/mol
# GULP energy per Si atom -5568.983133 kJ/mol
# Density = 2.186136 g / cm^3
# Si number density = 21.911231 Si / 1000 Ang^3
#
#
#
# Elastic Constant Matrix: (Units=GPa)
#
#
# Indices 1 2 3 4 5 6 
#
# 1 98.9483 39.9495 43.3695 9.5854 0.7592 5.3130
# 2 39.9495 140.4205 56.9845 29.7996 5.7868 11.5741
# 3 43.3695 56.9845 85.7458 8.4837 12.0097 4.8270
# 4 9.5854 29.7996 8.4837 49.6297 -1.4541 20.7062
# 5 0.7592 5.7868 12.0097 -1.4541 42.2503 -2.1136
# 6 5.3130 11.5741 4.8270 20.7062 -2.1136 34.7369
#
#
#
# Elastic Compliance Matrix: (Units=1/GPa)
#
#
# Indices 1 2 3 4 5 6 
#
# 1 0.013330 -0.001242 -0.006065 -0.000612 0.001617 -0.000319
# 2 -0.001242 0.011171 -0.006291 -0.005700 0.000122 0.000747
# 3 -0.006065 -0.006291 0.019415 0.001965 -0.004537 -0.001121
# 4 -0.000612 -0.005700 0.001965 0.030132 0.000459 -0.016214
# 5 0.001617 0.000122 -0.004537 0.000459 0.025008 0.001590
# 6 -0.000319 0.000747 -0.001121 -0.016214 0.001590 0.038505
#
#
# Mechanical properties :
#
#
# Convention : Reuss Voigt Hill
#
# Bulk Modulus (GPa) = 59.80716 67.30240 63.55478
# Shear Modulus (GPa) = 29.35495 37.64414 33.49954
#
# Velocity S-wave (km/s) = 3.66419 4.14941 3.91433
# Velocity P-wave (km/s) = 6.72727 7.33072 7.03547
#
# Compressibility (1/GPa) = 0.01672041
#
# Stress axis : x y z
#
# Youngs Moduli (GPa) = 75.01928 89.51945 51.50676
#
# Poissons Ratio (x) = 0.11115 0.31239
# Poissons Ratio (y) = 0.09314 0.32403
# Poissons Ratio (z) = 0.45500 0.56316
#
# Static dielectric constant tensor:
#      x y z
#    x 1.833690 0.029700 0.098680 
#    y 0.029700 1.834190 0.127750 
#    z 0.098680 0.127750 1.665820 
# 
# From -- ./inp_files/313850.got.cif
#   From: 2010.05.17/outbox.cif.g08.bks.cpg/sg2_157_cif.got.tgz:313850.got - 2010.06.03 11:33:40.
