data_PCOD9085973
_publ_section_title
;
Structure prediction by ZEFSAII (Michael W. Deem and Ramdas Pophale) SiO2 
 PCOD9085973
Probable space group: P -1
;
_chemical_formula_sum "Si O2"
_cell_formula_units_Z 12
_cell_length_a 10.141388
_cell_length_b 7.058830
_cell_length_c 16.291360
_cell_angle_alpha 48.599662
_cell_angle_beta 149.430156
_cell_angle_gamma 122.197297
_cell_volume 442.866956
_symmetry_space_group_name_H-M "P -1"
_symmetry_group_IT_number 2
_symmetry_cell_setting 'triclinic'
loop_
_space_group_symop_operation_xyz
x,y,z
-x,-y,-z
loop_
_atom_site_type_symbol
_atom_site_label
_atom_site_fract_x
_atom_site_fract_y
_atom_site_fract_z
Si Si1 0.774219 0.867303 0.653117
Si Si2 0.167349 0.430439 0.402592
Si Si3 0.341901 0.727106 0.798008
Si Si4 0.413303 0.570924 0.231928
Si Si5 0.737348 0.866724 0.218618
Si Si6 0.834613 0.904192 0.008184
O O1 0.770343 0.742505 0.595323
O O2 0.788233 0.636081 0.794092
O O3 0.500000 0.000000 0.500000
O O4 0.992569 0.070287 0.699724
O O5 0.415242 0.439126 0.589558
O O6 0.017650 0.687955 0.213378
O O7 0.066375 0.658943 0.640304
O O8 0.581386 0.811750 0.852273
O O9 0.264856 0.957329 0.752564
O O10 0.500000 0.500000 0.000000
O O11 0.632938 0.596557 0.269465
O O12 0.258225 0.847334 0.061356
O O13 0.500000 0.000000 0.000000
O O14 0.000000 0.000000 0.000000
#
# Coordination Sequence:
#
# PCOD9085973 Si02
#       6
#     2   2   2   2   2   2
#     4  11  25  43  67 104 140 178 229 275 341 415
#     4  10  21  44  68 100 138 168 228 284 332 410
#     4   8  18  36  64  95 126 166 218 275 332 392
#     4  11  24  45  73  99 132 181 224 287 345 389
#     4  10  24  46  66  93 138 183 227 275 339 413
#     4  10  19  35  65  99 128 168 220 273 336 388
#
# _framework density 27.096176
#
# number of rings (size 3 to 8) (size 9 to 14) (size 15 to 20)
#    0.000    2.000    1.667    0.500    0.000   11.333 
#    0.000    6.667    0.000    0.000    0.000    0.000 
#    0.000    0.000    0.000    0.000    0.000    0.000 
#
# Total GULP energy -66899.210216 kJ/mol
# GULP energy per Si atom -5574.934185 kJ/mol
# Density = 2.703450 g / cm^3
# Si number density = 27.096176 Si / 1000 Ang^3
#
#
#
# Elastic Constant Matrix: (Units=GPa)
#
#
# Indices 1 2 3 4 5 6 
#
# 1 252.6614 54.5894 30.8568 6.1360 12.2573 45.1665
# 2 54.5894 84.0560 40.3521 -4.2735 2.8566 15.0899
# 3 30.8568 40.3521 138.7720 -6.7534 5.9837 1.1576
# 4 6.1360 -4.2735 -6.7534 43.4028 7.4487 14.7895
# 5 12.2573 2.8566 5.9837 7.4487 37.1276 -6.2080
# 6 45.1665 15.0899 1.1576 14.7895 -6.2080 61.2237
#
#
#
# Elastic Compliance Matrix: (Units=1/GPa)
#
#
# Indices 1 2 3 4 5 6 
#
# 1 0.005284 -0.002539 -0.000282 0.000579 -0.002227 -0.003633
# 2 -0.002539 0.016053 -0.003938 0.002343 -0.000674 -0.002643
# 3 -0.000282 -0.003938 0.008498 0.000918 -0.001042 0.000691
# 4 0.000579 0.002343 0.000918 0.027475 -0.007438 -0.008414
# 5 -0.002227 -0.000674 -0.001042 -0.007438 0.030505 0.006719
# 6 -0.003633 -0.002643 0.000691 -0.008414 0.006719 0.022366
#
#
# Mechanical properties :
#
#
# Convention : Reuss Voigt Hill
#
# Bulk Modulus (GPa) = 61.28818 80.78734 71.03776
# Shear Modulus (GPa) = 38.71804 51.66357 45.19081
#
# Velocity S-wave (km/s) = 3.78420 4.37128 4.08829
# Velocity P-wave (km/s) = 6.46230 7.44025 6.96845
#
# Compressibility (1/GPa) = 0.01631636
#
# Stress axis : x y z
#
# Youngs Moduli (GPa) = 189.23770 62.29387 117.67788
#
# Poissons Ratio (x) = 0.15817 0.03320
# Poissons Ratio (y) = 0.48048 0.46343
# Poissons Ratio (z) = 0.05340 0.24532
#
# Static dielectric constant tensor:
#      x y z
#    x 2.297680 0.073810 -0.000150 
#    y 0.073810 2.264840 -0.073210 
#    z -0.000150 -0.073210 2.371450 
# 
# From -- ./inp_files/509268.got.cif
#   From: 2010.05.17/outbox.cif.g08.bks.cpg/sg2_255_cif.got.tgz:509268.got - 2010.06.03 11:33:40.
