data_PCOD9085540
_publ_section_title
;
Structure prediction by ZEFSAII (Michael W. Deem and Ramdas Pophale) SiO2 
 PCOD9085540
Probable space group: P -1
;
_chemical_formula_sum "Si O2"
_cell_formula_units_Z 16
_cell_length_a 17.703322
_cell_length_b 15.224053
_cell_length_c 6.012032
_cell_angle_alpha 66.635538
_cell_angle_beta 89.079392
_cell_angle_gamma 40.655999
_cell_volume 852.194662
_symmetry_space_group_name_H-M "P -1"
_symmetry_group_IT_number 2
_symmetry_cell_setting 'triclinic'
loop_
_space_group_symop_operation_xyz
x,y,z
-x,-y,-z
loop_
_atom_site_type_symbol
_atom_site_label
_atom_site_fract_x
_atom_site_fract_y
_atom_site_fract_z
Si Si1 0.837294 0.006540 0.106546
Si Si2 0.857323 0.433681 0.000097
Si Si3 0.240848 0.778675 0.734801
Si Si4 0.112240 0.765948 0.450233
Si Si5 0.900513 0.565286 0.128743
Si Si6 0.317115 0.522778 0.305527
Si Si7 0.071606 0.283118 0.783820
Si Si8 0.579662 0.338111 0.521234
O O1 0.809836 0.074044 0.288096
O O2 0.849212 0.882517 0.176139
O O3 0.714747 0.171168 0.805197
O O4 0.983440 0.898482 0.167371
O O5 0.902145 0.306468 0.302364
O O6 0.817556 0.570298 0.000804
O O7 0.740423 0.508373 0.788881
O O8 0.975688 0.336424 0.921997
O O9 0.137197 0.837284 0.512535
O O10 0.371753 0.669664 0.705011
O O11 0.273681 0.661871 0.027920
O O12 0.242120 0.610677 0.454696
O O13 0.846972 0.716502 0.099166
O O14 0.980734 0.426568 0.456447
O O15 0.000000 0.500000 0.000000
O O16 0.474313 0.362673 0.477633
O O17 0.500000 0.500000 0.500000
#
# Coordination Sequence:
#
# PCOD9085540 Si02
#       8
#     2   2   2   2   2   2   2   2
#     4  12  24  36  59  85 122 150 197 244 287 345
#     4  10  19  35  61  86 120 148 192 238 291 351
#     4  11  24  37  60  77 117 158 202 241 287 341
#     4  11  22  38  57  87 116 152 196 246 294 332
#     4   9  18  34  60  86 123 147 180 236 300 354
#     4  11  22  40  59  80 118 157 203 237 286 344
#     4  10  20  36  56  94 118 148 186 239 299 345
#     4  12  25  42  55  79 118 165 203 239 281 340
#
# _framework density 18.775051999999999
#
# number of rings (size 3 to 8) (size 9 to 14) (size 15 to 20)
#    0.000    1.250    5.000    0.750    1.750    2.000 
#    0.000    0.000    0.000    0.750    0.000   13.125 
#    0.000    0.000    0.000    0.000    0.000    0.000 
#
# Total GULP energy -89265.495412 kJ/mol
# GULP energy per Si atom -5579.093463 kJ/mol
# Density = 1.873232 g / cm^3
# Si number density = 18.775052 Si / 1000 Ang^3
#
#
#
# Elastic Constant Matrix: (Units=GPa)
#
#
# Indices 1 2 3 4 5 6 
#
# 1 124.4231 67.5279 43.4829 5.6590 15.6702 25.7658
# 2 67.5279 83.8221 21.4671 13.2076 -6.2094 31.2517
# 3 43.4829 21.4671 73.5915 2.7933 -2.2980 -1.7184
# 4 5.6590 13.2076 2.7933 28.2533 -6.3460 6.4275
# 5 15.6702 -6.2094 -2.2980 -6.3460 37.7658 15.6777
# 6 25.7658 31.2517 -1.7184 6.4275 15.6777 48.9305
#
#
#
# Elastic Compliance Matrix: (Units=1/GPa)
#
#
# Indices 1 2 3 4 5 6 
#
# 1 0.021296 -0.017956 -0.007708 0.000773 -0.013932 0.004347
# 2 -0.017956 0.035667 0.000554 -0.004060 0.020725 -0.019412
# 3 -0.007708 0.000554 0.018178 -0.000683 0.002814 0.003532
# 4 0.000773 -0.004060 -0.000683 0.040338 0.008132 -0.005742
# 5 -0.013932 0.020725 0.002814 0.008132 0.046203 -0.021674
# 6 0.004347 -0.019412 0.003532 -0.005742 -0.021674 0.038370
#
#
# Mechanical properties :
#
#
# Convention : Reuss Voigt Hill
#
# Bulk Modulus (GPa) = 40.13026 60.75469 50.44248
# Shear Modulus (GPa) = 19.33659 32.94718 26.14189
#
# Velocity S-wave (km/s) = 3.21270 4.19362 3.73550
# Velocity P-wave (km/s) = 5.93149 7.47517 6.74762
#
# Compressibility (1/GPa) = 0.02491885
#
# Stress axis : x y z
#
# Youngs Moduli (GPa) = 46.95811 28.03744 55.01273
#
# Poissons Ratio (x) = 0.50345 0.42403
# Poissons Ratio (y) = 0.84319 -0.03046
# Poissons Ratio (z) = 0.36194 -0.01552
#
# Static dielectric constant tensor:
#      x y z
#    x 1.693690 0.025930 0.019660 
#    y 0.025930 1.650370 0.023610 
#    z 0.019660 0.023610 1.688580 
# 
# From -- ./inp_files/80865.got.cif
#   From: 2010.05.17/outbox.cif.g08.bks.cpg/sg2_41_cif.got.tgz:80865.got - 2010.06.03 11:33:40.
