data_PCOD9085435
_publ_section_title
;
Structure prediction by ZEFSAII (Michael W. Deem and Ramdas Pophale) SiO2 
 PCOD9085435
Probable space group: P -1
;
_chemical_formula_sum "Si O2"
_cell_formula_units_Z 16
_cell_length_a 9.283333
_cell_length_b 11.807041
_cell_length_c 10.859242
_cell_angle_alpha 138.596593
_cell_angle_beta 125.093678
_cell_angle_gamma 68.586400
_cell_volume 639.262375
_symmetry_space_group_name_H-M "P -1"
_symmetry_group_IT_number 2
_symmetry_cell_setting 'triclinic'
loop_
_space_group_symop_operation_xyz
x,y,z
-x,-y,-z
loop_
_atom_site_type_symbol
_atom_site_label
_atom_site_fract_x
_atom_site_fract_y
_atom_site_fract_z
Si Si1 0.797842 0.873502 0.050509
Si Si2 0.106310 0.088643 0.277685
Si Si3 0.346029 0.516993 0.533381
Si Si4 0.212815 0.789878 0.527644
Si Si5 0.570095 0.671628 0.964453
Si Si6 0.430505 0.040336 0.225825
Si Si7 0.150753 0.384145 0.749811
Si Si8 0.985900 0.351877 0.266228
O O1 0.711796 0.711148 0.954003
O O2 0.816190 0.022147 0.286853
O O3 0.996729 0.910178 0.123997
O O4 0.654493 0.920864 0.917320
O O5 0.145191 0.230676 0.520416
O O6 0.970657 0.174044 0.188194
O O7 0.287472 0.062865 0.278415
O O8 0.500000 0.500000 0.500000
O O9 0.267780 0.689107 0.593685
O O10 0.184953 0.367842 0.321335
O O11 0.418464 0.535208 0.721098
O O12 0.028524 0.678741 0.309076
O O13 0.388560 0.825876 0.560197
O O14 0.485277 0.847401 0.093090
O O15 0.674985 0.611656 0.081165
O O16 0.133872 0.567689 0.827237
O O17 0.000000 0.500000 0.500000
#
# Coordination Sequence:
#
# PCOD9085435 Si02
#       8
#     2   2   2   2   2   2   2   2
#     4  10  19  35  60  90 119 153 197 252 293 353
#     4  10  21  36  61  90 122 160 201 237 301 355
#     4  11  20  36  62  85 111 158 206 251 280 349
#     4   9  17  35  57  83 117 153 201 232 300 348
#     4  11  22  38  61  93 122 150 202 249 306 348
#     4  11  19  33  60  93 121 152 200 251 287 361
#     4   9  21  39  59  89 121 166 190 245 302 354
#     4   9  20  39  62  82 117 166 202 234 291 362
#
# _framework density 25.028846999999999
#
# number of rings (size 3 to 8) (size 9 to 14) (size 15 to 20)
#    0.000    2.000    2.500    2.625    0.000    5.000 
#    0.000    5.000    0.000    0.000    0.000    0.000 
#    0.000    0.000    0.000    0.000    0.000    0.000 
#
# Total GULP energy -89503.002915 kJ/mol
# GULP energy per Si atom -5593.937682 kJ/mol
# Density = 2.497188 g / cm^3
# Si number density = 25.028847 Si / 1000 Ang^3
#
#
#
# Elastic Constant Matrix: (Units=GPa)
#
#
# Indices 1 2 3 4 5 6 
#
# 1 151.5029 18.7986 11.2244 2.2742 14.1085 -4.3633
# 2 18.7986 109.7681 51.3053 -23.8436 -3.6926 -9.5515
# 3 11.2244 51.3053 82.4337 -14.1256 9.1165 -2.6052
# 4 2.2742 -23.8436 -14.1256 41.0339 -0.4122 8.5827
# 5 14.1085 -3.6926 9.1165 -0.4122 18.6799 6.2984
# 6 -4.3633 -9.5515 -2.6052 8.5827 6.2984 24.5125
#
#
#
# Elastic Compliance Matrix: (Units=1/GPa)
#
#
# Indices 1 2 3 4 5 6 
#
# 1 0.007665 -0.002182 0.000920 -0.002164 -0.007860 0.003389
# 2 -0.002182 0.015471 -0.009339 0.005956 0.009341 0.000162
# 3 0.000920 -0.009339 0.019377 0.000746 -0.012499 0.001534
# 4 -0.002164 0.005956 0.000746 0.030436 0.006605 -0.010339
# 5 -0.007860 0.009341 -0.012499 0.006605 0.074488 -0.020540
# 6 0.003389 0.000162 0.001534 -0.010339 -0.020540 0.050523
#
#
# Mechanical properties :
#
#
# Convention : Reuss Voigt Hill
#
# Bulk Modulus (GPa) = 46.92569 56.26237 51.59403
# Shear Modulus (GPa) = 22.09788 34.33704 28.21746
#
# Velocity S-wave (km/s) = 2.97458 3.70793 3.36132
# Velocity P-wave (km/s) = 5.53054 6.39214 5.97689
#
# Compressibility (1/GPa) = 0.02131029
#
# Stress axis : x y z
#
# Youngs Moduli (GPa) = 130.45919 64.63728 51.60822
#
# Poissons Ratio (x) = 0.14106 -0.04749
# Poissons Ratio (y) = 0.28471 0.48197
# Poissons Ratio (z) = -0.12004 0.60365
#
# Static dielectric constant tensor:
#      x y z
#    x 2.147430 -0.023700 -0.019300 
#    y -0.023700 1.946060 0.060730 
#    z -0.019300 0.060730 2.030730 
# 
# From -- ./inp_files/256259.got.cif
#   From: 2010.05.17/outbox.cif.g08.bks.cpg/sg2_129_cif.got.tgz:256259.got - 2010.06.03 11:33:40.
