data_PCOD9085601
_publ_section_title
;
Structure prediction by ZEFSAII (Michael W. Deem and Ramdas Pophale) SiO2 
 PCOD9085601
Probable space group: P -1
;
_chemical_formula_sum "Si O2"
_cell_formula_units_Z 12
_cell_length_a 10.194235
_cell_length_b 12.875807
_cell_length_c 10.337995
_cell_angle_alpha 137.628012
_cell_angle_beta 138.118644
_cell_angle_gamma 72.581582
_cell_volume 506.954709
_symmetry_space_group_name_H-M "P -1"
_symmetry_group_IT_number 2
_symmetry_cell_setting 'triclinic'
loop_
_space_group_symop_operation_xyz
x,y,z
-x,-y,-z
loop_
_atom_site_type_symbol
_atom_site_label
_atom_site_fract_x
_atom_site_fract_y
_atom_site_fract_z
Si Si1 0.663431 0.220255 0.825102
Si Si2 0.815976 0.648489 0.028734
Si Si3 0.088564 0.218663 0.242297
Si Si4 0.310206 0.746402 0.434080
Si Si5 0.773272 0.867054 0.983197
Si Si6 0.730346 0.739050 0.316130
O O1 0.698927 0.268606 0.742850
O O2 0.506575 0.271077 0.837111
O O3 0.500000 0.000000 0.500000
O O4 0.896223 0.261982 0.105482
O O5 0.720271 0.626072 0.081876
O O6 0.103371 0.769433 0.349243
O O7 0.748399 0.451952 0.741865
O O8 0.732033 0.754981 0.979903
O O9 0.237755 0.260416 0.260602
O O10 0.209322 0.313940 0.552321
O O11 0.000000 0.000000 0.000000
O O12 0.569330 0.897715 0.819951
O O13 0.039058 0.051489 0.350258
#
# Coordination Sequence:
#
# PCOD9085601 Si02
#       6
#     2   2   2   2   2   2
#     4  12  19  38  66  91 120 162 204 251 307 363
#     4  11  25  42  59  93 129 164 202 253 306 364
#     4  10  19  35  61  92 118 153 201 249 303 358
#     4  11  24  41  65  85 128 172 201 240 318 374
#     4  11  20  40  66  90 119 167 206 250 301 370
#     4  11  23  38  65  98 122 150 215 264 294 350
#
# _framework density 23.670755
#
# number of rings (size 3 to 8) (size 9 to 14) (size 15 to 20)
#    0.000    1.000    6.667    2.000    0.000    2.667 
#    0.000    0.833    0.000    0.000    0.000    0.000 
#    0.000    0.000    0.000    0.000    0.000    0.000 
#
# Total GULP energy -67081.013625 kJ/mol
# GULP energy per Si atom -5590.084469 kJ/mol
# Density = 2.361688 g / cm^3
# Si number density = 23.670755 Si / 1000 Ang^3
#
#
#
# Elastic Constant Matrix: (Units=GPa)
#
#
# Indices 1 2 3 4 5 6 
#
# 1 138.6261 20.9752 35.9598 -27.8117 9.0254 -12.3079
# 2 20.9752 88.9157 37.6703 -20.1652 6.0773 -1.6379
# 3 35.9598 37.6703 60.7795 -22.6879 5.7018 -15.2271
# 4 -27.8117 -20.1652 -22.6879 42.4250 -8.3460 14.6800
# 5 9.0254 6.0773 5.7018 -8.3460 42.8141 -12.8666
# 6 -12.3079 -1.6379 -15.2271 14.6800 -12.8666 29.6036
#
#
#
# Elastic Compliance Matrix: (Units=1/GPa)
#
#
# Indices 1 2 3 4 5 6 
#
# 1 0.009041 0.000690 -0.004406 0.004017 -0.000889 -0.000848
# 2 0.000690 0.016746 -0.010673 0.004912 -0.002485 -0.007792
# 3 -0.004406 -0.010673 0.030125 0.004542 0.002955 0.012105
# 4 0.004017 0.004912 0.004542 0.035645 0.000890 -0.013011
# 5 -0.000889 -0.002485 0.002955 0.000890 0.027432 0.012494
# 6 -0.000848 -0.007792 0.012105 -0.013011 0.012494 0.051105
#
#
# Mechanical properties :
#
#
# Convention : Reuss Voigt Hill
#
# Bulk Modulus (GPa) = 36.85349 53.05910 44.95630
# Shear Modulus (GPa) = 24.04824 35.88294 29.96559
#
# Velocity S-wave (km/s) = 3.19085 3.89770 3.56186
# Velocity P-wave (km/s) = 5.40170 6.53607 5.99577
#
# Compressibility (1/GPa) = 0.02713447
#
# Stress axis : x y z
#
# Youngs Moduli (GPa) = 110.61133 59.71703 33.19455
#
# Poissons Ratio (x) = -0.04121 0.14626
# Poissons Ratio (y) = -0.07634 0.35427
# Poissons Ratio (z) = 0.48737 0.63734
#
# Static dielectric constant tensor:
#      x y z
#    x 1.907270 0.019770 0.016470 
#    y 0.019770 1.856210 0.051490 
#    z 0.016470 0.051490 1.923320 
# 
# From -- ./inp_files/198615.got.cif
#   From: 2010.05.17/outbox.cif.g08.bks.cpg/sg2_100_cif.got.tgz:198615.got - 2010.06.03 11:33:40.
