data_PCOD9085692
_publ_section_title
;
Structure prediction by ZEFSAII (Michael W. Deem and Ramdas Pophale) SiO2 
 PCOD9085692
Probable space group: P -1
;
_chemical_formula_sum "Si O2"
_cell_formula_units_Z 14
_cell_length_a 12.597545
_cell_length_b 7.873688
_cell_length_c 9.016773
_cell_angle_alpha 111.597495
_cell_angle_beta 130.887441
_cell_angle_gamma 50.637978
_cell_volume 521.061774
_symmetry_space_group_name_H-M "P -1"
_symmetry_group_IT_number 2
_symmetry_cell_setting 'triclinic'
loop_
_space_group_symop_operation_xyz
x,y,z
-x,-y,-z
loop_
_atom_site_type_symbol
_atom_site_label
_atom_site_fract_x
_atom_site_fract_y
_atom_site_fract_z
Si Si1 0.659690 0.440062 0.955870
Si Si2 0.081999 0.791936 0.121875
Si Si3 0.137911 0.556027 0.623623
Si Si4 0.232898 0.003015 0.910352
Si Si5 0.819319 0.013628 0.487729
Si Si6 0.602689 0.623709 0.438368
Si Si7 0.513882 0.941635 0.708694
O O1 0.696841 0.561682 0.156610
O O2 0.696347 0.229099 0.017144
O O3 0.796856 0.394094 0.943153
O O4 0.490975 0.497670 0.732857
O O5 0.196737 0.803490 0.357538
O O6 0.927423 0.816547 0.078458
O O7 0.000000 0.000000 0.000000
O O8 0.214270 0.507658 0.513974
O O9 0.000000 0.500000 0.500000
O O10 0.012920 0.813632 0.631267
O O11 0.192484 0.976572 0.696939
O O12 0.367002 0.070229 0.056493
O O13 0.675275 0.978685 0.396588
O O14 0.594612 0.708596 0.623492
O O15 0.500645 0.868231 0.347176
#
# Coordination Sequence:
#
# PCOD9085692 Si02
#       7
#     2   2   2   2   2   2   2
#     4  10  21  39  62  88 116 155 203 236 292 347
#     4  10  19  35  62  90 109 150 203 242 279 343
#     4  12  24  35  60  89 124 150 195 246 297 343
#     4  10  22  35  63  91 118 151 196 248 290 344
#     4  12  21  39  60  92 120 152 195 246 295 342
#     4  10  21  38  60  89 115 158 194 249 283 346
#     4  10  21  37  63  85 118 153 205 235 291 347
#
# _framework density 26.868214999999999
#
# number of rings (size 3 to 8) (size 9 to 14) (size 15 to 20)
#    0.000    1.429    5.714    1.286    4.000    0.000 
#    0.000    0.714    0.000    1.714    0.000    0.000 
#    0.000    0.000    0.000    0.000    0.000    0.000 
#
# Total GULP energy -78254.543499 kJ/mol
# GULP energy per Si atom -5589.610250 kJ/mol
# Density = 2.680706 g / cm^3
# Si number density = 26.868215 Si / 1000 Ang^3
#
#
#
# Elastic Constant Matrix: (Units=GPa)
#
#
# Indices 1 2 3 4 5 6 
#
# 1 73.5003 16.9735 68.1073 1.5147 13.3756 -18.9946
# 2 16.9735 65.0925 32.8084 16.3659 -6.2842 -18.5541
# 3 68.1073 32.8084 171.9585 -1.9259 12.8614 -8.5305
# 4 1.5147 16.3659 -1.9259 33.4716 -2.1753 -9.7467
# 5 13.3756 -6.2842 12.8614 -2.1753 66.1514 -5.6217
# 6 -18.9946 -18.5541 -8.5305 -9.7467 -5.6217 41.4526
#
#
#
# Elastic Compliance Matrix: (Units=1/GPa)
#
#
# Indices 1 2 3 4 5 6 
#
# 1 0.025070 0.000523 -0.009367 0.000727 -0.002355 0.009646
# 2 0.000523 0.022093 -0.004381 -0.008648 0.003209 0.007629
# 3 -0.009367 -0.004381 0.010254 0.002006 -0.000771 -0.003775
# 4 0.000727 -0.008648 0.002006 0.035753 0.000269 0.005318
# 5 -0.002355 0.003209 -0.000771 0.000269 0.016266 0.002468
# 6 0.009646 0.007629 -0.003775 0.005318 0.002468 0.032767
#
#
# Mechanical properties :
#
#
# Convention : Reuss Voigt Hill
#
# Bulk Modulus (GPa) = 32.29069 60.70331 46.49700
# Shear Modulus (GPa) = 27.93696 41.05925 34.49811
#
# Velocity S-wave (km/s) = 3.22806 3.91342 3.58715
# Velocity P-wave (km/s) = 5.09294 6.56216 5.87367
#
# Compressibility (1/GPa) = 0.03096868
#
# Stress axis : x y z
#
# Youngs Moduli (GPa) = 39.88802 45.26320 97.52484
#
# Poissons Ratio (x) = -0.02368 0.91347
# Poissons Ratio (y) = -0.02087 0.42724
# Poissons Ratio (z) = 0.37361 0.19829
#
# Static dielectric constant tensor:
#      x y z
#    x 2.057920 0.119850 -0.002330 
#    y 0.119850 2.254590 -0.029970 
#    z -0.002330 -0.029970 2.106230 
# 
# From -- ./inp_files/263144.got.cif
#   From: 2010.05.17/outbox.cif.g08.bks.cpg/sg2_132_cif.got.tgz:263144.got - 2010.06.03 11:33:40.
