data_PCOD9085950
_publ_section_title
;
Structure prediction by ZEFSAII (Michael W. Deem and Ramdas Pophale) SiO2 
 PCOD9085950
Probable space group: P -1
;
_chemical_formula_sum "Si O2"
_cell_formula_units_Z 16
_cell_length_a 5.245961
_cell_length_b 14.314714
_cell_length_c 13.282174
_cell_angle_alpha 134.393227
_cell_angle_beta 108.832454
_cell_angle_gamma 93.121167
_cell_volume 613.904041
_symmetry_space_group_name_H-M "P -1"
_symmetry_group_IT_number 2
_symmetry_cell_setting 'triclinic'
loop_
_space_group_symop_operation_xyz
x,y,z
-x,-y,-z
loop_
_atom_site_type_symbol
_atom_site_label
_atom_site_fract_x
_atom_site_fract_y
_atom_site_fract_z
Si Si1 0.287085 0.385947 0.257248
Si Si2 0.182555 0.953743 0.368580
Si Si3 0.445265 0.544756 0.869820
Si Si4 0.860126 0.314267 0.914998
Si Si5 0.067617 0.935321 0.066360
Si Si6 0.716827 0.767663 0.338921
Si Si7 0.670867 0.066016 0.178070
Si Si8 0.773464 0.383678 0.457013
O O1 0.502351 0.418445 0.213188
O O2 0.450504 0.353528 0.348496
O O3 0.214160 0.523650 0.371244
O O4 0.020975 0.232779 0.088134
O O5 0.166975 0.846970 0.196813
O O6 0.916286 0.853156 0.333353
O O7 0.500000 0.000000 0.500000
O O8 0.180484 0.108668 0.471093
O O9 0.254904 0.376279 0.736040
O O10 0.285253 0.626599 0.972739
O O11 0.789564 0.591789 0.985965
O O12 0.632224 0.290021 0.775449
O O13 0.412076 0.021367 0.191986
O O14 0.867711 0.978135 0.148516
O O15 0.000000 0.000000 0.000000
O O16 0.820327 0.238295 0.338469
O O17 0.500000 0.000000 0.000000
O O18 0.000000 0.500000 0.500000
#
# Coordination Sequence:
#
# PCOD9085950 Si02
#       8
#     2   2   2   2   2   2   2   2
#     4  11  26  42  62  96 130 171 214 280 332 391
#     4   9  20  38  72  97 130 174 224 257 313 390
#     4  12  27  40  65  98 140 166 220 276 331 383
#     4  11  23  43  67  99 130 179 218 263 325 395
#     4  10  19  38  63  87 116 154 211 253 317 374
#     4  10  21  42  69 101 133 179 218 264 319 398
#     4  10  19  35  65  91 110 151 214 261 303 385
#     4  11  23  41  69  89 125 172 225 266 338 396
#
# _framework density 26.062708000000001
#
# number of rings (size 3 to 8) (size 9 to 14) (size 15 to 20)
#    0.000    1.500    3.750    2.250    7.000    0.000 
#    0.000    2.500    0.000    1.500    0.000    0.000 
#    0.000    0.000    0.000    0.000    0.000    0.000 
#
# Total GULP energy -89425.591226 kJ/mol
# GULP energy per Si atom -5589.099452 kJ/mol
# Density = 2.600339 g / cm^3
# Si number density = 26.062708 Si / 1000 Ang^3
#
#
#
# Elastic Constant Matrix: (Units=GPa)
#
#
# Indices 1 2 3 4 5 6 
#
# 1 136.1856 13.0166 51.9485 36.0947 -6.5656 -12.4591
# 2 13.0166 72.9678 59.0063 39.9050 -6.3251 -7.4430
# 3 51.9485 59.0063 209.6130 48.5582 -30.4885 -3.2322
# 4 36.0947 39.9050 48.5582 54.8401 -10.7469 -1.0787
# 5 -6.5656 -6.3251 -30.4885 -10.7469 56.2389 6.2173
# 6 -12.4591 -7.4430 -3.2322 -1.0787 6.2173 35.3398
#
#
#
# Elastic Compliance Matrix: (Units=1/GPa)
#
#
# Indices 1 2 3 4 5 6 
#
# 1 0.010326 0.004967 -0.002077 -0.008785 -0.001538 0.004499
# 2 0.004967 0.028142 -0.004941 -0.019924 -0.003542 0.007241
# 3 -0.002077 -0.004941 0.007331 -0.000938 0.003184 -0.001691
# 4 -0.008785 -0.019924 -0.000938 0.040122 0.004663 -0.006975
# 5 -0.001538 -0.003542 0.003184 0.004663 0.020310 -0.004428
# 6 0.004499 0.007241 -0.001691 -0.006975 -0.004428 0.031819
#
#
# Mechanical properties :
#
#
# Convention : Reuss Voigt Hill
#
# Bulk Modulus (GPa) = 23.98214 74.07880 49.03047
# Shear Modulus (GPa) = 32.04112 48.93675 40.48893
#
# Velocity S-wave (km/s) = 3.51006 4.33789 3.94575
# Velocity P-wave (km/s) = 5.06449 7.31948 6.29380
#
# Compressibility (1/GPa) = 0.04169769
#
# Stress axis : x y z
#
# Youngs Moduli (GPa) = 96.84156 35.53444 136.41581
#
# Poissons Ratio (x) = -0.17651 0.28328
# Poissons Ratio (y) = -0.48104 0.67403
# Poissons Ratio (z) = 0.20110 0.17558
#
# Static dielectric constant tensor:
#      x y z
#    x 2.021210 0.040810 0.015630 
#    y 0.040810 2.155950 -0.137660 
#    z 0.015630 -0.137660 2.067750 
# 
# From -- ./inp_files/484535.got.cif
#   From: 2010.05.17/outbox.cif.g08.bks.cpg/sg2_243_cif.got.tgz:484535.got - 2010.06.03 11:33:40.
