data_PCOD9085251
_publ_section_title
;
Structure prediction by ZEFSAII (Michael W. Deem and Ramdas Pophale) SiO2 
 PCOD9085251
Probable space group: P -1
;
_chemical_formula_sum "Si O2"
_cell_formula_units_Z 14
_cell_length_a 9.815477
_cell_length_b 7.082091
_cell_length_c 8.146944
_cell_angle_alpha 81.459850
_cell_angle_beta 80.291728
_cell_angle_gamma 81.827745
_cell_volume 548.029278
_symmetry_space_group_name_H-M "P -1"
_symmetry_group_IT_number 2
_symmetry_cell_setting 'triclinic'
loop_
_space_group_symop_operation_xyz
x,y,z
-x,-y,-z
loop_
_atom_site_type_symbol
_atom_site_label
_atom_site_fract_x
_atom_site_fract_y
_atom_site_fract_z
Si Si1 0.870437 0.388254 0.918340
Si Si2 0.581587 0.284226 0.983610
Si Si3 0.546168 0.693319 0.309141
Si Si4 0.044596 0.912908 0.822983
Si Si5 0.814253 0.760608 0.707399
Si Si6 0.492500 0.250617 0.342104
Si Si7 0.857250 0.721906 0.340993
O O1 0.819511 0.612067 0.877453
O O2 0.008681 0.349244 0.786269
O O3 0.738760 0.291009 0.891763
O O4 0.896206 0.303242 0.106738
O O5 0.590405 0.195580 0.174847
O O6 0.500000 0.500000 0.000000
O O7 0.495210 0.202477 0.866790
O O8 0.488766 0.485155 0.332451
O O9 0.480797 0.805878 0.467439
O O10 0.711706 0.663493 0.312028
O O11 0.912175 0.912393 0.731566
O O12 0.147551 0.046031 0.702491
O O13 0.000000 0.000000 0.000000
O O14 0.654860 0.804826 0.683267
O O15 0.876441 0.670432 0.535125
#
# Coordination Sequence:
#
# PCOD9085251 Si02
#       7
#     2   2   2   2   2   2   2
#     4  11  22  39  61 100 117 160 213 258 305 366
#     4  10  19  35  59  88 127 155 199 260 310 357
#     4   9  18  36  59  83 122 158 202 248 306 370
#     4  10  24  39  59  88 131 164 201 253 316 372
#     4  11  20  39  66  91 121 161 213 258 303 366
#     4   9  19  33  60  91 115 160 204 251 313 356
#     4  10  23  40  63  91 128 163 199 257 321 369
#
# _framework density 25.546081999999998
#
# number of rings (size 3 to 8) (size 9 to 14) (size 15 to 20)
#    0.000    2.000    2.857    1.286    4.000    2.286 
#    2.571    0.714    0.000    1.714    0.000    0.000 
#    0.000    0.000    0.000    0.000    0.000    0.000 
#
# Total GULP energy -78171.340411 kJ/mol
# GULP energy per Si atom -5583.667172 kJ/mol
# Density = 2.548794 g / cm^3
# Si number density = 25.546082 Si / 1000 Ang^3
#
#
#
# Elastic Constant Matrix: (Units=GPa)
#
#
# Indices 1 2 3 4 5 6 
#
# 1 144.4447 40.0263 47.3303 12.9792 11.5229 31.5703
# 2 40.0263 68.0158 23.4030 2.0037 16.0167 -0.3635
# 3 47.3303 23.4030 135.8474 12.1338 18.3206 6.4947
# 4 12.9792 2.0037 12.1338 36.4737 8.8205 14.5089
# 5 11.5229 16.0167 18.3206 8.8205 43.4404 7.3359
# 6 31.5703 -0.3635 6.4947 14.5089 7.3359 25.7882
#
#
#
# Elastic Compliance Matrix: (Units=1/GPa)
#
#
# Indices 1 2 3 4 5 6 
#
# 1 0.013776 -0.007931 -0.003256 0.003398 0.003156 -0.018966
# 2 -0.007931 0.021392 -0.000392 -0.001646 -0.007508 0.013172
# 3 -0.003256 -0.000392 0.009006 -0.002732 -0.002925 0.004081
# 4 0.003398 -0.001646 -0.002732 0.037292 -0.002711 -0.023705
# 5 0.003156 -0.007508 -0.002925 -0.002711 0.028387 -0.009783
# 6 -0.018966 0.013172 0.004081 -0.023705 -0.009783 0.077273
#
#
# Mechanical properties :
#
#
# Convention : Reuss Voigt Hill
#
# Bulk Modulus (GPa) = 47.58281 63.31413 55.44847
# Shear Modulus (GPa) = 23.01073 36.97702 29.99388
#
# Velocity S-wave (km/s) = 3.00451 3.80868 3.43024
# Velocity P-wave (km/s) = 5.54101 6.64677 6.11892
#
# Compressibility (1/GPa) = 0.02101599
#
# Stress axis : x y z
#
# Youngs Moduli (GPa) = 72.59111 46.74689 111.03241
#
# Poissons Ratio (x) = 0.37077 0.36148
# Poissons Ratio (y) = 0.57574 0.04353
# Poissons Ratio (z) = 0.23633 0.01833
#
# Static dielectric constant tensor:
#      x y z
#    x 1.998910 -0.035410 -0.016990 
#    y -0.035410 2.171180 -0.065320 
#    z -0.016990 -0.065320 2.062850 
# 
# From -- ./inp_files/154099.got.cif
#   From: 2010.05.17/outbox.cif.g08.bks.cpg/sg2_78_cif.got.tgz:154099.got - 2010.06.03 11:33:40.
