data_PCOD9085056
_publ_section_title
;
Structure prediction by ZEFSAII (Michael W. Deem and Ramdas Pophale) SiO2 
 PCOD9085056
Probable space group: P -1
;
_chemical_formula_sum "Si O2"
_cell_formula_units_Z 12
_cell_length_a 7.196962
_cell_length_b 9.234629
_cell_length_c 15.364328
_cell_angle_alpha 148.102704
_cell_angle_beta 94.594157
_cell_angle_gamma 83.083586
_cell_volume 535.161014
_symmetry_space_group_name_H-M "P -1"
_symmetry_group_IT_number 2
_symmetry_cell_setting 'triclinic'
loop_
_space_group_symop_operation_xyz
x,y,z
-x,-y,-z
loop_
_atom_site_type_symbol
_atom_site_label
_atom_site_fract_x
_atom_site_fract_y
_atom_site_fract_z
Si Si1 0.707005 0.626049 0.106185
Si Si2 0.601413 0.271498 0.082947
Si Si3 0.361512 0.773423 0.410534
Si Si4 0.358973 0.772783 0.612651
Si Si5 0.115583 0.602478 0.168666
Si Si6 0.237952 0.987450 0.891041
O O1 0.654816 0.447928 0.093725
O O2 0.914603 0.710221 0.179496
O O3 0.581334 0.911874 0.229771
O O4 0.737548 0.436391 0.925377
O O5 0.480982 0.485480 0.249492
O O6 0.775581 0.153180 0.087890
O O7 0.457180 0.056650 0.938653
O O8 0.301223 0.756708 0.500465
O O9 0.189233 0.777196 0.338683
O O10 0.500000 0.000000 0.500000
O O11 0.500000 0.500000 0.500000
O O12 0.222330 0.811145 0.712341
O O13 0.116597 0.280642 0.031271
#
# Coordination Sequence:
#
# PCOD9085056 Si02
#       6
#     2   2   2   2   2   2
#     4  10  21  39  60  82 115 155 189 231 283 345
#     4  10  19  35  58  87 107 149 197 229 278 330
#     4  11  21  35  58  88 111 149 192 236 282 339
#     4  11  21  35  58  84 117 146 188 239 285 329
#     4   9  22  39  57  83 117 153 187 232 286 336
#     4   9  20  35  58  83 114 145 190 239 271 334
#
# _framework density 22.423159999999999
#
# number of rings (size 3 to 8) (size 9 to 14) (size 15 to 20)
#    0.000    2.000    3.333    0.000    2.333    3.333 
#    0.000    0.000    0.000    2.000    0.000    0.000 
#    0.000    0.000    0.000    0.000    0.000    0.000 
#
# Total GULP energy -66813.122755 kJ/mol
# GULP energy per Si atom -5567.760230 kJ/mol
# Density = 2.237212 g / cm^3
# Si number density = 22.423160 Si / 1000 Ang^3
#
#
#
# Elastic Constant Matrix: (Units=GPa)
#
#
# Indices 1 2 3 4 5 6 
#
# 1 37.3075 26.5154 35.8072 1.4199 0.0188 -10.4917
# 2 26.5154 171.1464 53.9533 -11.8898 -4.6510 -3.6187
# 3 35.8072 53.9533 97.4233 -22.4002 -1.4869 -5.6743
# 4 1.4199 -11.8898 -22.4002 55.2002 -9.8110 -1.1618
# 5 0.0188 -4.6510 -1.4869 -9.8110 20.5142 -5.8675
# 6 -10.4917 -3.6187 -5.6743 -1.1618 -5.8675 31.6824
#
#
#
# Elastic Compliance Matrix: (Units=1/GPa)
#
#
# Indices 1 2 3 4 5 6 
#
# 1 0.050229 -0.002386 -0.018716 -0.009703 -0.003131 0.012073
# 2 -0.002386 0.007236 -0.002944 0.000731 0.001738 -0.000142
# 3 -0.018716 -0.002944 0.020852 0.009124 0.004773 -0.001581
# 4 -0.009703 0.000731 0.009124 0.024597 0.013125 0.001837
# 5 -0.003131 0.001738 0.004773 0.013125 0.059036 0.011431
# 6 0.012073 -0.000142 -0.001581 0.001837 0.011431 0.037446
#
#
# Mechanical properties :
#
#
# Convention : Reuss Voigt Hill
#
# Bulk Modulus (GPa) = 33.08367 59.82544 46.45455
# Shear Modulus (GPa) = 19.41278 34.11947 26.76612
#
# Velocity S-wave (km/s) = 2.94555 3.90502 3.45872
# Velocity P-wave (km/s) = 5.13367 6.86079 6.05908
#
# Compressibility (1/GPa) = 0.03022640
#
# Stress axis : x y z
#
# Youngs Moduli (GPa) = 19.90885 138.20459 47.95655
#
# Poissons Ratio (x) = 0.32972 0.89753
# Poissons Ratio (y) = 0.04750 0.14118
# Poissons Ratio (z) = 0.37261 0.40686
#
# Static dielectric constant tensor:
#      x y z
#    x 1.858470 -0.020030 0.037940 
#    y -0.020030 1.945270 -0.051420 
#    z 0.037940 -0.051420 1.893730 
# 
# From -- ./inp_files/145785.got.cif
#   From: 2010.05.17/outbox.cif.g08.bks.cpg/sg2_73_cif.got.tgz:145785.got - 2010.06.03 11:33:40.
