data_PCOD9085924
_publ_section_title
;
Structure prediction by ZEFSAII (Michael W. Deem and Ramdas Pophale) SiO2 
 PCOD9085924
Probable space group: P -1
;
_chemical_formula_sum "Si O2"
_cell_formula_units_Z 14
_cell_length_a 6.928928
_cell_length_b 11.207571
_cell_length_c 9.350355
_cell_angle_alpha 71.938418
_cell_angle_beta 129.918541
_cell_angle_gamma 104.154004
_cell_volume 528.422466
_symmetry_space_group_name_H-M "P -1"
_symmetry_group_IT_number 2
_symmetry_cell_setting 'triclinic'
loop_
_space_group_symop_operation_xyz
x,y,z
-x,-y,-z
loop_
_atom_site_type_symbol
_atom_site_label
_atom_site_fract_x
_atom_site_fract_y
_atom_site_fract_z
Si Si1 0.852682 0.699217 0.000030
Si Si2 0.078346 0.474274 0.335655
Si Si3 0.499870 0.620715 0.621939
Si Si4 0.065835 0.914232 0.236019
Si Si5 0.095193 0.813718 0.601208
Si Si6 0.548644 0.860979 0.357990
Si Si7 0.746519 0.153799 0.043627
O O1 0.886489 0.571246 0.149749
O O2 0.920345 0.810788 0.103582
O O3 0.595740 0.682209 0.793064
O O4 0.067741 0.730338 0.967981
O O5 0.244933 0.533933 0.523293
O O6 0.279391 0.459987 0.306692
O O7 0.973070 0.334663 0.371119
O O8 0.472713 0.730655 0.451475
O O9 0.342280 0.950860 0.285870
O O10 0.128396 0.856836 0.440331
O O11 0.898899 0.032049 0.127143
O O12 0.844146 0.880082 0.513961
O O13 0.297818 0.843582 0.810005
O O14 0.498491 0.847073 0.170723
#
# Coordination Sequence:
#
# PCOD9085924 Si02
#       7
#     2   2   2   2   2   2   2
#     4  11  20  39  65  95 125 166 207 263 321 364
#     4  10  20  35  65  92 127 161 211 258 315 381
#     4  10  19  35  64  95 121 161 211 253 316 379
#     4  11  25  44  62  96 134 161 218 264 302 386
#     4  11  25  43  65  96 129 169 209 260 324 370
#     4  10  21  43  65  91 124 165 216 254 312 375
#     4  11  22  43  65  93 128 171 214 259 311 376
#
# _framework density 26.493952
#
# number of rings (size 3 to 8) (size 9 to 14) (size 15 to 20)
#    0.000    1.429    5.714    2.571    0.000    1.714 
#    5.143    0.714    0.000    0.000    0.000    0.000 
#    0.000    0.000    0.000    0.000    0.000    0.000 
#
# Total GULP energy -78505.181218 kJ/mol
# GULP energy per Si atom -5607.512944 kJ/mol
# Density = 2.643365 g / cm^3
# Si number density = 26.493952 Si / 1000 Ang^3
#
#
#
# Elastic Constant Matrix: (Units=GPa)
#
#
# Indices 1 2 3 4 5 6 
#
# 1 76.8266 31.7097 24.8644 8.5229 -11.6731 2.7571
# 2 31.7097 118.1094 80.4365 9.0457 -3.1004 3.4736
# 3 24.8644 80.4365 222.6496 17.0367 -16.2991 3.3575
# 4 8.5229 9.0457 17.0367 51.6762 0.0929 -6.7014
# 5 -11.6731 -3.1004 -16.2991 0.0929 35.4680 4.1472
# 6 2.7571 3.4736 3.3575 -6.7014 4.1472 37.9882
#
#
#
# Elastic Compliance Matrix: (Units=1/GPa)
#
#
# Indices 1 2 3 4 5 6 
#
# 1 0.015685 -0.004048 0.000283 -0.002207 0.005148 -0.001745
# 2 -0.004048 0.012341 -0.004146 -0.000156 -0.002128 -0.000263
# 3 0.000283 -0.004146 0.006282 -0.001495 0.002710 -0.000756
# 4 -0.002207 -0.000156 -0.001495 0.020782 -0.001971 0.004188
# 5 0.005148 -0.002128 0.002710 -0.001971 0.031444 -0.004199
# 6 -0.001745 -0.000263 -0.000756 0.004188 -0.004199 0.027739
#
#
# Mechanical properties :
#
#
# Convention : Reuss Voigt Hill
#
# Bulk Modulus (GPa) = 54.09773 76.84521 65.47147
# Shear Modulus (GPa) = 36.69498 43.73148 40.21323
#
# Velocity S-wave (km/s) = 3.72564 4.06719 3.90016
# Velocity P-wave (km/s) = 6.24263 7.15009 6.71172
#
# Compressibility (1/GPa) = 0.01848506
#
# Stress axis : x y z
#
# Youngs Moduli (GPa) = 63.75358 81.02937 159.18928
#
# Poissons Ratio (x) = 0.32804 -0.04504
# Poissons Ratio (y) = 0.25810 0.66004
# Poissons Ratio (z) = -0.01804 0.33597
#
# Static dielectric constant tensor:
#      x y z
#    x 2.111740 -0.041230 -0.007310 
#    y -0.041230 2.048610 0.030810 
#    z -0.007310 0.030810 2.010710 
# 
# From -- ./inp_files/176948.got.cif
#   From: 2010.05.17/outbox.cif.g08.bks.cpg/sg2_89_cif.got.tgz:176948.got - 2010.06.03 11:33:40.
