data_PCOD9085310
_publ_section_title
;
Structure prediction by ZEFSAII (Michael W. Deem and Ramdas Pophale) SiO2 
 PCOD9085310
Probable space group: P -1
;
_chemical_formula_sum "Si O2"
_cell_formula_units_Z 14
_cell_length_a 7.435042
_cell_length_b 11.346166
_cell_length_c 6.815734
_cell_angle_alpha 62.969320
_cell_angle_beta 83.783099
_cell_angle_gamma 103.754164
_cell_volume 481.672945
_symmetry_space_group_name_H-M "P -1"
_symmetry_group_IT_number 2
_symmetry_cell_setting 'triclinic'
loop_
_space_group_symop_operation_xyz
x,y,z
-x,-y,-z
loop_
_atom_site_type_symbol
_atom_site_label
_atom_site_fract_x
_atom_site_fract_y
_atom_site_fract_z
Si Si1 0.739198 0.888257 0.168791
Si Si2 0.253089 0.176434 0.245116
Si Si3 0.343231 0.655686 0.971310
Si Si4 0.816135 0.139993 0.413496
Si Si5 0.414766 0.626250 0.446923
Si Si6 0.885587 0.169831 0.818080
Si Si7 0.970766 0.536066 0.250458
O O1 0.579170 0.765629 0.385156
O O2 0.942954 0.887951 0.222531
O O3 0.735783 0.852608 0.965906
O O4 0.736206 0.045267 0.049101
O O5 0.438037 0.316776 0.142963
O O6 0.044421 0.185720 0.309276
O O7 0.260581 0.030026 0.452101
O O8 0.288146 0.778738 0.773473
O O9 0.358956 0.666800 0.203399
O O10 0.142722 0.524128 0.103031
O O11 0.799525 0.188581 0.604578
O O12 0.500000 0.500000 0.500000
O O13 0.248351 0.556741 0.677120
O O14 0.994090 0.300283 0.842363
O O15 0.000000 0.500000 0.500000
#
# Coordination Sequence:
#
# PCOD9085310 Si02
#       7
#     2   2   2   2   2   2   2
#     4   9  18  34  62  89 116 152 207 251 291 355
#     4   9  19  37  59  87 121 166 201 238 305 370
#     4  10  21  36  60  88 116 162 207 242 294 369
#     4  10  20  35  59  88 128 158 193 253 308 362
#     4  10  19  36  62  85 113 158 209 245 287 363
#     4  10  19  35  59  95 124 149 197 260 305 351
#     4  10  21  38  60  86 119 160 202 247 296 362
#
# _framework density 29.065360999999999
#
# number of rings (size 3 to 8) (size 9 to 14) (size 15 to 20)
#    0.000    2.286    1.429    1.286    2.000    1.143 
#    0.000   18.571    0.000   10.286    0.000    0.000 
#    0.000    0.000    0.000    0.000    0.000    0.000 
#
# Total GULP energy -78297.101223 kJ/mol
# GULP energy per Si atom -5592.650087 kJ/mol
# Density = 2.899921 g / cm^3
# Si number density = 29.065361 Si / 1000 Ang^3
#
#
#
# Elastic Constant Matrix: (Units=GPa)
#
#
# Indices 1 2 3 4 5 6 
#
# 1 133.9515 19.8559 65.1720 -28.0075 -40.7206 20.3010
# 2 19.8559 120.1416 45.8548 -37.6655 -20.8376 5.6148
# 3 65.1720 45.8548 216.3701 -8.2198 -19.3317 2.1978
# 4 -28.0075 -37.6655 -8.2198 60.9402 16.2546 -16.5115
# 5 -40.7206 -20.8376 -19.3317 16.2546 86.8948 -15.8430
# 6 20.3010 5.6148 2.1978 -16.5115 -15.8430 43.9072
#
#
#
# Elastic Compliance Matrix: (Units=1/GPa)
#
#
# Indices 1 2 3 4 5 6 
#
# 1 0.011061 0.001315 -0.003113 0.003864 0.003654 -0.002355
# 2 0.001315 0.011573 -0.002429 0.007353 0.001736 0.001425
# 3 -0.003113 -0.002429 0.005974 -0.001884 -0.000240 0.000656
# 4 0.003864 0.007353 -0.001884 0.024272 -0.000216 0.006417
# 5 0.003654 0.001736 -0.000240 -0.000216 0.014196 0.003142
# 6 -0.002355 0.001425 0.000656 0.006417 0.003142 0.027196
#
#
# Mechanical properties :
#
#
# Convention : Reuss Voigt Hill
#
# Bulk Modulus (GPa) = 49.61671 81.35873 65.48772
# Shear Modulus (GPa) = 45.68556 60.98714 53.33635
#
# Velocity S-wave (km/s) = 3.96892 4.58566 4.28839
# Velocity P-wave (km/s) = 6.17340 7.48934 6.86298
#
# Compressibility (1/GPa) = 0.02015450
#
# Stress axis : x y z
#
# Youngs Moduli (GPa) = 90.41124 86.40978 167.37989
#
# Poissons Ratio (x) = -0.11366 0.52107
# Poissons Ratio (y) = -0.11892 0.40654
# Poissons Ratio (z) = 0.28146 0.20988
#
# Static dielectric constant tensor:
#      x y z
#    x 2.373870 0.061690 -0.002040 
#    y 0.061690 2.373580 -0.029220 
#    z -0.002040 -0.029220 2.347740 
# 
# From -- ./inp_files/195238.got.cif
#   From: 2010.05.17/outbox.cif.g08.bks.cpg/sg2_98_cif.got.tgz:195238.got - 2010.06.03 11:33:40.
