data_PCOD9085875
_publ_section_title
;
Structure prediction by ZEFSAII (Michael W. Deem and Ramdas Pophale) SiO2 
 PCOD9085875
Probable space group: P -1
;
_chemical_formula_sum "Si O2"
_cell_formula_units_Z 14
_cell_length_a 9.472957
_cell_length_b 12.434627
_cell_length_c 13.845500
_cell_angle_alpha 32.318703
_cell_angle_beta 52.329334
_cell_angle_gamma 57.494059
_cell_volume 689.314945
_symmetry_space_group_name_H-M "P -1"
_symmetry_group_IT_number 2
_symmetry_cell_setting 'triclinic'
loop_
_space_group_symop_operation_xyz
x,y,z
-x,-y,-z
loop_
_atom_site_type_symbol
_atom_site_label
_atom_site_fract_x
_atom_site_fract_y
_atom_site_fract_z
Si Si1 0.914621 0.186036 0.457823
Si Si2 0.440145 0.931215 0.376337
Si Si3 0.229144 0.590408 0.259987
Si Si4 0.975840 0.218787 0.628686
Si Si5 0.825368 0.034713 0.114463
Si Si6 0.271773 0.360770 0.155068
Si Si7 0.490010 0.677648 0.724421
O O1 0.708708 0.211362 0.494511
O O2 0.920084 0.158618 0.591546
O O3 0.058630 0.353622 0.252238
O O4 0.000000 0.000000 0.500000
O O5 0.642668 0.920017 0.259856
O O6 0.448796 0.877301 0.528213
O O7 0.359463 0.159390 0.219382
O O8 0.180750 0.727180 0.269574
O O9 0.417670 0.472602 0.279253
O O10 0.083199 0.424009 0.431806
O O11 0.228155 0.733844 0.057954
O O12 0.106057 0.042464 0.752423
O O13 0.000000 0.000000 0.000000
O O14 0.362129 0.325919 0.249480
O O15 0.330419 0.563856 0.926313
#
# Coordination Sequence:
#
# PCOD9085875 Si02
#       7
#     2   2   2   2   2   2   2
#     4  10  22  40  57  82 123 157 186 227 289 352
#     4  11  21  36  57  81 118 153 187 229 290 341
#     4  10  19  35  64  86 110 142 198 248 278 326
#     4  10  20  39  61  83 114 152 191 241 287 328
#     4  10  20  36  62  87 111 145 198 242 281 335
#     4  10  21  37  56  84 116 147 199 235 278 334
#     4  11  20  35  61  86 110 148 196 244 277 326
#
# _framework density 20.310020999999999
#
# number of rings (size 3 to 8) (size 9 to 14) (size 15 to 20)
#    0.000    1.714    4.286    0.429    0.000    1.714 
#    0.000    6.429    0.000    0.000    0.000    0.000 
#    0.000    0.000    0.000    0.000    0.000    0.000 
#
# Total GULP energy -77945.247509 kJ/mol
# GULP energy per Si atom -5567.517679 kJ/mol
# Density = 2.026379 g / cm^3
# Si number density = 20.310021 Si / 1000 Ang^3
#
#
#
# Elastic Constant Matrix: (Units=GPa)
#
#
# Indices 1 2 3 4 5 6 
#
# 1 116.9194 26.6054 50.4688 23.5809 -21.0178 2.8216
# 2 26.6054 66.8116 14.9818 12.9382 4.7087 5.7786
# 3 50.4688 14.9818 100.0156 0.6203 -16.2219 -2.7259
# 4 23.5809 12.9382 0.6203 25.6166 -13.4403 4.1636
# 5 -21.0178 4.7087 -16.2219 -13.4403 35.3339 7.1996
# 6 2.8216 5.7786 -2.7259 4.1636 7.1996 27.2691
#
#
#
# Elastic Compliance Matrix: (Units=1/GPa)
#
#
# Indices 1 2 3 4 5 6 
#
# 1 0.014475 -0.002222 -0.006631 -0.011045 0.001756 -0.000467
# 2 -0.002222 0.020073 -0.003577 -0.013924 -0.011071 0.000668
# 3 -0.006631 -0.003577 0.015119 0.012064 0.008281 -0.001073
# 4 -0.011045 -0.013924 0.012064 0.075417 0.032528 -0.014804
# 5 0.001756 -0.011071 0.008281 0.032528 0.050093 -0.015200
# 6 -0.000467 0.000668 -0.001073 -0.014804 -0.015200 0.042744
#
#
# Mechanical properties :
#
#
# Convention : Reuss Voigt Hill
#
# Bulk Modulus (GPa) = 40.30857 51.98428 46.14643
# Shear Modulus (GPa) = 19.91623 30.42330 25.16977
#
# Velocity S-wave (km/s) = 3.13487 3.87453 3.52416
# Velocity P-wave (km/s) = 5.74395 6.75773 6.27136
#
# Compressibility (1/GPa) = 0.02480862
#
# Stress axis : x y z
#
# Youngs Moduli (GPa) = 69.08317 49.81776 66.14048
#
# Poissons Ratio (x) = 0.11069 0.43857
# Poissons Ratio (y) = 0.15349 0.23657
# Poissons Ratio (z) = 0.45809 0.17819
#
# Static dielectric constant tensor:
#      x y z
#    x 1.731350 -0.024510 -0.014510 
#    y -0.024510 1.810700 0.007370 
#    z -0.014510 0.007370 1.770310 
# 
# From -- ./inp_files/187196.got.cif
#   From: 2010.05.17/outbox.cif.g08.bks.cpg/sg2_94_cif.got.tgz:187196.got - 2010.06.03 11:33:40.
