data_PCOD9085967
_publ_section_title
;
Structure prediction by ZEFSAII (Michael W. Deem and Ramdas Pophale) SiO2 
 PCOD9085967
Probable space group: P -1
;
_chemical_formula_sum "Si O2"
_cell_formula_units_Z 16
_cell_length_a 9.140536
_cell_length_b 14.615911
_cell_length_c 11.753615
_cell_angle_alpha 71.499684
_cell_angle_beta 51.439331
_cell_angle_gamma 39.727961
_cell_volume 742.352051
_symmetry_space_group_name_H-M "P -1"
_symmetry_group_IT_number 2
_symmetry_cell_setting 'triclinic'
loop_
_space_group_symop_operation_xyz
x,y,z
-x,-y,-z
loop_
_atom_site_type_symbol
_atom_site_label
_atom_site_fract_x
_atom_site_fract_y
_atom_site_fract_z
Si Si1 0.791076 0.321932 0.945033
Si Si2 0.907501 0.391844 0.448841
Si Si3 0.855427 0.853944 0.390286
Si Si4 0.223081 0.708295 0.642259
Si Si5 0.868754 0.060714 0.324652
Si Si6 0.171190 0.208873 0.000302
Si Si7 0.485140 0.254816 0.226350
Si Si8 0.584921 0.090578 0.026486
O O1 0.665666 0.275747 0.087004
O O2 0.009201 0.298302 0.927959
O O3 0.500000 0.500000 0.000000
O O4 0.976586 0.218102 0.784432
O O5 0.571117 0.558063 0.545812
O O6 0.911633 0.312835 0.374274
O O7 0.014336 0.286113 0.545623
O O8 0.131082 0.393340 0.333498
O O9 0.500000 0.000000 0.500000
O O10 0.923072 0.930141 0.385801
O O11 0.145610 0.851420 0.607456
O O12 0.079085 0.736534 0.820174
O O13 0.583494 0.187040 0.332064
O O14 0.124313 0.985043 0.142000
O O15 0.393950 0.033830 0.928177
O O16 0.337932 0.213778 0.003112
O O17 0.559440 0.141954 0.143730
#
# Coordination Sequence:
#
# PCOD9085967 Si02
#       8
#     2   2   2   2   2   2   2   2
#     4  12  26  44  66  98 136 174 223 278 329 394
#     4  11  25  42  68  93 137 176 216 271 335 405
#     4  12  26  41  65 103 139 167 217 284 339 377
#     4  10  22  43  64  96 129 180 221 263 333 404
#     4  11  22  39  66  97 127 171 222 274 321 392
#     4  10  20  38  67  92 128 163 221 270 319 387
#     4  12  21  40  68  92 125 173 223 265 318 399
#     4  10  19  35  65  97 114 159 219 268 316 372
#
# _framework density 21.553118000000001
#
# number of rings (size 3 to 8) (size 9 to 14) (size 15 to 20)
#    0.000    1.000    6.250    1.875    0.000    2.000 
#    0.000    3.125    0.000    0.000    0.000    0.000 
#    0.000    0.000    0.000    0.000    0.000    0.000 
#
# Total GULP energy -89234.072542 kJ/mol
# GULP energy per Si atom -5577.129534 kJ/mol
# Density = 2.150406 g / cm^3
# Si number density = 21.553118 Si / 1000 Ang^3
#
#
#
# Elastic Constant Matrix: (Units=GPa)
#
#
# Indices 1 2 3 4 5 6 
#
# 1 89.7044 5.4051 18.2361 8.0420 6.6358 -15.9455
# 2 5.4051 39.5386 16.4827 -0.3743 4.0726 -5.3192
# 3 18.2361 16.4827 58.6901 9.4100 -4.3816 -1.6048
# 4 8.0420 -0.3743 9.4100 24.9042 -1.5749 -1.8603
# 5 6.6358 4.0726 -4.3816 -1.5749 33.0989 6.3343
# 6 -15.9455 -5.3192 -1.6048 -1.8603 6.3343 36.4026
#
#
#
# Elastic Compliance Matrix: (Units=1/GPa)
#
#
# Indices 1 2 3 4 5 6 
#
# 1 0.013762 0.001358 -0.004431 -0.002556 -0.004928 0.006758
# 2 0.001358 0.030758 -0.009986 0.003841 -0.006334 0.005948
# 3 -0.004431 -0.009986 0.022686 -0.007222 0.005489 -0.003724
# 4 -0.002556 0.003841 -0.007222 0.043915 0.000943 0.001203
# 5 -0.004928 -0.006334 0.005489 0.000943 0.034433 -0.008785
# 6 0.006758 0.005948 -0.003724 0.001203 -0.008785 0.032726
#
#
# Mechanical properties :
#
#
# Convention : Reuss Voigt Hill
#
# Bulk Modulus (GPa) = 24.33793 29.79787 27.06790
# Shear Modulus (GPa) = 22.92600 28.73509 25.83054
#
# Velocity S-wave (km/s) = 3.26498 3.65529 3.46563
# Velocity P-wave (km/s) = 5.05272 5.62763 5.34791
#
# Compressibility (1/GPa) = 0.04108812
#
# Stress axis : x y z
#
# Youngs Moduli (GPa) = 72.66631 32.51171 44.08024
#
# Poissons Ratio (x) = -0.04416 0.19531
# Poissons Ratio (y) = -0.09870 0.44020
# Poissons Ratio (z) = 0.32196 0.32467
#
# Static dielectric constant tensor:
#      x y z
#    x 1.847350 -0.012140 -0.011630 
#    y -0.012140 1.842040 0.006140 
#    z -0.011630 0.006140 1.793620 
# 
# From -- ./inp_files/399040.got.cif
#   From: 2010.05.17/outbox.cif.g08.bks.cpg/sg2_200_cif.got.tgz:399040.got - 2010.06.03 11:33:40.
