data_PCOD9085839
_publ_section_title
;
Structure prediction by ZEFSAII (Michael W. Deem and Ramdas Pophale) SiO2 
 PCOD9085839
Probable space group: P -1
;
_chemical_formula_sum "Si O2"
_cell_formula_units_Z 16
_cell_length_a 9.327462
_cell_length_b 10.876926
_cell_length_c 13.283736
_cell_angle_alpha 45.598056
_cell_angle_beta 126.428001
_cell_angle_gamma 99.144864
_cell_volume 693.283423
_symmetry_space_group_name_H-M "P -1"
_symmetry_group_IT_number 2
_symmetry_cell_setting 'triclinic'
loop_
_space_group_symop_operation_xyz
x,y,z
-x,-y,-z
loop_
_atom_site_type_symbol
_atom_site_label
_atom_site_fract_x
_atom_site_fract_y
_atom_site_fract_z
Si Si1 0.995150 0.765276 0.376404
Si Si2 0.259674 0.679991 0.228236
Si Si3 0.166720 0.919748 0.701005
Si Si4 0.688596 0.726637 0.718021
Si Si5 0.931331 0.282333 0.066072
Si Si6 0.439319 0.326100 0.087611
Si Si7 0.926860 0.609203 0.245286
Si Si8 0.610483 0.274932 0.545861
O O1 0.878520 0.764462 0.226149
O O2 0.028750 0.581978 0.563895
O O3 0.208368 0.746119 0.437935
O O4 0.888751 0.936972 0.310938
O O5 0.461722 0.503282 0.372179
O O6 0.310388 0.797281 0.267860
O O7 0.121063 0.600386 0.274313
O O8 0.132980 0.796901 0.013050
O O9 0.166575 0.734565 0.861501
O O10 0.378844 0.860208 0.775823
O O11 0.000000 0.000000 0.500000
O O12 0.583476 0.708447 0.785411
O O13 0.526898 0.808306 0.516457
O O14 0.834858 0.816847 0.757397
O O15 0.842890 0.508790 0.874139
O O16 0.500000 0.500000 0.000000
O O17 0.241813 0.360772 0.923591
#
# Coordination Sequence:
#
# PCOD9085839 Si02
#       8
#     2   2   2   2   2   2   2   2
#     4  10  23  41  62  91 128 165 207 258 316 370
#     4   9  18  36  63  91 117 156 210 254 302 368
#     4  12  26  41  61  90 132 164 206 265 321 365
#     4  10  19  35  63  94 118 156 210 253 303 368
#     4  10  21  37  60  89 124 158 203 260 306 368
#     4  12  22  38  67  93 121 165 215 255 311 374
#     4  10  21  41  67  90 120 165 214 258 305 382
#     4   9  18  34  60  91 120 155 202 252 304 368
#
# _framework density 23.078586000000001
#
# number of rings (size 3 to 8) (size 9 to 14) (size 15 to 20)
#    0.000    1.750    2.500    2.250    1.750    0.500 
#    0.000    6.250    2.750    0.000    0.000    0.000 
#    0.000    0.000    0.000    0.000    0.000    0.000 
#
# Total GULP energy -89407.495982 kJ/mol
# GULP energy per Si atom -5587.968499 kJ/mol
# Density = 2.302606 g / cm^3
# Si number density = 23.078586 Si / 1000 Ang^3
#
#
#
# Elastic Constant Matrix: (Units=GPa)
#
#
# Indices 1 2 3 4 5 6 
#
# 1 99.8109 42.7750 27.3381 14.1314 12.7118 -20.9122
# 2 42.7750 109.1205 54.6879 29.3391 14.4036 -20.2265
# 3 27.3381 54.6879 84.5321 48.0749 4.8042 6.9505
# 4 14.1314 29.3391 48.0749 53.8405 -0.1720 7.2867
# 5 12.7118 14.4036 4.8042 -0.1720 33.5185 4.4543
# 6 -20.9122 -20.2265 6.9505 7.2867 4.4543 37.0519
#
#
#
# Elastic Compliance Matrix: (Units=1/GPa)
#
#
# Indices 1 2 3 4 5 6 
#
# 1 0.014260 -0.000942 -0.003821 -0.001073 -0.005676 0.009144
# 2 -0.000942 0.019736 -0.012352 -0.001374 -0.008196 0.013815
# 3 -0.003821 -0.012352 0.033567 -0.020666 0.003373 -0.011538
# 4 -0.001073 -0.001374 -0.020666 0.038845 0.004917 -0.005709
# 5 -0.005676 -0.008196 0.003373 0.004917 0.036873 -0.013711
# 6 0.009144 0.013815 -0.011538 -0.005709 -0.013711 0.044627
#
#
# Mechanical properties :
#
#
# Convention : Reuss Voigt Hill
#
# Bulk Modulus (GPa) = 30.00137 60.34063 45.17100
# Shear Modulus (GPa) = 21.43618 36.12635 28.78126
#
# Velocity S-wave (km/s) = 3.05098 3.96076 3.53526
# Velocity P-wave (km/s) = 5.04373 6.86435 6.02323
#
# Compressibility (1/GPa) = 0.03333181
#
# Stress axis : x y z
#
# Youngs Moduli (GPa) = 70.12571 50.66880 29.79101
#
# Poissons Ratio (x) = 0.04773 0.11384
# Poissons Ratio (y) = 0.06606 0.36799
# Poissons Ratio (z) = 0.26798 0.62588
#
# Static dielectric constant tensor:
#      x y z
#    x 1.837520 0.020760 -0.000040 
#    y 0.020760 1.979830 -0.005200 
#    z -0.000040 -0.005200 1.884470 
# 
# From -- ./inp_files/218647.got.cif
#   From: 2010.05.17/outbox.cif.g08.bks.cpg/sg2_110_cif.got.tgz:218647.got - 2010.06.03 11:33:40.
