data_PCOD9085454
_publ_section_title
;
Structure prediction by ZEFSAII (Michael W. Deem and Ramdas Pophale) SiO2 
 PCOD9085454
Probable space group: P -1
;
_chemical_formula_sum "Si O2"
_cell_formula_units_Z 16
_cell_length_a 9.357705
_cell_length_b 8.108365
_cell_length_c 10.378235
_cell_angle_alpha 65.423871
_cell_angle_beta 89.764796
_cell_angle_gamma 93.381076
_cell_volume 714.517502
_symmetry_space_group_name_H-M "P -1"
_symmetry_group_IT_number 2
_symmetry_cell_setting 'triclinic'
loop_
_space_group_symop_operation_xyz
x,y,z
-x,-y,-z
loop_
_atom_site_type_symbol
_atom_site_label
_atom_site_fract_x
_atom_site_fract_y
_atom_site_fract_z
Si Si1 0.911166 0.058279 0.155307
Si Si2 0.848163 0.145343 0.684720
Si Si3 0.340635 0.679224 0.149520
Si Si4 0.557465 0.110890 0.585652
Si Si5 0.419763 0.541694 0.661695
Si Si6 0.940325 0.420812 0.894872
Si Si7 0.375067 0.813301 0.814690
Si Si8 0.119699 0.351252 0.689821
O O1 0.853056 0.851989 0.191314
O O2 0.065816 0.030558 0.225225
O O3 0.788593 0.133847 0.219901
O O4 0.927254 0.202311 0.993386
O O5 0.748763 0.206115 0.784569
O O6 0.729785 0.116130 0.586293
O O7 0.982700 0.295699 0.614873
O O8 0.472437 0.604742 0.247362
O O9 0.217000 0.524629 0.159173
O O10 0.386155 0.759466 0.983323
O O11 0.517292 0.314183 0.490697
O O12 0.500000 0.000000 0.500000
O O13 0.482729 0.990964 0.737357
O O14 0.399267 0.658577 0.757635
O O15 0.271465 0.453765 0.631277
O O16 0.048758 0.460957 0.767453
O O17 0.000000 0.500000 0.000000
#
# Coordination Sequence:
#
# PCOD9085454 Si02
#       8
#     2   2   2   2   2   2   2   2
#     4   9  20  38  60  91 126 157 212 251 314 364
#     4   9  22  39  62  94 122 162 207 260 315 371
#     4  10  22  38  64  98 124 161 213 255 315 368
#     4  10  24  44  62  88 128 169 208 256 316 376
#     4  11  23  42  62  92 132 167 209 257 310 371
#     4  10  19  35  60  91 130 165 202 255 313 372
#     4  10  22  41  65  93 126 167 209 257 312 370
#     4   9  20  36  58  89 122 162 202 257 308 362
#
# _framework density 22.392734000000001
#
# number of rings (size 3 to 8) (size 9 to 14) (size 15 to 20)
#    0.750    1.500    0.000    2.250    3.500    4.500 
#    0.000    3.750    0.000    0.000    0.000    0.000 
#    0.000    0.000    0.000    0.000    0.000    0.000 
#
# Total GULP energy -89086.301507 kJ/mol
# GULP energy per Si atom -5567.893844 kJ/mol
# Density = 2.234177 g / cm^3
# Si number density = 22.392734 Si / 1000 Ang^3
#
#
#
# Elastic Constant Matrix: (Units=GPa)
#
#
# Indices 1 2 3 4 5 6 
#
# 1 153.7867 46.5637 52.9246 -4.6519 18.3650 11.2429
# 2 46.5637 65.7639 27.9154 -1.8964 1.2666 15.5792
# 3 52.9246 27.9154 67.6998 -5.7938 2.2716 5.6911
# 4 -4.6519 -1.8964 -5.7938 27.7610 8.0913 5.3460
# 5 18.3650 1.2666 2.2716 8.0913 37.2846 2.9717
# 6 11.2429 15.5792 5.6911 5.3460 2.9717 39.7310
#
#
#
# Elastic Compliance Matrix: (Units=1/GPa)
#
#
# Indices 1 2 3 4 5 6 
#
# 1 0.010726 -0.004848 -0.006058 0.001714 -0.005112 -0.000115
# 2 -0.004848 0.022308 -0.004882 0.000319 0.002408 -0.006899
# 3 -0.006058 -0.004882 0.021717 0.002822 0.001211 0.000048
# 4 0.001714 0.000319 0.002822 0.040780 -0.009415 -0.005797
# 5 -0.005112 0.002408 0.001211 -0.009415 0.031286 -0.000744
# 6 -0.000115 -0.006899 0.000048 -0.005797 -0.000744 0.028736
#
#
# Mechanical properties :
#
#
# Convention : Reuss Voigt Hill
#
# Bulk Modulus (GPa) = 43.15070 60.22865 51.68968
# Shear Modulus (GPa) = 25.66017 31.61176 28.63596
#
# Velocity S-wave (km/s) = 3.38881 3.76133 3.57992
# Velocity P-wave (km/s) = 5.88420 6.76893 6.34201
#
# Compressibility (1/GPa) = 0.02317459
#
# Stress axis : x y z
#
# Youngs Moduli (GPa) = 93.23169 44.82695 46.04649
#
# Poissons Ratio (x) = 0.21731 0.27896
# Poissons Ratio (y) = 0.45197 0.22481
# Poissons Ratio (z) = 0.56482 0.21886
#
# Static dielectric constant tensor:
#      x y z
#    x 1.875130 -0.007860 -0.012690 
#    y -0.007860 1.925470 0.022650 
#    z -0.012690 0.022650 1.929270 
# 
# From -- ./inp_files/381360.got.cif
#   From: 2010.05.17/outbox.cif.g08.bks.cpg/sg2_191_cif.got.tgz:381360.got - 2010.06.03 11:33:40.
