data_PCOD9085530
_publ_section_title
;
Structure prediction by ZEFSAII (Michael W. Deem and Ramdas Pophale) SiO2 
 PCOD9085530
Probable space group: P -1
;
_chemical_formula_sum "Si O2"
_cell_formula_units_Z 16
_cell_length_a 9.642486
_cell_length_b 11.661461
_cell_length_c 6.971723
_cell_angle_alpha 59.513955
_cell_angle_beta 117.806400
_cell_angle_gamma 93.922188
_cell_volume 582.813162
_symmetry_space_group_name_H-M "P -1"
_symmetry_group_IT_number 2
_symmetry_cell_setting 'triclinic'
loop_
_space_group_symop_operation_xyz
x,y,z
-x,-y,-z
loop_
_atom_site_type_symbol
_atom_site_label
_atom_site_fract_x
_atom_site_fract_y
_atom_site_fract_z
Si Si1 0.755771 0.111518 0.555358
Si Si2 0.844471 0.817033 0.887747
Si Si3 0.402559 0.902530 0.918483
Si Si4 0.229476 0.447769 0.014639
Si Si5 0.100458 0.118397 0.584428
Si Si6 0.864720 0.599341 0.567814
Si Si7 0.410537 0.609954 0.198613
Si Si8 0.806996 0.333261 0.662707
O O1 0.622374 0.096037 0.327826
O O2 0.714142 0.245153 0.547427
O O3 0.921166 0.121585 0.541370
O O4 0.787750 0.967723 0.808281
O O5 0.736158 0.704438 0.920008
O O6 0.884269 0.845613 0.663848
O O7 0.009172 0.742020 0.155109
O O8 0.220820 0.972352 0.813564
O O9 0.481214 0.743608 0.134504
O O10 0.500000 0.000000 0.000000
O O11 0.199116 0.417442 0.245366
O O12 0.363730 0.537745 0.039812
O O13 0.057570 0.537148 0.757616
O O14 0.160745 0.241641 0.621580
O O15 0.791930 0.494693 0.477925
O O16 0.500000 0.500000 0.500000
O O17 0.242802 0.672853 0.143460
#
# Coordination Sequence:
#
# PCOD9085530 Si02
#       8
#     2   2   2   2   2   2   2   2
#     4  11  21  35  61  87 123 152 189 250 304 341
#     4   9  17  32  60  85 115 146 191 243 289 346
#     4  11  25  40  61  87 119 157 200 242 289 351
#     4   8  15  30  53  84 104 140 195 241 270 329
#     4  10  19  35  61  86 114 153 200 238 293 347
#     4   8  15  29  56  80 114 140 182 242 288 334
#     4  11  23  38  63  79 112 162 207 232 278 359
#     4  10  20  35  57  92 118 147 195 246 296 342
#
# _framework density 27.453054999999999
#
# number of rings (size 3 to 8) (size 9 to 14) (size 15 to 20)
#    0.000    2.250    0.000    6.375    7.000    0.500 
#    0.000    1.250    5.500    0.000    0.000    0.000 
#    0.000    0.000    0.000    0.000    0.000    0.000 
#
# Total GULP energy -89461.807560 kJ/mol
# GULP energy per Si atom -5591.362973 kJ/mol
# Density = 2.739057 g / cm^3
# Si number density = 27.453055 Si / 1000 Ang^3
#
#
#
# Elastic Constant Matrix: (Units=GPa)
#
#
# Indices 1 2 3 4 5 6 
#
# 1 57.3139 16.2503 5.5850 7.6172 -5.5454 -5.1775
# 2 16.2503 301.7647 61.1970 -15.4786 -1.5586 44.5142
# 3 5.5850 61.1970 74.8201 -30.7975 3.3580 9.6950
# 4 7.6172 -15.4786 -30.7975 62.6605 6.2504 -4.0052
# 5 -5.5454 -1.5586 3.3580 6.2504 22.6424 9.8387
# 6 -5.1775 44.5142 9.6950 -4.0052 9.8387 44.4538
#
#
#
# Elastic Compliance Matrix: (Units=1/GPa)
#
#
# Indices 1 2 3 4 5 6 
#
# 1 0.019336 -0.000967 -0.003028 -0.004465 0.005354 0.002293
# 2 -0.000967 0.004833 -0.003891 -0.001229 0.003146 -0.004910
# 3 -0.003028 -0.003891 0.021362 0.010791 -0.007849 0.001595
# 4 -0.004465 -0.001229 0.010791 0.022689 -0.010197 0.002658
# 5 0.005354 0.003146 -0.007849 -0.010197 0.055790 -0.014081
# 6 0.002293 -0.004910 0.001595 0.002658 -0.014081 0.030687
#
#
# Mechanical properties :
#
#
# Convention : Reuss Voigt Hill
#
# Bulk Modulus (GPa) = 33.60469 66.66257 50.13363
# Shear Modulus (GPa) = 27.71815 49.34244 38.53029
#
# Velocity S-wave (km/s) = 3.18096 4.24410 3.75039
# Velocity P-wave (km/s) = 5.07530 6.95353 6.08729
#
# Compressibility (1/GPa) = 0.02975775
#
# Stress axis : x y z
#
# Youngs Moduli (GPa) = 51.71818 206.93028 46.81303
#
# Poissons Ratio (x) = 0.20007 0.14174
# Poissons Ratio (y) = 0.05000 0.18216
# Poissons Ratio (z) = 0.15659 0.80522
#
# Static dielectric constant tensor:
#      x y z
#    x 2.265950 0.041040 -0.061970 
#    y 0.041040 2.218420 0.008460 
#    z -0.061970 0.008460 2.139000 
# 
# From -- ./inp_files/262152.got.cif
#   From: 2010.05.17/outbox.cif.g08.bks.cpg/sg2_132_cif.got.tgz:262152.got - 2010.06.03 11:33:40.
