data_PCOD9085274
_publ_section_title
;
Structure prediction by ZEFSAII (Michael W. Deem and Ramdas Pophale) SiO2 
 PCOD9085274
Probable space group: P -1
;
_chemical_formula_sum "Si O2"
_cell_formula_units_Z 16
_cell_length_a 8.481060
_cell_length_b 8.771619
_cell_length_c 21.513323
_cell_angle_alpha 144.178540
_cell_angle_beta 112.619405
_cell_angle_gamma 61.119905
_cell_volume 820.103063
_symmetry_space_group_name_H-M "P -1"
_symmetry_group_IT_number 2
_symmetry_cell_setting 'triclinic'
loop_
_space_group_symop_operation_xyz
x,y,z
-x,-y,-z
loop_
_atom_site_type_symbol
_atom_site_label
_atom_site_fract_x
_atom_site_fract_y
_atom_site_fract_z
Si Si1 0.033163 0.038150 0.620152
Si Si2 0.693331 0.849499 0.005809
Si Si3 0.724362 0.363282 0.773180
Si Si4 0.276322 0.975433 0.212665
Si Si5 0.826243 0.487133 0.009907
Si Si6 0.320191 0.052929 0.768025
Si Si7 0.010023 0.424656 0.625643
Si Si8 0.326948 0.668315 0.759955
O O1 0.863224 0.181515 0.685343
O O2 0.023869 0.245434 0.630531
O O3 0.211626 0.992915 0.673343
O O4 0.021676 0.757242 0.496097
O O5 0.667855 0.679740 0.006130
O O6 0.761705 0.091101 0.122664
O O7 0.784631 0.621876 0.892908
O O8 0.500000 0.000000 0.000000
O O9 0.524305 0.491617 0.756293
O O10 0.726972 0.175079 0.771645
O O11 0.150466 0.288570 0.299939
O O12 0.480902 0.948553 0.219280
O O13 0.196666 0.809124 0.095114
O O14 0.796900 0.650470 0.123398
O O15 0.000000 0.500000 0.000000
O O16 0.335940 0.831119 0.751832
O O17 0.195968 0.491915 0.670506
#
# Coordination Sequence:
#
# PCOD9085274 Si02
#       8
#     2   2   2   2   2   2   2   2
#     4  11  25  43  60  82 115 157 207 256 300 350
#     4   8  16  31  55  86 118 148 180 225 283 348
#     4  10  20  38  63  90 121 156 194 242 299 357
#     4  11  22  38  62  91 123 158 196 240 295 356
#     4  10  19  35  59  90 124 156 190 235 291 352
#     4  11  22  38  62  91 123 158 196 240 295 356
#     4  11  25  43  60  82 115 157 207 256 300 350
#     4  10  20  38  63  90 121 156 194 242 299 357
#
# _framework density 19.509744000000001
#
# number of rings (size 3 to 8) (size 9 to 14) (size 15 to 20)
#    0.000    1.750    0.000    5.625    0.000    3.000 
#    0.000    5.000    0.000    0.000    0.000    0.000 
#    0.000    0.000    0.000    0.000    0.000    0.000 
#
# Total GULP energy -89264.456948 kJ/mol
# GULP energy per Si atom -5579.028559 kJ/mol
# Density = 1.946534 g / cm^3
# Si number density = 19.509744 Si / 1000 Ang^3
#
#
#
# Elastic Constant Matrix: (Units=GPa)
#
#
# Indices 1 2 3 4 5 6 
#
# 1 75.0889 0.4124 15.5100 -1.1056 19.6919 3.1139
# 2 0.4124 69.6477 23.4664 -0.5577 8.9042 -8.2187
# 3 15.5100 23.4664 120.4291 -2.1913 24.1228 10.2505
# 4 -1.1056 -0.5577 -2.1913 33.4882 -2.1250 -0.0025
# 5 19.6919 8.9042 24.1228 -2.1250 23.2370 -3.8119
# 6 3.1139 -8.2187 10.2505 -0.0025 -3.8119 27.1905
#
#
#
# Elastic Compliance Matrix: (Units=1/GPa)
#
#
# Indices 1 2 3 4 5 6 
#
# 1 0.017909 0.001127 0.001471 -0.000434 -0.017960 -0.004783
# 2 0.001127 0.016493 -0.003244 -0.000090 -0.002987 0.005661
# 3 0.001471 -0.003244 0.012190 -0.000092 -0.013929 -0.007697
# 4 -0.000434 -0.000090 -0.000092 0.030051 0.003332 0.000527
# 5 -0.017960 -0.002987 -0.013929 0.003332 0.076985 0.017198
# 6 -0.004783 0.005661 -0.007697 0.000527 0.017198 0.044349
#
#
# Mechanical properties :
#
#
# Convention : Reuss Voigt Hill
#
# Bulk Modulus (GPa) = 22.07552 38.21593 30.14572
# Shear Modulus (GPa) = 23.32404 31.83493 27.57949
#
# Velocity S-wave (km/s) = 3.46136 4.04387 3.76390
# Velocity P-wave (km/s) = 5.22632 6.43696 5.86297
#
# Compressibility (1/GPa) = 0.04529905
#
# Stress axis : x y z
#
# Youngs Moduli (GPa) = 55.83635 60.63013 82.03510
#
# Poissons Ratio (x) = -0.06831 -0.12064
# Poissons Ratio (y) = -0.06291 0.26613
# Poissons Ratio (z) = -0.08211 0.19669
#
# Static dielectric constant tensor:
#      x y z
#    x 1.669310 -0.030300 -0.000490 
#    y -0.030300 1.718260 -0.004650 
#    z -0.000490 -0.004650 1.719300 
# 
# From -- ./inp_files/227257.got.cif
#   From: 2010.05.17/outbox.cif.g08.bks.cpg/sg2_114_cif.got.tgz:227257.got - 2010.06.03 11:33:40.
