data_PCOD9085721
_publ_section_title
;
Structure prediction by ZEFSAII (Michael W. Deem and Ramdas Pophale) SiO2 
 PCOD9085721
Probable space group: P -1
;
_chemical_formula_sum "Si O2"
_cell_formula_units_Z 16
_cell_length_a 23.067520
_cell_length_b 9.518320
_cell_length_c 30.966620
_cell_angle_alpha 143.040164
_cell_angle_beta 15.869922
_cell_angle_gamma 150.993126
_cell_volume 854.774183
_symmetry_space_group_name_H-M "P -1"
_symmetry_group_IT_number 2
_symmetry_cell_setting 'triclinic'
loop_
_space_group_symop_operation_xyz
x,y,z
-x,-y,-z
loop_
_atom_site_type_symbol
_atom_site_label
_atom_site_fract_x
_atom_site_fract_y
_atom_site_fract_z
Si Si1 0.485377 0.934647 0.422588
Si Si2 0.135172 0.449773 0.749332
Si Si3 0.645351 0.752132 0.519094
Si Si4 0.733494 0.351762 0.625558
Si Si5 0.259811 0.353321 0.392020
Si Si6 0.778609 0.074451 0.059348
Si Si7 0.305228 0.198256 0.678647
Si Si8 0.767277 0.396648 0.071020
O O1 0.278646 0.609866 0.467858
O O2 0.633248 0.899520 0.346178
O O3 0.722429 0.219053 0.292599
O O4 0.325625 0.033839 0.584065
O O5 0.363658 0.523438 0.637480
O O6 0.125118 0.242240 0.668541
O O7 0.872468 0.329109 0.937058
O O8 0.550023 0.562689 0.585439
O O9 0.690397 0.059544 0.565223
O O10 0.753008 0.563613 0.627414
O O11 0.000000 0.500000 0.500000
O O12 0.474574 0.232020 0.812072
O O13 0.541811 0.419850 0.220883
O O14 0.000000 0.000000 0.500000
O O15 0.652362 0.164060 0.136554
O O16 0.006896 0.099503 0.874379
O O17 0.958963 0.305937 0.027367
#
# Coordination Sequence:
#
# PCOD9085721 Si02
#       8
#     2   2   2   2   2   2   2   2
#     4  10  21  36  59  91 121 154 194 239 298 344
#     4  10  19  35  62  92 116 144 197 251 290 341
#     4  10  19  37  61  88 118 151 193 244 295 345
#     4  12  26  41  60  85 120 163 198 239 299 356
#     4  12  26  41  59  84 124 162 196 241 293 357
#     4  11  20  36  61  91 119 151 196 244 294 347
#     4  10  20  35  62  93 120 148 191 251 293 342
#     4  11  21  36  61  91 120 151 196 246 293 345
#
# _framework density 18.718394
#
# number of rings (size 3 to 8) (size 9 to 14) (size 15 to 20)
#    0.000    1.250    5.000    1.500    3.500    1.000 
#    0.000    1.250    0.000    4.500    0.000    0.000 
#    0.000    0.000    0.000    0.000    0.000    0.000 
#
# Total GULP energy -89153.613308 kJ/mol
# GULP energy per Si atom -5572.100832 kJ/mol
# Density = 1.867579 g / cm^3
# Si number density = 18.718394 Si / 1000 Ang^3
#
#
#
# Elastic Constant Matrix: (Units=GPa)
#
#
# Indices 1 2 3 4 5 6 
#
# 1 116.5003 34.7061 41.2683 -6.0386 -0.1242 -33.5639
# 2 34.7061 65.2806 33.5397 1.3223 8.1741 -19.5475
# 3 41.2683 33.5397 92.7267 9.4716 17.0223 -3.2796
# 4 -6.0386 1.3223 9.4716 26.9396 -3.2116 4.9409
# 5 -0.1242 8.1741 17.0223 -3.2116 27.3523 0.4841
# 6 -33.5639 -19.5475 -3.2796 4.9409 0.4841 33.5519
#
#
#
# Elastic Compliance Matrix: (Units=1/GPa)
#
#
# Indices 1 2 3 4 5 6 
#
# 1 0.015768 -0.001195 -0.007543 0.004391 0.005398 0.013615
# 2 -0.001195 0.023505 -0.006783 -0.001644 -0.003216 0.012124
# 3 -0.007543 -0.006783 0.019047 -0.007793 -0.010628 -0.008334
# 4 0.004391 -0.001644 -0.007793 0.042867 0.010461 -0.003790
# 5 0.005398 -0.003216 -0.010628 0.010461 0.045383 0.000291
# 6 0.013615 0.012124 -0.008334 -0.003790 0.000291 0.050227
#
#
# Mechanical properties :
#
#
# Convention : Reuss Voigt Hill
#
# Bulk Modulus (GPa) = 36.65991 54.83728 45.74860
# Shear Modulus (GPa) = 21.10309 28.56834 24.83572
#
# Velocity S-wave (km/s) = 3.36132 3.91092 3.64649
# Velocity P-wave (km/s) = 5.89000 7.05360 6.49790
#
# Compressibility (1/GPa) = 0.02727775
#
# Stress axis : x y z
#
# Youngs Moduli (GPa) = 63.42130 42.54369 52.50155
#
# Poissons Ratio (x) = 0.05086 0.39601
# Poissons Ratio (y) = 0.07581 0.35611
# Poissons Ratio (z) = 0.47838 0.28856
#
# Static dielectric constant tensor:
#      x y z
#    x 1.683930 -0.008920 0.038950 
#    y -0.008920 1.698320 0.033130 
#    z 0.038950 0.033130 1.652300 
# 
# From -- ./inp_files/262738.got.cif
#   From: 2010.05.17/outbox.cif.g08.bks.cpg/sg2_132_cif.got.tgz:262738.got - 2010.06.03 11:33:40.
