data_PCOD9085164
_publ_section_title
;
Structure prediction by ZEFSAII (Michael W. Deem and Ramdas Pophale) SiO2 
 PCOD9085164
Probable space group: P -1
;
_chemical_formula_sum "Si O2"
_cell_formula_units_Z 12
_cell_length_a 18.207047
_cell_length_b 8.890516
_cell_length_c 8.473628
_cell_angle_alpha 87.022222
_cell_angle_beta 53.372955
_cell_angle_gamma 131.798329
_cell_volume 541.427295
_symmetry_space_group_name_H-M "P -1"
_symmetry_group_IT_number 2
_symmetry_cell_setting 'triclinic'
loop_
_space_group_symop_operation_xyz
x,y,z
-x,-y,-z
loop_
_atom_site_type_symbol
_atom_site_label
_atom_site_fract_x
_atom_site_fract_y
_atom_site_fract_z
Si Si1 0.825197 0.179539 0.647943
Si Si2 0.214605 0.719532 0.614466
Si Si3 0.541615 0.194943 0.735558
Si Si4 0.267050 0.215696 0.000132
Si Si5 0.936844 0.811154 0.237778
Si Si6 0.414393 0.159461 0.589456
O O1 0.837586 0.225792 0.443920
O O2 0.000000 0.500000 0.500000
O O3 0.650080 0.029080 0.934322
O O4 0.782074 0.948299 0.771708
O O5 0.407404 0.907319 0.313679
O O6 0.073948 0.379087 0.794058
O O7 0.251499 0.833571 0.733829
O O8 0.720094 0.533432 0.565391
O O9 0.529425 0.226872 0.565636
O O10 0.327068 0.171941 0.799114
O O11 0.444779 0.578759 0.740268
O O12 0.082551 0.030440 0.179991
O O13 0.000000 0.000000 0.000000
#
# Coordination Sequence:
#
# PCOD9085164 Si02
#       6
#     2   2   2   2   2   2
#     4  11  20  37  56  81 110 153 181 221 279 336
#     4  10  21  34  57  84 114 141 188 228 268 327
#     4   9  20  34  58  79 111 146 183 223 275 321
#     4  10  20  36  58  78 115 146 185 221 282 325
#     4  10  19  35  59  84 105 147 185 227 269 332
#     4  10  20  36  56  85 109 147 184 235 267 316
#
# _framework density 22.163639
#
# number of rings (size 3 to 8) (size 9 to 14) (size 15 to 20)
#    1.000    1.000    3.333    1.000    0.000    1.333 
#    0.000    0.000    0.000    2.000    0.000    0.000 
#    0.000    0.000    0.000    0.000    0.000    0.000 
#
# Total GULP energy -66928.404898 kJ/mol
# GULP energy per Si atom -5577.367075 kJ/mol
# Density = 2.211319 g / cm^3
# Si number density = 22.163639 Si / 1000 Ang^3
#
#
#
# Elastic Constant Matrix: (Units=GPa)
#
#
# Indices 1 2 3 4 5 6 
#
# 1 132.4220 -7.1565 39.5799 -5.7819 12.8556 12.9290
# 2 -7.1565 17.8667 4.3969 -11.2217 -2.1368 2.2848
# 3 39.5799 4.3969 83.1865 -22.6640 -11.4072 -0.9769
# 4 -5.7819 -11.2217 -22.6640 15.0978 -3.1663 -1.1407
# 5 12.8556 -2.1368 -11.4072 -3.1663 46.1277 -9.9908
# 6 12.9290 2.2848 -0.9769 -1.1407 -9.9908 14.0992
#
#
#
# Elastic Compliance Matrix: (Units=1/GPa)
#
#
# Indices 1 2 3 4 5 6 
#
# 1 0.017475 -0.016530 -0.024580 -0.049930 -0.022771 -0.035225
# 2 -0.016530 0.248382 0.103625 0.355977 0.080958 0.068257
# 3 -0.024580 0.103625 0.087328 0.217897 0.064473 0.075115
# 4 -0.049930 0.355977 0.217897 0.688112 0.170434 0.179643
# 5 -0.022771 0.080958 0.064473 0.170434 0.076849 0.080474
# 6 -0.035225 0.068257 0.075115 0.179643 0.080474 0.168930
#
#
# Mechanical properties :
#
#
# Convention : Reuss Voigt Hill
#
# Bulk Modulus (GPa) = 2.09112 34.12399 18.10755
# Shear Modulus (GPa) = 3.78372 28.17525 15.97948
#
# Velocity S-wave (km/s) = 1.30801 3.56931 2.68802
# Velocity P-wave (km/s) = 1.79630 5.69354 4.22156
#
# Compressibility (1/GPa) = 0.47821372
#
# Stress axis : x y z
#
# Youngs Moduli (GPa) = 57.22492 4.02605 11.45109
#
# Poissons Ratio (x) = 0.06655 0.28147
# Poissons Ratio (y) = 0.94594 -1.18662
# Poissons Ratio (z) = 1.40661 -0.41720
#
# Static dielectric constant tensor:
#      x y z
#    x 1.827830 -0.002230 0.004290 
#    y -0.002230 1.791590 0.024920 
#    z 0.004290 0.024920 1.880420 
# 
# From -- ./inp_files/150993.got.cif
#   From: 2010.05.17/outbox.cif.g08.bks.cpg/sg2_76_cif.got.tgz:150993.got - 2010.06.03 11:33:40.
