data_PCOD9085057
_publ_section_title
;
Structure prediction by ZEFSAII (Michael W. Deem and Ramdas Pophale) SiO2 
 PCOD9085057
Probable space group: P -1
;
_chemical_formula_sum "Si O2"
_cell_formula_units_Z 14
_cell_length_a 19.878369
_cell_length_b 13.558673
_cell_length_c 7.917016
_cell_angle_alpha 128.329571
_cell_angle_beta 146.676315
_cell_angle_gamma 31.069558
_cell_volume 569.603698
_symmetry_space_group_name_H-M "P -1"
_symmetry_group_IT_number 2
_symmetry_cell_setting 'triclinic'
loop_
_space_group_symop_operation_xyz
x,y,z
-x,-y,-z
loop_
_atom_site_type_symbol
_atom_site_label
_atom_site_fract_x
_atom_site_fract_y
_atom_site_fract_z
Si Si1 0.527449 0.412272 0.786180
Si Si2 0.001609 0.282392 0.234568
Si Si3 0.058949 0.538677 0.347712
Si Si4 0.301876 0.336206 0.242140
Si Si5 0.069678 0.804790 0.545382
Si Si6 0.377769 0.092957 0.667642
Si Si7 0.146113 0.832653 0.351429
O O1 0.449412 0.335694 0.576223
O O2 0.373400 0.612627 0.560955
O O3 0.500000 0.500000 0.000000
O O4 0.754413 0.258086 0.060758
O O5 0.024514 0.331524 0.513768
O O6 0.194626 0.150213 0.387221
O O7 0.819875 0.506091 0.005440
O O8 0.962485 0.164557 0.013874
O O9 0.100779 0.631755 0.431957
O O10 0.264390 0.305178 0.581775
O O11 0.884078 0.583823 0.973290
O O12 0.460652 0.096646 0.315133
O O13 0.075091 0.831436 0.385049
O O14 0.883318 0.999853 0.474227
O O15 0.500000 0.000000 0.000000
#
# Coordination Sequence:
#
# PCOD9085057 Si02
#       7
#     2   2   2   2   2   2   2
#     4   9  19  38  61  81 109 158 197 224 279 358
#     4  10  19  35  58  87 112 153 197 233 286 351
#     4  11  22  34  58  95 117 139 198 252 277 333
#     4  10  19  36  59  84 115 154 189 231 292 346
#     4  10  21  39  59  86 116 151 196 241 286 340
#     4  11  18  34  58  82 117 162 182 225 296 352
#     4   9  20  39  61  76 115 166 187 227 300 352
#
# _framework density 24.578492000000001
#
# number of rings (size 3 to 8) (size 9 to 14) (size 15 to 20)
#    0.000    2.000    2.857    1.714    0.000    1.714 
#    0.000   14.286    0.000   16.286    0.000    0.000 
#    0.000    0.000    0.000    0.000    0.000    0.000 
#
# Total GULP energy -77973.706961 kJ/mol
# GULP energy per Si atom -5569.550497 kJ/mol
# Density = 2.452255 g / cm^3
# Si number density = 24.578492 Si / 1000 Ang^3
#
#
#
# Elastic Constant Matrix: (Units=GPa)
#
#
# Indices 1 2 3 4 5 6 
#
# 1 45.1210 26.9342 11.4547 -3.0731 11.7182 7.3022
# 2 26.9342 172.9398 50.4702 -6.3410 23.8725 15.2141
# 3 11.4547 50.4702 96.5002 8.0547 21.9086 15.3765
# 4 -3.0731 -6.3410 8.0547 32.4347 4.1623 12.0503
# 5 11.7182 23.8725 21.9086 4.1623 20.9117 -1.8808
# 6 7.3022 15.2141 15.3765 12.0503 -1.8808 36.5686
#
#
#
# Elastic Compliance Matrix: (Units=1/GPa)
#
#
# Indices 1 2 3 4 5 6 
#
# 1 0.029928 -0.001403 0.002858 0.008391 -0.020772 -0.010428
# 2 -0.001403 0.008197 -0.002107 0.004503 -0.007630 -0.004120
# 3 0.002858 -0.002107 0.016113 0.000863 -0.016935 -0.007625
# 4 0.008391 0.004503 0.000863 0.041946 -0.020787 -0.018803
# 5 -0.020772 -0.007630 -0.016935 -0.020787 0.092392 0.026045
# 6 -0.010428 -0.004120 -0.007625 -0.018803 0.026045 0.041884
#
#
# Mechanical properties :
#
#
# Convention : Reuss Voigt Hill
#
# Bulk Modulus (GPa) = 18.89148 54.69768 36.79458
# Shear Modulus (GPa) = 20.04737 33.02978 26.53858
#
# Velocity S-wave (km/s) = 2.85905 3.66983 3.28952
# Velocity P-wave (km/s) = 4.31298 6.34504 5.42500
#
# Compressibility (1/GPa) = 0.05293393
#
# Stress axis : x y z
#
# Youngs Moduli (GPa) = 33.41335 122.00065 62.06069
#
# Poissons Ratio (x) = 0.17115 -0.17738
# Poissons Ratio (y) = 0.04687 0.13079
# Poissons Ratio (z) = -0.09550 0.25711
#
# Static dielectric constant tensor:
#      x y z
#    x 2.183820 -0.059310 -0.014170 
#    y -0.059310 2.094290 -0.036150 
#    z -0.014170 -0.036150 2.082950 
# 
# From -- ./inp_files/245963.got.cif
#   From: 2010.05.17/outbox.cif.g08.bks.cpg/sg2_123_cif.got.tgz:245963.got - 2010.06.03 11:33:40.
