data_PCOD9085054
_publ_section_title
;
Structure prediction by ZEFSAII (Michael W. Deem and Ramdas Pophale) SiO2 
 PCOD9085054
Probable space group: P -1
;
_chemical_formula_sum "Si O2"
_cell_formula_units_Z 14
_cell_length_a 14.384226
_cell_length_b 9.251654
_cell_length_c 15.089669
_cell_angle_alpha 103.049964
_cell_angle_beta 28.493763
_cell_angle_gamma 82.381438
_cell_volume 655.043292
_symmetry_space_group_name_H-M "P -1"
_symmetry_group_IT_number 2
_symmetry_cell_setting 'triclinic'
loop_
_space_group_symop_operation_xyz
x,y,z
-x,-y,-z
loop_
_atom_site_type_symbol
_atom_site_label
_atom_site_fract_x
_atom_site_fract_y
_atom_site_fract_z
Si Si1 0.749452 0.433143 0.469672
Si Si2 0.143516 0.318044 0.282179
Si Si3 0.127903 0.961495 0.756618
Si Si4 0.553503 0.303786 0.393766
Si Si5 0.550001 0.596953 0.047552
Si Si6 0.170419 0.730318 0.095799
Si Si7 0.949766 0.950046 0.629663
O O1 0.868414 0.210142 0.306286
O O2 0.692364 0.577939 0.455641
O O3 0.943921 0.394962 0.376611
O O4 0.442802 0.570713 0.785125
O O5 0.000000 0.500000 0.500000
O O6 0.189304 0.134495 0.263452
O O7 0.396221 0.276055 0.026436
O O8 0.391495 0.827195 0.583665
O O9 0.091514 0.096602 0.724608
O O10 0.846188 0.134746 0.073369
O O11 0.500000 0.500000 0.500000
O O12 0.271759 0.751260 0.359830
O O13 0.500000 0.500000 0.000000
O O14 0.805895 0.411711 0.870518
O O15 0.196639 0.862937 0.152962
O O16 0.000000 0.000000 0.500000
#
# Coordination Sequence:
#
# PCOD9085054 Si02
#       7
#     2   2   2   2   2   2   2
#     4  10  19  35  58  86 125 157 204 255 304 362
#     4  12  23  40  61  84 123 167 206 254 309 356
#     4   9  16  31  57  90 120 157 200 245 310 368
#     4   8  16  29  55  92 123 153 195 251 305 369
#     4  12  23  41  56  82 121 158 208 258 304 358
#     4  11  19  37  60  82 122 156 201 257 298 360
#     4  12  24  41  59  85 117 159 210 256 302 362
#
# _framework density 21.372631999999999
#
# number of rings (size 3 to 8) (size 9 to 14) (size 15 to 20)
#    0.000    1.429    5.714    0.000    0.000    0.571 
#    2.571    0.000    0.000    0.857    0.000   41.000 
#    0.000    0.000    0.000    0.000    0.000    0.000 
#
# Total GULP energy -78029.880474 kJ/mol
# GULP energy per Si atom -5573.562891 kJ/mol
# Density = 2.132399 g / cm^3
# Si number density = 21.372632 Si / 1000 Ang^3
#
#
#
# Elastic Constant Matrix: (Units=GPa)
#
#
# Indices 1 2 3 4 5 6 
#
# 1 117.2005 49.0995 16.3256 11.8714 -1.8113 -37.1028
# 2 49.0995 151.4910 33.3113 2.9153 -7.8633 -31.0123
# 3 16.3256 33.3113 80.0145 16.5109 16.3860 16.8200
# 4 11.8714 2.9153 16.5109 38.3331 8.3044 -3.7932
# 5 -1.8113 -7.8633 16.3860 8.3044 35.2103 18.4658
# 6 -37.1028 -31.0123 16.8200 -3.7932 18.4658 52.1731
#
#
#
# Elastic Compliance Matrix: (Units=1/GPa)
#
#
# Indices 1 2 3 4 5 6 
#
# 1 0.013018 -0.001431 -0.003470 -0.000604 -0.003518 0.010727
# 2 -0.001431 0.009669 -0.005815 0.002704 0.000721 0.006545
# 3 -0.003470 -0.005815 0.020350 -0.007845 -0.002764 -0.012077
# 4 -0.000604 0.002704 -0.007845 0.032054 -0.007985 0.008863
# 5 -0.003518 0.000721 -0.002764 -0.007985 0.039876 -0.015876
# 6 0.010727 0.006545 -0.012077 0.008863 -0.015876 0.040843
#
#
# Mechanical properties :
#
#
# Convention : Reuss Voigt Hill
#
# Bulk Modulus (GPa) = 46.28624 60.68653 53.48638
# Shear Modulus (GPa) = 27.10841 41.80795 34.45818
#
# Velocity S-wave (km/s) = 3.56528 4.42763 4.01965
# Velocity P-wave (km/s) = 6.21708 7.38882 6.82813
#
# Compressibility (1/GPa) = 0.02160469
#
# Stress axis : x y z
#
# Youngs Moduli (GPa) = 76.81601 103.42411 49.14018
#
# Poissons Ratio (x) = 0.14803 0.17051
# Poissons Ratio (y) = 0.10995 0.28574
# Poissons Ratio (z) = 0.26655 0.60140
#
# Static dielectric constant tensor:
#      x y z
#    x 1.867670 -0.111710 -0.015030 
#    y -0.111710 1.834730 0.036920 
#    z -0.015030 0.036920 1.763190 
# 
# From -- ./inp_files/529599.got.cif
#   From: 2010.05.17/outbox.cif.g08.bks.cpg/sg2_265_cif.got.tgz:529599.got - 2010.06.03 11:33:40.
