data_PCOD9085992
_publ_section_title
;
Structure prediction by ZEFSAII (Michael W. Deem and Ramdas Pophale) SiO2 
 PCOD9085992
Probable space group: P -1
;
_chemical_formula_sum "Si O2"
_cell_formula_units_Z 14
_cell_length_a 9.697211
_cell_length_b 17.714757
_cell_length_c 7.662998
_cell_angle_alpha 128.291150
_cell_angle_beta 98.010052
_cell_angle_gamma 122.457190
_cell_volume 611.673879
_symmetry_space_group_name_H-M "P -1"
_symmetry_group_IT_number 2
_symmetry_cell_setting 'triclinic'
loop_
_space_group_symop_operation_xyz
x,y,z
-x,-y,-z
loop_
_atom_site_type_symbol
_atom_site_label
_atom_site_fract_x
_atom_site_fract_y
_atom_site_fract_z
Si Si1 0.271520 0.832792 0.975527
Si Si2 0.944964 0.883756 0.455269
Si Si3 0.099174 0.356056 0.917687
Si Si4 0.443843 0.182833 0.121064
Si Si5 0.628176 0.176589 0.618312
Si Si6 0.839621 0.504821 0.508503
Si Si7 0.509529 0.316064 0.694302
O O1 0.341159 0.835041 0.189010
O O2 0.389023 0.002356 0.245363
O O3 0.398790 0.826506 0.864684
O O4 0.992143 0.669644 0.669749
O O5 0.903058 0.755353 0.183284
O O6 0.721530 0.784423 0.388605
O O7 0.000000 0.000000 0.500000
O O8 0.184080 0.008598 0.782930
O O9 0.841796 0.244271 0.652768
O O10 0.140673 0.447622 0.221726
O O11 0.304789 0.495280 0.021027
O O12 0.571173 0.321899 0.195521
O O13 0.443418 0.240256 0.382828
O O14 0.636666 0.295288 0.774453
O O15 0.000000 0.500000 0.500000
#
# Coordination Sequence:
#
# PCOD9085992 Si02
#       7
#     2   2   2   2   2   2   2
#     4   9  17  33  62  91 125 154 202 252 299 357
#     4  12  25  42  66  87 120 171 216 247 301 375
#     4  10  21  41  63  90 128 161 203 257 304 365
#     4  10  20  40  58  87 129 162 196 259 309 361
#     4  10  19  35  66  94 120 159 209 250 305 366
#     4   8  17  33  61  89 120 156 191 251 311 348
#     4  11  24  38  63  91 127 162 203 255 317 362
#
# _framework density 22.888013000000001
#
# number of rings (size 3 to 8) (size 9 to 14) (size 15 to 20)
#    0.000    2.000    1.429    2.143    4.000    0.571 
#    0.000    4.286    3.143    0.000    0.000    0.000 
#    0.000    0.000    0.000    0.000    0.000    0.000 
#
# Total GULP energy -78125.487403 kJ/mol
# GULP energy per Si atom -5580.391957 kJ/mol
# Density = 2.283592 g / cm^3
# Si number density = 22.888013 Si / 1000 Ang^3
#
#
#
# Elastic Constant Matrix: (Units=GPa)
#
#
# Indices 1 2 3 4 5 6 
#
# 1 92.8256 42.4660 28.7582 21.0528 -1.6713 17.8339
# 2 42.4660 79.8080 36.5187 28.4220 2.9274 15.1993
# 3 28.7582 36.5187 65.7932 22.3168 -18.6482 6.7663
# 4 21.0528 28.4220 22.3168 33.8225 0.5013 -2.9775
# 5 -1.6713 2.9274 -18.6482 0.5013 29.5355 12.0966
# 6 17.8339 15.1993 6.7663 -2.9775 12.0966 38.5626
#
#
#
# Elastic Compliance Matrix: (Units=1/GPa)
#
#
# Indices 1 2 3 4 5 6 
#
# 1 0.016021 -0.004969 0.000015 -0.006524 0.004542 -0.007382
# 2 -0.004969 0.024610 -0.008356 -0.012439 -0.005692 -0.005111
# 3 0.000015 -0.008356 0.035637 -0.018124 0.029173 -0.013517
# 4 -0.006524 -0.012439 -0.018124 0.058286 -0.020605 0.022064
# 5 0.004542 -0.005692 0.029173 -0.020605 0.064413 -0.026773
# 6 -0.007382 -0.005111 -0.013517 0.022064 -0.026773 0.043834
#
#
# Mechanical properties :
#
#
# Convention : Reuss Voigt Hill
#
# Bulk Modulus (GPa) = 20.14214 50.43473 35.28844
# Shear Modulus (GPa) = 17.48425 29.09637 23.29031
#
# Velocity S-wave (km/s) = 2.76688 3.56933 3.19341
# Velocity P-wave (km/s) = 4.36198 6.25060 5.38966
#
# Compressibility (1/GPa) = 0.04964716
#
# Stress axis : x y z
#
# Youngs Moduli (GPa) = 62.41736 40.63402 28.06046
#
# Poissons Ratio (x) = 0.20192 -0.00041
# Poissons Ratio (y) = 0.31016 0.23448
# Poissons Ratio (z) = -0.00092 0.33954
#
# Static dielectric constant tensor:
#      x y z
#    x 1.817090 -0.019580 -0.002670 
#    y -0.019580 1.948630 0.034770 
#    z -0.002670 0.034770 1.918980 
# 
# From -- ./inp_files/158406.got.cif
#   From: 2010.05.17/outbox.cif.g08.bks.cpg/sg2_80_cif.got.tgz:158406.got - 2010.06.03 11:33:40.
