data_PCOD9085980
_publ_section_title
;
Structure prediction by ZEFSAII (Michael W. Deem and Ramdas Pophale) SiO2 
 PCOD9085980
Probable space group: P -1
;
_chemical_formula_sum "Si O2"
_cell_formula_units_Z 16
_cell_length_a 7.880244
_cell_length_b 9.122209
_cell_length_c 17.846819
_cell_angle_alpha 40.354375
_cell_angle_beta 112.843789
_cell_angle_gamma 85.419315
_cell_volume 594.765187
_symmetry_space_group_name_H-M "P -1"
_symmetry_group_IT_number 2
_symmetry_cell_setting 'triclinic'
loop_
_space_group_symop_operation_xyz
x,y,z
-x,-y,-z
loop_
_atom_site_type_symbol
_atom_site_label
_atom_site_fract_x
_atom_site_fract_y
_atom_site_fract_z
Si Si1 0.585491 0.148201 0.797436
Si Si2 0.526954 0.721465 0.012188
Si Si3 0.950145 0.372379 0.311359
Si Si4 0.867972 0.181655 0.178775
Si Si5 0.567071 0.150176 0.396427
Si Si6 0.931750 0.359755 0.484053
Si Si7 0.083504 0.659179 0.099862
Si Si8 0.289424 0.162461 0.217578
O O1 0.613209 0.991655 0.784772
O O2 0.350515 0.479232 0.619817
O O3 0.520428 0.996982 0.903361
O O4 0.861056 0.997886 0.920350
O O5 0.683700 0.510929 0.189773
O O6 0.267462 0.824046 0.912809
O O7 0.688452 0.508833 0.052754
O O8 0.964274 0.421326 0.381331
O O9 0.009548 0.528882 0.201335
O O10 0.157880 0.024298 0.473274
O O11 0.882383 0.496941 0.914823
O O12 0.127206 0.079325 0.249017
O O13 0.357409 0.496992 0.229936
O O14 0.517580 0.063145 0.343008
O O15 0.500000 0.000000 0.500000
O O16 0.000000 0.500000 0.500000
O O17 0.097748 0.028106 0.668802
#
# Coordination Sequence:
#
# PCOD9085980 Si02
#       8
#     2   2   2   2   2   2   2   2
#     4  11  20  39  60  92 123 162 214 239 313 377
#     4  10  22  40  65  94 122 168 208 261 314 360
#     4  10  19  40  63  91 128 161 210 260 308 374
#     4  11  22  40  61  96 130 156 215 258 314 370
#     4   8  15  30  56  90 115 144 208 254 302 348
#     4  12  26  39  60  93 128 173 207 250 316 386
#     4   8  18  32  61  95 111 156 206 256 308 346
#     4  10  19  35  66  90 122 160 207 265 304 356
#
# _framework density 26.901373
#
# number of rings (size 3 to 8) (size 9 to 14) (size 15 to 20)
#    0.750    1.250    3.750    1.125    0.000    3.000 
#    2.250    0.000    5.500    0.750    0.000    0.000 
#    0.000    0.000    0.000    0.000    0.000    0.000 
#
# Total GULP energy -89316.551945 kJ/mol
# GULP energy per Si atom -5582.284497 kJ/mol
# Density = 2.684014 g / cm^3
# Si number density = 26.901373 Si / 1000 Ang^3
#
#
#
# Elastic Constant Matrix: (Units=GPa)
#
#
# Indices 1 2 3 4 5 6 
#
# 1 81.6755 -1.9313 28.6829 -3.8597 21.7434 -21.2418
# 2 -1.9313 99.4981 47.5551 -3.6155 -2.7805 -16.2285
# 3 28.6829 47.5551 180.4227 -9.3021 32.8255 -0.8811
# 4 -3.8597 -3.6155 -9.3021 58.9548 3.4856 4.0071
# 5 21.7434 -2.7805 32.8255 3.4856 47.1661 3.0090
# 6 -21.2418 -16.2285 -0.8811 4.0071 3.0090 24.1236
#
#
#
# Elastic Compliance Matrix: (Units=1/GPa)
#
#
# Indices 1 2 3 4 5 6 
#
# 1 0.022413 0.005753 -0.003256 0.000184 -0.009311 0.024617
# 2 0.005753 0.014970 -0.004955 -0.000549 0.000766 0.014951
# 3 -0.003256 -0.004955 0.008181 0.001405 -0.004231 -0.005607
# 4 0.000184 -0.000549 0.001405 0.017482 -0.002209 -0.002784
# 5 -0.009311 0.000766 -0.004231 -0.002209 0.029357 -0.011133
# 6 0.024617 0.014951 -0.005607 -0.002784 -0.011133 0.074834
#
#
# Mechanical properties :
#
#
# Convention : Reuss Voigt Hill
#
# Bulk Modulus (GPa) = 24.60127 56.68997 40.64562
# Shear Modulus (GPa) = 26.92479 45.20155 36.06317
#
# Velocity S-wave (km/s) = 3.16709 4.10356 3.66535
# Velocity P-wave (km/s) = 4.74750 6.60085 5.74935
#
# Compressibility (1/GPa) = 0.04064830
#
# Stress axis : x y z
#
# Youngs Moduli (GPa) = 44.61746 66.79868 122.23526
#
# Poissons Ratio (x) = -0.38427 0.39795
# Poissons Ratio (y) = -0.25667 0.60567
# Poissons Ratio (z) = 0.14526 0.33098
#
# Static dielectric constant tensor:
#      x y z
#    x 2.109430 0.009930 0.029680 
#    y 0.009930 2.131110 0.025130 
#    z 0.029680 0.025130 2.098150 
# 
# From -- ./inp_files/560823.got.cif
#   From: 2010.05.17/outbox.cif.g08.bks.cpg/sg2_281_cif.got.tgz:560823.got - 2010.06.03 11:33:40.
