data_PCOD9085325
_publ_section_title
;
Structure prediction by ZEFSAII (Michael W. Deem and Ramdas Pophale) SiO2 
 PCOD9085325
Probable space group: P -1
;
_chemical_formula_sum "Si O2"
_cell_formula_units_Z 14
_cell_length_a 8.382442
_cell_length_b 20.768354
_cell_length_c 18.700371
_cell_angle_alpha 161.795047
_cell_angle_beta 131.137939
_cell_angle_gamma 40.334328
_cell_volume 621.970500
_symmetry_space_group_name_H-M "P -1"
_symmetry_group_IT_number 2
_symmetry_cell_setting 'triclinic'
loop_
_space_group_symop_operation_xyz
x,y,z
-x,-y,-z
loop_
_atom_site_type_symbol
_atom_site_label
_atom_site_fract_x
_atom_site_fract_y
_atom_site_fract_z
Si Si1 0.834426 0.400948 0.546853
Si Si2 0.912906 0.759201 0.284696
Si Si3 0.436897 0.247272 0.284224
Si Si4 0.816289 0.120395 0.736899
Si Si5 0.585042 0.908625 0.609130
Si Si6 0.336139 0.095731 0.884770
Si Si7 0.412188 0.607020 0.197470
O O1 0.655563 0.300964 0.397154
O O2 0.804585 0.511236 0.573796
O O3 0.130741 0.165444 0.398257
O O4 0.735492 0.643694 0.825125
O O5 0.166846 0.747656 0.326135
O O6 0.868581 0.849453 0.449045
O O7 0.640825 0.949117 0.365888
O O8 0.000000 0.500000 0.000000
O O9 0.451306 0.156525 0.273413
O O10 0.500000 0.000000 0.000000
O O11 0.714247 0.267579 0.784997
O O12 0.074324 0.103700 0.813467
O O13 0.577701 0.306945 0.915586
O O14 0.620171 0.641189 0.331385
O O15 0.453921 0.058113 0.801190
#
# Coordination Sequence:
#
# PCOD9085325 Si02
#       7
#     2   2   2   2   2   2   2
#     4  10  22  43  65  91 122 158 206 257 313 377
#     4  11  23  36  53  89 132 163 204 254 293 356
#     4   9  22  44  66  89 124 157 198 262 320 373
#     4  10  19  35  60  81 116 166 204 239 299 352
#     4  11  21  38  64  90 122 165 208 251 305 364
#     4  11  20  38  65  95 122 162 206 254 311 366
#     4  10  19  37  58  82 121 167 202 240 294 353
#
# _framework density 22.509108000000001
#
# number of rings (size 3 to 8) (size 9 to 14) (size 15 to 20)
#    0.000    1.714    4.286    0.857    0.000    3.429 
#    0.000    6.429    0.000    0.000    0.000    0.000 
#    0.000    0.000    0.000    0.000    0.000    0.000 
#
# Total GULP energy -77996.897054 kJ/mol
# GULP energy per Si atom -5571.206932 kJ/mol
# Density = 2.245788 g / cm^3
# Si number density = 22.509108 Si / 1000 Ang^3
#
#
#
# Elastic Constant Matrix: (Units=GPa)
#
#
# Indices 1 2 3 4 5 6 
#
# 1 39.3156 14.6927 23.8329 -8.6246 -10.7504 -8.0664
# 2 14.6927 84.0202 32.6590 -7.8022 -5.2518 -8.1364
# 3 23.8329 32.6590 133.4655 -11.2150 -5.6697 -15.8567
# 4 -8.6246 -7.8022 -11.2150 32.9535 -8.0092 3.2245
# 5 -10.7504 -5.2518 -5.6697 -8.0092 37.3720 1.7546
# 6 -8.0664 -8.1364 -15.8567 3.2245 1.7546 15.0945
#
#
#
# Elastic Compliance Matrix: (Units=1/GPa)
#
#
# Indices 1 2 3 4 5 6 
#
# 1 0.035528 -0.002355 -0.003214 0.009197 0.010851 0.011115
# 2 -0.002355 0.013782 -0.002377 0.001805 0.001137 0.003155
# 3 -0.003214 -0.002377 0.009561 0.001221 0.000136 0.006768
# 4 0.009197 0.001805 0.001221 0.036451 0.010985 -0.001893
# 5 0.010851 0.001137 0.000136 0.010985 0.032393 0.000442
# 6 0.011115 0.003155 0.006768 -0.001893 0.000442 0.081353
#
#
# Mechanical properties :
#
#
# Convention : Reuss Voigt Hill
#
# Bulk Modulus (GPa) = 23.26708 44.35228 33.80968
# Shear Modulus (GPa) = 20.89556 29.45845 25.17700
#
# Velocity S-wave (km/s) = 3.05013 3.62157 3.34806
# Velocity P-wave (km/s) = 4.77112 6.10202 5.47714
#
# Compressibility (1/GPa) = 0.04297917
#
# Stress axis : x y z
#
# Youngs Moduli (GPa) = 28.14658 72.55836 104.59666
#
# Poissons Ratio (x) = 0.17088 0.33615
# Poissons Ratio (y) = 0.06629 0.24862
# Poissons Ratio (z) = 0.09046 0.17247
#
# Static dielectric constant tensor:
#      x y z
#    x 1.938070 0.033900 0.178080 
#    y 0.033900 1.867050 0.009250 
#    z 0.178080 0.009250 2.072820 
# 
# From -- ./inp_files/533574.got.cif
#   From: 2010.05.17/outbox.cif.g08.bks.cpg/sg2_267_cif.got.tgz:533574.got - 2010.06.03 11:33:40.
