data_PCOD9085759
_publ_section_title
;
Structure prediction by ZEFSAII (Michael W. Deem and Ramdas Pophale) SiO2 
 PCOD9085759
Probable space group: P -1
;
_chemical_formula_sum "Si O2"
_cell_formula_units_Z 16
_cell_length_a 5.326530
_cell_length_b 9.120013
_cell_length_c 21.651152
_cell_angle_alpha 135.925651
_cell_angle_beta 64.052060
_cell_angle_gamma 99.286867
_cell_volume 637.871108
_symmetry_space_group_name_H-M "P -1"
_symmetry_group_IT_number 2
_symmetry_cell_setting 'triclinic'
loop_
_space_group_symop_operation_xyz
x,y,z
-x,-y,-z
loop_
_atom_site_type_symbol
_atom_site_label
_atom_site_fract_x
_atom_site_fract_y
_atom_site_fract_z
Si Si1 0.582048 0.760077 0.263188
Si Si2 0.430787 0.255818 0.597015
Si Si3 0.188946 0.822369 0.217168
Si Si4 0.487137 0.858016 0.775511
Si Si5 0.909813 0.361115 0.023408
Si Si6 0.650577 0.690529 0.950547
Si Si7 0.667976 0.517230 0.550440
Si Si8 0.929827 0.675393 0.781949
O O1 0.515596 0.723310 0.329627
O O2 0.292630 0.854592 0.285122
O O3 0.724869 0.531490 0.144412
O O4 0.842336 0.884253 0.267822
O O5 0.621270 0.342699 0.552820
O O6 0.115870 0.425637 0.675355
O O7 0.500000 0.000000 0.500000
O O8 0.281154 0.564585 0.115286
O O9 0.390944 0.930502 0.186783
O O10 0.553601 0.740865 0.666234
O O11 0.169499 0.816070 0.804597
O O12 0.698571 0.739757 0.771558
O O13 0.688968 0.226145 0.983734
O O14 0.169799 0.215224 0.990110
O O15 0.000000 0.500000 0.000000
O O16 0.767374 0.699624 0.872262
O O17 0.500000 0.500000 0.500000
O O18 0.000000 0.500000 0.500000
#
# Coordination Sequence:
#
# PCOD9085759 Si02
#       8
#     2   2   2   2   2   2   2   2
#     4  10  22  39  62  95 123 156 217 255 299 383
#     4  11  25  42  67  87 127 169 211 260 317 360
#     4  10  21  37  64  86 122 162 201 256 309 363
#     4  11  24  39  64  82 124 165 215 253 326 361
#     4  10  19  35  62  99 131 158 194 263 322 360
#     4  10  20  36  64  93 130 151 213 257 303 378
#     4  11  26  42  56  85 121 154 210 265 302 368
#     4  11  22  42  59  94 121 163 216 261 302 380
#
# _framework density 25.083435000000001
#
# number of rings (size 3 to 8) (size 9 to 14) (size 15 to 20)
#    0.000    1.500    2.500    3.375    8.750    1.000 
#    0.000    6.250    0.000    0.000    0.000   70.000 
#    0.000    0.000    0.000    0.000    0.000    0.000 
#
# Total GULP energy -89489.509512 kJ/mol
# GULP energy per Si atom -5593.094344 kJ/mol
# Density = 2.502634 g / cm^3
# Si number density = 25.083435 Si / 1000 Ang^3
#
#
#
# Elastic Constant Matrix: (Units=GPa)
#
#
# Indices 1 2 3 4 5 6 
#
# 1 235.2866 46.1059 53.3025 -21.8472 4.2908 2.8247
# 2 46.1059 113.3987 61.5004 -18.7218 0.3266 14.6675
# 3 53.3025 61.5004 103.4147 -30.0604 19.8309 1.0470
# 4 -21.8472 -18.7218 -30.0604 45.2602 -0.9649 2.4312
# 5 4.2908 0.3266 19.8309 -0.9649 37.1245 -12.5328
# 6 2.8247 14.6675 1.0470 2.4312 -12.5328 50.8416
#
#
#
# Elastic Compliance Matrix: (Units=1/GPa)
#
#
# Indices 1 2 3 4 5 6 
#
# 1 0.004908 -0.000855 -0.001899 0.000759 0.000509 0.000102
# 2 -0.000855 0.014264 -0.008727 -0.000071 0.003624 -0.002991
# 3 -0.001899 -0.008727 0.020487 0.008898 -0.010708 -0.000864
# 4 0.000759 -0.000071 0.008898 0.028385 -0.005050 -0.002807
# 5 0.000509 0.003624 -0.010708 -0.005050 0.035153 0.008054
# 6 0.000102 -0.002991 -0.000864 -0.002807 0.008054 0.022664
#
#
# Mechanical properties :
#
#
# Convention : Reuss Voigt Hill
#
# Bulk Modulus (GPa) = 59.89181 85.99083 72.94132
# Shear Modulus (GPa) = 32.38572 46.05802 39.22187
#
# Velocity S-wave (km/s) = 3.59711 4.28973 3.95860
# Velocity P-wave (km/s) = 6.41726 7.67412 7.07366
#
# Compressibility (1/GPa) = 0.01669677
#
# Stress axis : x y z
#
# Youngs Moduli (GPa) = 203.75349 70.10730 48.81028
#
# Poissons Ratio (x) = 0.05992 0.09270
# Poissons Ratio (y) = 0.17416 0.42598
# Poissons Ratio (z) = 0.38697 0.61184
#
# Static dielectric constant tensor:
#      x y z
#    x 2.269500 0.179510 -0.058380 
#    y 0.179510 2.334840 0.098430 
#    z -0.058380 0.098430 2.023400 
# 
# From -- ./inp_files/582554.got.cif
#   From: 2010.05.17/outbox.cif.g08.bks.cpg/sg2_292_cif.got.tgz:582554.got - 2010.06.03 11:33:40.
