data_PCOD9085167
_publ_section_title
;
Structure prediction by ZEFSAII (Michael W. Deem and Ramdas Pophale) SiO2 
 PCOD9085167
Probable space group: P -1
;
_chemical_formula_sum "Si O2"
_cell_formula_units_Z 14
_cell_length_a 14.284918
_cell_length_b 6.716495
_cell_length_c 13.831139
_cell_angle_alpha 101.131423
_cell_angle_beta 31.043345
_cell_angle_gamma 81.487144
_cell_volume 527.106064
_symmetry_space_group_name_H-M "P -1"
_symmetry_group_IT_number 2
_symmetry_cell_setting 'triclinic'
loop_
_space_group_symop_operation_xyz
x,y,z
-x,-y,-z
loop_
_atom_site_type_symbol
_atom_site_label
_atom_site_fract_x
_atom_site_fract_y
_atom_site_fract_z
Si Si1 0.126711 0.875734 0.994167
Si Si2 0.356943 0.979476 0.496684
Si Si3 0.228046 0.882345 0.223854
Si Si4 0.506313 0.633500 0.790060
Si Si5 0.037588 0.261811 0.244370
Si Si6 0.532267 0.848998 0.120345
Si Si7 0.243694 0.429874 0.745577
O O1 0.885664 0.947055 0.248281
O O2 0.106547 0.127547 0.064021
O O3 0.330176 0.678128 0.869854
O O4 0.203002 0.702975 0.813337
O O5 0.324700 0.247412 0.562620
O O6 0.413378 0.872819 0.328444
O O7 0.560643 0.769571 0.368566
O O8 0.400742 0.874350 0.143386
O O9 0.112267 0.074479 0.252931
O O10 0.410466 0.614585 0.976174
O O11 0.000000 0.000000 0.500000
O O12 0.766996 0.429671 0.508978
O O13 0.497969 0.884684 0.828292
O O14 0.186497 0.362478 0.139727
O O15 0.000000 0.500000 0.000000
#
# Coordination Sequence:
#
# PCOD9085167 Si02
#       7
#     2   2   2   2   2   2   2
#     4   9  18  35  57  80 108 143 185 229 271 322
#     4  10  19  35  59  84 110 142 184 232 282 327
#     4  10  21  37  56  83 113 143 187 230 269 324
#     4  10  21  37  56  80 114 151 184 222 272 327
#     4  10  21  36  54  79 115 153 183 222 273 323
#     4  10  21  36  55  82 113 145 184 226 272 333
#     4   9  19  34  57  85 111 140 180 233 284 329
#
# _framework density 26.560120000000001
#
# number of rings (size 3 to 8) (size 9 to 14) (size 15 to 20)
#    0.000    2.571    0.000    4.286    0.000    5.143 
#    0.000    5.714    0.000   32.571    0.000    0.000 
#    0.000    0.000    0.000    0.000    0.000    0.000 
#
# Total GULP energy -78108.197381 kJ/mol
# GULP energy per Si atom -5579.156956 kJ/mol
# Density = 2.649967 g / cm^3
# Si number density = 26.560120 Si / 1000 Ang^3
#
#
#
# Elastic Constant Matrix: (Units=GPa)
#
#
# Indices 1 2 3 4 5 6 
#
# 1 198.5000 15.5258 78.1661 1.4781 -11.8437 17.5725
# 2 15.5258 34.7474 27.5327 -13.2238 -6.9199 -2.2570
# 3 78.1661 27.5327 192.4114 15.0821 -17.7933 7.1038
# 4 1.4781 -13.2238 15.0821 20.1136 1.7912 1.5115
# 5 -11.8437 -6.9199 -17.7933 1.7912 63.0793 1.4431
# 6 17.5725 -2.2570 7.1038 1.5115 1.4431 38.0726
#
#
#
# Elastic Compliance Matrix: (Units=1/GPa)
#
#
# Indices 1 2 3 4 5 6 
#
# 1 0.006280 -0.000494 -0.002437 0.001191 0.000462 -0.002538
# 2 -0.000494 0.055290 -0.011192 0.044364 0.001469 0.003777
# 3 -0.002437 -0.011192 0.009031 -0.014011 0.001276 -0.000716
# 4 0.001191 0.044364 -0.014011 0.089341 -0.001426 0.001202
# 5 0.000462 0.001469 0.001276 -0.001426 0.016523 -0.000934
# 6 -0.002538 0.003777 -0.000716 0.001202 -0.000934 0.027782
#
#
# Mechanical properties :
#
#
# Convention : Reuss Voigt Hill
#
# Bulk Modulus (GPa) = 23.61057 74.23420 48.92239
# Shear Modulus (GPa) = 20.27485 44.54872 32.41178
#
# Velocity S-wave (km/s) = 2.76589 4.09990 3.49709
# Velocity P-wave (km/s) = 4.37138 7.10088 5.89624
#
# Compressibility (1/GPa) = 0.04235390
#
# Stress axis : x y z
#
# Youngs Moduli (GPa) = 159.24784 18.08655 110.72359
#
# Poissons Ratio (x) = 0.00894 0.26986
# Poissons Ratio (y) = 0.07873 1.23919
# Poissons Ratio (z) = 0.38812 0.20242
#
# Static dielectric constant tensor:
#      x y z
#    x 2.020060 0.012640 -0.019540 
#    y 0.012640 2.334610 0.103890 
#    z -0.019540 0.103890 2.255860 
# 
# From -- ./inp_files/529947.got.cif
#   From: 2010.05.17/outbox.cif.g08.bks.cpg/sg2_265_cif.got.tgz:529947.got - 2010.06.03 11:33:40.
