data_PCOD9085645
_publ_section_title
;
Structure prediction by ZEFSAII (Michael W. Deem and Ramdas Pophale) SiO2 
 PCOD9085645
Probable space group: P -1
;
_chemical_formula_sum "Si O2"
_cell_formula_units_Z 16
_cell_length_a 16.524467
_cell_length_b 8.949356
_cell_length_c 10.495292
_cell_angle_alpha 63.922818
_cell_angle_beta 128.227339
_cell_angle_gamma 78.091406
_cell_volume 805.044821
_symmetry_space_group_name_H-M "P -1"
_symmetry_group_IT_number 2
_symmetry_cell_setting 'triclinic'
loop_
_space_group_symop_operation_xyz
x,y,z
-x,-y,-z
loop_
_atom_site_type_symbol
_atom_site_label
_atom_site_fract_x
_atom_site_fract_y
_atom_site_fract_z
Si Si1 0.996228 0.836592 0.476240
Si Si2 0.741844 0.050673 0.959021
Si Si3 0.228791 0.765304 0.330707
Si Si4 0.493617 0.280240 0.815216
Si Si5 0.987147 0.250851 0.994398
Si Si6 0.325458 0.141557 0.685844
Si Si7 0.958981 0.628068 0.748633
Si Si8 0.160605 0.392851 0.694691
O O1 0.961067 0.736667 0.585515
O O2 0.138585 0.606738 0.638258
O O3 0.000000 0.000000 0.500000
O O4 0.876093 0.971486 0.200351
O O5 0.735245 0.149299 0.781717
O O6 0.604009 0.232486 0.840795
O O7 0.760345 0.829417 0.057779
O O8 0.366925 0.544975 0.614434
O O9 0.116789 0.983144 0.226843
O O10 0.142983 0.705782 0.206535
O O11 0.423683 0.186875 0.727325
O O12 0.580782 0.116995 0.082113
O O13 0.965876 0.354975 0.072300
O O14 0.019504 0.375839 0.890668
O O15 0.205796 0.223262 0.439370
O O16 0.239753 0.294500 0.673036
O O17 0.000000 0.500000 0.500000
#
# Coordination Sequence:
#
# PCOD9085645 Si02
#       8
#     2   2   2   2   2   2   2   2
#     4  11  21  33  58  86 117 142 182 241 286 325
#     4  10  20  35  57  83 110 152 188 226 278 335
#     4  11  21  37  56  88 116 143 193 230 276 346
#     4  10  20  35  58  82 108 155 190 230 271 332
#     4  10  24  34  60  86 112 151 182 236 293 322
#     4  10  19  35  62  81 109 149 198 225 272 342
#     4  11  19  40  55  83 118 144 183 236 284 339
#     4   9  17  32  56  84 108 145 184 227 281 327
#
# _framework density 19.874669999999998
#
# number of rings (size 3 to 8) (size 9 to 14) (size 15 to 20)
#    0.000    1.750    5.000    1.875    1.750    1.000 
#    0.000    0.625    8.250    0.750    0.000    0.000 
#    0.000    0.000    0.000    0.000    0.000    0.000 
#
# Total GULP energy -89208.782025 kJ/mol
# GULP energy per Si atom -5575.548877 kJ/mol
# Density = 1.982943 g / cm^3
# Si number density = 19.874670 Si / 1000 Ang^3
#
#
#
# Elastic Constant Matrix: (Units=GPa)
#
#
# Indices 1 2 3 4 5 6 
#
# 1 40.9570 5.8848 -1.2111 -4.8405 -1.8600 6.2255
# 2 5.8848 81.9806 30.7473 -15.3358 1.7361 14.6402
# 3 -1.2111 30.7473 109.4652 -27.1904 5.8000 -4.5451
# 4 -4.8405 -15.3358 -27.1904 26.7240 -3.1419 -2.4660
# 5 -1.8600 1.7361 5.8000 -3.1419 26.9785 -2.5769
# 6 6.2255 14.6402 -4.5451 -2.4660 -2.5769 12.6455
#
#
#
# Elastic Compliance Matrix: (Units=1/GPa)
#
#
# Indices 1 2 3 4 5 6 
#
# 1 0.026912 0.001085 0.000659 0.005077 0.000986 -0.013078
# 2 0.001085 0.019195 -0.005526 0.003095 -0.001956 -0.024539
# 3 0.000659 -0.005526 0.014487 0.012978 0.000120 0.013836
# 4 0.005077 0.003095 0.012978 0.054820 0.004722 0.010235
# 5 0.000986 -0.001956 0.000120 0.004722 0.038802 0.010650
# 6 -0.013078 -0.024539 0.013836 0.010235 0.010650 0.123066
#
#
# Mechanical properties :
#
#
# Convention : Reuss Voigt Hill
#
# Bulk Modulus (GPa) = 18.85725 33.69386 26.27555
# Shear Modulus (GPa) = 16.52769 26.40173 21.46471
#
# Velocity S-wave (km/s) = 2.88687 3.64869 3.28991
# Velocity P-wave (km/s) = 4.54100 5.89411 5.26124
#
# Compressibility (1/GPa) = 0.05303000
#
# Stress axis : x y z
#
# Youngs Moduli (GPa) = 37.15804 52.09624 69.02876
#
# Poissons Ratio (x) = -0.05655 -0.04546
# Poissons Ratio (y) = -0.04033 0.38146
# Poissons Ratio (z) = -0.02447 0.28789
#
# Static dielectric constant tensor:
#      x y z
#    x 1.735380 0.010730 -0.010990 
#    y 0.010730 1.748290 -0.024750 
#    z -0.010990 -0.024750 1.731320 
# 
# From -- ./inp_files/254891.got.cif
#   From: 2010.05.17/outbox.cif.g08.bks.cpg/sg2_128_cif.got.tgz:254891.got - 2010.06.03 11:33:40.
