data_PCOD9085748
_publ_section_title
;
Structure prediction by ZEFSAII (Michael W. Deem and Ramdas Pophale) SiO2 
 PCOD9085748
Probable space group: P -1
;
_chemical_formula_sum "Si O2"
_cell_formula_units_Z 16
_cell_length_a 10.256244
_cell_length_b 12.628859
_cell_length_c 15.267062
_cell_angle_alpha 161.363310
_cell_angle_beta 66.613978
_cell_angle_gamma 113.488375
_cell_volume 578.315781
_symmetry_space_group_name_H-M "P -1"
_symmetry_group_IT_number 2
_symmetry_cell_setting 'triclinic'
loop_
_space_group_symop_operation_xyz
x,y,z
-x,-y,-z
loop_
_atom_site_type_symbol
_atom_site_label
_atom_site_fract_x
_atom_site_fract_y
_atom_site_fract_z
Si Si1 0.736181 0.691536 0.621874
Si Si2 0.510635 0.427961 0.691009
Si Si3 0.621537 0.249761 0.753854
Si Si4 0.879737 0.632047 0.885044
Si Si5 0.425790 0.724784 0.772018
Si Si6 0.947108 0.623249 0.204488
Si Si7 0.697687 0.209819 0.896498
Si Si8 0.838535 0.399277 0.527784
O O1 0.717420 0.332506 0.295455
O O2 0.847926 0.635879 0.625192
O O3 0.608161 0.911429 0.881937
O O4 0.764447 0.937206 0.724977
O O5 0.428737 0.468891 0.652890
O O6 0.468905 0.759226 0.011822
O O7 0.672329 0.418862 0.614133
O O8 0.461642 0.112142 0.514604
O O9 0.500000 0.500000 0.000000
O O10 0.736430 0.403240 0.774214
O O11 0.707943 0.219951 0.798592
O O12 0.852568 0.017640 0.200705
O O13 0.918266 0.520810 0.690145
O O14 0.996090 0.565846 0.875544
O O15 0.500000 0.500000 0.500000
O O16 0.779442 0.546495 0.175688
O O17 0.000000 0.000000 0.500000
O O18 0.000000 0.500000 0.000000
#
# Coordination Sequence:
#
# PCOD9085748 Si02
#       8
#     2   2   2   2   2   2   2   2
#     4  10  23  39  65 100 139 188 235 286 348 423
#     4  11  23  37  65 104 140 180 223 288 359 420
#     4  12  24  39  65 100 142 173 226 289 361 419
#     4  12  26  48  67 102 140 190 238 285 360 420
#     4  10  19  35  62  95 142 182 224 277 344 421
#     4  12  27  50  77 100 139 190 241 299 348 415
#     4  12  25  43  70 107 134 184 241 298 345 425
#     4  11  27  43  71  99 150 188 224 287 362 428
#
# _framework density 27.666546
#
# number of rings (size 3 to 8) (size 9 to 14) (size 15 to 20)
#    0.000    0.750    5.000    2.250    5.250    1.000 
#    0.000    1.250    0.000    0.000    0.000    0.000 
#    0.000    0.000    0.000    0.000    0.000    0.000 
#
# Total GULP energy -89470.997983 kJ/mol
# GULP energy per Si atom -5591.937374 kJ/mol
# Density = 2.760358 g / cm^3
# Si number density = 27.666546 Si / 1000 Ang^3
#
#
#
# Elastic Constant Matrix: (Units=GPa)
#
#
# Indices 1 2 3 4 5 6 
#
# 1 66.1234 39.8943 17.3916 3.5168 9.7658 -12.7216
# 2 39.8943 205.3886 62.7305 -7.4046 -2.4118 -42.3987
# 3 17.3916 62.7305 178.0754 -1.7581 12.3804 -16.6403
# 4 3.5168 -7.4046 -1.7581 52.4639 -14.6350 -3.7101
# 5 9.7658 -2.4118 12.3804 -14.6350 44.0822 -1.9077
# 6 -12.7216 -42.3987 -16.6403 -3.7101 -1.9077 60.5446
#
#
#
# Elastic Compliance Matrix: (Units=1/GPa)
#
#
# Indices 1 2 3 4 5 6 
#
# 1 0.018401 -0.003494 -0.000138 -0.003114 -0.005218 0.001027
# 2 -0.003494 0.007049 -0.001938 0.002161 0.002589 0.003884
# 3 -0.000138 -0.001938 0.006478 -0.000608 -0.002084 0.000291
# 4 -0.003114 0.002161 -0.000608 0.022061 0.008403 0.002309
# 5 -0.005218 0.002589 -0.002084 0.008403 0.027424 0.001523
# 6 0.001027 0.003884 0.000291 0.002309 0.001523 0.019722
#
#
# Mechanical properties :
#
#
# Convention : Reuss Voigt Hill
#
# Bulk Modulus (GPa) = 48.10295 76.62447 62.36371
# Shear Modulus (GPa) = 41.94464 53.38953 47.66709
#
# Velocity S-wave (km/s) = 3.89791 4.39766 4.15530
# Velocity P-wave (km/s) = 6.13862 7.31722 6.75368
#
# Compressibility (1/GPa) = 0.02078875
#
# Stress axis : x y z
#
# Youngs Moduli (GPa) = 54.34403 141.85712 154.37198
#
# Poissons Ratio (x) = 0.49559 0.02138
# Poissons Ratio (y) = 0.18985 0.29915
# Poissons Ratio (z) = 0.00753 0.27489
#
# Static dielectric constant tensor:
#      x y z
#    x 2.121220 0.160940 -0.128510 
#    y 0.160940 2.132090 -0.084750 
#    z -0.128510 -0.084750 2.120830 
# 
# From -- ./inp_files/99561.got.cif
#   From: 2010.05.17/outbox.cif.g08.bks.cpg/sg2_50_cif.got.tgz:99561.got - 2010.06.03 11:33:40.
