data_PCOD9085329
_publ_section_title
;
Structure prediction by ZEFSAII (Michael W. Deem and Ramdas Pophale) SiO2 
 PCOD9085329
Probable space group: P -1
;
_chemical_formula_sum "Si O2"
_cell_formula_units_Z 16
_cell_length_a 11.454640
_cell_length_b 9.293503
_cell_length_c 12.145355
_cell_angle_alpha 64.157729
_cell_angle_beta 122.858442
_cell_angle_gamma 127.280678
_cell_volume 852.962626
_symmetry_space_group_name_H-M "P -1"
_symmetry_group_IT_number 2
_symmetry_cell_setting 'triclinic'
loop_
_space_group_symop_operation_xyz
x,y,z
-x,-y,-z
loop_
_atom_site_type_symbol
_atom_site_label
_atom_site_fract_x
_atom_site_fract_y
_atom_site_fract_z
Si Si1 0.560835 0.359406 0.547604
Si Si2 0.770709 0.686483 0.136009
Si Si3 0.639665 0.344922 0.337544
Si Si4 0.653147 0.018786 0.502903
Si Si5 0.770955 0.313445 0.848308
Si Si6 0.866883 0.598878 0.984624
Si Si7 0.887451 0.965078 0.802276
Si Si8 0.652595 0.903251 0.891178
O O1 0.500000 0.500000 0.500000
O O2 0.599210 0.374581 0.431674
O O3 0.706262 0.380281 0.690174
O O4 0.422756 0.148534 0.564861
O O5 0.725397 0.537072 0.256216
O O6 0.783388 0.599477 0.055576
O O7 0.650032 0.766220 0.028726
O O8 0.940672 0.863740 0.184498
O O9 0.730764 0.225635 0.430133
O O10 0.485707 0.213434 0.227948
O O11 0.500000 0.000000 0.500000
O O12 0.769305 0.983181 0.650605
O O13 0.768622 0.417677 0.922632
O O14 0.666725 0.092768 0.874898
O O15 0.956796 0.370158 0.910806
O O16 0.885435 0.772081 0.864777
O O17 0.817031 0.969942 0.884574
#
# Coordination Sequence:
#
# PCOD9085329 Si02
#       8
#     2   2   2   2   2   2   2   2
#     4  11  22  38  63  84 114 155 201 235 286 351
#     4  11  23  36  60  92 120 153 189 242 299 340
#     4  11  23  39  59  90 122 149 193 245 292 344
#     4  10  19  35  60  82 113 154 199 238 274 348
#     4  11  20  37  63  87 111 151 204 243 279 334
#     4  10  22  36  60  90 118 148 198 243 286 345
#     4  11  18  37  62  85 112 156 204 234 282 346
#     4  11  18  39  61  86 114 158 199 237 278 350
#
# _framework density 18.758149
#
# number of rings (size 3 to 8) (size 9 to 14) (size 15 to 20)
#    0.000    1.250    6.250    2.625    1.750    0.500 
#    0.000    1.875    0.000    1.500    0.000    0.000 
#    0.000    0.000    0.000    0.000    0.000    0.000 
#
# Total GULP energy -89247.924579 kJ/mol
# GULP energy per Si atom -5577.995286 kJ/mol
# Density = 1.871545 g / cm^3
# Si number density = 18.758149 Si / 1000 Ang^3
#
#
#
# Elastic Constant Matrix: (Units=GPa)
#
#
# Indices 1 2 3 4 5 6 
#
# 1 40.3706 42.9892 39.8358 -5.1622 8.8669 -20.4972
# 2 42.9892 108.9065 55.0677 -14.0488 0.7424 -31.1320
# 3 39.8358 55.0677 140.5335 -14.0678 26.9118 -11.1127
# 4 -5.1622 -14.0488 -14.0678 41.9589 -1.5536 -0.0679
# 5 8.8669 0.7424 26.9118 -1.5536 29.8845 -3.3484
# 6 -20.4972 -31.1320 -11.1127 -0.0679 -3.3484 31.5072
#
#
#
# Elastic Compliance Matrix: (Units=1/GPa)
#
#
# Indices 1 2 3 4 5 6 
#
# 1 0.060175 -0.012686 -0.008973 -0.000072 -0.006918 0.022712
# 2 -0.012686 0.020191 -0.004775 0.003949 0.008998 0.010978
# 3 -0.008973 -0.004775 0.012940 0.001269 -0.009591 -0.007008
# 4 -0.000072 0.003949 0.001269 0.025601 0.000607 0.004423
# 5 -0.006918 0.008998 -0.009591 0.000607 0.044604 0.005749
# 6 0.022712 0.010978 -0.007008 0.004423 0.005749 0.055510
#
#
# Mechanical properties :
#
#
# Convention : Reuss Voigt Hill
#
# Bulk Modulus (GPa) = 24.72955 62.84403 43.78679
# Shear Modulus (GPa) = 17.52126 30.79800 24.15963
#
# Velocity S-wave (km/s) = 3.05956 4.05637 3.59270
# Velocity P-wave (km/s) = 5.06884 7.45076 6.37209
#
# Compressibility (1/GPa) = 0.04043745
#
# Stress axis : x y z
#
# Youngs Moduli (GPa) = 16.61826 49.52820 77.28000
#
# Poissons Ratio (x) = 0.62829 0.69343
# Poissons Ratio (y) = 0.21081 0.36904
# Poissons Ratio (z) = 0.14911 0.23652
#
# Static dielectric constant tensor:
#      x y z
#    x 1.653680 -0.003030 0.027930 
#    y -0.003030 1.690840 -0.009880 
#    z 0.027930 -0.009880 1.699950 
# 
# From -- ./inp_files/185971.got.cif
#   From: 2010.05.17/outbox.cif.g08.bks.cpg/sg2_93_cif.got.tgz:185971.got - 2010.06.03 11:33:40.
