data_PCOD9085189
_publ_section_title
;
Structure prediction by ZEFSAII (Michael W. Deem and Ramdas Pophale) SiO2 
 PCOD9085189
Probable space group: P -1
;
_chemical_formula_sum "Si O2"
_cell_formula_units_Z 14
_cell_length_a 14.115698
_cell_length_b 8.464061
_cell_length_c 7.864192
_cell_angle_alpha 139.122872
_cell_angle_beta 75.459252
_cell_angle_gamma 110.963076
_cell_volume 573.909726
_symmetry_space_group_name_H-M "P -1"
_symmetry_group_IT_number 2
_symmetry_cell_setting 'triclinic'
loop_
_space_group_symop_operation_xyz
x,y,z
-x,-y,-z
loop_
_atom_site_type_symbol
_atom_site_label
_atom_site_fract_x
_atom_site_fract_y
_atom_site_fract_z
Si Si1 0.301558 0.990441 0.365816
Si Si2 0.975459 0.203573 0.312398
Si Si3 0.525015 0.497534 0.260731
Si Si4 0.637281 0.420841 0.822646
Si Si5 0.756307 0.946987 0.115800
Si Si6 0.829925 0.776766 0.582806
Si Si7 0.344191 0.741059 0.792333
O O1 0.307933 0.796749 0.352806
O O2 0.391863 0.238817 0.550755
O O3 0.199396 0.069641 0.435069
O O4 0.323314 0.864953 0.078897
O O5 0.000000 0.500000 0.500000
O O6 0.854172 0.116050 0.303091
O O7 0.948383 0.797072 0.565574
O O8 0.000000 0.000000 0.000000
O O9 0.417563 0.546927 0.303516
O O10 0.551512 0.334841 0.271896
O O11 0.554028 0.373283 0.972115
O O12 0.714917 0.691294 0.029032
O O13 0.666379 0.068296 0.195649
O O14 0.797517 0.877305 0.858012
O O15 0.752835 0.499961 0.379502
#
# Coordination Sequence:
#
# PCOD9085189 Si02
#       7
#     2   2   2   2   2   2   2
#     4   9  18  34  54  72 103 146 184 216 272 336
#     4  10  19  35  59  85 115 148 184 227 289 342
#     4   9  19  35  54  72 102 151 181 218 274 334
#     4  10  20  34  52  78 108 138 184 226 276 325
#     4  10  20  32  53  84 107 135 179 237 275 325
#     4   9  18  34  55  78 102 144 180 221 276 335
#     4   9  17  33  53  75 104 138 182 219 273 331
#
# _framework density 24.394079999999999
#
# number of rings (size 3 to 8) (size 9 to 14) (size 15 to 20)
#    0.000    2.571    1.429    0.429    0.000    1.714 
#    0.000    7.143    0.000    7.714    0.000    0.000 
#    0.000    0.000    0.000    0.000    0.000    0.000 
#
# Total GULP energy -78185.523194 kJ/mol
# GULP energy per Si atom -5584.680228 kJ/mol
# Density = 2.433856 g / cm^3
# Si number density = 24.394080 Si / 1000 Ang^3
#
#
#
# Elastic Constant Matrix: (Units=GPa)
#
#
# Indices 1 2 3 4 5 6 
#
# 1 165.2712 60.9018 37.1921 15.0222 19.2711 -38.5656
# 2 60.9018 128.4784 22.5150 13.2542 5.5676 -38.3249
# 3 37.1921 22.5150 79.4982 -1.8994 10.4879 -11.5022
# 4 15.0222 13.2542 -1.8994 41.2488 -5.1141 -8.2087
# 5 19.2711 5.5676 10.4879 -5.1141 44.1434 -0.9257
# 6 -38.5656 -38.3249 -11.5022 -8.2087 -0.9257 42.8319
#
#
#
# Elastic Compliance Matrix: (Units=1/GPa)
#
#
# Indices 1 2 3 4 5 6 
#
# 1 0.009175 -0.001933 -0.002590 -0.002183 -0.003287 0.005347
# 2 -0.001933 0.011423 -0.001185 -0.001495 -0.000324 0.007869
# 3 -0.002590 -0.001185 0.014549 0.001921 -0.001936 0.000841
# 4 -0.002183 -0.001495 0.001921 0.026554 0.003812 0.002384
# 5 -0.003287 -0.000324 -0.001936 0.003812 0.024979 -0.002499
# 6 0.005347 0.007869 0.000841 0.002384 -0.002499 0.035831
#
#
# Mechanical properties :
#
#
# Convention : Reuss Voigt Hill
#
# Bulk Modulus (GPa) = 42.13900 68.27396 55.20648
# Shear Modulus (GPa) = 35.25170 42.48742 38.86956
#
# Velocity S-wave (km/s) = 3.80556 4.17791 3.99607
# Velocity P-wave (km/s) = 6.05157 7.16393 6.63112
#
# Compressibility (1/GPa) = 0.02373098
#
# Stress axis : x y z
#
# Youngs Moduli (GPa) = 108.99056 87.54421 68.73173
#
# Poissons Ratio (x) = 0.16920 0.17801
# Poissons Ratio (y) = 0.21065 0.08148
# Poissons Ratio (z) = 0.28228 0.10378
#
# Static dielectric constant tensor:
#      x y z
#    x 1.948950 -0.068380 -0.097530 
#    y -0.068380 1.932670 -0.006680 
#    z -0.097530 -0.006680 2.066930 
# 
# From -- ./inp_files/50737.got.cif
#   From: 2010.05.17/outbox.cif.g08.bks.cpg/sg2_26_cif.got.tgz:50737.got - 2010.06.03 11:33:40.
