data_PCOD9085031
_publ_section_title
;
Structure prediction by ZEFSAII (Michael W. Deem and Ramdas Pophale) SiO2 
 PCOD9085031
Probable space group: P -1
;
_chemical_formula_sum "Si O2"
_cell_formula_units_Z 13
_cell_length_a 5.249585
_cell_length_b 23.434052
_cell_length_c 15.657558
_cell_angle_alpha 162.910858
_cell_angle_beta 111.265497
_cell_angle_gamma 67.583991
_cell_volume 523.244428
_symmetry_space_group_name_H-M "P -1"
_symmetry_group_IT_number 2
_symmetry_cell_setting 'triclinic'
loop_
_space_group_symop_operation_xyz
x,y,z
-x,-y,-z
loop_
_atom_site_type_symbol
_atom_site_label
_atom_site_fract_x
_atom_site_fract_y
_atom_site_fract_z
Si Si1 0.762105 0.798857 0.607491
Si Si2 0.742220 0.239913 0.880590
Si Si3 0.971964 0.753236 0.903316
Si Si4 0.839490 0.256191 0.274651
Si Si5 0.863471 0.219438 0.532284
Si Si6 0.127450 0.236761 0.768856
Si Si7 0.500000 0.500000 0.500000
O O1 0.461719 0.744766 0.473284
O O2 0.894846 0.735170 0.623594
O O3 0.967312 0.726013 0.451318
O O4 0.762826 0.036795 0.952849
O O5 0.427036 0.302413 0.907385
O O6 0.930822 0.302863 0.917962
O O7 0.806810 0.001289 0.554858
O O8 0.837075 0.302834 0.073716
O O9 0.678404 0.690813 0.799761
O O10 0.129277 0.669689 0.715567
O O11 0.931104 0.983431 0.210020
O O12 0.595638 0.423427 0.502997
O O13 0.976207 0.289458 0.735959
#
# Coordination Sequence:
#
# PCOD9085031 Si02
#       7
#     2   2   2   2   2   2   1
#     4  10  21  36  59  83 113 152 184 232 282 330
#     4   9  18  30  50  78 112 144 174 227 286 329
#     4  10  22  34  54  80 119 150 188 228 279 334
#     4  10  23  36  55  80 117 149 194 227 277 333
#     4  10  19  35  58  85 114 146 185 234 282 332
#     4   9  17  30  51  80 110 139 179 227 285 334
#     4  12  22  38  54  80 114 162 186 232 264 344
#
# _framework density 24.844987
#
# number of rings (size 3 to 8) (size 9 to 14) (size 15 to 20)
#    0.000    2.154    1.538    1.385    4.308    5.538 
#    0.000    0.000    0.000    0.000    0.000    6.462 
#    0.000    0.000    0.000    0.000    0.000    0.000 
#
# Total GULP energy -72562.066456 kJ/mol
# GULP energy per Si atom -5581.697420 kJ/mol
# Density = 2.478844 g / cm^3
# Si number density = 24.844987 Si / 1000 Ang^3
#
#
#
# Elastic Constant Matrix: (Units=GPa)
#
#
# Indices 1 2 3 4 5 6 
#
# 1 206.7873 96.5277 43.8201 -36.5560 4.0038 -17.4850
# 2 96.5277 214.0405 57.2519 -30.6180 8.6053 -24.8474
# 3 43.8201 57.2519 57.0169 -5.2902 2.8565 7.6218
# 4 -36.5560 -30.6180 -5.2902 45.5204 4.6196 14.3441
# 5 4.0038 8.6053 2.8565 4.6196 25.3955 -8.1950
# 6 -17.4850 -24.8474 7.6218 14.3441 -8.1950 49.0835
#
#
#
# Elastic Compliance Matrix: (Units=1/GPa)
#
#
# Indices 1 2 3 4 5 6 
#
# 1 0.007137 -0.001499 -0.003726 0.004002 -0.000572 0.001097
# 2 -0.001499 0.008094 -0.007242 0.002260 -0.000849 0.003886
# 3 -0.003726 -0.007242 0.029026 -0.001114 -0.003151 -0.009702
# 4 0.004002 0.002260 -0.001114 0.029866 -0.009128 -0.007509
# 5 -0.000572 -0.000849 -0.003151 -0.009128 0.045009 0.010038
# 6 0.001097 0.003886 -0.009702 -0.007509 0.010038 0.028108
#
#
# Mechanical properties :
#
#
# Convention : Reuss Voigt Hill
#
# Bulk Modulus (GPa) = 51.75613 97.00489 74.38051
# Shear Modulus (GPa) = 27.99322 42.68288 35.33805
#
# Velocity S-wave (km/s) = 3.36030 4.14933 3.77549
# Velocity P-wave (km/s) = 5.99436 7.87939 7.00061
#
# Compressibility (1/GPa) = 0.01932138
#
# Stress axis : x y z
#
# Youngs Moduli (GPa) = 140.12360 123.55346 34.45173
#
# Poissons Ratio (x) = 0.18518 0.12838
# Poissons Ratio (y) = 0.21002 0.24951
# Poissons Ratio (z) = 0.52216 0.89481
#
# Static dielectric constant tensor:
#      x y z
#    x -0.037340 0.681530 0.930320 
#    y 0.681530 1.705880 -0.327090 
#    z 0.930320 -0.327090 1.548560 
# 
# From -- ./inp_files/24954.got.cif
#   From: 2010.05.17/outbox.cif.g08.bks.cpg/sg2_13_cif.got.tgz:24954.got - 2010.06.03 11:33:40.
