data_PCOD9085097
_publ_section_title
;
Structure prediction by ZEFSAII (Michael W. Deem and Ramdas Pophale) SiO2 
 PCOD9085097
Probable space group: P -1
;
_chemical_formula_sum "Si O2"
_cell_formula_units_Z 16
_cell_length_a 11.019784
_cell_length_b 15.082508
_cell_length_c 14.587980
_cell_angle_alpha 152.276436
_cell_angle_beta 138.737288
_cell_angle_gamma 51.372409
_cell_volume 737.173185
_symmetry_space_group_name_H-M "P -1"
_symmetry_group_IT_number 2
_symmetry_cell_setting 'triclinic'
loop_
_space_group_symop_operation_xyz
x,y,z
-x,-y,-z
loop_
_atom_site_type_symbol
_atom_site_label
_atom_site_fract_x
_atom_site_fract_y
_atom_site_fract_z
Si Si1 0.168280 0.669195 0.749833
Si Si2 0.649969 0.290264 0.303546
Si Si3 0.430239 0.657679 0.042852
Si Si4 0.271095 0.268441 0.259626
Si Si5 0.870624 0.110812 0.815985
Si Si6 0.742126 0.905708 0.720677
Si Si7 0.673738 0.016621 0.438450
Si Si8 0.378241 0.961114 0.779128
O O1 0.225957 0.714067 0.719904
O O2 0.000000 0.500000 0.500000
O O3 0.175337 0.884652 0.995678
O O4 0.322675 0.586966 0.824938
O O5 0.651042 0.515457 0.526043
O O6 0.723339 0.176197 0.326363
O O7 0.450500 0.171613 0.053484
O O8 0.285590 0.765224 0.118850
O O9 0.603757 0.801868 0.236299
O O10 0.500000 0.500000 0.000000
O O11 0.226371 0.245523 0.321750
O O12 0.430357 0.133281 0.211783
O O13 0.079017 0.203004 0.039341
O O14 0.829037 0.917812 0.679460
O O15 0.831381 0.092990 0.669650
O O16 0.518724 0.892021 0.572115
O O17 0.712246 0.030998 0.364941
#
# Coordination Sequence:
#
# PCOD9085097 Si02
#       8
#     2   2   2   2   2   2   2   2
#     4  10  19  35  58  90 121 142 189 246 292 342
#     4  11  20  38  65  83 118 152 197 244 285 340
#     4  10  20  34  50  85 118 151 197 227 285 360
#     4  11  21  36  59  90 114 146 203 238 299 336
#     4  10  20  35  56  82 122 156 181 242 300 340
#     4   9  18  35  53  86 118 151 196 227 292 356
#     4   9  18  38  53  78 117 155 197 228 287 353
#     4  10  22  41  61  85 113 156 203 240 280 345
#
# _framework density 21.704532
#
# number of rings (size 3 to 8) (size 9 to 14) (size 15 to 20)
#    0.000    2.250    3.750    3.750    0.000    4.000 
#    2.250    0.625    0.000    4.500    0.000    0.000 
#    0.000    0.000    0.000    0.000    0.000    0.000 
#
# Total GULP energy -89284.275720 kJ/mol
# GULP energy per Si atom -5580.267232 kJ/mol
# Density = 2.165513 g / cm^3
# Si number density = 21.704532 Si / 1000 Ang^3
#
#
#
# Elastic Constant Matrix: (Units=GPa)
#
#
# Indices 1 2 3 4 5 6 
#
# 1 68.8598 53.3725 21.0912 -8.3392 -5.9032 44.9247
# 2 53.3725 145.7951 69.5151 -10.4040 2.9211 51.6222
# 3 21.0912 69.5151 106.2182 -13.8722 2.8738 29.1255
# 4 -8.3392 -10.4040 -13.8722 31.1032 16.8257 -6.2437
# 5 -5.9032 2.9211 2.8738 16.8257 22.9566 -1.3149
# 6 44.9247 51.6222 29.1255 -6.2437 -1.3149 49.1350
#
#
#
# Elastic Compliance Matrix: (Units=1/GPa)
#
#
# Indices 1 2 3 4 5 6 
#
# 1 0.039318 -0.004848 0.004135 -0.000641 0.008781 -0.033153
# 2 -0.004848 0.014095 -0.006178 0.001254 -0.003567 -0.006649
# 3 0.004135 -0.006178 0.015420 0.008321 -0.006497 -0.005547
# 4 -0.000641 0.001254 0.008321 0.061308 -0.046250 0.000889
# 5 0.008781 -0.003567 -0.006497 -0.046250 0.080747 -0.004146
# 6 -0.033153 -0.006649 -0.005547 0.000889 -0.004146 0.060940
#
#
# Mechanical properties :
#
#
# Convention : Reuss Voigt Hill
#
# Bulk Modulus (GPa) = 18.16520 67.64784 42.90652
# Shear Modulus (GPa) = 16.44953 32.43190 24.44071
#
# Velocity S-wave (km/s) = 2.75596 3.86974 3.35933
# Velocity P-wave (km/s) = 4.30285 7.15554 5.90408
#
# Compressibility (1/GPa) = 0.05505032
#
# Stress axis : x y z
#
# Youngs Moduli (GPa) = 25.43389 70.94775 64.84919
#
# Poissons Ratio (x) = 0.34397 -0.26816
# Poissons Ratio (y) = 0.12331 0.40065
# Poissons Ratio (z) = -0.10517 0.43833
#
# Static dielectric constant tensor:
#      x y z
#    x 1.876780 -0.025270 -0.064590 
#    y -0.025270 1.833290 0.026110 
#    z -0.064590 0.026110 1.830150 
# 
# From -- ./inp_files/521971.got.cif
#   From: 2010.05.17/outbox.cif.g08.bks.cpg/sg2_261_cif.got.tgz:521971.got - 2010.06.03 11:33:40.
