data_PCOD9085455
_publ_section_title
;
Structure prediction by ZEFSAII (Michael W. Deem and Ramdas Pophale) SiO2 
 PCOD9085455
Probable space group: P -1
;
_chemical_formula_sum "Si O2"
_cell_formula_units_Z 16
_cell_length_a 14.654160
_cell_length_b 9.799817
_cell_length_c 16.055305
_cell_angle_alpha 36.171055
_cell_angle_beta 138.446787
_cell_angle_gamma 142.993179
_cell_volume 783.411632
_symmetry_space_group_name_H-M "P -1"
_symmetry_group_IT_number 2
_symmetry_cell_setting 'triclinic'
loop_
_space_group_symop_operation_xyz
x,y,z
-x,-y,-z
loop_
_atom_site_type_symbol
_atom_site_label
_atom_site_fract_x
_atom_site_fract_y
_atom_site_fract_z
Si Si1 0.512587 0.763287 0.669011
Si Si2 0.546100 0.138363 0.843385
Si Si3 0.627184 0.050851 0.766943
Si Si4 0.105785 0.427384 0.366003
Si Si5 0.022425 0.004125 0.375702
Si Si6 0.789100 0.729877 0.781259
Si Si7 0.678746 0.847218 0.189568
Si Si8 0.033266 0.824972 0.043360
O O1 0.673026 0.781679 0.734253
O O2 0.378190 0.463352 0.706151
O O3 0.500000 0.000000 0.500000
O O4 0.525430 0.815151 0.751010
O O5 0.539219 0.093460 0.762642
O O6 0.686657 0.433250 0.819437
O O7 0.387026 0.109686 0.788860
O O8 0.590562 0.934488 0.019037
O O9 0.777981 0.033970 0.914426
O O10 0.717900 0.318977 0.640432
O O11 0.042993 0.275685 0.484046
O O12 0.999657 0.552015 0.199715
O O13 0.101106 0.224777 0.392902
O O14 0.867235 0.011823 0.233804
O O15 0.139123 0.070143 0.345836
O O16 0.930101 0.763529 0.920752
O O17 0.000000 0.000000 0.000000
#
# Coordination Sequence:
#
# PCOD9085455 Si02
#       8
#     2   2   2   2   2   2   2   2
#     4  11  24  43  60  86 130 172 198 245 309 382
#     4  10  21  40  62  96 116 165 206 257 307 362
#     4  10  20  40  62  89 123 162 207 246 308 367
#     4   9  21  35  60  92 127 146 202 267 305 350
#     4  11  20  39  62  96 121 156 203 266 308 354
#     4  11  20  40  71  90 120 162 215 247 312 366
#     4  10  23  38  62  90 128 157 206 257 305 364
#     4  10  19  35  60  92 116 161 199 258 294 357
#
# _framework density 20.423490000000001
#
# number of rings (size 3 to 8) (size 9 to 14) (size 15 to 20)
#    0.750    1.000    2.500    2.250    0.000    2.000 
#    4.500    8.750    0.000    0.000    0.000    0.000 
#    0.000    0.000    0.000    0.000    0.000    0.000 
#
# Total GULP energy -89305.995129 kJ/mol
# GULP energy per Si atom -5581.624696 kJ/mol
# Density = 2.037701 g / cm^3
# Si number density = 20.423490 Si / 1000 Ang^3
#
#
#
# Elastic Constant Matrix: (Units=GPa)
#
#
# Indices 1 2 3 4 5 6 
#
# 1 75.9307 31.1301 8.6114 -0.2023 -23.2172 -25.1871
# 2 31.1301 40.2912 7.6486 6.2162 -2.4436 -14.8612
# 3 8.6114 7.6486 71.3750 -8.7400 -11.4884 -17.2886
# 4 -0.2023 6.2162 -8.7400 26.4971 2.2277 -0.1244
# 5 -23.2172 -2.4436 -11.4884 2.2277 24.7312 2.2724
# 6 -25.1871 -14.8612 -17.2886 -0.1244 2.2724 28.0007
#
#
#
# Elastic Compliance Matrix: (Units=1/GPa)
#
#
# Indices 1 2 3 4 5 6 
#
# 1 0.045256 -0.023863 0.012588 0.006684 0.042395 0.032405
# 2 -0.023863 0.044999 -0.006545 -0.011218 -0.019981 -0.000052
# 3 0.012588 -0.006545 0.021957 0.007381 0.018877 0.019908
# 4 0.006684 -0.011218 0.007381 0.042512 0.004356 0.004450
# 5 0.042395 -0.019981 0.018877 0.004356 0.083659 0.032416
# 6 0.032405 -0.000052 0.019908 0.004450 0.032416 0.074515
#
#
# Mechanical properties :
#
#
# Convention : Reuss Voigt Hill
#
# Bulk Modulus (GPa) = 13.05962 31.37522 22.21742
# Shear Modulus (GPa) = 13.36681 25.19291 19.27986
#
# Velocity S-wave (km/s) = 2.56106 3.51597 3.07580
# Velocity P-wave (km/s) = 3.89277 5.64610 4.84933
#
# Compressibility (1/GPa) = 0.07657188
#
# Stress axis : x y z
#
# Youngs Moduli (GPa) = 22.09675 22.22280 45.54292
#
# Poissons Ratio (x) = 0.53030 -0.57332
# Poissons Ratio (y) = 0.52729 0.29810
# Poissons Ratio (z) = -0.27816 0.14546
#
# Static dielectric constant tensor:
#      x y z
#    x 1.703850 0.007120 -0.005890 
#    y 0.007120 1.716420 -0.002790 
#    z -0.005890 -0.002790 1.748440 
# 
# From -- ./inp_files/528117.got.cif
#   From: 2010.05.17/outbox.cif.g08.bks.cpg/sg2_265_cif.got.tgz:528117.got - 2010.06.03 11:33:40.
