data_PCOD9085690
_publ_section_title
;
Structure prediction by ZEFSAII (Michael W. Deem and Ramdas Pophale) SiO2 
 PCOD9085690
Probable space group: P -1
;
_chemical_formula_sum "Si O2"
_cell_formula_units_Z 12
_cell_length_a 6.749352
_cell_length_b 12.234642
_cell_length_c 8.947946
_cell_angle_alpha 58.427713
_cell_angle_beta 108.878190
_cell_angle_gamma 132.496866
_cell_volume 463.615901
_symmetry_space_group_name_H-M "P -1"
_symmetry_group_IT_number 2
_symmetry_cell_setting 'triclinic'
loop_
_space_group_symop_operation_xyz
x,y,z
-x,-y,-z
loop_
_atom_site_type_symbol
_atom_site_label
_atom_site_fract_x
_atom_site_fract_y
_atom_site_fract_z
Si Si1 0.937483 0.749154 0.427804
Si Si2 0.256232 0.917575 0.813238
Si Si3 0.136250 0.486708 0.184326
Si Si4 0.310636 0.297896 0.325275
Si Si5 0.199388 0.754652 0.210008
Si Si6 0.433038 0.103418 0.316049
O O1 0.966169 0.685736 0.324745
O O2 0.019420 0.672369 0.626996
O O3 0.678645 0.699120 0.493085
O O4 0.124055 0.946541 0.313524
O O5 0.396601 0.844056 0.830482
O O6 0.999161 0.852011 0.697386
O O7 0.511202 0.108966 0.741132
O O8 0.166370 0.850867 0.005834
O O9 0.348638 0.464293 0.183131
O O10 0.208399 0.625817 0.216824
O O11 0.000000 0.500000 0.000000
O O12 0.463268 0.247585 0.308389
O O13 0.500000 0.000000 0.500000
#
# Coordination Sequence:
#
# PCOD9085690 Si02
#       6
#     2   2   2   2   2   2
#     4   9  20  33  63  87 120 158 198 249 298 355
#     4  10  21  36  62  88 124 160 201 251 292 362
#     4  10  19  35  62  89 124 162 200 245 302 366
#     4  10  21  37  64  92 115 164 204 244 305 357
#     4  10  19  37  57  92 127 160 196 249 304 357
#     4  11  20  37  65  93 115 155 212 255 294 354
#
# _framework density 25.883493000000001
#
# number of rings (size 3 to 8) (size 9 to 14) (size 15 to 20)
#    1.000    1.000    3.333    1.000    0.000    0.000 
#    0.000    8.333    0.000    9.000    0.000    0.000 
#    0.000    0.000    0.000    0.000    0.000    0.000 
#
# Total GULP energy -66841.054596 kJ/mol
# GULP energy per Si atom -5570.087883 kJ/mol
# Density = 2.582458 g / cm^3
# Si number density = 25.883493 Si / 1000 Ang^3
#
#
#
# Elastic Constant Matrix: (Units=GPa)
#
#
# Indices 1 2 3 4 5 6 
#
# 1 108.5900 53.9693 41.9314 7.6134 9.8820 -52.3276
# 2 53.9693 160.9029 26.2350 -4.6634 8.9301 -57.0012
# 3 41.9314 26.2350 109.8746 14.4318 -14.4389 -22.9002
# 4 7.6134 -4.6634 14.4318 40.6750 -13.5662 -1.4165
# 5 9.8820 8.9301 -14.4389 -13.5662 33.0439 -6.5899
# 6 -52.3276 -57.0012 -22.9002 -1.4165 -6.5899 66.7915
#
#
#
# Elastic Compliance Matrix: (Units=1/GPa)
#
#
# Indices 1 2 3 4 5 6 
#
# 1 0.017336 -0.001166 -0.004542 -0.003482 -0.006221 0.010342
# 2 -0.001166 0.009136 -0.000607 0.001577 -0.000408 0.006668
# 3 -0.004542 -0.000607 0.012145 -0.001368 0.006405 0.000690
# 4 -0.003482 0.001577 -0.001368 0.030020 0.012343 0.000004
# 5 -0.006221 -0.000408 0.006405 0.012343 0.040342 0.001216
# 6 0.010342 0.006668 0.000690 0.000004 0.001216 0.029121
#
#
# Mechanical properties :
#
#
# Convention : Reuss Voigt Hill
#
# Bulk Modulus (GPa) = 38.48360 69.29321 53.88840
# Shear Modulus (GPa) = 31.36883 45.25088 38.30986
#
# Velocity S-wave (km/s) = 3.48505 4.18575 3.85137
# Velocity P-wave (km/s) = 5.57623 7.08449 6.37512
#
# Compressibility (1/GPa) = 0.02598510
#
# Stress axis : x y z
#
# Youngs Moduli (GPa) = 57.68225 109.46169 82.33793
#
# Poissons Ratio (x) = 0.12766 0.37401
# Poissons Ratio (y) = 0.06727 0.05001
# Poissons Ratio (z) = 0.26201 0.06648
#
# Static dielectric constant tensor:
#      x y z
#    x 2.199740 0.059850 0.039970 
#    y 0.059850 2.133590 -0.002110 
#    z 0.039970 -0.002110 2.034590 
# 
# From -- ./inp_files/363725.got.cif
#   From: 2010.05.17/outbox.cif.g08.bks.cpg/sg2_182_cif.got.tgz:363725.got - 2010.06.03 11:33:40.
