data_PCOD9085203
_publ_section_title
;
Structure prediction by ZEFSAII (Michael W. Deem and Ramdas Pophale) SiO2 
 PCOD9085203
Probable space group: P -1
;
_chemical_formula_sum "Si O2"
_cell_formula_units_Z 14
_cell_length_a 6.130741
_cell_length_b 14.499501
_cell_length_c 7.411167
_cell_angle_alpha 106.661599
_cell_angle_beta 104.336603
_cell_angle_gamma 98.708754
_cell_volume 593.669531
_symmetry_space_group_name_H-M "P -1"
_symmetry_group_IT_number 2
_symmetry_cell_setting 'triclinic'
loop_
_space_group_symop_operation_xyz
x,y,z
-x,-y,-z
loop_
_atom_site_type_symbol
_atom_site_label
_atom_site_fract_x
_atom_site_fract_y
_atom_site_fract_z
Si Si1 0.667666 0.862126 0.951891
Si Si2 0.441830 0.884394 0.256833
Si Si3 0.154410 0.963246 0.662863
Si Si4 0.199119 0.567660 0.955209
Si Si5 0.008089 0.261211 0.895114
Si Si6 0.258418 0.201093 0.447021
Si Si7 0.694366 0.607646 0.279485
O O1 0.641017 0.846745 0.727737
O O2 0.444622 0.855816 0.028360
O O3 0.791679 0.776355 0.987219
O O4 0.825124 0.966991 0.115253
O O5 0.187172 0.838113 0.249620
O O6 0.607465 0.826810 0.365734
O O7 0.584183 0.999182 0.340407
O O8 0.012490 0.854422 0.623288
O O9 0.000000 0.000000 0.500000
O O10 0.241514 0.498553 0.758848
O O11 0.113190 0.667683 0.971987
O O12 0.440582 0.590533 0.127649
O O13 0.000000 0.500000 0.000000
O O14 0.119865 0.324146 0.780283
O O15 0.299034 0.319360 0.510425
#
# Coordination Sequence:
#
# PCOD9085203 Si02
#       7
#     2   2   2   2   2   2   2
#     4  10  21  34  58  83 119 151 188 234 283 327
#     4   9  20  36  56  81 115 153 191 223 285 331
#     4   8  17  36  57  80 114 158 189 226 279 334
#     4   9  19  33  61  85 111 146 194 230 286 345
#     4  11  17  37  58  84 115 149 188 237 279 337
#     4  11  18  38  59  81 118 154 189 234 283 332
#     4  10  19  35  59  86 110 152 188 234 287 335
#
# _framework density 23.582142999999999
#
# number of rings (size 3 to 8) (size 9 to 14) (size 15 to 20)
#    0.857    1.429    2.857    0.429    0.000    0.000 
#    2.571    7.857    0.000   12.000    0.000    0.000 
#    0.000    0.000    0.000    0.000    0.000    0.000 
#
# Total GULP energy -78050.883499 kJ/mol
# GULP energy per Si atom -5575.063107 kJ/mol
# Density = 2.352847 g / cm^3
# Si number density = 23.582143 Si / 1000 Ang^3
#
#
#
# Elastic Constant Matrix: (Units=GPa)
#
#
# Indices 1 2 3 4 5 6 
#
# 1 84.7192 16.1644 25.3496 2.9083 0.7027 16.8247
# 2 16.1644 52.0836 26.1491 23.7522 2.9640 -12.6676
# 3 25.3496 26.1491 109.4435 26.3824 -24.3080 2.5844
# 4 2.9083 23.7522 26.3824 28.7839 4.9932 -0.5840
# 5 0.7027 2.9640 -24.3080 4.9932 25.0849 12.8917
# 6 16.8247 -12.6676 2.5844 -0.5840 12.8917 52.6593
#
#
#
# Elastic Compliance Matrix: (Units=1/GPa)
#
#
# Indices 1 2 3 4 5 6 
#
# 1 0.015597 -0.008403 -0.004304 0.009593 -0.002388 -0.006103
# 2 -0.008403 0.040085 -0.004026 -0.026363 -0.010800 0.014877
# 3 -0.004304 -0.004026 0.025454 -0.025925 0.035465 -0.009813
# 4 0.009593 -0.026363 -0.025925 0.086450 -0.040947 0.002849
# 5 -0.002388 -0.010800 0.035465 -0.040947 0.098144 -0.028057
# 6 -0.006103 0.014877 -0.009813 0.002849 -0.028057 0.031900
#
#
# Mechanical properties :
#
#
# Convention : Reuss Voigt Hill
#
# Bulk Modulus (GPa) = 20.97760 42.39695 31.68727
# Shear Modulus (GPa) = 14.40980 33.21117 23.81049
#
# Velocity S-wave (km/s) = 2.47462 3.75683 3.18100
# Velocity P-wave (km/s) = 4.13278 6.06925 5.19209
#
# Compressibility (1/GPa) = 0.04766991
#
# Stress axis : x y z
#
# Youngs Moduli (GPa) = 64.11393 24.94713 39.28664
#
# Poissons Ratio (x) = 0.20964 0.16907
# Poissons Ratio (y) = 0.53878 0.15817
# Poissons Ratio (z) = 0.27592 0.10044
#
# Static dielectric constant tensor:
#      x y z
#    x 1.939090 -0.004280 -0.061320 
#    y -0.004280 1.889390 0.043560 
#    z -0.061320 0.043560 1.980350 
# 
# From -- ./inp_files/136317.got.cif
#   From: 2010.05.17/outbox.cif.g08.bks.cpg/sg2_69_cif.got.tgz:136317.got - 2010.06.03 11:33:40.
