data_PCOD9085077
_publ_section_title
;
Structure prediction by ZEFSAII (Michael W. Deem and Ramdas Pophale) SiO2 
 PCOD9085077
Probable space group: P -1
;
_chemical_formula_sum "Si O2"
_cell_formula_units_Z 16
_cell_length_a 10.691944
_cell_length_b 9.623422
_cell_length_c 12.452391
_cell_angle_alpha 80.842550
_cell_angle_beta 135.199414
_cell_angle_gamma 125.356280
_cell_volume 662.100590
_symmetry_space_group_name_H-M "P -1"
_symmetry_group_IT_number 2
_symmetry_cell_setting 'triclinic'
loop_
_space_group_symop_operation_xyz
x,y,z
-x,-y,-z
loop_
_atom_site_type_symbol
_atom_site_label
_atom_site_fract_x
_atom_site_fract_y
_atom_site_fract_z
Si Si1 0.091548 0.778093 0.109664
Si Si2 0.562518 0.847030 0.353820
Si Si3 0.445504 0.332689 0.916631
Si Si4 0.462397 0.192540 0.280449
Si Si5 0.192044 0.635108 0.737526
Si Si6 0.565633 0.501139 0.741553
Si Si7 0.289304 0.975508 0.815181
Si Si8 0.830431 0.208265 0.601645
O O1 0.300143 0.774728 0.219672
O O2 0.059694 0.765986 0.219895
O O3 0.209206 0.989200 0.123139
O O4 0.845982 0.619041 0.919436
O O5 0.540712 0.669555 0.382993
O O6 0.623187 0.920310 0.259084
O O7 0.766921 0.033589 0.522055
O O8 0.677227 0.360163 0.078866
O O9 0.500000 0.500000 0.000000
O O10 0.430914 0.391537 0.783725
O O11 0.246393 0.101283 0.836447
O O12 0.617898 0.261164 0.257207
O O13 0.457084 0.345703 0.303078
O O14 0.578494 0.157506 0.448555
O O15 0.998196 0.412920 0.621056
O O16 0.110091 0.750605 0.703630
O O17 0.500000 0.000000 0.000000
#
# Coordination Sequence:
#
# PCOD9085077 Si02
#       8
#     2   2   2   2   2   2   2   2
#     4  11  22  42  64  88 116 167 208 243 301 367
#     4  10  21  39  60  91 122 159 201 254 298 361
#     4  10  19  35  58  88 123 153 190 254 311 344
#     4  11  22  37  62  89 120 156 201 257 301 353
#     4  11  19  38  61  87 117 158 205 242 292 363
#     4  11  22  39  62  89 123 158 200 255 307 353
#     4   9  19  33  57  88 120 152 199 250 295 349
#     4  11  23  40  65  87 122 165 204 244 304 364
#
# _framework density 24.165510999999999
#
# number of rings (size 3 to 8) (size 9 to 14) (size 15 to 20)
#    0.000    1.500    5.000    2.625    0.000    0.000 
#    0.000    4.375    0.000    0.000    0.000    0.000 
#    0.000    0.000    0.000    0.000    0.000    0.000 
#
# Total GULP energy -89203.973304 kJ/mol
# GULP energy per Si atom -5575.248332 kJ/mol
# Density = 2.411051 g / cm^3
# Si number density = 24.165511 Si / 1000 Ang^3
#
#
#
# Elastic Constant Matrix: (Units=GPa)
#
#
# Indices 1 2 3 4 5 6 
#
# 1 28.2154 42.5462 7.2245 17.9143 -10.1062 -16.7702
# 2 42.5462 184.8133 32.2248 61.1158 -12.4896 -40.4392
# 3 7.2245 32.2248 57.4090 25.2865 -10.2469 -2.9046
# 4 17.9143 61.1158 25.2865 53.6728 -9.1228 -14.9241
# 5 -10.1062 -12.4896 -10.2469 -9.1228 19.3816 0.7113
# 6 -16.7702 -40.4392 -2.9046 -14.9241 0.7113 49.9819
#
#
#
# Elastic Compliance Matrix: (Units=1/GPa)
#
#
# Indices 1 2 3 4 5 6 
#
# 1 0.073414 -0.010847 0.005569 -0.005578 0.031093 0.014072
# 2 -0.010847 0.011384 -0.001853 -0.008170 -0.003257 0.003071
# 3 0.005569 -0.001853 0.023658 -0.009587 0.009751 -0.001257
# 4 -0.005578 -0.008170 -0.009587 0.035278 0.003310 0.001448
# 5 0.031093 -0.003257 0.009751 0.003310 0.072117 0.008326
# 6 0.014072 0.003071 -0.001257 0.001448 0.008326 0.027454
#
#
# Mechanical properties :
#
#
# Convention : Reuss Voigt Hill
#
# Bulk Modulus (GPa) = 10.61639 48.26987 29.44313
# Shear Modulus (GPa) = 17.30315 37.17006 27.23661
#
# Velocity S-wave (km/s) = 2.67877 3.92617 3.36085
# Velocity P-wave (km/s) = 3.73771 6.36955 5.22215
#
# Compressibility (1/GPa) = 0.09419394
#
# Stress axis : x y z
#
# Youngs Moduli (GPa) = 13.62135 87.83937 42.26984
#
# Poissons Ratio (x) = 0.95277 -0.23538
# Poissons Ratio (y) = 0.14775 0.07832
# Poissons Ratio (z) = -0.07585 0.16276
#
# Static dielectric constant tensor:
#      x y z
#    x 1.996910 -0.030710 -0.008000 
#    y -0.030710 1.994450 0.099910 
#    z -0.008000 0.099910 2.025990 
# 
# From -- ./inp_files/513285.got.cif
#   From: 2010.05.17/outbox.cif.g08.bks.cpg/sg2_257_cif.got.tgz:513285.got - 2010.06.03 11:33:40.
