data_PCOD9085881
_publ_section_title
;
Structure prediction by ZEFSAII (Michael W. Deem and Ramdas Pophale) SiO2 
 PCOD9085881
Probable space group: P -1
;
_chemical_formula_sum "Si O2"
_cell_formula_units_Z 13
_cell_length_a 8.708200
_cell_length_b 8.880716
_cell_length_c 9.854811
_cell_angle_alpha 74.807454
_cell_angle_beta 48.789588
_cell_angle_gamma 82.842364
_cell_volume 552.089627
_symmetry_space_group_name_H-M "P -1"
_symmetry_group_IT_number 2
_symmetry_cell_setting 'triclinic'
loop_
_space_group_symop_operation_xyz
x,y,z
-x,-y,-z
loop_
_atom_site_type_symbol
_atom_site_label
_atom_site_fract_x
_atom_site_fract_y
_atom_site_fract_z
Si Si1 0.778769 0.518505 0.245594
Si Si2 0.619724 0.104198 0.223923
Si Si3 0.650153 0.365418 0.903927
Si Si4 0.000000 0.500000 0.500000
Si Si5 0.616169 0.659406 0.572374
Si Si6 0.412120 0.130734 0.927038
Si Si7 0.016494 0.758905 0.853800
O O1 0.678108 0.619537 0.393755
O O2 0.604138 0.439517 0.266814
O O3 0.929319 0.638211 0.048413
O O4 0.879829 0.361768 0.279316
O O5 0.431010 0.164298 0.405220
O O6 0.589919 0.937915 0.206994
O O7 0.643668 0.233408 0.057203
O O8 0.817535 0.122898 0.200365
O O9 0.883287 0.415486 0.720827
O O10 0.556857 0.282595 0.840694
O O11 0.500000 0.500000 0.000000
O O12 0.794362 0.598048 0.574330
O O13 0.182141 0.161162 0.099699
O O14 0.500000 0.000000 0.000000
#
# Coordination Sequence:
#
# PCOD9085881 Si02
#       7
#     2   2   2   1   2   2   2
#     4   9  20  34  57  92 122 153 213 265 304 353
#     4  10  21  40  60  89 129 166 205 254 317 379
#     4  11  23  40  63  93 125 162 215 262 307 364
#     4  12  22  34  66  92 120 166 208 266 308 356
#     4  10  20  34  54  89 125 159 205 258 307 368
#     4  10  23  39  62  89 128 168 204 255 318 383
#     4  10  19  35  64  87 120 166 211 254 312 370
#
# _framework density 23.546904000000001
#
# number of rings (size 3 to 8) (size 9 to 14) (size 15 to 20)
#    0.000    1.846    1.538    2.308    6.462    0.000 
#    0.000    1.538    3.385    0.000    0.000    0.000 
#    0.000    0.000    0.000    0.000    0.000    0.000 
#
# Total GULP energy -72379.718527 kJ/mol
# GULP energy per Si atom -5567.670656 kJ/mol
# Density = 2.349331 g / cm^3
# Si number density = 23.546904 Si / 1000 Ang^3
#
#
#
# Elastic Constant Matrix: (Units=GPa)
#
#
# Indices 1 2 3 4 5 6 
#
# 1 89.8323 49.0542 12.5377 14.6363 -34.7627 -0.6182
# 2 49.0542 109.1583 32.6965 30.0342 -5.3802 12.8530
# 3 12.5377 32.6965 84.8485 27.8037 -9.0910 16.0228
# 4 14.6363 30.0342 27.8037 30.1869 -10.6330 -2.3587
# 5 -34.7627 -5.3802 -9.0910 -10.6330 38.2839 11.7058
# 6 -0.6182 12.8530 16.0228 -2.3587 11.7058 56.0362
#
#
#
# Elastic Compliance Matrix: (Units=1/GPa)
#
#
# Indices 1 2 3 4 5 6 
#
# 1 0.026627 -0.012933 0.001933 0.006965 0.025463 -0.002318
# 2 -0.012933 0.019618 -0.001009 -0.017182 -0.013295 -0.002300
# 3 0.001933 -0.001009 0.018986 -0.016703 0.003504 -0.006611
# 4 0.006965 -0.017182 -0.016703 0.068685 0.016501 0.008238
# 5 0.025463 -0.013295 0.003504 0.016501 0.055403 -0.008550
# 6 -0.002318 -0.002300 -0.006611 0.008238 -0.008550 0.022371
#
#
# Mechanical properties :
#
#
# Convention : Reuss Voigt Hill
#
# Bulk Modulus (GPa) = 24.26408 52.49066 38.37737
# Shear Modulus (GPa) = 20.04443 37.53811 28.79127
#
# Velocity S-wave (km/s) = 2.92079 3.99706 3.50053
# Velocity P-wave (km/s) = 4.65850 6.60623 5.71594
#
# Compressibility (1/GPa) = 0.04121319
#
# Stress axis : x y z
#
# Youngs Moduli (GPa) = 37.55574 50.97318 52.67036
#
# Poissons Ratio (x) = 0.65925 -0.10180
# Poissons Ratio (y) = 0.48572 0.05313
# Poissons Ratio (z) = -0.07259 0.05142
#
# Static dielectric constant tensor:
#      x y z
#    x 1.901390 0.008990 0.008650 
#    y 0.008990 1.934960 0.013570 
#    z 0.008650 0.013570 1.931800 
# 
# From -- ./inp_files/220297.got.cif
#   From: 2010.05.17/outbox.cif.g08.bks.cpg/sg2_111_cif.got.tgz:220297.got - 2010.06.03 11:33:40.
