data_PCOD9085846
_publ_section_title
;
Structure prediction by ZEFSAII (Michael W. Deem and Ramdas Pophale) SiO2 
 PCOD9085846
Probable space group: P -1
;
_chemical_formula_sum "Si O2"
_cell_formula_units_Z 10
_cell_length_a 9.212571
_cell_length_b 11.297859
_cell_length_c 7.182375
_cell_angle_alpha 96.253393
_cell_angle_beta 38.870589
_cell_angle_gamma 113.940313
_cell_volume 399.881276
_symmetry_space_group_name_H-M "P -1"
_symmetry_group_IT_number 2
_symmetry_cell_setting 'triclinic'
loop_
_space_group_symop_operation_xyz
x,y,z
-x,-y,-z
loop_
_atom_site_type_symbol
_atom_site_label
_atom_site_fract_x
_atom_site_fract_y
_atom_site_fract_z
Si Si1 0.990960 0.599698 0.733797
Si Si2 0.486418 0.656717 0.663132
Si Si3 0.538552 0.428675 0.741534
Si Si4 0.099608 0.057406 0.613589
Si Si5 0.190172 0.881204 0.784047
O O1 0.238099 0.595131 0.388938
O O2 0.129941 0.732294 0.753919
O O3 0.819779 0.456550 0.995391
O O4 0.746288 0.611266 0.884755
O O5 0.637510 0.582450 0.591090
O O6 0.532282 0.657718 0.396643
O O7 0.598750 0.808804 0.657601
O O8 0.932694 0.116052 0.894833
O O9 0.069205 0.935157 0.754515
O O10 0.000000 0.000000 0.500000
O O11 0.500000 0.000000 0.500000
#
# Coordination Sequence:
#
# PCOD9085846 Si02
#       5
#     2   2   2   2   2
#     4  10  19  35  63  95 122 171 223 273 328 394
#     4   9  18  33  60  90 127 167 219 272 324 395
#     4   9  17  30  61  92 121 160 224 267 325 384
#     4  11  24  44  65  98 135 177 222 275 337 404
#     4  11  24  41  69  96 136 175 221 278 340 400
#
# _framework density 25.007421000000001
#
# number of rings (size 3 to 8) (size 9 to 14) (size 15 to 20)
#    1.200    0.800    2.000    1.800    2.800    2.400 
#    0.000    1.000    0.000    2.400    0.000    0.000 
#    0.000    0.000    0.000    0.000    0.000    0.000 
#
# Total GULP energy -55851.920508 kJ/mol
# GULP energy per Si atom -5585.192051 kJ/mol
# Density = 2.495050 g / cm^3
# Si number density = 25.007421 Si / 1000 Ang^3
#
#
#
# Elastic Constant Matrix: (Units=GPa)
#
#
# Indices 1 2 3 4 5 6 
#
# 1 122.0295 41.3371 43.9400 20.7403 -0.8407 16.1214
# 2 41.3371 166.4340 62.2213 -8.5895 4.7696 13.5165
# 3 43.9400 62.2213 121.6998 10.9200 -27.5122 8.1413
# 4 20.7403 -8.5895 10.9200 59.3529 -8.4637 -8.8960
# 5 -0.8407 4.7696 -27.5122 -8.4637 35.4114 19.1779
# 6 16.1214 13.5165 8.1413 -8.8960 19.1779 28.6249
#
#
#
# Elastic Compliance Matrix: (Units=1/GPa)
#
#
# Indices 1 2 3 4 5 6 
#
# 1 0.011327 -0.001897 -0.001503 -0.004822 0.002753 -0.008399
# 2 -0.001897 0.008759 -0.006179 0.002655 -0.008049 0.004908
# 3 -0.001503 -0.006179 0.019485 -0.003269 0.026157 -0.020318
# 4 -0.004822 0.002655 -0.003269 0.020651 -0.004469 0.011804
# 5 0.002753 -0.008049 0.026157 -0.004469 0.081935 -0.061473
# 6 -0.008399 0.004908 -0.020318 0.011804 -0.061473 0.087980
#
#
# Mechanical properties :
#
#
# Convention : Reuss Voigt Hill
#
# Bulk Modulus (GPa) = 48.99070 78.35111 63.67090
# Shear Modulus (GPa) = 19.52375 42.18884 30.85629
#
# Velocity S-wave (km/s) = 2.79716 4.11183 3.51648
# Velocity P-wave (km/s) = 5.48317 7.34452 6.48102
#
# Compressibility (1/GPa) = 0.02041204
#
# Stress axis : x y z
#
# Youngs Moduli (GPa) = 88.28738 114.17048 51.32268
#
# Poissons Ratio (x) = 0.21659 0.07711
# Poissons Ratio (y) = 0.16749 0.31714
# Poissons Ratio (z) = 0.13266 0.70550
#
# Static dielectric constant tensor:
#      x y z
#    x 2.010850 0.010480 -0.119910 
#    y 0.010480 1.983320 -0.003650 
#    z -0.119910 -0.003650 2.058490 
# 
# From -- ./inp_files/187191.got.cif
#   From: 2010.05.17/outbox.cif.g08.bks.cpg/sg2_94_cif.got.tgz:187191.got - 2010.06.03 11:33:40.
