data_PCOD9085975
_publ_section_title
;
Structure prediction by ZEFSAII (Michael W. Deem and Ramdas Pophale) SiO2 
 PCOD9085975
Probable space group: P -1
;
_chemical_formula_sum "Si O2"
_cell_formula_units_Z 16
_cell_length_a 15.512423
_cell_length_b 14.521196
_cell_length_c 12.341506
_cell_angle_alpha 115.110277
_cell_angle_beta 44.792293
_cell_angle_gamma 153.527286
_cell_volume 646.977737
_symmetry_space_group_name_H-M "P -1"
_symmetry_group_IT_number 2
_symmetry_cell_setting 'triclinic'
loop_
_space_group_symop_operation_xyz
x,y,z
-x,-y,-z
loop_
_atom_site_type_symbol
_atom_site_label
_atom_site_fract_x
_atom_site_fract_y
_atom_site_fract_z
Si Si1 0.312887 0.709299 0.975561
Si Si2 0.756277 0.144635 0.991566
Si Si3 0.830771 0.259506 0.532182
Si Si4 0.699767 0.654700 0.512806
Si Si5 0.991378 0.705407 0.823899
Si Si6 0.001179 0.788684 0.499932
Si Si7 0.251559 0.199885 0.173301
Si Si8 0.004584 0.163969 0.931798
O O1 0.105674 0.644179 0.078221
O O2 0.517279 0.912744 0.996979
O O3 0.108304 0.458848 0.082838
O O4 0.601495 0.894425 0.726818
O O5 0.522555 0.000752 0.225469
O O6 0.957530 0.207499 0.896195
O O7 0.000000 0.500000 0.500000
O O8 0.810791 0.192246 0.399484
O O9 0.037815 0.345431 0.468894
O O10 0.500000 0.500000 0.500000
O O11 0.812598 0.647176 0.481416
O O12 0.400231 0.470369 0.758656
O O13 0.037377 0.976631 0.346973
O O14 0.642969 0.477537 0.969739
O O15 0.163442 0.925229 0.853235
O O16 0.863707 0.773817 0.690349
O O17 0.118932 0.040848 0.102949
#
# Coordination Sequence:
#
# PCOD9085975 Si02
#       8
#     2   2   2   2   2   2   2   2
#     4  10  19  37  68  93 123 170 219 266 324 376
#     4  10  21  40  63  94 129 168 218 273 317 376
#     4  11  24  43  67  93 128 179 225 261 320 385
#     4  10  19  35  66 104 132 160 209 267 329 382
#     4  12  22  40  68  93 129 177 213 266 326 381
#     4  11  21  38  69  98 129 174 211 266 331 385
#     4  11  21  40  63  98 135 163 207 275 322 387
#     4  11  22  37  65  96 131 167 212 266 333 376
#
# _framework density 24.730371999999999
#
# number of rings (size 3 to 8) (size 9 to 14) (size 15 to 20)
#    0.000    1.250    5.000    1.875    0.000    1.500 
#    0.000    0.625   13.750    0.000    0.000    0.000 
#    0.000    0.000    0.000    0.000    0.000    0.000 
#
# Total GULP energy -89417.641528 kJ/mol
# GULP energy per Si atom -5588.602596 kJ/mol
# Density = 2.467408 g / cm^3
# Si number density = 24.730372 Si / 1000 Ang^3
#
#
#
# Elastic Constant Matrix: (Units=GPa)
#
#
# Indices 1 2 3 4 5 6 
#
# 1 155.5051 33.4110 28.4302 -0.9961 -17.3103 -10.0469
# 2 33.4110 95.9832 30.2724 33.8624 4.1189 13.1019
# 3 28.4302 30.2724 104.1103 34.3033 -4.2554 -6.3750
# 4 -0.9961 33.8624 34.3033 39.1640 6.0492 -1.1985
# 5 -17.3103 4.1189 -4.2554 6.0492 39.6172 1.6264
# 6 -10.0469 13.1019 -6.3750 -1.1985 1.6264 27.8853
#
#
#
# Elastic Compliance Matrix: (Units=1/GPa)
#
#
# Indices 1 2 3 4 5 6 
#
# 1 0.008834 -0.005598 -0.002698 0.007153 0.002841 0.005338
# 2 -0.005598 0.020409 0.001036 -0.018901 -0.001073 -0.012119
# 3 -0.002698 0.001036 0.014966 -0.014418 0.002473 0.001198
# 4 0.007153 -0.018901 -0.014418 0.055859 -0.005434 0.010879
# 5 0.002841 -0.001073 0.002473 -0.005434 0.027680 0.000245
# 6 0.005338 -0.012119 0.001198 0.010879 0.000245 0.044206
#
#
# Mechanical properties :
#
#
# Convention : Reuss Voigt Hill
#
# Bulk Modulus (GPa) = 33.68350 59.98066 46.83208
# Shear Modulus (GPa) = 25.46226 38.89897 32.18061
#
# Velocity S-wave (km/s) = 3.21221 3.97031 3.61121
# Velocity P-wave (km/s) = 5.23523 6.73233 6.03042
#
# Compressibility (1/GPa) = 0.02968813
#
# Stress axis : x y z
#
# Youngs Moduli (GPa) = 113.20420 48.99850 66.81830
#
# Poissons Ratio (x) = 0.27429 0.18030
# Poissons Ratio (y) = 0.63370 -0.06923
# Poissons Ratio (z) = 0.30547 -0.05077
#
# Static dielectric constant tensor:
#      x y z
#    x 1.995110 -0.013290 -0.040110 
#    y -0.013290 2.035410 0.078890 
#    z -0.040110 0.078890 2.046180 
# 
# From -- ./inp_files/455737.got.cif
#   From: 2010.05.17/outbox.cif.g08.bks.cpg/sg2_228_cif.got.tgz:455737.got - 2010.06.03 11:33:40.
