data_PCOD9085742
_publ_section_title
;
Structure prediction by ZEFSAII (Michael W. Deem and Ramdas Pophale) SiO2 
 PCOD9085742
Probable space group: P -1
;
_chemical_formula_sum "Si O2"
_cell_formula_units_Z 12
_cell_length_a 12.928536
_cell_length_b 27.245580
_cell_length_c 5.181617
_cell_angle_alpha 96.973786
_cell_angle_beta 78.774916
_cell_angle_gamma 26.479528
_cell_volume 588.213962
_symmetry_space_group_name_H-M "P -1"
_symmetry_group_IT_number 2
_symmetry_cell_setting 'triclinic'
loop_
_space_group_symop_operation_xyz
x,y,z
-x,-y,-z
loop_
_atom_site_type_symbol
_atom_site_label
_atom_site_fract_x
_atom_site_fract_y
_atom_site_fract_z
Si Si1 0.356650 0.247910 0.424151
Si Si2 0.270602 0.819073 0.809979
Si Si3 0.921940 0.147901 0.562618
Si Si4 0.491835 0.037728 0.777994
Si Si5 0.706374 0.549611 0.180451
Si Si6 0.830376 0.724495 0.986218
O O1 0.625502 0.170445 0.256327
O O2 0.307237 0.245401 0.168504
O O3 0.374473 0.198679 0.608987
O O4 0.019650 0.423059 0.780979
O O5 0.040138 0.901102 0.747734
O O6 0.588454 0.645471 0.485600
O O7 0.142782 0.860204 0.175603
O O8 0.598639 0.321965 0.772749
O O9 0.208033 0.058060 0.418223
O O10 0.500000 0.000000 0.500000
O O11 0.194401 0.207005 0.018350
O O12 0.500000 0.000000 0.000000
O O13 0.822610 0.450778 0.223246
#
# Coordination Sequence:
#
# PCOD9085742 Si02
#       6
#     2   2   2   2   2   2
#     4  10  19  35  62  94 129 162 184 224 292 360
#     4  10  19  35  62  94 129 162 184 224 292 360
#     4  10  22  38  60  91 118 156 201 245 282 354
#     4  12  26  48  67  78 109 162 208 256 316 344
#     4   8  21  34  62  88 134 148 196 228 287 346
#     4  10  22  38  60  91 118 156 201 245 282 354
#
# _framework density 20.400741
#
# number of rings (size 3 to 8) (size 9 to 14) (size 15 to 20)
#    2.000    0.000    0.000    4.500    0.000    1.333 
#    0.000    6.667    0.000    0.000    0.000    0.000 
#    0.000    0.000    0.000    0.000    0.000    0.000 
#
# Total GULP energy -66902.600126 kJ/mol
# GULP energy per Si atom -5575.216677 kJ/mol
# Density = 2.035431 g / cm^3
# Si number density = 20.400741 Si / 1000 Ang^3
#
#
#
# Elastic Constant Matrix: (Units=GPa)
#
#
# Indices 1 2 3 4 5 6 
#
# 1 61.4110 32.3167 17.2417 -4.0883 12.0502 12.3378
# 2 32.3167 105.8947 36.4279 -15.3670 6.3536 6.0620
# 3 17.2417 36.4279 48.7576 -15.3314 6.4741 2.0610
# 4 -4.0883 -15.3670 -15.3314 51.8717 -2.5053 2.8566
# 5 12.0502 6.3536 6.4741 -2.5053 28.8909 -2.4563
# 6 12.3378 6.0620 2.0610 2.8566 -2.4563 30.8550
#
#
#
# Elastic Compliance Matrix: (Units=1/GPa)
#
#
# Indices 1 2 3 4 5 6 
#
# 1 0.023247 -0.005099 -0.003053 -0.000519 -0.008678 -0.008733
# 2 -0.005099 0.014028 -0.008384 0.001336 0.001020 -0.000200
# 3 -0.003053 -0.008384 0.030163 0.006038 -0.003115 0.000046
# 4 -0.000519 0.001336 0.006038 0.021563 0.000232 -0.002436
# 5 -0.008678 0.001020 -0.003115 0.000232 0.039286 0.006584
# 6 -0.008733 -0.000200 0.000046 -0.002436 0.006584 0.036687
#
#
# Mechanical properties :
#
#
# Convention : Reuss Voigt Hill
#
# Bulk Modulus (GPa) = 29.09845 43.11509 36.10677
# Shear Modulus (GPa) = 23.86615 30.99531 27.43073
#
# Velocity S-wave (km/s) = 3.42404 3.90208 3.67085
# Velocity P-wave (km/s) = 5.47051 6.44062 5.97528
#
# Compressibility (1/GPa) = 0.03436609
#
# Stress axis : x y z
#
# Youngs Moduli (GPa) = 43.01657 71.28731 33.15291
#
# Poissons Ratio (x) = 0.36349 0.10121
# Poissons Ratio (y) = 0.21934 0.27796
# Poissons Ratio (z) = 0.13132 0.59769
#
# Static dielectric constant tensor:
#      x y z
#    x 1.653680 -0.005000 0.005660 
#    y -0.005000 1.789080 0.061100 
#    z 0.005660 0.061100 1.754510 
# 
# From -- ./inp_files/84385.got.cif
#   From: 2010.05.17/outbox.cif.g08.bks.cpg/sg2_43_cif.got.tgz:84385.got - 2010.06.03 11:33:40.
