data_PCOD9085094
_publ_section_title
;
Structure prediction by ZEFSAII (Michael W. Deem and Ramdas Pophale) SiO2 
 PCOD9085094
Probable space group: P -1
;
_chemical_formula_sum "Si O2"
_cell_formula_units_Z 13
_cell_length_a 17.061417
_cell_length_b 8.692578
_cell_length_c 12.559529
_cell_angle_alpha 145.010195
_cell_angle_beta 143.684756
_cell_angle_gamma 61.480458
_cell_volume 533.258485
_symmetry_space_group_name_H-M "P -1"
_symmetry_group_IT_number 2
_symmetry_cell_setting 'triclinic'
loop_
_space_group_symop_operation_xyz
x,y,z
-x,-y,-z
loop_
_atom_site_type_symbol
_atom_site_label
_atom_site_fract_x
_atom_site_fract_y
_atom_site_fract_z
Si Si1 0.500000 0.000000 0.000000
Si Si2 0.691305 0.306249 0.894848
Si Si3 0.893111 0.339318 0.956333
Si Si4 0.198622 0.524464 0.503719
Si Si5 0.948495 0.042247 0.652154
Si Si6 0.543434 0.532730 0.189740
Si Si7 0.839670 0.168608 0.163213
O O1 0.690029 0.267899 0.353693
O O2 0.521444 0.798945 0.006207
O O3 0.737151 0.258852 0.800774
O O4 0.532239 0.294426 0.736483
O O5 0.723695 0.113374 0.909687
O O6 0.826186 0.681232 0.278911
O O7 0.987624 0.708663 0.232187
O O8 0.017627 0.331741 0.166714
O O9 0.872530 0.143662 0.717176
O O10 0.225255 0.774546 0.767146
O O11 0.270515 0.326629 0.515322
O O12 0.101869 0.066966 0.886686
O O13 0.500000 0.500000 0.000000
O O14 0.000000 0.500000 0.500000
#
# Coordination Sequence:
#
# PCOD9085094 Si02
#       7
#     1   2   2   2   2   2   2
#     4   8  20  30  56  88 112 160 196 230 306 350
#     4  11  20  38  62  85 113 158 194 246 301 352
#     4  11  22  37  60  87 118 151 204 242 298 352
#     4  10  19  36  58  87 115 158 198 240 301 358
#     4  10  23  35  58  90 117 151 195 257 288 352
#     4  10  20  34  59  87 122 151 200 247 294 363
#     4  10  19  35  58  90 112 151 203 239 302 346
#
# _framework density 24.378420999999999
#
# number of rings (size 3 to 8) (size 9 to 14) (size 15 to 20)
#    0.923    0.923    4.615    1.385    2.154    0.615 
#    0.000    0.000    3.385    4.615    0.000    0.000 
#    0.000    0.000    0.000    0.000    0.000    0.000 
#
# Total GULP energy -72472.191645 kJ/mol
# GULP energy per Si atom -5574.783973 kJ/mol
# Density = 2.432293 g / cm^3
# Si number density = 24.378421 Si / 1000 Ang^3
#
#
#
# Elastic Constant Matrix: (Units=GPa)
#
#
# Indices 1 2 3 4 5 6 
#
# 1 136.6846 45.9638 47.1132 -12.4221 4.3998 -22.4785
# 2 45.9638 144.4140 35.4649 -34.0111 6.1496 -3.8207
# 3 47.1132 35.4649 67.5597 -12.4764 8.9249 -0.8739
# 4 -12.4221 -34.0111 -12.4764 34.4733 -7.2435 0.7022
# 5 4.3998 6.1496 8.9249 -7.2435 45.1836 2.5151
# 6 -22.4785 -3.8207 -0.8739 0.7022 2.5151 39.2979
#
#
#
# Elastic Compliance Matrix: (Units=1/GPa)
#
#
# Indices 1 2 3 4 5 6 
#
# 1 0.011282 -0.001813 -0.006912 -0.000324 0.000121 0.006121
# 2 -0.001813 0.010103 -0.002558 0.008541 0.000693 -0.000308
# 3 -0.006912 -0.002558 0.021708 0.002350 -0.002690 -0.003590
# 4 -0.000324 0.008541 0.002350 0.039162 0.004700 -0.000303
# 5 0.000121 0.000693 -0.002690 0.004700 0.023394 -0.001505
# 6 0.006121 -0.000308 -0.003590 -0.000303 -0.001505 0.028940
#
#
# Mechanical properties :
#
#
# Convention : Reuss Voigt Hill
#
# Bulk Modulus (GPa) = 48.71669 67.30469 58.01069
# Shear Modulus (GPa) = 30.48835 38.46540 34.47687
#
# Velocity S-wave (km/s) = 3.54026 3.97652 3.76471
# Velocity P-wave (km/s) = 6.06120 6.98225 6.53797
#
# Compressibility (1/GPa) = 0.02052685
#
# Stress axis : x y z
#
# Youngs Moduli (GPa) = 88.64006 98.97591 46.06653
#
# Poissons Ratio (x) = 0.17941 0.31843
# Poissons Ratio (y) = 0.16068 0.11783
# Poissons Ratio (z) = 0.61271 0.25317
#
# Static dielectric constant tensor:
#      x y z
#    x 1.940360 -0.047660 0.025760 
#    y -0.047660 1.953940 0.016760 
#    z 0.025760 0.016760 2.059440 
# 
# From -- ./inp_files/460253.got.cif
#   From: 2010.05.17/outbox.cif.g08.bks.cpg/sg2_231_cif.got.tgz:460253.got - 2010.06.03 11:33:40.
