data_PCOD9085437
_publ_section_title
;
Structure prediction by ZEFSAII (Michael W. Deem and Ramdas Pophale) SiO2 
 PCOD9085437
Probable space group: P -1
;
_chemical_formula_sum "Si O2"
_cell_formula_units_Z 16
_cell_length_a 13.614138
_cell_length_b 23.537091
_cell_length_c 19.948115
_cell_angle_alpha 160.811335
_cell_angle_beta 20.022075
_cell_angle_gamma 157.678364
_cell_volume 677.750333
_symmetry_space_group_name_H-M "P -1"
_symmetry_group_IT_number 2
_symmetry_cell_setting 'triclinic'
loop_
_space_group_symop_operation_xyz
x,y,z
-x,-y,-z
loop_
_atom_site_type_symbol
_atom_site_label
_atom_site_fract_x
_atom_site_fract_y
_atom_site_fract_z
Si Si1 0.378611 0.301187 0.389004
Si Si2 0.856901 0.172697 0.884864
Si Si3 0.760416 0.048331 0.534308
Si Si4 0.597628 0.562831 0.341500
Si Si5 0.302135 0.710934 0.393349
Si Si6 0.207019 0.409543 0.306738
Si Si7 0.349091 0.535745 0.029148
Si Si8 0.283959 0.793966 0.131832
O O1 0.500000 0.500000 0.500000
O O2 0.012305 0.225064 0.537938
O O3 0.514911 0.336911 0.416630
O O4 0.522837 0.161416 0.109414
O O5 0.797459 0.119152 0.785587
O O6 0.072346 0.383486 0.997729
O O7 0.021156 0.052451 0.683969
O O8 0.579438 0.085605 0.756679
O O9 0.539651 0.915620 0.475193
O O10 0.456322 0.565693 0.363553
O O11 0.954792 0.667471 0.227924
O O12 0.550415 0.351549 0.154289
O O13 0.464910 0.581482 0.182664
O O14 0.014339 0.702597 0.616393
O O15 0.251327 0.640390 0.270357
O O16 0.410700 0.346678 0.050980
O O17 0.000000 0.500000 0.500000
#
# Coordination Sequence:
#
# PCOD9085437 Si02
#       8
#     2   2   2   2   2   2   2   2
#     4  11  22  38  61  92 125 166 206 263 327 386
#     4  11  19  37  61  93 121 161 209 266 318 369
#     4  10  23  38  58  91 133 156 209 265 318 376
#     4  10  20  37  60  91 120 161 217 255 309 384
#     4   9  19  37  54  87 124 164 204 262 310 366
#     4  10  19  35  60  90 120 162 215 259 304 370
#     4   9  18  33  60  85 121 162 212 256 308 370
#     4  10  20  36  60  87 125 163 197 263 322 371
#
# _framework density 23.607513000000001
#
# number of rings (size 3 to 8) (size 9 to 14) (size 15 to 20)
#    0.000    2.000    2.500    1.500    0.000    1.000 
#    2.250    0.625    0.000    5.250    0.000    0.000 
#    0.000    0.000    0.000    0.000    0.000    0.000 
#
# Total GULP energy -89228.220331 kJ/mol
# GULP energy per Si atom -5576.763771 kJ/mol
# Density = 2.355378 g / cm^3
# Si number density = 23.607513 Si / 1000 Ang^3
#
#
#
# Elastic Constant Matrix: (Units=GPa)
#
#
# Indices 1 2 3 4 5 6 
#
# 1 97.9539 23.1232 17.5886 0.5180 23.7397 8.2959
# 2 23.1232 88.9195 23.9077 -5.4673 23.9425 0.2143
# 3 17.5886 23.9077 73.5279 -7.6454 33.1833 -8.1834
# 4 0.5180 -5.4673 -7.6454 29.2377 -1.5362 4.8132
# 5 23.7397 23.9425 33.1833 -1.5362 46.4841 -0.9867
# 6 8.2959 0.2143 -8.1834 4.8132 -0.9867 30.2551
#
#
#
# Elastic Compliance Matrix: (Units=1/GPa)
#
#
# Indices 1 2 3 4 5 6 
#
# 1 0.012242 -0.001683 -0.000512 -0.000342 -0.005107 -0.003596
# 2 -0.001683 0.013569 -0.001659 0.001968 -0.004892 -0.000556
# 3 -0.000512 -0.001659 0.021533 0.003783 -0.014026 0.004917
# 4 -0.000342 0.001968 0.003783 0.036217 -0.002443 -0.004738
# 5 -0.005107 -0.004892 -0.014026 -0.002443 0.036556 -0.000778
# 6 -0.003596 -0.000556 0.004917 -0.004738 -0.000778 0.036100
#
#
# Mechanical properties :
#
#
# Convention : Reuss Voigt Hill
#
# Bulk Modulus (GPa) = 25.22919 43.29339 34.26129
# Shear Modulus (GPa) = 28.22646 34.24750 31.23698
#
# Velocity S-wave (km/s) = 3.46158 3.81294 3.64150
# Velocity P-wave (km/s) = 5.16593 6.14519 5.67671
#
# Compressibility (1/GPa) = 0.03963663
#
# Stress axis : x y z
#
# Youngs Moduli (GPa) = 81.68435 73.69499 46.44083
#
# Poissons Ratio (x) = 0.12403 0.02378
# Poissons Ratio (y) = 0.13748 0.07704
# Poissons Ratio (z) = 0.04182 0.12226
#
# Static dielectric constant tensor:
#      x y z
#    x 2.140000 -0.010090 -0.000450 
#    y -0.010090 1.948920 -0.021560 
#    z -0.000450 -0.021560 1.929630 
# 
# From -- ./inp_files/259026.got.cif
#   From: 2010.05.17/outbox.cif.g08.bks.cpg/sg2_130_cif.got.tgz:259026.got - 2010.06.03 11:33:40.
