data_PCOD9085062
_publ_section_title
;
Structure prediction by ZEFSAII (Michael W. Deem and Ramdas Pophale) SiO2 
 PCOD9085062
Probable space group: P -1
;
_chemical_formula_sum "Si O2"
_cell_formula_units_Z 12
_cell_length_a 8.466033
_cell_length_b 19.915525
_cell_length_c 15.236491
_cell_angle_alpha 159.733958
_cell_angle_beta 125.535016
_cell_angle_gamma 47.320524
_cell_volume 638.880151
_symmetry_space_group_name_H-M "P -1"
_symmetry_group_IT_number 2
_symmetry_cell_setting 'triclinic'
loop_
_space_group_symop_operation_xyz
x,y,z
-x,-y,-z
loop_
_atom_site_type_symbol
_atom_site_label
_atom_site_fract_x
_atom_site_fract_y
_atom_site_fract_z
Si Si1 0.328403 0.941793 0.826133
Si Si2 0.995330 0.642137 0.348669
Si Si3 0.920926 0.071142 0.421662
Si Si4 0.469509 0.462835 0.341511
Si Si5 0.905935 0.036462 0.916755
Si Si6 0.241745 0.653302 0.115553
O O1 0.251117 0.988427 0.757899
O O2 0.443336 0.679929 0.551636
O O3 0.096526 0.047201 0.933061
O O4 0.500000 0.000000 0.000000
O O5 0.019072 0.779496 0.442070
O O6 0.235758 0.475285 0.260166
O O7 0.886481 0.828863 0.617477
O O8 0.869748 0.506042 0.118810
O O9 0.813639 0.215978 0.650293
O O10 0.130210 0.844740 0.240837
O O11 0.500000 0.500000 0.500000
O O12 0.673087 0.250483 0.108508
O O13 0.000000 0.000000 0.000000
O O14 0.500000 0.500000 0.000000
#
# Coordination Sequence:
#
# PCOD9085062 Si02
#       6
#     2   2   2   2   2   2
#     4  10  23  37  60  93 126 157 195 258 307 360
#     4  10  23  39  63  88 123 163 202 254 308 360
#     4   9  23  43  58  91 126 153 209 254 300 367
#     4  10  19  37  59  85 122 162 197 242 298 365
#     4  10  19  35  58  87 119 162 204 234 298 372
#     4  11  24  41  65  89 118 164 209 256 304 361
#
# _framework density 18.782865999999999
#
# number of rings (size 3 to 8) (size 9 to 14) (size 15 to 20)
#    0.000    2.333    3.333    0.500    2.333   10.667 
#    0.000    0.000    0.000    0.000    0.000    0.000 
#    0.000    0.000    0.000    0.000    0.000    0.000 
#
# Total GULP energy -66882.511362 kJ/mol
# GULP energy per Si atom -5573.542614 kJ/mol
# Density = 1.874012 g / cm^3
# Si number density = 18.782866 Si / 1000 Ang^3
#
#
#
# Elastic Constant Matrix: (Units=GPa)
#
#
# Indices 1 2 3 4 5 6 
#
# 1 57.5910 59.0505 57.9313 1.5413 1.8332 -19.8534
# 2 59.0505 167.2446 84.2525 3.1718 -5.4260 -15.5932
# 3 57.9313 84.2525 135.4169 8.0251 -21.0557 -28.2863
# 4 1.5413 3.1718 8.0251 50.1154 -12.6194 -2.5175
# 5 1.8332 -5.4260 -21.0557 -12.6194 33.0842 -0.5802
# 6 -19.8534 -15.5932 -28.2863 -2.5175 -0.5802 42.3807
#
#
#
# Elastic Compliance Matrix: (Units=1/GPa)
#
#
# Indices 1 2 3 4 5 6 
#
# 1 0.041681 -0.007673 -0.013335 -0.001420 -0.012464 0.007548
# 2 -0.007673 0.010301 -0.003629 -0.000006 -0.000236 -0.002230
# 3 -0.013335 -0.003629 0.018180 0.001039 0.012194 0.004781
# 4 -0.001420 -0.000006 0.001039 0.022234 0.009246 0.001473
# 5 -0.012464 -0.000236 0.012194 0.009246 0.042224 0.003340
# 6 0.007548 -0.002230 0.004781 0.001473 0.003340 0.029635
#
#
# Mechanical properties :
#
#
# Convention : Reuss Voigt Hill
#
# Bulk Modulus (GPa) = 47.87025 84.74677 66.30851
# Shear Modulus (GPa) = 22.67675 35.71727 29.19701
#
# Velocity S-wave (km/s) = 3.47841 4.36545 3.94693
# Velocity P-wave (km/s) = 6.45553 8.40397 7.49335
#
# Compressibility (1/GPa) = 0.02088980
#
# Stress axis : x y z
#
# Youngs Moduli (GPa) = 23.99156 97.07836 55.00595
#
# Poissons Ratio (x) = 0.74488 0.73348
# Poissons Ratio (y) = 0.18409 0.19960
# Poissons Ratio (z) = 0.31992 0.35226
#
# Static dielectric constant tensor:
#      x y z
#    x 1.720060 -0.006690 0.035730 
#    y -0.006690 1.684780 -0.031700 
#    z 0.035730 -0.031700 1.648380 
# 
# From -- ./inp_files/203972.got.cif
#   From: 2010.05.17/outbox.cif.g08.bks.cpg/sg2_102_cif.got.tgz:203972.got - 2010.06.03 11:33:40.
