data_PCOD9085598
_publ_section_title
;
Structure prediction by ZEFSAII (Michael W. Deem and Ramdas Pophale) SiO2 
 PCOD9085598
Probable space group: P -1
;
_chemical_formula_sum "Si O2"
_cell_formula_units_Z 16
_cell_length_a 7.779517
_cell_length_b 11.869171
_cell_length_c 16.424322
_cell_angle_alpha 142.430419
_cell_angle_beta 83.868620
_cell_angle_gamma 72.226184
_cell_volume 703.996741
_symmetry_space_group_name_H-M "P -1"
_symmetry_group_IT_number 2
_symmetry_cell_setting 'triclinic'
loop_
_space_group_symop_operation_xyz
x,y,z
-x,-y,-z
loop_
_atom_site_type_symbol
_atom_site_label
_atom_site_fract_x
_atom_site_fract_y
_atom_site_fract_z
Si Si1 0.830718 0.949083 0.915363
Si Si2 0.179872 0.591375 0.034910
Si Si3 0.769563 0.352588 0.411577
Si Si4 0.328005 0.891578 0.249556
Si Si5 0.728711 0.999821 0.282739
Si Si6 0.643274 0.833997 0.473739
Si Si7 0.628334 0.851349 0.741991
Si Si8 0.890772 0.310454 0.097350
O O1 0.659662 0.921801 0.868378
O O2 0.066015 0.771617 0.747325
O O3 0.890220 0.876401 0.964714
O O4 0.751297 0.215901 0.064110
O O5 0.252204 0.735008 0.154630
O O6 0.397752 0.314202 0.876326
O O7 0.121392 0.658308 0.980876
O O8 0.924779 0.738034 0.162675
O O9 0.500000 0.500000 0.500000
O O10 0.826102 0.139923 0.344989
O O11 0.764646 0.565690 0.566373
O O12 0.247381 0.062431 0.429462
O O13 0.271664 0.057479 0.270110
O O14 0.518935 0.142313 0.435865
O O15 0.616452 0.016667 0.211554
O O16 0.801855 0.562144 0.281803
O O17 0.500000 0.000000 0.500000
#
# Coordination Sequence:
#
# PCOD9085598 Si02
#       8
#     2   2   2   2   2   2   2   2
#     4  11  21  37  63  90 126 170 209 251 310 377
#     4  11  21  41  67  91 127 166 215 257 306 372
#     4  10  19  35  61  91 125 158 208 259 307 365
#     4  10  21  39  68  92 123 167 215 251 305 386
#     4  10  22  39  64  92 126 163 210 259 316 367
#     4  11  23  42  64  92 127 164 206 259 320 377
#     4  10  20  35  60  95 120 164 213 253 302 376
#     4  11  22  38  64  91 127 167 208 253 317 360
#
# _framework density 22.727376
#
# number of rings (size 3 to 8) (size 9 to 14) (size 15 to 20)
#    0.000    1.500    3.750    2.625    0.000    3.000 
#    0.000    1.250    2.750    0.000    0.000    0.000 
#    0.000    0.000    0.000    0.000    0.000    0.000 
#
# Total GULP energy -89230.387840 kJ/mol
# GULP energy per Si atom -5576.899240 kJ/mol
# Density = 2.267565 g / cm^3
# Si number density = 22.727376 Si / 1000 Ang^3
#
#
#
# Elastic Constant Matrix: (Units=GPa)
#
#
# Indices 1 2 3 4 5 6 
#
# 1 88.5659 8.8362 22.2867 -8.0075 19.7650 -15.8791
# 2 8.8362 95.0785 15.9912 -7.2919 11.3366 -3.6490
# 3 22.2867 15.9912 101.3859 3.0045 43.8590 -7.8756
# 4 -8.0075 -7.2919 3.0045 47.9788 -4.5582 1.5086
# 5 19.7650 11.3366 43.8590 -4.5582 44.1279 -0.7714
# 6 -15.8791 -3.6490 -7.8756 1.5086 -0.7714 33.5106
#
#
#
# Elastic Compliance Matrix: (Units=1/GPa)
#
#
# Indices 1 2 3 4 5 6 
#
# 1 0.013910 -0.000226 -0.000036 0.001532 -0.005867 0.006354
# 2 -0.000226 0.011040 -0.000999 0.001530 -0.001571 0.000755
# 3 -0.000036 -0.000999 0.018275 -0.003149 -0.018149 0.003893
# 4 0.001532 0.001530 -0.003149 0.021960 0.004306 -0.000737
# 5 -0.005867 -0.001571 -0.018149 0.004306 0.044064 -0.006396
# 6 0.006354 0.000755 0.003893 -0.000737 -0.006396 0.033735
#
#
# Mechanical properties :
#
#
# Convention : Reuss Voigt Hill
#
# Bulk Modulus (GPa) = 24.56667 42.13983 33.35325
# Shear Modulus (GPa) = 31.43196 40.98454 36.20825
#
# Velocity S-wave (km/s) = 3.72291 4.25115 3.99577
# Velocity P-wave (km/s) = 5.41413 6.53284 5.99962
#
# Compressibility (1/GPa) = 0.04070556
#
# Stress axis : x y z
#
# Youngs Moduli (GPa) = 71.89226 90.57774 54.71811
#
# Poissons Ratio (x) = 0.02045 0.00195
# Poissons Ratio (y) = 0.01623 0.05464
# Poissons Ratio (z) = 0.00256 0.09045
#
# Static dielectric constant tensor:
#      x y z
#    x 1.951840 -0.003400 -0.029740 
#    y -0.003400 1.849620 0.017320 
#    z -0.029740 0.017320 1.938790 
# 
# From -- ./inp_files/561200.got.cif
#   From: 2010.05.17/outbox.cif.g08.bks.cpg/sg2_281_cif.got.tgz:561200.got - 2010.06.03 11:33:40.
