data_PCOD9085936
_publ_section_title
;
Structure prediction by ZEFSAII (Michael W. Deem and Ramdas Pophale) SiO2 
 PCOD9085936
Probable space group: P -1
;
_chemical_formula_sum "Si O2"
_cell_formula_units_Z 14
_cell_length_a 7.482052
_cell_length_b 9.054806
_cell_length_c 12.355038
_cell_angle_alpha 49.135702
_cell_angle_beta 61.833477
_cell_angle_gamma 73.791284
_cell_volume 557.501290
_symmetry_space_group_name_H-M "P -1"
_symmetry_group_IT_number 2
_symmetry_cell_setting 'triclinic'
loop_
_space_group_symop_operation_xyz
x,y,z
-x,-y,-z
loop_
_atom_site_type_symbol
_atom_site_label
_atom_site_fract_x
_atom_site_fract_y
_atom_site_fract_z
Si Si1 0.059985 0.224651 0.399546
Si Si2 0.258644 0.017372 0.063186
Si Si3 0.106362 0.183037 0.655999
Si Si4 0.795937 0.494310 0.208032
Si Si5 0.798663 0.266760 0.098304
Si Si6 0.613299 0.776960 0.265064
Si Si7 0.391532 0.156335 0.172217
O O1 0.097949 0.247605 0.504612
O O2 0.263704 0.248966 0.259011
O O3 0.883979 0.350009 0.341019
O O4 0.000000 0.000000 0.500000
O O5 0.258401 0.163059 0.097863
O O6 0.225805 0.083813 0.917958
O O7 0.118803 0.829850 0.222670
O O8 0.500000 0.000000 0.000000
O O9 0.271822 0.295867 0.627862
O O10 0.166381 0.955169 0.764265
O O11 0.740996 0.383093 0.166700
O O12 0.607020 0.603026 0.262888
O O13 0.997843 0.632488 0.057484
O O14 0.614059 0.257961 0.070020
O O15 0.436394 0.921208 0.279239
#
# Coordination Sequence:
#
# PCOD9085936 Si02
#       7
#     2   2   2   2   2   2   2
#     4  12  24  44  65  91 134 179 210 254 328 397
#     4  10  19  35  64  99 125 160 213 268 311 373
#     4  11  21  42  69  88 130 180 212 251 328 400
#     4  11  23  42  65  97 132 167 212 271 324 373
#     4  10  22  39  68  96 129 167 218 265 321 380
#     4  10  23  39  68  94 125 164 219 271 314 370
#     4  10  23  41  67  99 125 171 217 264 320 388
#
# _framework density 25.112051000000001
#
# number of rings (size 3 to 8) (size 9 to 14) (size 15 to 20)
#    0.000    1.429    4.286    0.429    6.000    3.429 
#    0.000    0.714    0.000    0.000    0.000    0.000 
#    0.000    0.000    0.000    0.000    0.000    0.000 
#
# Total GULP energy -78132.138977 kJ/mol
# GULP energy per Si atom -5580.867070 kJ/mol
# Density = 2.505490 g / cm^3
# Si number density = 25.112051 Si / 1000 Ang^3
#
#
#
# Elastic Constant Matrix: (Units=GPa)
#
#
# Indices 1 2 3 4 5 6 
#
# 1 82.6535 1.7036 6.0045 2.4460 12.9514 3.1387
# 2 1.7036 102.8464 8.6592 7.1893 8.4822 -14.4566
# 3 6.0045 8.6592 77.1910 18.6590 20.6896 -1.5942
# 4 2.4460 7.1893 18.6590 38.3414 6.3095 9.9606
# 5 12.9514 8.4822 20.6896 6.3095 39.9622 6.4247
# 6 3.1387 -14.4566 -1.5942 9.9606 6.4247 36.6784
#
#
#
# Elastic Compliance Matrix: (Units=1/GPa)
#
#
# Indices 1 2 3 4 5 6 
#
# 1 0.012753 0.000090 0.000140 -0.000141 -0.004157 -0.000283
# 2 0.000090 0.010970 0.000487 -0.003301 -0.003015 0.005762
# 3 0.000140 0.000487 0.017287 -0.008326 -0.008538 0.004688
# 4 -0.000141 -0.003301 -0.008326 0.033358 0.001556 -0.010982
# 5 -0.004157 -0.003015 -0.008538 0.001556 0.032358 -0.007294
# 6 -0.000283 0.005762 0.004688 -0.010982 -0.007294 0.034023
#
#
# Mechanical properties :
#
#
# Convention : Reuss Voigt Hill
#
# Bulk Modulus (GPa) = 23.55976 32.82506 28.19241
# Shear Modulus (GPa) = 32.58108 39.41796 35.99952
#
# Velocity S-wave (km/s) = 3.60589 3.96622 3.79034
# Velocity P-wave (km/s) = 5.17096 5.83732 5.51422
#
# Compressibility (1/GPa) = 0.04244526
#
# Stress axis : x y z
#
# Youngs Moduli (GPa) = 78.41307 91.15776 57.84610
#
# Poissons Ratio (x) = -0.00819 -0.00812
# Poissons Ratio (y) = -0.00704 -0.02819
# Poissons Ratio (z) = -0.01101 -0.04443
#
# Static dielectric constant tensor:
#      x y z
#    x 2.062210 -0.085550 0.008790 
#    y -0.085550 2.111920 -0.037140 
#    z 0.008790 -0.037140 2.103010 
# 
# From -- ./inp_files/182325.got.cif
#   From: 2010.05.17/outbox.cif.g08.bks.cpg/sg2_92_cif.got.tgz:182325.got - 2010.06.03 11:33:40.
