data_PCOD9085006
_publ_section_title
;
Structure prediction by ZEFSAII (Michael W. Deem and Ramdas Pophale) SiO2 
 PCOD9085006
Probable space group: P -1
;
_chemical_formula_sum "Si O2"
_cell_formula_units_Z 12
_cell_length_a 20.529162
_cell_length_b 11.116353
_cell_length_c 8.957825
_cell_angle_alpha 37.343273
_cell_angle_beta 155.208552
_cell_angle_gamma 147.669243
_cell_volume 454.866251
_symmetry_space_group_name_H-M "P -1"
_symmetry_group_IT_number 2
_symmetry_cell_setting 'triclinic'
loop_
_space_group_symop_operation_xyz
x,y,z
-x,-y,-z
loop_
_atom_site_type_symbol
_atom_site_label
_atom_site_fract_x
_atom_site_fract_y
_atom_site_fract_z
Si Si1 0.236536 0.291236 0.214985
Si Si2 0.688623 0.186639 0.398815
Si Si3 0.568224 0.683343 0.687874
Si Si4 0.138255 0.786138 0.556445
Si Si5 0.444696 0.731022 0.668546
Si Si6 0.934089 0.518743 0.006208
O O1 0.395355 0.481555 0.451377
O O2 0.275831 0.298924 0.112398
O O3 0.215783 0.054801 0.466138
O O4 0.052045 0.292556 0.841438
O O5 0.733560 0.253020 0.253397
O O6 0.605096 0.297443 0.229502
O O7 0.886913 0.249821 0.806044
O O8 0.567415 0.918795 0.419112
O O9 0.585669 0.696789 0.892010
O O10 0.096092 0.665198 0.747308
O O11 0.500000 0.000000 0.500000
O O12 0.268522 0.556978 0.382823
O O13 0.000000 0.500000 0.000000
#
# Coordination Sequence:
#
# PCOD9085006 Si02
#       6
#     2   2   2   2   2   2
#     4   9  19  34  56  83 115 149 182 222 265 336
#     4   9  18  32  56  83 107 140 180 230 276 317
#     4   9  17  34  55  82 116 147 180 221 277 331
#     4  10  19  35  58  84 110 144 187 224 274 327
#     4   9  18  34  56  79 111 143 179 231 276 323
#     4  10  20  35  56  82 112 143 182 234 279 321
#
# _framework density 26.381381000000001
#
# number of rings (size 3 to 8) (size 9 to 14) (size 15 to 20)
#    0.000    2.667    0.000    1.500    0.000    0.000 
#    0.000   23.333    0.000   94.000    0.000    0.000 
#    0.000    0.000    0.000    0.000    0.000    0.000 
#
# Total GULP energy -66917.379890 kJ/mol
# GULP energy per Si atom -5576.448324 kJ/mol
# Density = 2.632134 g / cm^3
# Si number density = 26.381381 Si / 1000 Ang^3
#
#
#
# Elastic Constant Matrix: (Units=GPa)
#
#
# Indices 1 2 3 4 5 6 
#
# 1 284.7506 34.3551 32.5635 -32.4872 5.6665 8.4553
# 2 34.3551 171.4352 30.4473 15.5371 -20.9185 8.9754
# 3 32.5635 30.4473 96.6541 11.8028 -7.4984 -12.0113
# 4 -32.4872 15.5371 11.8028 40.0819 4.0604 -6.0184
# 5 5.6665 -20.9185 -7.4984 4.0604 26.6540 -2.1611
# 6 8.4553 8.9754 -12.0113 -6.0184 -2.1611 20.1489
#
#
#
# Elastic Compliance Matrix: (Units=1/GPa)
#
#
# Indices 1 2 3 4 5 6 
#
# 1 0.004619 -0.001343 -0.002216 0.005046 -0.003552 -0.001535
# 2 -0.001343 0.007848 -0.001482 -0.005040 0.006420 -0.004633
# 3 -0.002216 -0.001482 0.013537 -0.004334 0.004494 0.008847
# 4 0.005046 -0.005040 -0.004334 0.034375 -0.010946 0.006637
# 5 -0.003552 0.006420 0.004494 -0.010946 0.046489 0.003026
# 6 -0.001535 -0.004633 0.008847 0.006637 0.003026 0.059920
#
#
# Mechanical properties :
#
#
# Convention : Reuss Voigt Hill
#
# Bulk Modulus (GPa) = 62.80207 83.06352 72.93280
# Shear Modulus (GPa) = 27.44598 47.74188 37.59393
#
# Velocity S-wave (km/s) = 3.22895 4.25865 3.77904
# Velocity P-wave (km/s) = 6.14481 7.46562 6.83718
#
# Compressibility (1/GPa) = 0.01592304
#
# Stress axis : x y z
#
# Youngs Moduli (GPa) = 216.48632 127.41994 73.87160
#
# Poissons Ratio (x) = 0.17107 0.16369
# Poissons Ratio (y) = 0.29064 0.10949
# Poissons Ratio (z) = 0.47971 0.18886
#
# Static dielectric constant tensor:
#      x y z
#    x 2.239220 0.139370 -0.013540 
#    y 0.139370 2.247330 -0.028850 
#    z -0.013540 -0.028850 2.146080 
# 
# From -- ./inp_files/149366.got.cif
#   From: 2010.05.17/outbox.cif.g08.bks.cpg/sg2_75_cif.got.tgz:149366.got - 2010.06.03 11:33:40.
