data_PCOD9085129
_publ_section_title
;
Structure prediction by ZEFSAII (Michael W. Deem and Ramdas Pophale) SiO2 
 PCOD9085129
Probable space group: P -1
;
_chemical_formula_sum "Si O2"
_cell_formula_units_Z 16
_cell_length_a 5.016077
_cell_length_b 17.276769
_cell_length_c 32.800043
_cell_angle_alpha 18.453452
_cell_angle_beta 74.116448
_cell_angle_gamma 74.430516
_cell_volume 865.035814
_symmetry_space_group_name_H-M "P -1"
_symmetry_group_IT_number 2
_symmetry_cell_setting 'triclinic'
loop_
_space_group_symop_operation_xyz
x,y,z
-x,-y,-z
loop_
_atom_site_type_symbol
_atom_site_label
_atom_site_fract_x
_atom_site_fract_y
_atom_site_fract_z
Si Si1 0.053330 0.587072 0.756564
Si Si2 0.768859 0.534538 0.638002
Si Si3 0.372612 0.273019 0.364457
Si Si4 0.350252 0.261966 0.741954
Si Si5 0.303812 0.691878 0.034086
Si Si6 0.523084 0.601905 0.493313
Si Si7 0.943756 0.871081 0.390162
Si Si8 0.875426 0.382581 0.171803
O O1 0.854742 0.713871 0.668336
O O2 0.896525 0.346829 0.898842
O O3 0.364430 0.561378 0.740108
O O4 0.079562 0.724992 0.730207
O O5 0.757207 0.638628 0.631779
O O6 0.500099 0.383510 0.713356
O O7 0.796075 0.750988 0.495643
O O8 0.032677 0.354582 0.709788
O O9 0.500000 0.000000 0.500000
O O10 0.492407 0.380047 0.637401
O O11 0.373250 0.971156 0.886227
O O12 0.579337 0.522676 0.112450
O O13 0.118104 0.579672 0.061663
O O14 0.500000 0.500000 0.500000
O O15 0.799617 0.745129 0.420615
O O16 0.264080 0.788000 0.419649
O O17 0.901957 0.161106 0.250165
#
# Coordination Sequence:
#
# PCOD9085129 Si02
#       8
#     2   2   2   2   2   2   2   2
#     4  10  21  35  51  79 104 147 192 220 279 315
#     4  10  22  34  55  80 108 145 185 232 280 316
#     4  12  22  35  52  78 115 142 183 241 286 316
#     4  10  21  40  57  81 109 145 188 220 265 343
#     4  10  20  36  59  75 109 149 197 216 266 326
#     4  10  21  37  62  88 114 141 172 224 284 326
#     4  10  20  36  58  85 112 140 183 226 269 334
#     4  10  19  35  59  80 108 144 196 221 268 318
#
# _framework density 18.496343
#
# number of rings (size 3 to 8) (size 9 to 14) (size 15 to 20)
#    0.750    1.000    1.250    3.750    0.000    2.000 
#    0.000    3.750    0.000    4.500    0.000    0.000 
#    0.000    0.000    0.000    0.000    0.000    0.000 
#
# Total GULP energy -89203.397844 kJ/mol
# GULP energy per Si atom -5575.212365 kJ/mol
# Density = 1.845424 g / cm^3
# Si number density = 18.496343 Si / 1000 Ang^3
#
#
#
# Elastic Constant Matrix: (Units=GPa)
#
#
# Indices 1 2 3 4 5 6 
#
# 1 80.7048 -11.2098 7.4281 -1.0699 0.2867 8.9680
# 2 -11.2098 54.2983 18.0657 -5.1192 4.6627 12.9478
# 3 7.4281 18.0657 74.6653 -17.6209 -0.1908 -0.5485
# 4 -1.0699 -5.1192 -17.6209 14.7928 -0.1427 -0.6858
# 5 0.2867 4.6627 -0.1908 -0.1427 13.5940 0.5156
# 6 8.9680 12.9478 -0.5485 -0.6858 0.5156 21.3209
#
#
#
# Elastic Compliance Matrix: (Units=1/GPa)
#
#
# Indices 1 2 3 4 5 6 
#
# 1 0.014804 0.006783 -0.003490 -0.001245 -0.002306 -0.010420
# 2 0.006783 0.027817 -0.007542 0.000132 -0.009041 -0.019717
# 3 -0.003490 -0.007542 0.020916 0.022416 0.002915 0.007237
# 4 -0.001245 0.000132 0.022416 0.094455 0.001134 0.004031
# 5 -0.002306 -0.009041 0.002915 0.001134 0.076585 0.004720
# 6 -0.010420 -0.019717 0.007237 0.004031 0.004720 0.063460
#
#
# Mechanical properties :
#
#
# Convention : Reuss Voigt Hill
#
# Bulk Modulus (GPa) = 18.16944 26.47069 22.32006
# Shear Modulus (GPa) = 15.39023 22.96719 19.17871
#
# Velocity S-wave (km/s) = 2.88769 3.52762 3.22357
# Velocity P-wave (km/s) = 4.57853 5.56188 5.09399
#
# Compressibility (1/GPa) = 0.05503748
#
# Stress axis : x y z
#
# Youngs Moduli (GPa) = 67.55059 35.94956 47.81074
#
# Poissons Ratio (x) = -0.24384 0.16686
# Poissons Ratio (y) = -0.45818 0.36059
# Poissons Ratio (z) = 0.23575 0.27113
#
# Static dielectric constant tensor:
#      x y z
#    x 1.651210 0.009790 -0.022970 
#    y 0.009790 1.629910 0.022210 
#    z -0.022970 0.022210 1.631270 
# 
# From -- ./inp_files/80525.got.cif
#   From: 2010.05.17/outbox.cif.g08.bks.cpg/sg2_41_cif.got.tgz:80525.got - 2010.06.03 11:33:40.
