data_PCOD9085531
_publ_section_title
;
Structure prediction by ZEFSAII (Michael W. Deem and Ramdas Pophale) SiO2 
 PCOD9085531
Probable space group: P -1
;
_chemical_formula_sum "Si O2"
_cell_formula_units_Z 14
_cell_length_a 7.677303
_cell_length_b 9.192504
_cell_length_c 11.174243
_cell_angle_alpha 53.068565
_cell_angle_beta 71.647172
_cell_angle_gamma 65.302876
_cell_volume 570.500514
_symmetry_space_group_name_H-M "P -1"
_symmetry_group_IT_number 2
_symmetry_cell_setting 'triclinic'
loop_
_space_group_symop_operation_xyz
x,y,z
-x,-y,-z
loop_
_atom_site_type_symbol
_atom_site_label
_atom_site_fract_x
_atom_site_fract_y
_atom_site_fract_z
Si Si1 0.539491 0.778125 0.766338
Si Si2 0.826218 0.126554 0.828934
Si Si3 0.833241 0.447911 0.490757
Si Si4 0.161946 0.239512 0.089136
Si Si5 0.545975 0.782818 0.500658
Si Si6 0.111056 0.790321 0.624277
Si Si7 0.164977 0.761611 0.968358
O O1 0.683421 0.716164 0.878704
O O2 0.641388 0.724937 0.640603
O O3 0.355292 0.709399 0.872199
O O4 0.463383 0.009119 0.649642
O O5 0.801376 0.267060 0.654668
O O6 0.728726 0.963403 0.897196
O O7 0.771723 0.244651 0.903976
O O8 0.047309 0.989002 0.863410
O O9 0.646557 0.627331 0.458418
O O10 0.893901 0.378071 0.380016
O O11 0.000000 0.500000 0.500000
O O12 0.997708 0.220113 0.225845
O O13 0.003833 0.338526 0.971324
O O14 0.331820 0.783812 0.578283
O O15 0.000000 0.000000 0.500000
#
# Coordination Sequence:
#
# PCOD9085531 Si02
#       7
#     2   2   2   2   2   2   2
#     4  11  20  35  62  91 113 161 204 240 299 367
#     4   9  19  39  56  85 122 157 199 248 298 347
#     4  12  24  36  60  95 124 156 197 253 306 355
#     4  10  19  35  61  86 114 153 202 246 289 350
#     4  11  23  35  58  93 126 152 201 249 306 359
#     4  12  20  39  62  84 127 160 196 251 302 357
#     4   9  19  37  61  84 115 162 204 247 285 361
#
# _framework density 24.539853000000001
#
# number of rings (size 3 to 8) (size 9 to 14) (size 15 to 20)
#    0.857    0.571    4.286    2.143    2.000    0.571 
#    0.000    0.714    0.000    1.714    0.000    0.000 
#    0.000    0.000    0.000    0.000    0.000    0.000 
#
# Total GULP energy -78075.878416 kJ/mol
# GULP energy per Si atom -5576.848458 kJ/mol
# Density = 2.448400 g / cm^3
# Si number density = 24.539853 Si / 1000 Ang^3
#
#
#
# Elastic Constant Matrix: (Units=GPa)
#
#
# Indices 1 2 3 4 5 6 
#
# 1 119.0636 8.5146 8.4699 2.0397 6.9120 5.0483
# 2 8.5146 110.0527 41.7116 11.3040 7.7630 -3.1850
# 3 8.4699 41.7116 69.6084 4.6084 0.9673 5.9994
# 4 2.0397 11.3040 4.6084 39.6362 3.2729 7.5447
# 5 6.9120 7.7630 0.9673 3.2729 22.4097 11.0426
# 6 5.0483 -3.1850 5.9994 7.5447 11.0426 33.5646
#
#
#
# Elastic Compliance Matrix: (Units=1/GPa)
#
#
# Indices 1 2 3 4 5 6 
#
# 1 0.008628 -0.000175 -0.000878 -0.000025 -0.002377 -0.000370
# 2 -0.000175 0.013077 -0.007984 -0.003320 -0.006376 0.005538
# 3 -0.000878 -0.007984 0.019651 0.000757 0.005013 -0.005958
# 4 -0.000025 -0.003320 0.000757 0.027335 0.000454 -0.006741
# 5 -0.002377 -0.006376 0.005013 0.000454 0.057163 -0.020052
# 6 -0.000370 0.005538 -0.005958 -0.006741 -0.020052 0.039552
#
#
# Mechanical properties :
#
#
# Convention : Reuss Voigt Hill
#
# Bulk Modulus (GPa) = 42.95291 46.23520 44.59405
# Shear Modulus (GPa) = 26.14501 35.12400 30.63451
#
# Velocity S-wave (km/s) = 3.26760 3.78736 3.53704
# Velocity P-wave (km/s) = 5.63717 6.16500 5.90698
#
# Compressibility (1/GPa) = 0.02328131
#
# Stress axis : x y z
#
# Youngs Moduli (GPa) = 115.90226 76.46950 50.88850
#
# Poissons Ratio (x) = 0.01339 0.04470
# Poissons Ratio (y) = 0.02029 0.40629
# Poissons Ratio (z) = 0.10181 0.61052
#
# Static dielectric constant tensor:
#      x y z
#    x 2.038390 0.196890 0.133450 
#    y 0.196890 1.681060 -0.133990 
#    z 0.133450 -0.133990 1.918050 
# 
# From -- ./inp_files/377913.got.cif
#   From: 2010.05.17/outbox.cif.g08.bks.cpg/sg2_189_cif.got.tgz:377913.got - 2010.06.03 11:33:40.
