data_PCOD9085546
_publ_section_title
;
Structure prediction by ZEFSAII (Michael W. Deem and Ramdas Pophale) SiO2 
 PCOD9085546
Probable space group: P -1
;
_chemical_formula_sum "Si O2"
_cell_formula_units_Z 16
_cell_length_a 14.773623
_cell_length_b 8.631481
_cell_length_c 9.600087
_cell_angle_alpha 114.631674
_cell_angle_beta 39.978129
_cell_angle_gamma 116.871551
_cell_volume 696.288098
_symmetry_space_group_name_H-M "P -1"
_symmetry_group_IT_number 2
_symmetry_cell_setting 'triclinic'
loop_
_space_group_symop_operation_xyz
x,y,z
-x,-y,-z
loop_
_atom_site_type_symbol
_atom_site_label
_atom_site_fract_x
_atom_site_fract_y
_atom_site_fract_z
Si Si1 0.129613 0.835531 0.781462
Si Si2 0.181986 0.213624 0.972597
Si Si3 0.195220 0.105412 0.217913
Si Si4 0.050588 0.392181 0.525184
Si Si5 0.649593 0.371250 0.677808
Si Si6 0.377082 0.565300 0.751218
Si Si7 0.874858 0.280811 0.953913
Si Si8 0.542868 0.697960 0.856482
O O1 0.264795 0.756135 0.547247
O O2 0.185655 0.044216 0.810973
O O3 0.068055 0.760378 0.977901
O O4 0.991180 0.793686 0.826375
O O5 0.272464 0.396572 0.880372
O O6 0.248572 0.183559 0.032120
O O7 0.053765 0.187646 0.428621
O O8 0.303916 0.171420 0.242389
O O9 0.170991 0.901677 0.141820
O O10 0.218782 0.482018 0.362654
O O11 0.000000 0.500000 0.500000
O O12 0.979752 0.403064 0.765009
O O13 0.564075 0.497169 0.745350
O O14 0.552254 0.286732 0.889774
O O15 0.500000 0.500000 0.500000
O O16 0.453484 0.710501 0.828013
O O17 0.266600 0.646411 0.822128
#
# Coordination Sequence:
#
# PCOD9085546 Si02
#       8
#     2   2   2   2   2   2   2   2
#     4  10  22  40  63  91 122 157 200 258 314 363
#     4  10  22  41  63  89 122 159 205 254 308 372
#     4  10  22  41  63  91 123 160 207 255 305 363
#     4  11  21  37  63  90 121 160 202 253 308 365
#     4  10  19  35  61  87 115 157 200 247 305 360
#     4  12  25  41  60  88 124 165 208 253 306 365
#     4  11  24  39  61  92 125 161 205 256 308 364
#     4  10  22  39  60  87 121 159 206 251 296 366
#
# _framework density 22.978994
#
# number of rings (size 3 to 8) (size 9 to 14) (size 15 to 20)
#    0.000    1.500    0.000    6.375    0.000    5.500 
#    0.000    6.875    0.000    0.000    0.000    0.000 
#    0.000    0.000    0.000    0.000    0.000    0.000 
#
# Total GULP energy -89271.653497 kJ/mol
# GULP energy per Si atom -5579.478344 kJ/mol
# Density = 2.292669 g / cm^3
# Si number density = 22.978994 Si / 1000 Ang^3
#
#
#
# Elastic Constant Matrix: (Units=GPa)
#
#
# Indices 1 2 3 4 5 6 
#
# 1 88.9110 9.7274 -6.0954 -12.5460 -0.8279 13.0788
# 2 9.7274 69.9385 10.8312 17.9594 -1.0044 7.6798
# 3 -6.0954 10.8312 83.4321 14.2711 -14.7435 5.5711
# 4 -12.5460 17.9594 14.2711 31.8369 -3.9108 4.9248
# 5 -0.8279 -1.0044 -14.7435 -3.9108 25.9784 9.6735
# 6 13.0788 7.6798 5.5711 4.9248 9.6735 25.2225
#
#
#
# Elastic Compliance Matrix: (Units=1/GPa)
#
#
# Indices 1 2 3 4 5 6 
#
# 1 0.014935 -0.003466 0.001967 0.009687 0.007319 -0.011822
# 2 -0.003466 0.017824 -0.000845 -0.011076 -0.001273 -0.000792
# 3 0.001967 -0.000845 0.015243 -0.003004 0.011139 -0.007815
# 4 0.009687 -0.011076 -0.003004 0.046257 0.010348 -0.013987
# 5 0.007319 -0.001273 0.011139 0.010348 0.057740 -0.030033
# 6 -0.011822 -0.000792 -0.007815 -0.013987 -0.030033 0.061994
#
#
# Mechanical properties :
#
#
# Convention : Reuss Voigt Hill
#
# Bulk Modulus (GPa) = 23.08688 30.13423 26.61055
# Shear Modulus (GPa) = 21.44818 31.79545 26.62182
#
# Velocity S-wave (km/s) = 3.05844 3.72381 3.40741
# Velocity P-wave (km/s) = 4.74772 5.62417 5.20443
#
# Compressibility (1/GPa) = 0.04331465
#
# Stress axis : x y z
#
# Youngs Moduli (GPa) = 66.95552 56.10396 65.60290
#
# Poissons Ratio (x) = 0.19446 -0.12903
# Poissons Ratio (y) = 0.23208 0.05541
# Poissons Ratio (z) = -0.13169 0.04739
#
# Static dielectric constant tensor:
#      x y z
#    x 1.867730 -0.046400 -0.003600 
#    y -0.046400 1.942080 0.052060 
#    z -0.003600 0.052060 1.898130 
# 
# From -- ./inp_files/299070.got.cif
#   From: 2010.05.17/outbox.cif.g08.bks.cpg/sg2_150_cif.got.tgz:299070.got - 2010.06.03 11:33:40.
