data_PCOD9085904
_publ_section_title
;
Structure prediction by ZEFSAII (Michael W. Deem and Ramdas Pophale) SiO2 
 PCOD9085904
Probable space group: P -1
;
_chemical_formula_sum "Si O2"
_cell_formula_units_Z 16
_cell_length_a 9.218677
_cell_length_b 7.816275
_cell_length_c 15.305151
_cell_angle_alpha 60.451190
_cell_angle_beta 86.537718
_cell_angle_gamma 128.257527
_cell_volume 636.256804
_symmetry_space_group_name_H-M "P -1"
_symmetry_group_IT_number 2
_symmetry_cell_setting 'triclinic'
loop_
_space_group_symop_operation_xyz
x,y,z
-x,-y,-z
loop_
_atom_site_type_symbol
_atom_site_label
_atom_site_fract_x
_atom_site_fract_y
_atom_site_fract_z
Si Si1 0.907053 0.492007 0.327038
Si Si2 0.684962 0.707523 0.868597
Si Si3 0.246917 0.916059 0.906237
Si Si4 0.755684 0.955898 0.422148
Si Si5 0.904009 0.553688 0.858870
Si Si6 0.632959 0.083864 0.752220
Si Si7 0.891619 0.825028 0.139820
Si Si8 0.257395 0.486653 0.502117
O O1 0.809116 0.521370 0.242714
O O2 0.888215 0.598682 0.389402
O O3 0.159140 0.697438 0.245532
O O4 0.794082 0.169661 0.434943
O O5 0.723788 0.542848 0.858019
O O6 0.617630 0.839560 0.788889
O O7 0.500000 0.500000 0.000000
O O8 0.910672 0.965825 0.849431
O O9 0.023715 0.697340 0.912840
O O10 0.422620 0.962463 0.837094
O O11 0.294809 0.197812 0.835364
O O12 0.202255 0.767684 0.038371
O O13 0.499230 0.693816 0.479071
O O14 0.822361 0.796010 0.469101
O O15 0.899214 0.191360 0.277733
O O16 0.708951 0.301805 0.617845
O O17 0.000000 0.000000 0.000000
#
# Coordination Sequence:
#
# PCOD9085904 Si02
#       8
#     2   2   2   2   2   2   2   2
#     4  11  25  43  65  99 136 164 219 276 321 384
#     4  10  20  37  60  93 129 167 212 260 323 386
#     4  10  19  35  64  91 126 170 214 260 322 391
#     4  11  23  42  68  96 124 174 224 267 318 384
#     4  10  19  36  62  92 125 167 218 261 317 390
#     4  11  22  40  64  96 132 172 212 269 332 381
#     4  10  22  39  60  88 129 170 209 266 322 380
#     4  11  24  43  70  92 130 175 222 264 323 385
#
# _framework density 25.147078
#
# number of rings (size 3 to 8) (size 9 to 14) (size 15 to 20)
#    0.000    1.500    2.500    3.750    1.750    1.500 
#    2.250    1.875    0.000    0.000    0.000    0.000 
#    0.000    0.000    0.000    0.000    0.000    0.000 
#
# Total GULP energy -89303.430767 kJ/mol
# GULP energy per Si atom -5581.464423 kJ/mol
# Density = 2.508984 g / cm^3
# Si number density = 25.147078 Si / 1000 Ang^3
#
#
#
# Elastic Constant Matrix: (Units=GPa)
#
#
# Indices 1 2 3 4 5 6 
#
# 1 163.5075 22.7346 28.1682 -13.7601 9.5481 -28.3620
# 2 22.7346 32.1616 -6.2800 -12.5029 8.7061 -10.7395
# 3 28.1682 -6.2800 102.8984 2.1106 2.4465 -16.7668
# 4 -13.7601 -12.5029 2.1106 35.7712 -6.2568 8.8300
# 5 9.5481 8.7061 2.4465 -6.2568 44.5481 -15.5691
# 6 -28.3620 -10.7395 -16.7668 8.8300 -15.5691 31.7934
#
#
#
# Elastic Compliance Matrix: (Units=1/GPa)
#
#
# Indices 1 2 3 4 5 6 
#
# 1 0.007852 -0.004239 -0.001615 0.000567 0.001096 0.005100
# 2 -0.004239 0.042962 0.005115 0.010304 -0.003171 0.009014
# 3 -0.001615 0.005115 0.011656 -0.001128 0.001093 0.007283
# 4 0.000567 0.010304 -0.001128 0.033325 0.000673 -0.005534
# 5 0.001096 -0.003171 0.001093 0.000673 0.027713 0.013868
# 6 0.005100 0.009014 0.007283 -0.005534 0.013868 0.051217
#
#
# Mechanical properties :
#
#
# Convention : Reuss Voigt Hill
#
# Bulk Modulus (GPa) = 16.39511 43.09033 29.74272
# Shear Modulus (GPa) = 25.44080 39.35220 32.39650
#
# Velocity S-wave (km/s) = 3.18414 3.96015 3.59316
# Velocity P-wave (km/s) = 4.47797 6.17114 5.39143
#
# Compressibility (1/GPa) = 0.06099381
#
# Stress axis : x y z
#
# Youngs Moduli (GPa) = 127.35744 23.27616 85.78943
#
# Poissons Ratio (x) = 0.09867 0.13853
# Poissons Ratio (y) = 0.53987 -0.43883
# Poissons Ratio (z) = 0.20565 -0.11906
#
# Static dielectric constant tensor:
#      x y z
#    x 2.020070 -0.095470 0.063550 
#    y -0.095470 2.260870 -0.055370 
#    z 0.063550 -0.055370 2.016050 
# 
# From -- ./inp_files/206474.got.cif
#   From: 2010.05.17/outbox.cif.g08.bks.cpg/sg2_104_cif.got.tgz:206474.got - 2010.06.03 11:33:40.
