data_PCOD9085381
_publ_section_title
;
Structure prediction by ZEFSAII (Michael W. Deem and Ramdas Pophale) SiO2 
 PCOD9085381
Probable space group: P -1
;
_chemical_formula_sum "Si O2"
_cell_formula_units_Z 16
_cell_length_a 19.950847
_cell_length_b 8.248224
_cell_length_c 5.557340
_cell_angle_alpha 58.767337
_cell_angle_beta 90.822832
_cell_angle_gamma 59.322497
_cell_volume 622.289937
_symmetry_space_group_name_H-M "P -1"
_symmetry_group_IT_number 2
_symmetry_cell_setting 'triclinic'
loop_
_space_group_symop_operation_xyz
x,y,z
-x,-y,-z
loop_
_atom_site_type_symbol
_atom_site_label
_atom_site_fract_x
_atom_site_fract_y
_atom_site_fract_z
Si Si1 0.209418 0.588100 0.875568
Si Si2 0.171850 0.268025 0.594874
Si Si3 0.734933 0.120164 0.471519
Si Si4 0.513184 0.705921 0.316995
Si Si5 0.323928 0.102333 0.038038
Si Si6 0.115527 0.975717 0.945230
Si Si7 0.058656 0.752565 0.436019
Si Si8 0.571666 0.539193 0.947292
O O1 0.229418 0.732618 0.590369
O O2 0.124968 0.626604 0.753263
O O3 0.187548 0.723353 0.022496
O O4 0.288066 0.313690 0.067801
O O5 0.095206 0.543022 0.402137
O O6 0.149223 0.127679 0.872435
O O7 0.193889 0.132900 0.448516
O O8 0.256357 0.226189 0.724402
O O9 0.688281 0.084713 0.701937
O O10 0.662370 0.284217 0.141162
O O11 0.500000 0.500000 0.500000
O O12 0.553747 0.687490 0.591056
O O13 0.420804 0.952863 0.092154
O O14 0.565686 0.651485 0.119602
O O15 0.039186 0.121175 0.632642
O O16 0.071230 0.941158 0.184903
O O17 0.500000 0.500000 0.000000
#
# Coordination Sequence:
#
# PCOD9085381 Si02
#       8
#     2   2   2   2   2   2   2   2
#     4  10  23  38  54  90 112 150 196 238 300 356
#     4  10  21  34  56  86 110 150 196 236 294 358
#     4  11  21  36  60  80 118 152 193 247 296 356
#     4  10  19  35  60  87 117 163 207 247 309 365
#     4  11  21  36  60  80 118 152 193 247 296 356
#     4  10  20  37  58  81 115 150 189 240 293 355
#     4  10  20  37  58  81 115 150 189 240 293 355
#     4  10  19  35  60  87 117 163 207 247 309 365
#
# _framework density 25.711485
#
# number of rings (size 3 to 8) (size 9 to 14) (size 15 to 20)
#    0.000    1.750    2.500    3.750    0.000    0.000 
#    0.000    1.250    0.000   12.000    0.000    0.000 
#    0.000    0.000    0.000    0.000    0.000    0.000 
#
# Total GULP energy -89495.183351 kJ/mol
# GULP energy per Si atom -5593.448959 kJ/mol
# Density = 2.565296 g / cm^3
# Si number density = 25.711485 Si / 1000 Ang^3
#
#
#
# Elastic Constant Matrix: (Units=GPa)
#
#
# Indices 1 2 3 4 5 6 
#
# 1 65.8136 26.2127 13.7124 -9.4539 4.4018 1.6680
# 2 26.2127 127.0010 37.7530 -12.2521 6.5325 -12.2820
# 3 13.7124 37.7530 68.1589 3.7760 -0.7536 -1.1063
# 4 -9.4539 -12.2521 3.7760 45.6697 -5.3043 -0.5094
# 5 4.4018 6.5325 -0.7536 -5.3043 39.3831 -8.3520
# 6 1.6680 -12.2820 -1.1063 -0.5094 -8.3520 28.3531
#
#
#
# Elastic Compliance Matrix: (Units=1/GPa)
#
#
# Indices 1 2 3 4 5 6 
#
# 1 0.017363 -0.002868 -0.002123 0.002768 -0.001728 -0.002806
# 2 -0.002868 0.010831 -0.005504 0.002793 -0.000223 0.004630
# 3 -0.002123 -0.005504 0.018319 -0.003358 0.000755 -0.001382
# 4 0.002768 0.002793 -0.003358 0.023850 0.002838 0.002180
# 5 -0.001728 -0.000223 0.000755 0.002838 0.027771 0.008266
# 6 -0.002806 0.004630 -0.001382 0.002180 0.008266 0.039860
#
#
# Mechanical properties :
#
#
# Convention : Reuss Voigt Hill
#
# Bulk Modulus (GPa) = 39.17929 46.25886 42.71907
# Shear Modulus (GPa) = 29.85197 34.90088 32.37642
#
# Velocity S-wave (km/s) = 3.41109 3.68829 3.55240
# Velocity P-wave (km/s) = 5.54844 6.01403 5.78592
#
# Compressibility (1/GPa) = 0.02552369
#
# Stress axis : x y z
#
# Youngs Moduli (GPa) = 57.59255 92.32920 54.58723
#
# Poissons Ratio (x) = 0.26482 0.11586
# Poissons Ratio (y) = 0.16519 0.30046
# Poissons Ratio (z) = 0.12224 0.50819
#
# Static dielectric constant tensor:
#      x y z
#    x 2.011260 0.055130 0.021140 
#    y 0.055130 2.044340 0.080720 
#    z 0.021140 0.080720 2.151520 
# 
# From -- ./inp_files/122825.got.cif
#   From: 2010.05.17/outbox.cif.g08.bks.cpg/sg2_62_cif.got.tgz:122825.got - 2010.06.03 11:33:40.
