data_PCOD9085089
_publ_section_title
;
Structure prediction by ZEFSAII (Michael W. Deem and Ramdas Pophale) SiO2 
 PCOD9085089
Probable space group: P -1
;
_chemical_formula_sum "Si O2"
_cell_formula_units_Z 15
_cell_length_a 12.303899
_cell_length_b 9.293740
_cell_length_c 7.996377
_cell_angle_alpha 105.252056
_cell_angle_beta 88.868217
_cell_angle_gamma 136.143935
_cell_volume 591.130489
_symmetry_space_group_name_H-M "P -1"
_symmetry_group_IT_number 2
_symmetry_cell_setting 'triclinic'
loop_
_space_group_symop_operation_xyz
x,y,z
-x,-y,-z
loop_
_atom_site_type_symbol
_atom_site_label
_atom_site_fract_x
_atom_site_fract_y
_atom_site_fract_z
Si Si1 0.493835 0.669538 0.524493
Si Si2 0.000000 0.000000 0.500000
Si Si3 0.684553 0.253058 0.555469
Si Si4 0.164322 0.875541 0.373624
Si Si5 0.083531 0.860652 0.991688
Si Si6 0.556792 0.282552 0.076903
Si Si7 0.207242 0.255717 0.913515
Si Si8 0.254078 0.778211 0.824950
O O1 0.500000 0.500000 0.500000
O O2 0.349893 0.603532 0.404566
O O3 0.484851 0.729533 0.730723
O O4 0.663289 0.881764 0.498323
O O5 0.884494 0.859784 0.296137
O O6 0.031675 0.843813 0.459684
O O7 0.798408 0.263118 0.666473
O O8 0.753382 0.284005 0.381053
O O9 0.500000 0.000000 0.500000
O O10 0.144177 0.901938 0.190410
O O11 0.906986 0.751949 0.974707
O O12 0.103090 0.723413 0.861364
O O13 0.200857 0.095673 0.964920
O O14 0.620822 0.494476 0.050410
O O15 0.711065 0.327257 0.091197
O O16 0.412458 0.044683 0.923953
#
# Coordination Sequence:
#
# PCOD9085089 Si02
#       8
#     2   1   2   2   2   2   2   2
#     4  10  19  35  58  89 128 153 204 266 311 369
#     4  10  20  36  66  84 124 172 206 262 312 376
#     4   9  20  36  60  89 120 166 205 250 320 374
#     4  10  19  37  57  88 119 167 210 248 313 377
#     4  10  21  39  62  84 126 164 206 260 309 375
#     4  10  21  37  62  94 120 161 207 257 314 379
#     4  10  22  39  60  92 123 163 215 250 318 377
#     4  10  20  38  63  87 127 161 199 259 316 369
#
# _framework density 25.375108000000001
#
# number of rings (size 3 to 8) (size 9 to 14) (size 15 to 20)
#    0.000    2.133    1.333    1.600    1.867    2.133 
#    4.800    0.000    2.933   20.800    0.000    0.000 
#    0.000    0.000    0.000    0.000    0.000    0.000 
#
# Total GULP energy -83552.716885 kJ/mol
# GULP energy per Si atom -5570.181126 kJ/mol
# Density = 2.531735 g / cm^3
# Si number density = 25.375108 Si / 1000 Ang^3
#
#
#
# Elastic Constant Matrix: (Units=GPa)
#
#
# Indices 1 2 3 4 5 6 
#
# 1 173.5342 19.7513 10.7562 1.2003 -0.5339 -46.7551
# 2 19.7513 96.1614 14.9282 12.0433 18.4561 -9.9634
# 3 10.7562 14.9282 36.7523 11.8051 9.1239 -6.3159
# 4 1.2003 12.0433 11.8051 10.8448 -2.5619 1.9562
# 5 -0.5339 18.4561 9.1239 -2.5619 37.9086 -14.1372
# 6 -46.7551 -9.9634 -6.3159 1.9562 -14.1372 30.6048
#
#
#
# Elastic Compliance Matrix: (Units=1/GPa)
#
#
# Indices 1 2 3 4 5 6 
#
# 1 0.011954 -0.001937 -0.001750 0.001113 0.009691 0.021675
# 2 -0.001937 0.014972 0.004569 -0.023725 -0.010134 -0.000307
# 3 -0.001750 0.004569 0.052953 -0.067706 -0.017303 0.006077
# 4 0.001113 -0.023725 -0.067706 0.203502 0.035406 -0.016649
# 5 0.009691 -0.010134 -0.017303 0.035406 0.048472 0.028063
# 6 0.021675 -0.000307 0.006077 -0.016649 0.028063 0.080969
#
#
# Mechanical properties :
#
#
# Convention : Reuss Voigt Hill
#
# Bulk Modulus (GPa) = 12.24847 44.14659 28.19753
# Shear Modulus (GPa) = 11.40844 33.27247 22.34045
#
# Velocity S-wave (km/s) = 2.12266 3.62501 2.97039
# Velocity P-wave (km/s) = 3.29318 5.91239 4.78546
#
# Compressibility (1/GPa) = 0.08164285
#
# Stress axis : x y z
#
# Youngs Moduli (GPa) = 83.65722 66.79004 18.88472
#
# Poissons Ratio (x) = 0.12938 0.03305
# Poissons Ratio (y) = 0.16205 -0.08629
# Poissons Ratio (z) = 0.14639 -0.30517
#
# Static dielectric constant tensor:
#      x y z
#    x 2.070910 0.000030 -0.022850 
#    y 0.000030 2.049520 0.032980 
#    z -0.022850 0.032980 1.953450 
# 
# From -- ./inp_files/244586.got.cif
#   From: 2010.05.17/outbox.cif.g08.bks.cpg/sg2_123_cif.got.tgz:244586.got - 2010.06.03 11:33:40.
