data_PCOD9085607
_publ_section_title
;
Structure prediction by ZEFSAII (Michael W. Deem and Ramdas Pophale) SiO2 
 PCOD9085607
Probable space group: P -1
;
_chemical_formula_sum "Si O2"
_cell_formula_units_Z 16
_cell_length_a 9.661341
_cell_length_b 11.264136
_cell_length_c 9.226354
_cell_angle_alpha 130.622374
_cell_angle_beta 105.428919
_cell_angle_gamma 54.641291
_cell_volume 611.509514
_symmetry_space_group_name_H-M "P -1"
_symmetry_group_IT_number 2
_symmetry_cell_setting 'triclinic'
loop_
_space_group_symop_operation_xyz
x,y,z
-x,-y,-z
loop_
_atom_site_type_symbol
_atom_site_label
_atom_site_fract_x
_atom_site_fract_y
_atom_site_fract_z
Si Si1 0.132891 0.869973 0.222070
Si Si2 0.356321 0.126012 0.831218
Si Si3 0.811547 0.263512 0.544538
Si Si4 0.655611 0.295687 0.253950
Si Si5 0.936288 0.632914 0.230815
Si Si6 0.092102 0.626978 0.780597
Si Si7 0.486859 0.663346 0.033020
Si Si8 0.283955 0.106885 0.122558
O O1 0.195646 0.788093 0.334063
O O2 0.297752 0.843352 0.165652
O O3 0.087533 0.747075 0.014048
O O4 0.964783 0.074945 0.355086
O O5 0.201965 0.156938 0.709823
O O6 0.382921 0.274238 0.873103
O O7 0.552089 0.946558 0.773323
O O8 0.298607 0.176247 0.022105
O O9 0.650774 0.319311 0.441918
O O10 0.895439 0.382936 0.672393
O O11 0.778279 0.361238 0.280588
O O12 0.500036 0.395280 0.176726
O O13 0.711596 0.081105 0.067278
O O14 0.869379 0.562237 0.285589
O O15 0.000000 0.500000 0.000000
O O16 0.902568 0.738350 0.746953
O O17 0.500000 0.500000 0.000000
#
# Coordination Sequence:
#
# PCOD9085607 Si02
#       8
#     2   2   2   2   2   2   2   2
#     4  10  21  38  65  96 123 169 210 261 313 381
#     4  10  21  35  59  91 123 162 210 256 314 379
#     4  11  23  38  65  95 131 156 219 268 316 365
#     4  10  22  37  67  94 121 161 216 266 310 371
#     4  12  23  40  64  89 127 173 212 258 319 386
#     4  11  20  38  68  92 119 168 221 255 315 383
#     4  10  22  40  68  92 130 170 213 255 318 396
#     4  10  19  35  61  92 122 155 213 265 306 376
#
# _framework density 26.164762
#
# number of rings (size 3 to 8) (size 9 to 14) (size 15 to 20)
#    0.000    1.500    3.750    1.875    5.250    0.500 
#    0.000    1.250    2.750    0.000    0.000    0.000 
#    0.000    0.000    0.000    0.000    0.000    0.000 
#
# Total GULP energy -89380.792128 kJ/mol
# GULP energy per Si atom -5586.299508 kJ/mol
# Density = 2.610521 g / cm^3
# Si number density = 26.164762 Si / 1000 Ang^3
#
#
#
# Elastic Constant Matrix: (Units=GPa)
#
#
# Indices 1 2 3 4 5 6 
#
# 1 80.1772 2.8494 -9.8408 1.9963 6.6582 9.1458
# 2 2.8494 117.6697 17.5079 -22.0882 16.9705 1.9533
# 3 -9.8408 17.5079 87.9137 -21.6916 -4.2202 4.4894
# 4 1.9963 -22.0882 -21.6916 29.5286 -8.9087 7.5213
# 5 6.6582 16.9705 -4.2202 -8.9087 28.9641 -6.7154
# 6 9.1458 1.9533 4.4894 7.5213 -6.7154 58.7026
#
#
#
# Elastic Compliance Matrix: (Units=1/GPa)
#
#
# Indices 1 2 3 4 5 6 
#
# 1 0.013229 -0.000039 0.001366 -0.000335 -0.003507 -0.002522
# 2 -0.000039 0.010494 -0.000659 0.006383 -0.004653 -0.001643
# 3 0.001366 -0.000659 0.015249 0.012946 0.005728 -0.002361
# 4 -0.000335 0.006383 0.012946 0.053840 0.013269 -0.006530
# 5 -0.003507 -0.004653 0.005728 0.013269 0.043803 0.003574
# 6 -0.002522 -0.001643 -0.002361 -0.006530 0.003574 0.018909
#
#
# Mechanical properties :
#
#
# Convention : Reuss Voigt Hill
#
# Bulk Modulus (GPa) = 24.80862 34.08816 29.44839
# Shear Modulus (GPa) = 29.82914 41.78867 35.80891
#
# Velocity S-wave (km/s) = 3.38013 4.00075 3.70346
# Velocity P-wave (km/s) = 4.97352 5.86497 5.43755
#
# Compressibility (1/GPa) = 0.04030857
#
# Stress axis : x y z
#
# Youngs Moduli (GPa) = 75.59271 95.29381 65.57935
#
# Poissons Ratio (x) = 0.00371 -0.08960
# Poissons Ratio (y) = 0.00294 0.04320
# Poissons Ratio (z) = -0.10328 0.06277
#
# Static dielectric constant tensor:
#      x y z
#    x 2.111440 -0.094120 0.005140 
#    y -0.094120 2.201390 0.057080 
#    z 0.005140 0.057080 2.029550 
# 
# From -- ./inp_files/260716.got.cif
#   From: 2010.05.17/outbox.cif.g08.bks.cpg/sg2_131_cif.got.tgz:260716.got - 2010.06.03 11:33:40.
