data_PCOD9085486
_publ_section_title
;
Structure prediction by ZEFSAII (Michael W. Deem and Ramdas Pophale) SiO2 
 PCOD9085486
Probable space group: P -1
;
_chemical_formula_sum "Si O2"
_cell_formula_units_Z 16
_cell_length_a 4.755510
_cell_length_b 26.240723
_cell_length_c 17.880367
_cell_angle_alpha 18.708733
_cell_angle_beta 95.829207
_cell_angle_gamma 94.174242
_cell_volume 710.072743
_symmetry_space_group_name_H-M "P -1"
_symmetry_group_IT_number 2
_symmetry_cell_setting 'triclinic'
loop_
_space_group_symop_operation_xyz
x,y,z
-x,-y,-z
loop_
_atom_site_type_symbol
_atom_site_label
_atom_site_fract_x
_atom_site_fract_y
_atom_site_fract_z
Si Si1 0.415515 0.576391 0.776715
Si Si2 0.340095 0.867497 0.727362
Si Si3 0.807421 0.904937 0.071665
Si Si4 0.668040 0.806785 0.352912
Si Si5 0.581282 0.832451 0.534125
Si Si6 0.059997 0.650299 0.899546
Si Si7 0.821017 0.918421 0.755005
Si Si8 0.077090 0.979298 0.832694
O O1 0.522746 0.661730 0.587218
O O2 0.404145 0.713995 0.646708
O O3 0.142949 0.480087 0.892868
O O4 0.668905 0.450721 0.985308
O O5 0.910444 0.073490 0.303690
O O6 0.185233 0.753072 0.826551
O O7 0.500000 0.000000 0.500000
O O8 0.605213 0.798011 0.881806
O O9 0.718638 0.775976 0.308979
O O10 0.535518 0.027399 0.876447
O O11 0.988338 0.865454 0.057117
O O12 0.000000 0.000000 0.000000
O O13 0.931048 0.856332 0.343544
O O14 0.856753 0.745711 0.701296
O O15 0.379056 0.917573 0.471589
O O16 0.672061 0.963443 0.294373
O O17 0.908476 0.904141 0.863641
#
# Coordination Sequence:
#
# PCOD9085486 Si02
#       8
#     2   2   2   2   2   2   2   2
#     4  11  26  42  67  91 143 176 220 261 329 414
#     4  12  28  46  66  90 123 175 242 289 323 367
#     4   9  18  33  62  95 138 166 207 260 336 409
#     4   9  20  36  60  97 136 172 208 263 331 409
#     4  11  25  39  65  98 134 174 223 269 344 385
#     4  12  28  45  61  92 131 190 226 268 323 396
#     4  12  25  40  69  96 127 171 220 294 333 367
#     4  10  19  35  60  96 132 160 209 268 335 382
#
# _framework density 22.532903999999998
#
# number of rings (size 3 to 8) (size 9 to 14) (size 15 to 20)
#    0.000    1.250    1.250    4.125   14.000    0.000 
#    0.000    0.000    0.000    0.000    0.000    5.250 
#    0.000    0.000    0.000    0.000    0.000    0.000 
#
# Total GULP energy -89086.642640 kJ/mol
# GULP energy per Si atom -5567.915165 kJ/mol
# Density = 2.248162 g / cm^3
# Si number density = 22.532904 Si / 1000 Ang^3
#
#
#
# Elastic Constant Matrix: (Units=GPa)
#
#
# Indices 1 2 3 4 5 6 
#
# 1 138.2245 70.4883 37.7159 11.1162 -26.8103 2.9618
# 2 70.4883 178.5052 47.7568 31.3610 -28.6068 7.7138
# 3 37.7159 47.7568 51.2311 22.2527 -28.5691 -2.8469
# 4 11.1162 31.3610 22.2527 31.8202 -4.7242 -12.7332
# 5 -26.8103 -28.6068 -28.5691 -4.7242 41.4615 1.7085
# 6 2.9618 7.7138 -2.8469 -12.7332 1.7085 55.0427
#
#
#
# Elastic Compliance Matrix: (Units=1/GPa)
#
#
# Indices 1 2 3 4 5 6 
#
# 1 0.010227 -0.003012 -0.005802 0.003760 0.000948 0.000412
# 2 -0.003012 0.009113 -0.001947 -0.007432 0.002275 -0.003006
# 3 -0.005802 -0.001947 0.056729 -0.033258 0.030415 -0.005119
# 4 0.003760 -0.007432 -0.033258 0.063658 -0.018955 0.014434
# 5 0.000948 0.002275 0.030415 -0.018955 0.045288 -0.004587
# 6 0.000412 -0.003006 -0.005119 0.014434 -0.004587 0.021783
#
#
# Mechanical properties :
#
#
# Convention : Reuss Voigt Hill
#
# Bulk Modulus (GPa) = 18.33377 75.54252 46.93814
# Shear Modulus (GPa) = 20.28374 39.79822 30.04098
#
# Velocity S-wave (km/s) = 3.00356 4.20721 3.65527
# Velocity P-wave (km/s) = 4.49251 7.56300 6.22019
#
# Compressibility (1/GPa) = 0.05454417
#
# Stress axis : x y z
#
# Youngs Moduli (GPa) = 97.78375 109.73642 17.62771
#
# Poissons Ratio (x) = 0.33057 0.10228
# Poissons Ratio (y) = 0.29457 0.03433
# Poissons Ratio (z) = 0.56736 0.21371
#
# Static dielectric constant tensor:
#      x y z
#    x 2.044800 0.074000 0.000370 
#    y 0.074000 1.934350 0.057000 
#    z 0.000370 0.057000 1.957610 
# 
# From -- ./inp_files/551383.got.cif
#   From: 2010.05.17/outbox.cif.g08.bks.cpg/sg2_276_cif.got.tgz:551383.got - 2010.06.03 11:33:40.
