data_PCOD9085755
_publ_section_title
;
Structure prediction by ZEFSAII (Michael W. Deem and Ramdas Pophale) SiO2 
 PCOD9085755
Probable space group: P -1
;
_chemical_formula_sum "Si O2"
_cell_formula_units_Z 14
_cell_length_a 9.124971
_cell_length_b 11.496233
_cell_length_c 9.565112
_cell_angle_alpha 86.277630
_cell_angle_beta 149.165718
_cell_angle_gamma 96.385416
_cell_volume 510.190855
_symmetry_space_group_name_H-M "P -1"
_symmetry_group_IT_number 2
_symmetry_cell_setting 'triclinic'
loop_
_space_group_symop_operation_xyz
x,y,z
-x,-y,-z
loop_
_atom_site_type_symbol
_atom_site_label
_atom_site_fract_x
_atom_site_fract_y
_atom_site_fract_z
Si Si1 0.366571 0.471708 0.656578
Si Si2 0.541149 0.871635 0.992026
Si Si3 0.555035 0.184187 0.780305
Si Si4 0.951085 0.571186 0.134648
Si Si5 0.790754 0.737348 0.744882
Si Si6 0.902630 0.322610 0.466776
Si Si7 0.716926 0.944805 0.851850
O O1 0.249577 0.516597 0.409171
O O2 0.124052 0.380150 0.530205
O O3 0.338980 0.587077 0.723801
O O4 0.701213 0.462986 0.944438
O O5 0.770731 0.897755 0.054919
O O6 0.260628 0.801899 0.696631
O O7 0.578683 0.810042 0.175561
O O8 0.500000 0.000000 0.000000
O O9 0.119515 0.359576 0.066476
O O10 0.512192 0.049440 0.694795
O O11 0.900582 0.207504 0.066867
O O12 0.955602 0.658587 0.265083
O O13 0.579831 0.725455 0.440212
O O14 0.627726 0.828094 0.698926
O O15 0.000000 0.000000 0.000000
#
# Coordination Sequence:
#
# PCOD9085755 Si02
#       7
#     2   2   2   2   2   2   2
#     4   9  19  35  61 100 124 159 214 285 318 364
#     4  10  21  43  65  96 138 174 213 264 333 397
#     4  10  23  41  56  92 131 177 207 260 327 390
#     4  10  19  35  62  98 119 160 217 277 321 361
#     4  11  21  39  64  89 128 169 221 269 313 378
#     4   9  20  35  63  95 129 164 216 271 324 380
#     4   9  20  40  65  91 121 170 224 270 310 377
#
# _framework density 27.440711
#
# number of rings (size 3 to 8) (size 9 to 14) (size 15 to 20)
#    0.857    1.429    0.000    2.571    2.000    0.000 
#   10.286    5.714    0.000    5.143    0.000    0.000 
#    0.000    0.000    0.000    0.000    0.000    0.000 
#
# Total GULP energy -78265.557837 kJ/mol
# GULP energy per Si atom -5590.396988 kJ/mol
# Density = 2.737825 g / cm^3
# Si number density = 27.440711 Si / 1000 Ang^3
#
#
#
# Elastic Constant Matrix: (Units=GPa)
#
#
# Indices 1 2 3 4 5 6 
#
# 1 134.8063 47.1268 62.5204 -12.2664 -36.7673 37.8377
# 2 47.1268 119.9021 66.7013 -11.7565 -9.8091 13.8847
# 3 62.5204 66.7013 147.3641 -1.8995 -8.6460 0.6765
# 4 -12.2664 -11.7565 -1.8995 59.4365 3.3760 -5.1812
# 5 -36.7673 -9.8091 -8.6460 3.3760 47.4151 -4.9839
# 6 37.8377 13.8847 0.6765 -5.1812 -4.9839 46.5514
#
#
#
# Elastic Compliance Matrix: (Units=1/GPa)
#
#
# Indices 1 2 3 4 5 6 
#
# 1 0.016956 -0.000851 -0.006119 0.001481 0.010474 -0.012153
# 2 -0.000851 0.011961 -0.004988 0.001780 0.000510 -0.002551
# 3 -0.006119 -0.004988 0.011422 -0.001205 -0.002994 0.005841
# 4 0.001481 0.001780 -0.001205 0.017460 0.000078 0.000235
# 5 0.010474 0.000510 -0.002994 0.000078 0.028178 -0.005596
# 6 -0.012153 -0.002551 0.005841 0.000235 -0.005596 0.031463
#
#
# Mechanical properties :
#
#
# Convention : Reuss Voigt Hill
#
# Bulk Modulus (GPa) = 60.89375 83.86327 72.37851
# Shear Modulus (GPa) = 34.05290 45.72888 39.89089
#
# Velocity S-wave (km/s) = 3.52655 4.08666 3.81689
# Velocity P-wave (km/s) = 6.23067 7.27294 6.77189
#
# Compressibility (1/GPa) = 0.01642205
#
# Stress axis : x y z
#
# Youngs Moduli (GPa) = 58.97612 83.60335 87.55129
#
# Poissons Ratio (x) = 0.07114 0.53574
# Poissons Ratio (y) = 0.05019 0.43674
# Poissons Ratio (z) = 0.36089 0.41705
#
# Static dielectric constant tensor:
#      x y z
#    x 2.475750 -0.182080 -0.124960 
#    y -0.182080 2.286360 0.031140 
#    z -0.124960 0.031140 2.061450 
# 
# From -- ./inp_files/207247.got.cif
#   From: 2010.05.17/outbox.cif.g08.bks.cpg/sg2_104_cif.got.tgz:207247.got - 2010.06.03 11:33:40.
