data_PCOD9085724
_publ_section_title
;
Structure prediction by ZEFSAII (Michael W. Deem and Ramdas Pophale) SiO2 
 PCOD9085724
Probable space group: P -1
;
_chemical_formula_sum "Si O2"
_cell_formula_units_Z 16
_cell_length_a 12.120775
_cell_length_b 7.131864
_cell_length_c 18.634025
_cell_angle_alpha 64.456403
_cell_angle_beta 41.463331
_cell_angle_gamma 95.683278
_cell_volume 680.916499
_symmetry_space_group_name_H-M "P -1"
_symmetry_group_IT_number 2
_symmetry_cell_setting 'triclinic'
loop_
_space_group_symop_operation_xyz
x,y,z
-x,-y,-z
loop_
_atom_site_type_symbol
_atom_site_label
_atom_site_fract_x
_atom_site_fract_y
_atom_site_fract_z
Si Si1 0.571445 0.069652 0.168804
Si Si2 0.586737 0.236134 0.858159
Si Si3 0.864716 0.990526 0.860663
Si Si4 0.039397 0.070480 0.618972
Si Si5 0.261280 0.552562 0.647813
Si Si6 0.483881 0.346137 0.639680
Si Si7 0.976257 0.285558 0.209172
Si Si8 0.936136 0.259071 0.514175
O O1 0.476573 0.910992 0.164361
O O2 0.647093 0.943012 0.202363
O O3 0.336209 0.958785 0.338816
O O4 0.791422 0.407309 0.987404
O O5 0.859155 0.532954 0.677840
O O6 0.407438 0.273939 0.945277
O O7 0.500000 0.000000 0.000000
O O8 0.006825 0.806010 0.705117
O O9 0.876600 0.046325 0.760696
O O10 0.992280 0.277132 0.797443
O O11 0.297398 0.381620 0.463018
O O12 0.974411 0.084172 0.570117
O O13 0.035258 0.939319 0.793579
O O14 0.344087 0.430838 0.674496
O O15 0.413286 0.668288 0.481257
O O16 0.235572 0.739410 0.676084
O O17 0.000000 0.500000 0.500000
#
# Coordination Sequence:
#
# PCOD9085724 Si02
#       8
#     2   2   2   2   2   2   2   2
#     4  11  22  39  63  95 128 164 213 260 310 376
#     4  11  21  36  67  92 122 172 206 253 317 372
#     4   9  20  40  61  91 126 161 211 252 308 378
#     4   9  19  39  61  88 127 161 203 261 303 372
#     4  10  21  42  68  90 122 170 213 256 323 367
#     4  10  21  40  67  93 120 167 218 258 309 385
#     4  10  23  40  63  94 130 165 207 267 312 369
#     4  10  19  35  62  92 121 167 206 256 310 372
#
# _framework density 23.497738999999999
#
# number of rings (size 3 to 8) (size 9 to 14) (size 15 to 20)
#    0.750    1.250    3.750    1.500    1.750    1.500 
#    2.250    1.250    0.000    0.000    0.000    0.000 
#    0.000    0.000    0.000    0.000    0.000    0.000 
#
# Total GULP energy -89237.708428 kJ/mol
# GULP energy per Si atom -5577.356777 kJ/mol
# Density = 2.344426 g / cm^3
# Si number density = 23.497739 Si / 1000 Ang^3
#
#
#
# Elastic Constant Matrix: (Units=GPa)
#
#
# Indices 1 2 3 4 5 6 
#
# 1 69.9686 23.4073 21.5431 0.8958 11.7746 -25.4250
# 2 23.4073 57.4200 29.1834 2.6074 4.2100 -27.4854
# 3 21.5431 29.1834 124.3641 -1.0749 -2.5601 -24.1278
# 4 0.8958 2.6074 -1.0749 33.7557 -22.2629 3.8289
# 5 11.7746 4.2100 -2.5601 -22.2629 23.7044 -0.6207
# 6 -25.4250 -27.4854 -24.1278 3.8289 -0.6207 37.1711
#
#
#
# Elastic Compliance Matrix: (Units=1/GPa)
#
#
# Indices 1 2 3 4 5 6 
#
# 1 0.035391 0.010165 -0.003817 -0.047517 -0.063558 0.033079
# 2 0.010165 0.037870 -0.005227 -0.039004 -0.048060 0.034777
# 3 -0.003817 -0.005227 0.010143 0.009126 0.012475 -0.000624
# 4 -0.047517 -0.039004 0.009126 0.161899 0.181761 -0.069059
# 5 -0.063558 -0.048060 0.012475 0.181761 0.252111 -0.085426
# 6 0.033079 0.034777 -0.000624 -0.069059 -0.085426 0.080527
#
#
# Mechanical properties :
#
#
# Convention : Reuss Voigt Hill
#
# Bulk Modulus (GPa) = 11.67595 44.44668 28.06131
# Shear Modulus (GPa) = 8.27472 30.76750 19.52111
#
# Velocity S-wave (km/s) = 1.87860 3.62246 2.88543
# Velocity P-wave (km/s) = 3.11212 6.03761 4.80302
#
# Compressibility (1/GPa) = 0.08564617
#
# Stress axis : x y z
#
# Youngs Moduli (GPa) = 28.25548 26.40592 98.58632
#
# Poissons Ratio (x) = -0.26841 0.37634
# Poissons Ratio (y) = -0.28721 0.51529
# Poissons Ratio (z) = 0.10786 0.13802
#
# Static dielectric constant tensor:
#      x y z
#    x 1.885020 -0.040540 -0.008640 
#    y -0.040540 1.992930 0.047940 
#    z -0.008640 0.047940 1.904480 
# 
# From -- ./inp_files/593464.got.cif
#   From: 2010.05.17/outbox.cif.g08.bks.cpg/sg2_297_cif.got.tgz:593464.got - 2010.06.03 11:33:40.
