data_PCOD9085538
_publ_section_title
;
Structure prediction by ZEFSAII (Michael W. Deem and Ramdas Pophale) SiO2 
 PCOD9085538
Probable space group: P -1
;
_chemical_formula_sum "Si O2"
_cell_formula_units_Z 16
_cell_length_a 10.987735
_cell_length_b 11.789746
_cell_length_c 15.645471
_cell_angle_alpha 150.987294
_cell_angle_beta 130.169667
_cell_angle_gamma 68.183702
_cell_volume 641.892138
_symmetry_space_group_name_H-M "P -1"
_symmetry_group_IT_number 2
_symmetry_cell_setting 'triclinic'
loop_
_space_group_symop_operation_xyz
x,y,z
-x,-y,-z
loop_
_atom_site_type_symbol
_atom_site_label
_atom_site_fract_x
_atom_site_fract_y
_atom_site_fract_z
Si Si1 0.883310 0.157285 0.949344
Si Si2 0.769253 0.593386 0.616246
Si Si3 0.254741 0.091588 0.593314
Si Si4 0.105980 0.790827 0.665549
Si Si5 0.723436 0.442116 0.183415
Si Si6 0.194093 0.172153 0.801856
Si Si7 0.800290 0.303554 0.824626
Si Si8 0.575646 0.965237 0.921086
O O1 0.839004 0.176833 0.843033
O O2 0.788130 0.853151 0.746161
O O3 0.811071 0.331168 0.081342
O O4 0.100650 0.305861 0.173958
O O5 0.853822 0.446389 0.499706
O O6 0.558852 0.344795 0.371849
O O7 0.344363 0.387829 0.787264
O O8 0.269502 0.090052 0.700264
O O9 0.311885 0.917988 0.445892
O O10 0.030613 0.964951 0.399720
O O11 0.886150 0.652139 0.460737
O O12 0.204707 0.035654 0.803357
O O13 0.207052 0.923952 0.887920
O O14 0.581516 0.182460 0.001899
O O15 0.274224 0.495527 0.055107
O O16 0.000000 0.500000 0.000000
O O17 0.500000 0.000000 0.000000
#
# Coordination Sequence:
#
# PCOD9085538 Si02
#       8
#     2   2   2   2   2   2   2   2
#     4  10  20  39  60  89 121 149 206 245 295 360
#     4   9  21  37  59  84 118 161 188 252 300 348
#     4   9  18  30  57  87 118 152 194 244 299 343
#     4   9  19  35  61  88 122 153 198 245 292 363
#     4  10  19  35  61  86 118 162 193 247 296 354
#     4   9  17  35  53  90 123 148 195 251 292 349
#     4  10  20  32  59  93 118 150 198 252 293 351
#     4  10  21  37  56  86 120 155 203 242 301 355
#
# _framework density 24.926307000000001
#
# number of rings (size 3 to 8) (size 9 to 14) (size 15 to 20)
#    0.000    2.500    1.250    0.375    8.750    0.500 
#   13.500    0.000    0.000    5.250    0.000    0.000 
#    0.000    0.000    0.000    0.000    0.000    0.000 
#
# Total GULP energy -89477.395425 kJ/mol
# GULP energy per Si atom -5592.337214 kJ/mol
# Density = 2.486957 g / cm^3
# Si number density = 24.926307 Si / 1000 Ang^3
#
#
#
# Elastic Constant Matrix: (Units=GPa)
#
#
# Indices 1 2 3 4 5 6 
#
# 1 59.1737 22.3774 39.4810 -5.6121 -11.2555 11.0746
# 2 22.3774 163.0758 69.5389 16.1901 -2.0611 15.9708
# 3 39.4810 69.5389 141.8583 20.0555 7.5928 -2.5624
# 4 -5.6121 16.1901 20.0555 35.5675 -6.7657 1.9466
# 5 -11.2555 -2.0611 7.5928 -6.7657 42.8695 -0.4115
# 6 11.0746 15.9708 -2.5624 1.9466 -0.4115 26.8928
#
#
#
# Elastic Compliance Matrix: (Units=1/GPa)
#
#
# Indices 1 2 3 4 5 6 
#
# 1 0.031441 0.001206 -0.012376 0.014660 0.012668 -0.015710
# 2 0.001206 0.008614 -0.004673 -0.000497 0.001422 -0.006000
# 3 -0.012376 -0.004673 0.014807 -0.010164 -0.007606 0.009902
# 4 0.014660 -0.000497 -0.010164 0.039126 0.011710 -0.009363
# 5 0.012668 0.001422 -0.007606 0.011710 0.029847 -0.007177
# 6 -0.015710 -0.006000 0.009902 -0.009363 -0.007177 0.048729
#
#
# Mechanical properties :
#
#
# Convention : Reuss Voigt Hill
#
# Bulk Modulus (GPa) = 43.14582 69.65584 56.40083
# Shear Modulus (GPa) = 23.58778 36.57998 30.08388
#
# Velocity S-wave (km/s) = 3.07954 3.83498 3.47783
# Velocity P-wave (km/s) = 5.47646 6.90035 6.22923
#
# Compressibility (1/GPa) = 0.02317722
#
# Stress axis : x y z
#
# Youngs Moduli (GPa) = 31.80584 116.09044 67.53526
#
# Poissons Ratio (x) = -0.14005 0.83582
# Poissons Ratio (y) = -0.03837 0.31556
# Poissons Ratio (z) = 0.39363 0.54244
#
# Static dielectric constant tensor:
#      x y z
#    x 2.064210 -0.036790 0.060810 
#    y -0.036790 1.926460 -0.022830 
#    z 0.060810 -0.022830 2.054840 
# 
# From -- ./inp_files/281661.got.cif
#   From: 2010.05.17/outbox.cif.g08.bks.cpg/sg2_141_cif.got.tgz:281661.got - 2010.06.03 11:33:40.
