data_PCOD9085180
_publ_section_title
;
Structure prediction by ZEFSAII (Michael W. Deem and Ramdas Pophale) SiO2 
 PCOD9085180
Probable space group: P -1
;
_chemical_formula_sum "Si O2"
_cell_formula_units_Z 16
_cell_length_a 23.409875
_cell_length_b 11.752061
_cell_length_c 17.507233
_cell_angle_alpha 26.863603
_cell_angle_beta 20.899407
_cell_angle_gamma 28.288210
_cell_volume 742.386746
_symmetry_space_group_name_H-M "P -1"
_symmetry_group_IT_number 2
_symmetry_cell_setting 'triclinic'
loop_
_space_group_symop_operation_xyz
x,y,z
-x,-y,-z
loop_
_atom_site_type_symbol
_atom_site_label
_atom_site_fract_x
_atom_site_fract_y
_atom_site_fract_z
Si Si1 0.361331 0.638275 0.705551
Si Si2 0.939164 0.594549 0.934618
Si Si3 0.567245 0.320309 0.234625
Si Si4 0.233952 0.268007 0.653025
Si Si5 0.313824 0.728318 0.549373
Si Si6 0.021197 0.632283 0.211206
Si Si7 0.121176 0.670045 0.221541
Si Si8 0.989520 0.927046 0.378593
O O1 0.435708 0.690972 0.662880
O O2 0.332077 0.825790 0.554611
O O3 0.505518 0.383487 0.647482
O O4 0.181618 0.612225 0.970391
O O5 0.080284 0.430200 0.799145
O O6 0.943869 0.894904 0.752076
O O7 0.000000 0.500000 0.000000
O O8 0.769638 0.511591 0.188014
O O9 0.380940 0.406098 0.384274
O O10 0.669021 0.020707 0.263702
O O11 0.689476 0.477072 0.953340
O O12 0.152451 0.242190 0.689197
O O13 0.185383 0.919667 0.536921
O O14 0.040975 0.789175 0.169378
O O15 0.025941 0.336994 0.405207
O O16 0.000000 0.500000 0.500000
O O17 0.113313 0.849969 0.197276
#
# Coordination Sequence:
#
# PCOD9085180 Si02
#       8
#     2   2   2   2   2   2   2   2
#     4  10  21  37  59  89 116 146 195 245 280 343
#     4  10  19  35  59  84 117 150 192 235 282 344
#     4  10  21  36  62  84 115 152 191 242 293 330
#     4  11  22  37  57  91 113 152 194 241 285 343
#     4  10  20  36  59  88 117 149 195 238 285 345
#     4  10  22  39  60  87 119 150 197 239 283 348
#     4   9  20  38  59  84 116 152 193 232 285 345
#     4  10  21  37  62  83 118 160 184 235 299 339
#
# _framework density 21.552109999999999
#
# number of rings (size 3 to 8) (size 9 to 14) (size 15 to 20)
#    0.000    2.000    1.250    3.000    1.750    3.000 
#    0.000    3.750    8.250    0.000    0.000    0.000 
#    0.000    0.000    0.000    0.000    0.000    0.000 
#
# Total GULP energy -89162.101831 kJ/mol
# GULP energy per Si atom -5572.631364 kJ/mol
# Density = 2.150306 g / cm^3
# Si number density = 21.552110 Si / 1000 Ang^3
#
#
#
# Elastic Constant Matrix: (Units=GPa)
#
#
# Indices 1 2 3 4 5 6 
#
# 1 76.7009 6.4928 35.3745 19.7512 -3.4271 7.4246
# 2 6.4928 52.9446 24.8914 2.8723 11.6891 3.4583
# 3 35.3745 24.8914 102.0503 20.0245 -1.7155 -7.2563
# 4 19.7512 2.8723 20.0245 39.0741 0.9074 0.6936
# 5 -3.4271 11.6891 -1.7155 0.9074 31.8785 8.9324
# 6 7.4246 3.4583 -7.2563 0.6936 8.9324 40.2663
#
#
#
# Elastic Compliance Matrix: (Units=1/GPa)
#
#
# Indices 1 2 3 4 5 6 
#
# 1 0.017638 0.000288 -0.005251 -0.006231 0.003027 -0.004787
# 2 0.000288 0.023822 -0.006477 0.001649 -0.008718 -0.001361
# 3 -0.005251 -0.006477 0.014348 -0.004328 0.001635 0.003822
# 4 -0.006231 0.001649 -0.004328 0.030892 -0.002454 0.000240
# 5 0.003027 -0.008718 0.001635 -0.002454 0.037214 -0.007728
# 6 -0.004787 -0.001361 0.003822 0.000240 -0.007728 0.028233
#
#
# Mechanical properties :
#
#
# Convention : Reuss Voigt Hill
#
# Bulk Modulus (GPa) = 30.36985 40.57925 35.47455
# Shear Modulus (GPa) = 26.88120 33.23959 30.06039
#
# Velocity S-wave (km/s) = 3.53550 3.93146 3.73872
# Velocity P-wave (km/s) = 5.54872 6.28314 5.92731
#
# Compressibility (1/GPa) = 0.03292739
#
# Stress axis : x y z
#
# Youngs Moduli (GPa) = 56.69448 41.97841 69.69703
#
# Poissons Ratio (x) = -0.01210 0.36600
# Poissons Ratio (y) = -0.01635 0.45145
# Poissons Ratio (z) = 0.29772 0.27191
#
# Static dielectric constant tensor:
#      x y z
#    x 1.854070 0.047290 -0.047520 
#    y 0.047290 1.847920 -0.083780 
#    z -0.047520 -0.083780 1.894240 
# 
# From -- ./inp_files/306886.got.cif
#   From: 2010.05.17/outbox.cif.g08.bks.cpg/sg2_154_cif.got.tgz:306886.got - 2010.06.03 11:33:40.
