data_PCOD9085402
_publ_section_title
;
Structure prediction by ZEFSAII (Michael W. Deem and Ramdas Pophale) SiO2 
 PCOD9085402
Probable space group: P -1
;
_chemical_formula_sum "Si O2"
_cell_formula_units_Z 14
_cell_length_a 8.463068
_cell_length_b 13.057347
_cell_length_c 8.156019
_cell_angle_alpha 53.192399
_cell_angle_beta 65.310386
_cell_angle_gamma 46.333479
_cell_volume 521.981566
_symmetry_space_group_name_H-M "P -1"
_symmetry_group_IT_number 2
_symmetry_cell_setting 'triclinic'
loop_
_space_group_symop_operation_xyz
x,y,z
-x,-y,-z
loop_
_atom_site_type_symbol
_atom_site_label
_atom_site_fract_x
_atom_site_fract_y
_atom_site_fract_z
Si Si1 0.001879 0.768233 0.875952
Si Si2 0.975062 0.410236 0.245678
Si Si3 0.328616 0.245923 0.810894
Si Si4 0.404855 0.199700 0.471151
Si Si5 0.284506 0.776125 0.190683
Si Si6 0.641039 0.482153 0.801887
Si Si7 0.153127 0.971517 0.722548
O O1 0.098238 0.677611 0.748054
O O2 0.045256 0.898550 0.746114
O O3 0.760138 0.818523 0.957743
O O4 0.119703 0.649193 0.097267
O O5 0.206845 0.279375 0.353271
O O6 0.822527 0.557684 0.294705
O O7 0.000000 0.500000 0.000000
O O8 0.335336 0.175540 0.698953
O O9 0.564653 0.198058 0.795668
O O10 0.415191 0.347083 0.364169
O O11 0.642732 0.059678 0.431912
O O12 0.389439 0.595679 0.264664
O O13 0.249611 0.865567 0.947892
O O14 0.050437 0.854247 0.297965
O O15 0.500000 0.500000 0.000000
#
# Coordination Sequence:
#
# PCOD9085402 Si02
#       7
#     2   2   2   2   2   2   2
#     4  10  20  36  62  87 117 152 201 238 290 341
#     4  10  19  35  60  88 116 154 192 246 284 347
#     4  11  23  35  58  93 126 150 185 254 300 347
#     4  12  22  37  62  91 123 150 194 242 306 338
#     4  10  22  40  62  86 119 156 202 235 291 345
#     4  11  19  36  64  92 112 152 199 250 276 351
#     4  10  22  41  64  85 111 164 203 239 274 359
#
# _framework density 26.820869999999999
#
# number of rings (size 3 to 8) (size 9 to 14) (size 15 to 20)
#    0.000    1.429    5.714    3.000    0.000    1.714 
#    0.000    1.429    0.000    8.571    0.000    0.000 
#    0.000    0.000    0.000    0.000    0.000    0.000 
#
# Total GULP energy -78437.309461 kJ/mol
# GULP energy per Si atom -5602.664962 kJ/mol
# Density = 2.675982 g / cm^3
# Si number density = 26.820870 Si / 1000 Ang^3
#
#
#
# Elastic Constant Matrix: (Units=GPa)
#
#
# Indices 1 2 3 4 5 6 
#
# 1 118.3784 41.1862 26.1125 8.9411 17.7120 -11.7562
# 2 41.1862 149.6656 43.0039 35.2329 -1.3004 -14.9021
# 3 26.1125 43.0039 101.8236 21.2733 6.6883 -3.2338
# 4 8.9411 35.2329 21.2733 39.6245 4.0566 -10.9515
# 5 17.7120 -1.3004 6.6883 4.0566 39.1181 8.6275
# 6 -11.7562 -14.9021 -3.2338 -10.9515 8.6275 34.7767
#
#
#
# Elastic Compliance Matrix: (Units=1/GPa)
#
#
# Indices 1 2 3 4 5 6 
#
# 1 0.010959 -0.002782 -0.001677 0.002845 -0.006115 0.004770
# 2 -0.002782 0.009772 -0.002084 -0.007177 0.002656 0.000134
# 3 -0.001677 -0.002084 0.012087 -0.004667 -0.000523 -0.001676
# 4 0.002845 -0.007177 -0.004667 0.037212 -0.006993 0.010906
# 5 -0.006115 0.002656 -0.000523 -0.006993 0.031669 -0.011037
# 6 0.004770 0.000134 -0.001676 0.010906 -0.011037 0.036441
#
#
# Mechanical properties :
#
#
# Convention : Reuss Voigt Hill
#
# Bulk Modulus (GPa) = 50.67883 65.60809 58.14346
# Shear Modulus (GPa) = 31.68467 40.00819 35.84643
#
# Velocity S-wave (km/s) = 3.44080 3.86642 3.65980
# Velocity P-wave (km/s) = 5.89252 6.66685 6.29161
#
# Compressibility (1/GPa) = 0.01973211
#
# Stress axis : x y z
#
# Youngs Moduli (GPa) = 91.24957 102.33298 82.73022
#
# Poissons Ratio (x) = 0.28469 0.13872
# Poissons Ratio (y) = 0.25386 0.17244
# Poissons Ratio (z) = 0.15301 0.21330
#
# Static dielectric constant tensor:
#      x y z
#    x 2.155190 -0.012860 0.043470 
#    y -0.012860 2.178570 -0.028620 
#    z 0.043470 -0.028620 2.120960 
# 
# From -- ./inp_files/200718.got.cif
#   From: 2010.05.17/outbox.cif.g08.bks.cpg/sg2_101_cif.got.tgz:200718.got - 2010.06.03 11:33:40.
