data_PCOD9085210
_publ_section_title
;
Structure prediction by ZEFSAII (Michael W. Deem and Ramdas Pophale) SiO2 
 PCOD9085210
Probable space group: P -1
;
_chemical_formula_sum "Si O2"
_cell_formula_units_Z 14
_cell_length_a 14.391476
_cell_length_b 9.839369
_cell_length_c 7.621001
_cell_angle_alpha 64.218291
_cell_angle_beta 68.947712
_cell_angle_gamma 108.865756
_cell_volume 744.686669
_symmetry_space_group_name_H-M "P -1"
_symmetry_group_IT_number 2
_symmetry_cell_setting 'triclinic'
loop_
_space_group_symop_operation_xyz
x,y,z
-x,-y,-z
loop_
_atom_site_type_symbol
_atom_site_label
_atom_site_fract_x
_atom_site_fract_y
_atom_site_fract_z
Si Si1 0.936871 0.017112 0.863957
Si Si2 0.481782 0.424006 0.355809
Si Si3 0.945911 0.309670 0.488896
Si Si4 0.270855 0.028561 0.783227
Si Si5 0.806241 0.359767 0.829449
Si Si6 0.123246 0.000242 0.560628
Si Si7 0.320190 0.432126 0.156822
O O1 0.795155 0.924068 0.049355
O O2 0.016409 0.774131 0.331912
O O3 0.000000 0.000000 0.000000
O O4 0.989113 0.950579 0.718882
O O5 0.500000 0.500000 0.500000
O O6 0.403677 0.203769 0.554987
O O7 0.398790 0.454382 0.263716
O O8 0.601221 0.504821 0.110731
O O9 0.854174 0.350760 0.609733
O O10 0.067131 0.495347 0.237056
O O11 0.885343 0.141400 0.491941
O O12 0.184021 0.981677 0.702804
O O13 0.262869 0.847166 0.939269
O O14 0.729977 0.444683 0.845227
O O15 0.212224 0.216447 0.335340
#
# Coordination Sequence:
#
# PCOD9085210 Si02
#       7
#     2   2   2   2   2   2   2
#     4   9  17  31  55  84 111 149 189 235 280 342
#     4  10  23  42  64  86 109 155 208 248 285 341
#     4  10  20  33  56  87 123 152 185 224 297 359
#     4   9  21  37  55  83 122 148 190 248 289 341
#     4  10  21  37  55  85 124 154 177 240 299 349
#     4  10  19  35  59  86 114 154 197 234 281 349
#     4  10  22  41  63  87 117 150 202 247 287 341
#
# _framework density 18.799854
#
# number of rings (size 3 to 8) (size 9 to 14) (size 15 to 20)
#    0.000    2.286    1.429    0.429    4.000    1.143 
#    2.571    0.714    0.000    0.000    0.000    0.000 
#    0.000    0.000    0.000    0.000    0.000    0.000 
#
# Total GULP energy -77963.868200 kJ/mol
# GULP energy per Si atom -5568.847729 kJ/mol
# Density = 1.875706 g / cm^3
# Si number density = 18.799854 Si / 1000 Ang^3
#
#
#
# Elastic Constant Matrix: (Units=GPa)
#
#
# Indices 1 2 3 4 5 6 
#
# 1 54.5109 58.0051 35.9242 10.8838 -5.0386 -2.6018
# 2 58.0051 149.2437 53.7267 15.4625 -4.5252 -9.4288
# 3 35.9242 53.7267 98.8408 5.0741 -2.2723 -2.2360
# 4 10.8838 15.4625 5.0741 31.6928 0.1949 1.3076
# 5 -5.0386 -4.5252 -2.2723 0.1949 18.6783 8.3354
# 6 -2.6018 -9.4288 -2.2360 1.3076 8.3354 24.4198
#
#
#
# Elastic Compliance Matrix: (Units=1/GPa)
#
#
# Indices 1 2 3 4 5 6 
#
# 1 0.036299 -0.011026 -0.006792 -0.005908 0.007864 -0.003380
# 2 -0.011026 0.012300 -0.002532 -0.001969 -0.002148 0.004181
# 3 -0.006792 -0.002532 0.013871 0.001363 -0.000646 -0.000284
# 4 -0.005908 -0.001969 0.001363 0.034444 -0.001034 -0.002756
# 5 0.007864 -0.002148 -0.000646 -0.001034 0.064965 -0.022170
# 6 -0.003380 0.004181 -0.000284 -0.002756 -0.022170 0.049894
#
#
# Mechanical properties :
#
#
# Convention : Reuss Voigt Hill
#
# Bulk Modulus (GPa) = 45.93528 66.43418 56.18473
# Shear Modulus (GPa) = 19.25068 25.28747 22.26907
#
# Velocity S-wave (km/s) = 3.20344 3.67152 3.44544
# Velocity P-wave (km/s) = 6.17815 7.30669 6.76599
#
# Compressibility (1/GPa) = 0.02176976
#
# Stress axis : x y z
#
# Youngs Moduli (GPa) = 27.54904 81.29805 72.09162
#
# Poissons Ratio (x) = 0.89638 0.48966
# Poissons Ratio (y) = 0.30375 0.18257
# Poissons Ratio (z) = 0.18712 0.20588
#
# Static dielectric constant tensor:
#      x y z
#    x 1.663380 0.015060 0.013470 
#    y 0.015060 1.637110 0.043890 
#    z 0.013470 0.043890 1.730490 
# 
# From -- ./inp_files/327303.got.cif
#   From: 2010.05.17/outbox.cif.g08.bks.cpg/sg2_164_cif.got.tgz:327303.got - 2010.06.03 11:33:40.
