data_PCOD9085754
_publ_section_title
;
Structure prediction by ZEFSAII (Michael W. Deem and Ramdas Pophale) SiO2 
 PCOD9085754
Probable space group: P -1
;
_chemical_formula_sum "Si O2"
_cell_formula_units_Z 14
_cell_length_a 9.564464
_cell_length_b 14.848324
_cell_length_c 13.928192
_cell_angle_alpha 145.809908
_cell_angle_beta 72.524133
_cell_angle_gamma 132.003207
_cell_volume 656.795888
_symmetry_space_group_name_H-M "P -1"
_symmetry_group_IT_number 2
_symmetry_cell_setting 'triclinic'
loop_
_space_group_symop_operation_xyz
x,y,z
-x,-y,-z
loop_
_atom_site_type_symbol
_atom_site_label
_atom_site_fract_x
_atom_site_fract_y
_atom_site_fract_z
Si Si1 0.098661 0.686867 0.553333
Si Si2 0.976425 0.735159 0.012642
Si Si3 0.545170 0.140783 0.518321
Si Si4 0.157205 0.033470 0.426362
Si Si5 0.543448 0.460604 0.305070
Si Si6 0.114294 0.165075 0.253980
Si Si7 0.313899 0.763041 0.902813
O O1 0.342129 0.847718 0.590580
O O2 0.000000 0.500000 0.500000
O O3 0.071424 0.850231 0.729375
O O4 0.908214 0.486517 0.333356
O O5 0.740880 0.439054 0.773179
O O6 0.987857 0.824476 0.192869
O O7 0.013802 0.909201 0.082329
O O8 0.202564 0.809055 0.029123
O O9 0.299764 0.012706 0.427609
O O10 0.500000 0.000000 0.500000
O O11 0.351836 0.322162 0.598059
O O12 0.000000 0.000000 0.500000
O O13 0.277684 0.277900 0.227441
O O14 0.704350 0.625394 0.513193
O O15 0.576801 0.302894 0.131356
O O16 0.500000 0.000000 0.000000
#
# Coordination Sequence:
#
# PCOD9085754 Si02
#       7
#     2   2   2   2   2   2   2
#     4  10  22  39  63  93 134 171 222 275 334 390
#     4  10  23  43  68  95 134 173 225 272 338 397
#     4  11  27  47  66  98 139 176 223 281 338 402
#     4  11  26  45  69  94 131 178 231 273 330 405
#     4   9  18  35  62  93 130 164 219 270 324 389
#     4   9  17  35  65  91 125 174 208 272 334 384
#     4  10  19  35  62  97 131 169 212 273 337 396
#
# _framework density 21.315601000000001
#
# number of rings (size 3 to 8) (size 9 to 14) (size 15 to 20)
#    0.000    2.000    1.429    0.857   12.000    1.143 
#    2.571    2.143    0.000    0.000    0.000    0.000 
#    0.000    0.000    0.000    0.000    0.000    0.000 
#
# Total GULP energy -78201.840047 kJ/mol
# GULP energy per Si atom -5585.845718 kJ/mol
# Density = 2.126709 g / cm^3
# Si number density = 21.315601 Si / 1000 Ang^3
#
#
#
# Elastic Constant Matrix: (Units=GPa)
#
#
# Indices 1 2 3 4 5 6 
#
# 1 114.2603 47.3107 17.4775 -6.7260 -17.4854 2.0548
# 2 47.3107 111.9618 22.5775 -20.0324 -14.3763 9.6529
# 3 17.4775 22.5775 72.9722 -0.7064 -15.9194 6.3077
# 4 -6.7260 -20.0324 -0.7064 26.1753 1.7677 -7.1875
# 5 -17.4854 -14.3763 -15.9194 1.7677 39.9572 3.1116
# 6 2.0548 9.6529 6.3077 -7.1875 3.1116 35.4255
#
#
#
# Elastic Compliance Matrix: (Units=1/GPa)
#
#
# Indices 1 2 3 4 5 6 
#
# 1 0.011049 -0.004266 -0.000694 -0.000577 0.003029 0.000262
# 2 -0.004266 0.013043 -0.002477 0.008353 0.001572 -0.001309
# 3 -0.000694 -0.002477 0.016111 -0.002906 0.005604 -0.003235
# 4 -0.000577 0.008353 -0.002906 0.046591 -0.001075 0.007822
# 5 0.003029 0.001572 0.005604 -0.001075 0.029542 -0.004415
# 6 0.000262 -0.001309 -0.003235 0.007822 -0.004415 0.031121
#
#
# Mechanical properties :
#
#
# Convention : Reuss Voigt Hill
#
# Bulk Modulus (GPa) = 39.48016 52.65840 46.06928
# Shear Modulus (GPa) = 29.27868 34.43350 31.85609
#
# Velocity S-wave (km/s) = 3.71020 4.02358 3.87007
# Velocity P-wave (km/s) = 6.07586 6.80760 6.45211
#
# Compressibility (1/GPa) = 0.02532918
#
# Stress axis : x y z
#
# Youngs Moduli (GPa) = 90.50335 76.66972 62.07114
#
# Poissons Ratio (x) = 0.32707 0.04307
# Poissons Ratio (y) = 0.38608 0.15374
# Poissons Ratio (z) = 0.06281 0.18990
#
# Static dielectric constant tensor:
#      x y z
#    x 1.869220 0.058020 0.010400 
#    y 0.058020 1.783130 -0.002740 
#    z 0.010400 -0.002740 1.797490 
# 
# From -- ./inp_files/233930.got.cif
#   From: 2010.05.17/outbox.cif.g08.bks.cpg/sg2_117_cif.got.tgz:233930.got - 2010.06.03 11:33:40.
