data_PCOD9085539
_publ_section_title
;
Structure prediction by ZEFSAII (Michael W. Deem and Ramdas Pophale) SiO2 
 PCOD9085539
Probable space group: P -1
;
_chemical_formula_sum "Si O2"
_cell_formula_units_Z 14
_cell_length_a 11.970589
_cell_length_b 11.623124
_cell_length_c 11.353352
_cell_angle_alpha 88.779037
_cell_angle_beta 62.635600
_cell_angle_gamma 141.820378
_cell_volume 621.820447
_symmetry_space_group_name_H-M "P -1"
_symmetry_group_IT_number 2
_symmetry_cell_setting 'triclinic'
loop_
_space_group_symop_operation_xyz
x,y,z
-x,-y,-z
loop_
_atom_site_type_symbol
_atom_site_label
_atom_site_fract_x
_atom_site_fract_y
_atom_site_fract_z
Si Si1 0.373642 0.162909 0.446779
Si Si2 0.694390 0.999946 0.844400
Si Si3 0.336257 0.763087 0.230162
Si Si4 0.446196 0.338235 0.182166
Si Si5 0.298339 0.839654 0.485658
Si Si6 0.930629 0.879208 0.846548
Si Si7 0.215456 0.334494 0.678736
O O1 0.298297 0.194874 0.382029
O O2 0.689565 0.467426 0.314644
O O3 0.341505 0.007336 0.421250
O O4 0.189262 0.022288 0.658062
O O5 0.687063 0.123024 0.800912
O O6 0.007872 0.203886 0.677524
O O7 0.489371 0.739068 0.889740
O O8 0.596759 0.923029 0.029684
O O9 0.379684 0.811145 0.348033
O O10 0.043049 0.461640 0.337607
O O11 0.255391 0.240850 0.176912
O O12 0.733624 0.646960 0.034559
O O13 0.500000 0.000000 0.500000
O O14 0.042954 0.093254 0.834300
O O15 0.500000 0.500000 0.500000
#
# Coordination Sequence:
#
# PCOD9085539 Si02
#       7
#     2   2   2   2   2   2   2
#     4  11  20  37  59  87 118 163 204 258 317 376
#     4  10  19  40  61  90 124 164 213 260 320 383
#     4  10  22  40  64  91 129 168 210 268 317 377
#     4  10  19  35  61  86 119 156 206 257 310 381
#     4  11  23  41  62  94 127 169 216 261 322 383
#     4   9  20  36  57  85 118 157 204 257 311 382
#     4   9  20  37  60  87 125 163 203 262 321 377
#
# _framework density 22.514537000000001
#
# number of rings (size 3 to 8) (size 9 to 14) (size 15 to 20)
#    0.000    2.000    1.429    2.143    0.000    0.571 
#    5.143    2.143    6.286    0.000    0.000    0.000 
#    0.000    0.000    0.000    0.000    0.000    0.000 
#
# Total GULP energy -77955.907489 kJ/mol
# GULP energy per Si atom -5568.279106 kJ/mol
# Density = 2.246329 g / cm^3
# Si number density = 22.514537 Si / 1000 Ang^3
#
#
#
# Elastic Constant Matrix: (Units=GPa)
#
#
# Indices 1 2 3 4 5 6 
#
# 1 58.2538 20.0062 27.8957 -13.3847 8.0945 -4.5009
# 2 20.0062 143.7002 39.7786 -29.7107 6.8868 -6.5343
# 3 27.8957 39.7786 74.8837 -14.9616 4.0341 -1.7405
# 4 -13.3847 -29.7107 -14.9616 41.3618 -10.2777 15.2044
# 5 8.0945 6.8868 4.0341 -10.2777 22.9143 -2.0185
# 6 -4.5009 -6.5343 -1.7405 15.2044 -2.0185 40.6782
#
#
#
# Elastic Compliance Matrix: (Units=1/GPa)
#
#
# Indices 1 2 3 4 5 6 
#
# 1 0.022148 -0.000202 -0.007285 0.002814 -0.005148 0.000799
# 2 -0.000202 0.009095 -0.003695 0.005508 0.000392 -0.000759
# 3 -0.007285 -0.003695 0.018430 0.002569 0.001459 -0.001499
# 4 0.002814 0.005508 0.002569 0.037577 0.012686 -0.012110
# 5 -0.005148 0.000392 0.001459 0.012686 0.050539 -0.002678
# 6 0.000799 -0.000759 -0.001499 -0.012110 -0.002678 0.028879
#
#
# Mechanical properties :
#
#
# Convention : Reuss Voigt Hill
#
# Bulk Modulus (GPa) = 36.61657 50.24430 43.43044
# Shear Modulus (GPa) = 25.23542 33.60133 29.41837
#
# Velocity S-wave (km/s) = 3.35154 3.86739 3.61867
# Velocity P-wave (km/s) = 5.59249 6.50439 6.06560
#
# Compressibility (1/GPa) = 0.02731004
#
# Stress axis : x y z
#
# Youngs Moduli (GPa) = 45.15117 109.94784 54.25856
#
# Poissons Ratio (x) = 0.02221 0.39528
# Poissons Ratio (y) = 0.00912 0.20046
# Poissons Ratio (z) = 0.32893 0.40620
#
# Static dielectric constant tensor:
#      x y z
#    x 1.858350 0.065300 0.010070 
#    y 0.065300 1.936810 0.024390 
#    z 0.010070 0.024390 1.875460 
# 
# From -- ./inp_files/333435.got.cif
#   From: 2010.05.17/outbox.cif.g08.bks.cpg/sg2_167_cif.got.tgz:333435.got - 2010.06.03 11:33:40.
