data_PCOD9085855
_publ_section_title
;
Structure prediction by ZEFSAII (Michael W. Deem and Ramdas Pophale) SiO2 
 PCOD9085855
Probable space group: P -1
;
_chemical_formula_sum "Si O2"
_cell_formula_units_Z 16
_cell_length_a 14.250119
_cell_length_b 9.782822
_cell_length_c 8.586738
_cell_angle_alpha 48.298291
_cell_angle_beta 106.342602
_cell_angle_gamma 74.160542
_cell_volume 657.376126
_symmetry_space_group_name_H-M "P -1"
_symmetry_group_IT_number 2
_symmetry_cell_setting 'triclinic'
loop_
_space_group_symop_operation_xyz
x,y,z
-x,-y,-z
loop_
_atom_site_type_symbol
_atom_site_label
_atom_site_fract_x
_atom_site_fract_y
_atom_site_fract_z
Si Si1 0.676303 0.235384 0.190848
Si Si2 0.806620 0.267567 0.480157
Si Si3 0.091210 0.947974 0.766136
Si Si4 0.524806 0.600826 0.580973
Si Si5 0.870873 0.879301 0.043421
Si Si6 0.764317 0.581404 0.751632
Si Si7 0.621453 0.984100 0.588836
Si Si8 0.831214 0.580915 0.454047
O O1 0.697495 0.369957 0.225467
O O2 0.816260 0.062318 0.305202
O O3 0.631310 0.115030 0.353946
O O4 0.571064 0.413759 0.882186
O O5 0.775545 0.462642 0.441462
O O6 0.940020 0.161439 0.538156
O O7 0.830836 0.041657 0.748206
O O8 0.138125 0.958308 0.948676
O O9 0.120543 0.697961 0.959907
O O10 0.500000 0.500000 0.500000
O O11 0.643025 0.600362 0.632734
O O12 0.405219 0.865898 0.382548
O O13 0.813167 0.766210 0.182192
O O14 0.019345 0.643776 0.279637
O O15 0.740864 0.713030 0.804269
O O16 0.782173 0.679594 0.530064
O O17 0.500000 0.000000 0.500000
#
# Coordination Sequence:
#
# PCOD9085855 Si02
#       8
#     2   2   2   2   2   2   2   2
#     4  11  24  40  69  93 133 177 223 279 356 402
#     4  11  21  39  62 105 145 181 222 277 328 408
#     4  10  19  39  64  97 142 184 222 267 329 407
#     4  10  24  45  72  92 120 173 232 291 348 401
#     4  10  19  35  63  96 143 186 228 268 310 399
#     4  10  19  39  69  96 135 173 220 277 340 398
#     4  10  23  45  65  98 133 164 225 299 339 400
#     4  10  19  35  64 100 138 188 228 264 327 396
#
# _framework density 24.339186000000002
#
# number of rings (size 3 to 8) (size 9 to 14) (size 15 to 20)
#    0.000    1.750    2.500    2.250    1.750    0.000 
#    6.750    3.125    0.000    0.000    0.000    0.000 
#    0.000    0.000    0.000    0.000    0.000    0.000 
#
# Total GULP energy -89392.160150 kJ/mol
# GULP energy per Si atom -5587.010009 kJ/mol
# Density = 2.428379 g / cm^3
# Si number density = 24.339186 Si / 1000 Ang^3
#
#
#
# Elastic Constant Matrix: (Units=GPa)
#
#
# Indices 1 2 3 4 5 6 
#
# 1 80.5832 17.8018 1.1385 7.0495 -22.0659 -9.1409
# 2 17.8018 164.3148 41.3744 -5.5325 5.2676 -10.7397
# 3 1.1385 41.3744 76.6930 15.5646 -14.4187 15.4617
# 4 7.0495 -5.5325 15.5646 36.0253 1.5125 0.1442
# 5 -22.0659 5.2676 -14.4187 1.5125 30.4260 -4.7983
# 6 -9.1409 -10.7397 15.4617 0.1442 -4.7983 32.8904
#
#
#
# Elastic Compliance Matrix: (Units=1/GPa)
#
#
# Indices 1 2 3 4 5 6 
#
# 1 0.019702 -0.004454 0.006637 -0.008228 0.019203 0.003739
# 2 -0.004454 0.009710 -0.009179 0.006679 -0.008815 0.004932
# 3 0.006637 -0.009179 0.026489 -0.014864 0.017972 -0.010918
# 4 -0.008228 0.006679 -0.014864 0.037441 -0.015322 0.004482
# 5 0.019203 -0.008815 0.017972 -0.015322 0.057998 0.002538
# 6 0.003739 0.004932 -0.010918 0.004482 0.002538 0.038537
#
#
# Mechanical properties :
#
#
# Convention : Reuss Voigt Hill
#
# Bulk Modulus (GPa) = 23.86188 49.13558 36.49873
# Shear Modulus (GPa) = 22.95271 37.28677 30.11974
#
# Velocity S-wave (km/s) = 3.07422 3.91828 3.52163
# Velocity P-wave (km/s) = 4.73564 6.37983 5.61821
#
# Compressibility (1/GPa) = 0.04190784
#
# Stress axis : x y z
#
# Youngs Moduli (GPa) = 50.75636 102.99098 37.75140
#
# Poissons Ratio (x) = 0.45871 -0.25054
# Poissons Ratio (y) = 0.22606 0.34653
# Poissons Ratio (z) = -0.33685 0.94537
#
# Static dielectric constant tensor:
#      x y z
#    x 1.990540 -0.021130 0.024150 
#    y -0.021130 1.998700 -0.028700 
#    z 0.024150 -0.028700 1.959740 
# 
# From -- ./inp_files/297524.got.cif
#   From: 2010.05.17/outbox.cif.g08.bks.cpg/sg2_149_cif.got.tgz:297524.got - 2010.06.03 11:33:40.
