data_PCOD9085022
_publ_section_title
;
Structure prediction by ZEFSAII (Michael W. Deem and Ramdas Pophale) SiO2 
 PCOD9085022
Probable space group: P -1
;
_chemical_formula_sum "Si O2"
_cell_formula_units_Z 16
_cell_length_a 9.519294
_cell_length_b 12.987030
_cell_length_c 11.695582
_cell_angle_alpha 146.528759
_cell_angle_beta 92.376623
_cell_angle_gamma 105.242478
_cell_volume 670.660704
_symmetry_space_group_name_H-M "P -1"
_symmetry_group_IT_number 2
_symmetry_cell_setting 'triclinic'
loop_
_space_group_symop_operation_xyz
x,y,z
-x,-y,-z
loop_
_atom_site_type_symbol
_atom_site_label
_atom_site_fract_x
_atom_site_fract_y
_atom_site_fract_z
Si Si1 0.654960 0.677960 0.247556
Si Si2 0.786006 0.786623 0.949421
Si Si3 0.893423 0.839955 0.589058
Si Si4 0.965215 0.370170 0.261305
Si Si5 0.434010 0.701512 0.434054
Si Si6 0.883379 0.345482 0.684598
Si Si7 0.681274 0.884909 0.809770
Si Si8 0.032712 0.226412 0.777011
O O1 0.571492 0.786781 0.417974
O O2 0.808211 0.782292 0.260280
O O3 0.750985 0.634364 0.314853
O O4 0.500000 0.500000 0.000000
O O5 0.663127 0.568246 0.817279
O O6 0.681283 0.814219 0.873475
O O7 0.908977 0.715189 0.832985
O O8 0.911135 0.024811 0.235666
O O9 0.919579 0.042595 0.696102
O O10 0.792997 0.816572 0.678579
O O11 0.000000 0.500000 0.500000
O O12 0.998274 0.533942 0.308782
O O13 0.782283 0.150631 0.052506
O O14 0.305834 0.776337 0.475701
O O15 0.513112 0.778452 0.633337
O O16 0.940843 0.221472 0.652807
O O17 0.903813 0.541000 0.946654
#
# Coordination Sequence:
#
# PCOD9085022 Si02
#       8
#     2   2   2   2   2   2   2   2
#     4  11  21  35  57  89 116 148 195 253 286 332
#     4  10  19  38  59  86 118 159 197 240 302 361
#     4  10  19  35  58  84 119 154 194 242 290 354
#     4  10  20  37  59  83 119 155 203 246 286 356
#     4  10  20  38  59  88 122 150 193 251 299 343
#     4  10  21  38  58  82 119 161 189 228 300 361
#     4  10  20  35  61  86 114 156 199 246 302 345
#     4  11  20  37  60  83 117 159 194 230 287 361
#
# _framework density 23.85707
#
# number of rings (size 3 to 8) (size 9 to 14) (size 15 to 20)
#    0.000    1.750    5.000    2.250    0.000    3.000 
#    0.000    6.250    0.000    1.500    0.000    0.000 
#    0.000    0.000    0.000    0.000    0.000    0.000 
#
# Total GULP energy -89167.088631 kJ/mol
# GULP energy per Si atom -5572.943039 kJ/mol
# Density = 2.380277 g / cm^3
# Si number density = 23.857070 Si / 1000 Ang^3
#
#
#
# Elastic Constant Matrix: (Units=GPa)
#
#
# Indices 1 2 3 4 5 6 
#
# 1 92.6391 43.7619 31.5571 -1.2184 36.8852 -1.3472
# 2 43.7619 102.0976 24.5304 -17.6912 13.6882 -15.9642
# 3 31.5571 24.5304 143.5083 -21.1396 24.7144 -19.5173
# 4 -1.2184 -17.6912 -21.1396 42.3055 -10.1650 8.6649
# 5 36.8852 13.6882 24.7144 -10.1650 41.7169 -13.1673
# 6 -1.3472 -15.9642 -19.5173 8.6649 -13.1673 25.3398
#
#
#
# Elastic Compliance Matrix: (Units=1/GPa)
#
#
# Indices 1 2 3 4 5 6 
#
# 1 0.028189 -0.012213 -0.003384 -0.008430 -0.027314 -0.020113
# 2 -0.012213 0.016719 0.000849 0.006836 0.010842 0.013834
# 3 -0.003384 0.000849 0.008873 0.003496 0.000240 0.006119
# 4 -0.008430 0.006836 0.003496 0.030270 0.011144 0.001991
# 5 -0.027314 0.010842 0.000240 0.011144 0.057047 0.031396
# 6 -0.020113 0.013834 0.006119 0.001991 0.031396 0.067456
#
#
# Mechanical properties :
#
#
# Convention : Reuss Voigt Hill
#
# Bulk Modulus (GPa) = 41.17815 59.77155 50.47485
# Shear Modulus (GPa) = 20.31322 37.76549 29.03935
#
# Velocity S-wave (km/s) = 2.92114 3.98300 3.49266
# Velocity P-wave (km/s) = 5.35492 6.80153 6.12111
#
# Compressibility (1/GPa) = 0.02428472
#
# Stress axis : x y z
#
# Youngs Moduli (GPa) = 35.47532 59.81064 112.70098
#
# Poissons Ratio (x) = 0.73046 0.38141
# Poissons Ratio (y) = 0.43326 -0.09568
# Poissons Ratio (z) = 0.12006 -0.05078
#
# Static dielectric constant tensor:
#      x y z
#    x 2.101350 -0.020340 -0.025870 
#    y -0.020340 1.913950 0.008320 
#    z -0.025870 0.008320 2.035500 
# 
# From -- ./inp_files/399808.got.cif
#   From: 2010.05.17/outbox.cif.g08.bks.cpg/sg2_200_cif.got.tgz:399808.got - 2010.06.03 11:33:40.
