data_PCOD9085898
_publ_section_title
;
Structure prediction by ZEFSAII (Michael W. Deem and Ramdas Pophale) SiO2 
 PCOD9085898
Probable space group: P -1
;
_chemical_formula_sum "Si O2"
_cell_formula_units_Z 16
_cell_length_a 14.739155
_cell_length_b 13.364605
_cell_length_c 8.486005
_cell_angle_alpha 146.417298
_cell_angle_beta 126.952475
_cell_angle_gamma 51.896866
_cell_volume 712.884649
_symmetry_space_group_name_H-M "P -1"
_symmetry_group_IT_number 2
_symmetry_cell_setting 'triclinic'
loop_
_space_group_symop_operation_xyz
x,y,z
-x,-y,-z
loop_
_atom_site_type_symbol
_atom_site_label
_atom_site_fract_x
_atom_site_fract_y
_atom_site_fract_z
Si Si1 0.331215 0.101303 0.158227
Si Si2 0.338955 0.582660 0.238701
Si Si3 0.523173 0.285980 0.677976
Si Si4 0.186706 0.367991 0.602989
Si Si5 0.197348 0.710097 0.577424
Si Si6 0.431704 0.741965 0.970468
Si Si7 0.091133 0.081152 0.801885
Si Si8 0.045920 0.513108 0.347057
O O1 0.416233 0.237945 0.408416
O O2 0.258873 0.183102 0.348406
O O3 0.226424 0.092044 0.916259
O O4 0.412537 0.898729 0.020853
O O5 0.368814 0.739103 0.361784
O O6 0.261116 0.657216 0.406538
O O7 0.465445 0.436434 0.209890
O O8 0.270695 0.462621 0.909142
O O9 0.500000 0.500000 0.000000
O O10 0.542932 0.183392 0.732883
O O11 0.124386 0.503611 0.573363
O O12 0.080719 0.346546 0.573649
O O13 0.306361 0.692482 0.786128
O O14 0.116329 0.576109 0.362867
O O15 0.121510 0.926071 0.769788
O O16 0.030517 0.302402 0.046478
O O17 0.000000 0.000000 0.500000
#
# Coordination Sequence:
#
# PCOD9085898 Si02
#       8
#     2   2   2   2   2   2   2   2
#     4  10  20  39  64  93 128 158 211 267 308 374
#     4  11  22  36  62  93 130 161 210 248 320 379
#     4  10  19  35  64  90 126 165 203 252 314 369
#     4  10  20  39  65  95 116 168 212 262 313 371
#     4  11  24  43  64  93 130 170 208 260 316 379
#     4  10  21  38  62  95 129 162 206 259 312 379
#     4  10  23  42  63  89 126 168 211 259 311 371
#     4  10  23  43  69  85 128 165 217 265 315 361
#
# _framework density 22.444022
#
# number of rings (size 3 to 8) (size 9 to 14) (size 15 to 20)
#    0.000    1.750    2.500    2.250    5.250    2.000 
#    2.250   13.750    0.000    0.000    0.000    0.000 
#    0.000    0.000    0.000    0.000    0.000    0.000 
#
# Total GULP energy -89178.074714 kJ/mol
# GULP energy per Si atom -5573.629670 kJ/mol
# Density = 2.239294 g / cm^3
# Si number density = 22.444022 Si / 1000 Ang^3
#
#
#
# Elastic Constant Matrix: (Units=GPa)
#
#
# Indices 1 2 3 4 5 6 
#
# 1 119.3247 12.0752 44.9826 -1.1372 0.7126 7.8766
# 2 12.0752 49.2076 21.1971 -3.2163 12.7606 -5.3629
# 3 44.9826 21.1971 113.1256 -14.0199 26.1341 -2.7811
# 4 -1.1372 -3.2163 -14.0199 41.5265 -8.3497 8.8998
# 5 0.7126 12.7606 26.1341 -8.3497 31.6782 -2.1171
# 6 7.8766 -5.3629 -2.7811 8.8998 -2.1171 17.3594
#
#
#
# Elastic Compliance Matrix: (Units=1/GPa)
#
#
# Indices 1 2 3 4 5 6 
#
# 1 0.010908 -0.002343 -0.005033 0.000690 0.004613 -0.006270
# 2 -0.002343 0.024640 -0.001817 -0.002288 -0.008407 0.008532
# 3 -0.005033 -0.001817 0.013749 0.002021 -0.009853 0.001687
# 4 0.000690 -0.002288 0.002021 0.028966 0.005883 -0.014829
# 5 0.004613 -0.008407 -0.009853 0.005883 0.044269 -0.003886
# 6 -0.006270 0.008532 0.001687 -0.014829 -0.003886 0.070486
#
#
# Mechanical properties :
#
#
# Convention : Reuss Voigt Hill
#
# Bulk Modulus (GPa) = 32.35035 48.68531 40.51783
# Shear Modulus (GPa) = 22.55224 31.67302 27.11263
#
# Velocity S-wave (km/s) = 3.17333 3.76067 3.47942
# Velocity P-wave (km/s) = 5.27937 6.37149 5.85097
#
# Compressibility (1/GPa) = 0.03091157
#
# Stress axis : x y z
#
# Youngs Moduli (GPa) = 91.67792 40.58411 72.73068
#
# Poissons Ratio (x) = 0.09510 0.36603
# Poissons Ratio (y) = 0.21484 0.13214
# Poissons Ratio (z) = 0.46138 0.07373
#
# Static dielectric constant tensor:
#      x y z
#    x 1.865070 0.004990 0.001510 
#    y 0.004990 1.889500 -0.014340 
#    z 0.001510 -0.014340 1.882210 
# 
# From -- ./inp_files/316211.got.cif
#   From: 2010.05.17/outbox.cif.g08.bks.cpg/sg2_159_cif.got.tgz:316211.got - 2010.06.03 11:33:40.
