data_PCOD9085974
_publ_section_title
;
Structure prediction by ZEFSAII (Michael W. Deem and Ramdas Pophale) SiO2 
 PCOD9085974
Probable space group: P -1
;
_chemical_formula_sum "Si O2"
_cell_formula_units_Z 15
_cell_length_a 7.955867
_cell_length_b 9.610721
_cell_length_c 11.672884
_cell_angle_alpha 52.098733
_cell_angle_beta 82.324576
_cell_angle_gamma 58.153663
_cell_volume 573.562413
_symmetry_space_group_name_H-M "P -1"
_symmetry_group_IT_number 2
_symmetry_cell_setting 'triclinic'
loop_
_space_group_symop_operation_xyz
x,y,z
-x,-y,-z
loop_
_atom_site_type_symbol
_atom_site_label
_atom_site_fract_x
_atom_site_fract_y
_atom_site_fract_z
Si Si1 0.500000 0.500000 0.500000
Si Si2 0.756814 0.103462 0.486220
Si Si3 0.521670 0.915667 0.873605
Si Si4 0.122423 0.012916 0.222295
Si Si5 0.362051 0.715867 0.830105
Si Si6 0.913181 0.675757 0.597586
Si Si7 0.895466 0.346671 0.651049
Si Si8 0.643746 0.652688 0.215857
O O1 0.683909 0.520961 0.519347
O O2 0.504401 0.602819 0.323469
O O3 0.739644 0.159844 0.595005
O O4 0.752774 0.895731 0.565915
O O5 0.622456 0.272200 0.315034
O O6 0.000000 0.000000 0.500000
O O7 0.738161 0.898338 0.855756
O O8 0.432761 0.863951 0.800088
O O9 0.362071 0.154736 0.815831
O O10 0.557229 0.748544 0.051618
O O11 0.882236 0.191087 0.181495
O O12 0.091777 0.867180 0.213321
O O13 0.500000 0.500000 0.000000
O O14 0.947609 0.715302 0.441101
O O15 0.130719 0.563898 0.698826
O O16 0.892828 0.478835 0.690440
#
# Coordination Sequence:
#
# PCOD9085974 Si02
#       8
#     1   2   2   2   2   2   2   2
#     4  10  20  36  68 100 140 176 228 292 348 424
#     4  10  22  41  70 100 137 188 240 288 352 422
#     4  11  25  46  69 103 148 184 232 293 366 419
#     4  11  23  46  73 100 141 193 234 289 358 426
#     4  11  26  45  68 100 144 188 239 293 350 420
#     4  10  20  37  68  99 136 174 236 292 348 411
#     4  10  19  35  66 104 129 174 232 290 345 411
#     4  10  23  42  68 105 137 182 227 294 352 424
#
# _framework density 26.152342000000001
#
# number of rings (size 3 to 8) (size 9 to 14) (size 15 to 20)
#    0.000    1.600    4.000    0.800    7.467    1.067 
#    2.400    2.000    0.000    0.000    0.000    0.000 
#    0.000    0.000    0.000    0.000    0.000    0.000 
#
# Total GULP energy -83588.691374 kJ/mol
# GULP energy per Si atom -5572.579425 kJ/mol
# Density = 2.609282 g / cm^3
# Si number density = 26.152342 Si / 1000 Ang^3
#
#
#
# Elastic Constant Matrix: (Units=GPa)
#
#
# Indices 1 2 3 4 5 6 
#
# 1 114.0451 44.7836 37.6695 -0.6936 -3.6595 9.1677
# 2 44.7836 128.9590 36.0035 3.9459 11.3724 45.7140
# 3 37.6695 36.0035 171.0619 -11.1577 -2.9319 3.5493
# 4 -0.6936 3.9459 -11.1577 39.5416 -3.6103 13.8579
# 5 -3.6595 11.3724 -2.9319 -3.6103 33.6786 -3.9923
# 6 9.1677 45.7140 3.5493 13.8579 -3.9923 38.9731
#
#
#
# Elastic Compliance Matrix: (Units=1/GPa)
#
#
# Indices 1 2 3 4 5 6 
#
# 1 0.011044 -0.005228 -0.001424 -0.000903 0.003257 0.004319
# 2 -0.005228 0.019464 -0.002292 0.004890 -0.009675 -0.024122
# 3 -0.001424 -0.002292 0.006728 0.001538 0.001610 0.002029
# 4 -0.000903 0.004890 0.001538 0.031061 -0.000269 -0.016735
# 5 0.003257 -0.009675 0.001610 -0.000269 0.035099 0.014128
# 6 0.004319 -0.024122 0.002029 -0.016735 0.014128 0.060150
#
#
# Mechanical properties :
#
#
# Convention : Reuss Voigt Hill
#
# Bulk Modulus (GPa) = 51.68588 72.33102 62.00845
# Shear Modulus (GPa) = 26.61225 42.14597 34.37911
#
# Velocity S-wave (km/s) = 3.19342 4.01877 3.62963
# Velocity P-wave (km/s) = 5.77958 7.01795 6.42866
#
# Compressibility (1/GPa) = 0.01934765
#
# Stress axis : x y z
#
# Youngs Moduli (GPa) = 90.54962 51.37598 148.63987
#
# Poissons Ratio (x) = 0.26859 0.21170
# Poissons Ratio (y) = 0.47339 0.34065
# Poissons Ratio (z) = 0.12897 0.11774
#
# Static dielectric constant tensor:
#      x y z
#    x 2.148480 0.014850 -0.043680 
#    y 0.014850 2.145680 0.003920 
#    z -0.043680 0.003920 1.977470 
# 
# From -- ./inp_files/378011.got.cif
#   From: 2010.05.17/outbox.cif.g08.bks.cpg/sg2_190_cif.got.tgz:378011.got - 2010.06.03 11:33:40.
