data_PCOD9085590
_publ_section_title
;
Structure prediction by ZEFSAII (Michael W. Deem and Ramdas Pophale) SiO2 
 PCOD9085590
Probable space group: P -1
;
_chemical_formula_sum "Si O2"
_cell_formula_units_Z 16
_cell_length_a 8.665665
_cell_length_b 7.150453
_cell_length_c 15.257463
_cell_angle_alpha 59.791672
_cell_angle_beta 82.947788
_cell_angle_gamma 56.246061
_cell_volume 662.926928
_symmetry_space_group_name_H-M "P -1"
_symmetry_group_IT_number 2
_symmetry_cell_setting 'triclinic'
loop_
_space_group_symop_operation_xyz
x,y,z
-x,-y,-z
loop_
_atom_site_type_symbol
_atom_site_label
_atom_site_fract_x
_atom_site_fract_y
_atom_site_fract_z
Si Si1 0.653356 0.267522 0.798979
Si Si2 0.952918 0.746568 0.006217
Si Si3 0.272370 0.595681 0.411403
Si Si4 0.919111 0.867451 0.477300
Si Si5 0.347703 0.249858 0.890361
Si Si6 0.701526 0.317910 0.075887
Si Si7 0.603854 0.071979 0.573039
Si Si8 0.619746 0.131797 0.279506
O O1 0.773490 0.271159 0.710710
O O2 0.472651 0.246104 0.802331
O O3 0.548814 0.556528 0.779328
O O4 0.797147 0.016693 0.905229
O O5 0.140400 0.743744 0.991943
O O6 0.844358 0.739134 0.100962
O O7 0.000000 0.500000 0.000000
O O8 0.451843 0.293401 0.463129
O O9 0.334834 0.764996 0.416588
O O10 0.105082 0.625871 0.473174
O O11 0.789085 0.841615 0.561870
O O12 0.777528 0.045725 0.365047
O O13 0.000000 0.000000 0.500000
O O14 0.286730 0.507595 0.890784
O O15 0.500000 0.000000 0.000000
O O16 0.708830 0.092866 0.185948
O O17 0.500000 0.500000 0.000000
O O18 0.487761 0.002967 0.657977
#
# Coordination Sequence:
#
# PCOD9085590 Si02
#       8
#     2   2   2   2   2   2   2   2
#     4  10  19  35  61  90 120 161 214 261 318 374
#     4   9  18  36  60  85 113 159 214 251 305 378
#     4  10  21  38  64  87 123 166 212 252 313 377
#     4  10  21  39  63  90 125 165 212 262 306 373
#     4   8  17  34  57  81 111 156 200 253 303 357
#     4  10  21  37  60  86 124 157 202 263 314 366
#     4  10  22  40  59  90 128 164 207 264 311 375
#     4  11  22  39  60  90 130 167 204 264 326 364
#
# _framework density 24.135389
#
# number of rings (size 3 to 8) (size 9 to 14) (size 15 to 20)
#    0.000    2.250    1.250    1.125    0.000    3.500 
#    2.250    8.125    0.000    0.000    0.000    0.000 
#    0.000    0.000    0.000    0.000    0.000    0.000 
#
# Total GULP energy -89215.364406 kJ/mol
# GULP energy per Si atom -5575.960275 kJ/mol
# Density = 2.408046 g / cm^3
# Si number density = 24.135389 Si / 1000 Ang^3
#
#
#
# Elastic Constant Matrix: (Units=GPa)
#
#
# Indices 1 2 3 4 5 6 
#
# 1 151.3880 28.2572 44.2042 20.1769 -35.3762 -31.5788
# 2 28.2572 89.3910 16.0023 11.1669 -7.3520 -23.3483
# 3 44.2042 16.0023 83.1466 9.5458 -27.9815 -6.3053
# 4 20.1769 11.1669 9.5458 38.4550 -8.7986 -6.8974
# 5 -35.3762 -7.3520 -27.9815 -8.7986 43.1042 7.6266
# 6 -31.5788 -23.3483 -6.3053 -6.8974 7.6266 39.8133
#
#
#
# Elastic Compliance Matrix: (Units=1/GPa)
#
#
# Indices 1 2 3 4 5 6 
#
# 1 0.010282 -0.000429 -0.003023 -0.002317 0.004852 0.006094
# 2 -0.000429 0.013754 -0.001955 -0.002218 -0.001006 0.007224
# 3 -0.003023 -0.001955 0.016693 -0.000540 0.008371 -0.002598
# 4 -0.002317 -0.002218 -0.000540 0.028913 0.003059 0.001199
# 5 0.004852 -0.001006 0.008371 0.003059 0.033292 -0.001263
# 6 0.006094 0.007224 -0.002598 0.001199 -0.001263 0.034226
#
#
# Mechanical properties :
#
#
# Convention : Reuss Voigt Hill
#
# Bulk Modulus (GPa) = 33.42862 55.65033 44.53947
# Shear Modulus (GPa) = 31.65653 39.97193 35.81423
#
# Velocity S-wave (km/s) = 3.62556 4.07400 3.85631
# Velocity P-wave (km/s) = 5.60418 6.72589 6.19049
#
# Compressibility (1/GPa) = 0.02991449
#
# Stress axis : x y z
#
# Youngs Moduli (GPa) = 97.25650 72.70787 59.90713
#
# Poissons Ratio (x) = 0.03118 0.18109
# Poissons Ratio (y) = 0.04171 0.11713
# Poissons Ratio (z) = 0.29399 0.14216
#
# Static dielectric constant tensor:
#      x y z
#    x 2.022940 0.023350 -0.050920 
#    y 0.023350 1.953970 0.072590 
#    z -0.050920 0.072590 1.968940 
# 
# From -- ./inp_files/555912.got.cif
#   From: 2010.05.17/outbox.cif.g08.bks.cpg/sg2_278_cif.got.tgz:555912.got - 2010.06.03 11:33:40.
