data_PCOD9085983
_publ_section_title
;
Structure prediction by ZEFSAII (Michael W. Deem and Ramdas Pophale) SiO2 
 PCOD9085983
Probable space group: P -1
;
_chemical_formula_sum "Si O2"
_cell_formula_units_Z 16
_cell_length_a 15.288829
_cell_length_b 11.488103
_cell_length_c 16.295577
_cell_angle_alpha 25.399628
_cell_angle_beta 146.573595
_cell_angle_gamma 142.188736
_cell_volume 668.329418
_symmetry_space_group_name_H-M "P -1"
_symmetry_group_IT_number 2
_symmetry_cell_setting 'triclinic'
loop_
_space_group_symop_operation_xyz
x,y,z
-x,-y,-z
loop_
_atom_site_type_symbol
_atom_site_label
_atom_site_fract_x
_atom_site_fract_y
_atom_site_fract_z
Si Si1 0.025618 0.010522 0.283661
Si Si2 0.261882 0.485639 0.019918
Si Si3 0.824544 0.183154 0.620158
Si Si4 0.963870 0.746539 0.571551
Si Si5 0.656369 0.175953 0.653321
Si Si6 0.228442 0.687920 0.187984
Si Si7 0.529232 0.393361 0.180475
Si Si8 0.657333 0.571519 0.710049
O O1 0.203763 0.156601 0.360577
O O2 0.034163 0.807150 0.342843
O O3 0.939373 0.857078 0.391763
O O4 0.925377 0.241356 0.025610
O O5 0.430667 0.553879 0.063444
O O6 0.279511 0.587971 0.061954
O O7 0.221774 0.153176 0.204932
O O8 0.120941 0.596364 0.791101
O O9 0.808078 0.250700 0.661461
O O10 0.702754 0.361859 0.368961
O O11 0.823835 0.544790 0.635984
O O12 0.000000 0.000000 0.500000
O O13 0.702619 0.077369 0.843017
O O14 0.516961 0.362159 0.443025
O O15 0.555496 0.922523 0.688196
O O16 0.342690 0.591797 0.270489
O O17 0.500000 0.500000 0.000000
#
# Coordination Sequence:
#
# PCOD9085983 Si02
#       8
#     2   2   2   2   2   2   2   2
#     4  11  22  40  67  91 125 165 227 250 311 379
#     4  10  19  35  66  92 116 166 222 257 304 368
#     4  10  19  41  66  89 124 169 211 263 312 387
#     4  12  23  40  65  97 125 171 225 257 304 389
#     4  11  23  41  63  94 130 165 206 267 336 371
#     4  12  25  41  62  95 134 172 201 269 330 370
#     4  11  20  37  66  95 124 163 222 261 306 387
#     4  11  19  41  66  89 124 171 217 256 305 390
#
# _framework density 23.940290000000001
#
# number of rings (size 3 to 8) (size 9 to 14) (size 15 to 20)
#    0.000    1.000    7.500    3.000    0.000    0.500 
#    2.250    0.625    0.000    3.000    0.000    0.000 
#    0.000    0.000    0.000    0.000    0.000    0.000 
#
# Total GULP energy -89257.087558 kJ/mol
# GULP energy per Si atom -5578.567972 kJ/mol
# Density = 2.388580 g / cm^3
# Si number density = 23.940290 Si / 1000 Ang^3
#
#
#
# Elastic Constant Matrix: (Units=GPa)
#
#
# Indices 1 2 3 4 5 6 
#
# 1 173.1830 25.0858 32.5241 6.1238 -17.2519 -46.6502
# 2 25.0858 42.8863 11.1541 7.8588 -0.5572 -11.3932
# 3 32.5241 11.1541 86.5156 19.0195 -9.0544 -3.5399
# 4 6.1238 7.8588 19.0195 22.8582 -1.5447 -4.5616
# 5 -17.2519 -0.5572 -9.0544 -1.5447 44.9717 9.1572
# 6 -46.6502 -11.3932 -3.5399 -4.5616 9.1572 40.5215
#
#
#
# Elastic Compliance Matrix: (Units=1/GPa)
#
#
# Indices 1 2 3 4 5 6 
#
# 1 0.009477 -0.002571 -0.003438 0.003274 0.000981 0.010034
# 2 -0.002571 0.027531 -0.001033 -0.007187 -0.001982 0.004330
# 3 -0.003438 -0.001033 0.015829 -0.012698 0.002404 -0.004838
# 4 0.003274 -0.007187 -0.012698 0.057302 -0.000907 0.007295
# 5 0.000981 -0.001982 0.002404 -0.000907 0.024007 -0.004745
# 6 0.010034 0.004330 -0.004838 0.007295 -0.004745 0.038918
#
#
# Mechanical properties :
#
#
# Convention : Reuss Voigt Hill
#
# Bulk Modulus (GPa) = 25.80395 48.90142 37.35269
# Shear Modulus (GPa) = 24.99161 37.25835 31.12498
#
# Velocity S-wave (km/s) = 3.23447 3.94928 3.60961
# Velocity P-wave (km/s) = 4.97503 6.42390 5.74532
#
# Compressibility (1/GPa) = 0.03875375
#
# Stress axis : x y z
#
# Youngs Moduli (GPa) = 105.51722 36.32204 63.17359
#
# Poissons Ratio (x) = 0.09338 0.21718
# Poissons Ratio (y) = 0.27128 0.06528
# Poissons Ratio (z) = 0.36276 0.03753
#
# Static dielectric constant tensor:
#      x y z
#    x 1.979380 -0.047610 -0.022250 
#    y -0.047610 2.703950 0.048450 
#    z -0.022250 0.048450 1.899390 
# 
# From -- ./inp_files/474355.got.cif
#   From: 2010.05.17/outbox.cif.g08.bks.cpg/sg2_238_cif.got.tgz:474355.got - 2010.06.03 11:33:40.
