data_PCOD9085902
_publ_section_title
;
Structure prediction by ZEFSAII (Michael W. Deem and Ramdas Pophale) SiO2 
 PCOD9085902
Probable space group: P -1
;
_chemical_formula_sum "Si O2"
_cell_formula_units_Z 14
_cell_length_a 12.668487
_cell_length_b 16.075648
_cell_length_c 11.059878
_cell_angle_alpha 144.483975
_cell_angle_beta 47.152818
_cell_angle_gamma 150.634139
_cell_volume 638.252068
_symmetry_space_group_name_H-M "P -1"
_symmetry_group_IT_number 2
_symmetry_cell_setting 'triclinic'
loop_
_space_group_symop_operation_xyz
x,y,z
-x,-y,-z
loop_
_atom_site_type_symbol
_atom_site_label
_atom_site_fract_x
_atom_site_fract_y
_atom_site_fract_z
Si Si1 0.296243 0.285736 0.338099
Si Si2 0.675492 0.976380 0.583834
Si Si3 0.817403 0.330224 0.341653
Si Si4 0.258689 0.286009 0.896593
Si Si5 0.042694 0.720537 0.473278
Si Si6 0.151824 0.947190 0.908701
Si Si7 0.065156 0.912408 0.265919
O O1 0.500000 0.500000 0.500000
O O2 0.133358 0.296145 0.457479
O O3 0.207466 0.098105 0.274721
O O4 0.307811 0.199805 0.104806
O O5 0.419395 0.786172 0.579982
O O6 0.732132 0.867094 0.346010
O O7 0.799945 0.083787 0.742096
O O8 0.771929 0.161028 0.631469
O O9 0.915087 0.482211 0.328859
O O10 0.791541 0.141208 0.148932
O O11 0.000000 0.500000 0.500000
O O12 0.149048 0.298310 0.888049
O O13 0.500000 0.500000 0.000000
O O14 0.089357 0.178983 0.012580
O O15 0.143013 0.870104 0.692203
O O16 0.000000 0.000000 0.500000
#
# Coordination Sequence:
#
# PCOD9085902 Si02
#       7
#     2   2   2   2   2   2   2
#     4  11  21  37  66  91 122 168 212 263 318 378
#     4  11  21  40  65  90 128 173 205 265 314 387
#     4  10  23  40  64  91 133 171 210 260 332 378
#     4  10  19  35  64  91 121 164 209 261 317 368
#     4  11  21  40  66  91 127 168 218 254 322 385
#     4  10  22  41  59  97 129 158 214 272 313 378
#     4   9  18  37  56  89 122 156 204 255 314 370
#
# _framework density 21.934906999999999
#
# number of rings (size 3 to 8) (size 9 to 14) (size 15 to 20)
#    0.000    1.714    4.286    3.000    0.000    3.429 
#    0.000    6.429    3.143    4.286    0.000    0.000 
#    0.000    0.000    0.000    0.000    0.000    0.000 
#
# Total GULP energy -78033.286498 kJ/mol
# GULP energy per Si atom -5573.806178 kJ/mol
# Density = 2.188498 g / cm^3
# Si number density = 21.934907 Si / 1000 Ang^3
#
#
#
# Elastic Constant Matrix: (Units=GPa)
#
#
# Indices 1 2 3 4 5 6 
#
# 1 116.4814 64.9765 32.0052 13.9198 23.5188 0.4308
# 2 64.9765 94.3760 3.7032 13.8836 12.2394 -0.4811
# 3 32.0052 3.7032 41.5820 15.5444 9.5252 5.5194
# 4 13.9198 13.8836 15.5444 27.2686 8.1218 7.4070
# 5 23.5188 12.2394 9.5252 8.1218 33.7009 6.1845
# 6 0.4308 -0.4811 5.5194 7.4070 6.1845 37.0447
#
#
#
# Elastic Compliance Matrix: (Units=1/GPa)
#
#
# Indices 1 2 3 4 5 6 
#
# 1 0.022004 -0.014637 -0.017035 0.007646 -0.007398 0.001798
# 2 -0.014637 0.021714 0.013348 -0.011734 0.001275 0.000597
# 3 -0.017035 0.013348 0.044834 -0.023282 0.000292 -0.001702
# 4 0.007646 -0.011734 -0.023282 0.055866 -0.006705 -0.006823
# 5 -0.007398 0.001275 0.000292 -0.006705 0.036776 -0.004740
# 6 0.001798 0.000597 -0.001702 -0.006823 -0.004740 0.029390
#
#
# Mechanical properties :
#
#
# Convention : Reuss Voigt Hill
#
# Bulk Modulus (GPa) = 19.26679 50.42326 34.84502
# Shear Modulus (GPa) = 18.90110 29.71980 24.31045
#
# Velocity S-wave (km/s) = 2.93864 3.68490 3.33273
# Velocity P-wave (km/s) = 4.50742 6.41422 5.54342
#
# Compressibility (1/GPa) = 0.05190280
#
# Stress axis : x y z
#
# Youngs Moduli (GPa) = 45.44584 46.05403 22.30430
#
# Poissons Ratio (x) = 0.67411 0.37995
# Poissons Ratio (y) = 0.66520 -0.29771
# Poissons Ratio (z) = 0.77417 -0.61471
#
# Static dielectric constant tensor:
#      x y z
#    x 1.886000 -0.036370 0.047020 
#    y -0.036370 1.857170 -0.021880 
#    z 0.047020 -0.021880 1.922510 
# 
# From -- ./inp_files/433303.got.cif
#   From: 2010.05.17/outbox.cif.g08.bks.cpg/sg2_217_cif.got.tgz:433303.got - 2010.06.03 11:33:40.
