data_PCOD9085456
_publ_section_title
;
Structure prediction by ZEFSAII (Michael W. Deem and Ramdas Pophale) SiO2 
 PCOD9085456
Probable space group: P -1
;
_chemical_formula_sum "Si O2"
_cell_formula_units_Z 16
_cell_length_a 15.154952
_cell_length_b 22.704502
_cell_length_c 25.973217
_cell_angle_alpha 15.909505
_cell_angle_beta 154.002942
_cell_angle_gamma 160.609105
_cell_volume 809.949887
_symmetry_space_group_name_H-M "P -1"
_symmetry_group_IT_number 2
_symmetry_cell_setting 'triclinic'
loop_
_space_group_symop_operation_xyz
x,y,z
-x,-y,-z
loop_
_atom_site_type_symbol
_atom_site_label
_atom_site_fract_x
_atom_site_fract_y
_atom_site_fract_z
Si Si1 0.193212 0.271969 0.545397
Si Si2 0.864498 0.840805 0.219767
Si Si3 0.204389 0.881401 0.956338
Si Si4 0.565973 0.708000 0.904422
Si Si5 0.303418 0.606684 0.565988
Si Si6 0.449078 0.644738 0.729503
Si Si7 0.794378 0.210949 0.319913
Si Si8 0.921523 0.301151 0.459326
O O1 0.500000 0.500000 0.500000
O O2 0.984285 0.155113 0.487666
O O3 0.127845 0.436254 0.407578
O O4 0.147792 0.028688 0.760754
O O5 0.666884 0.589190 0.287621
O O6 0.936117 0.704771 0.412296
O O7 0.811693 0.009776 0.087145
O O8 0.124749 0.040279 0.152764
O O9 0.998876 0.537664 0.132813
O O10 0.500000 0.000000 0.000000
O O11 0.377029 0.777802 0.736685
O O12 0.500000 0.500000 0.000000
O O13 0.500400 0.555577 0.052909
O O14 0.385851 0.615261 0.661112
O O15 0.000000 0.500000 0.500000
O O16 0.532655 0.927280 0.393530
O O17 0.200793 0.562982 0.700815
O O18 0.689252 0.970009 0.599194
#
# Coordination Sequence:
#
# PCOD9085456 Si02
#       8
#     2   2   2   2   2   2   2   2
#     4  11  22  39  66  97 127 162 225 284 323 370
#     4  11  23  40  62  95 138 168 216 276 327 401
#     4  11  24  43  71 100 122 171 239 275 318 389
#     4  12  20  34  61 100 130 166 222 276 325 381
#     4  12  24  42  59  97 146 181 204 261 356 403
#     4  11  21  33  62  93 132 173 216 266 329 398
#     4  12  23  40  68  93 134 174 209 277 328 391
#     4  10  19  35  60  92 119 172 223 261 322 392
#
# _framework density 19.754308000000002
#
# number of rings (size 3 to 8) (size 9 to 14) (size 15 to 20)
#    0.000    0.750    7.500    1.500    0.000    0.500 
#    0.000    0.625    0.000    0.750    0.000    0.000 
#    0.000    0.000    0.000    0.000    0.000    0.000 
#
# Total GULP energy -89094.950627 kJ/mol
# GULP energy per Si atom -5568.434414 kJ/mol
# Density = 1.970935 g / cm^3
# Si number density = 19.754308 Si / 1000 Ang^3
#
#
#
# Elastic Constant Matrix: (Units=GPa)
#
#
# Indices 1 2 3 4 5 6 
#
# 1 70.4048 40.1870 23.8775 -4.2982 -2.0772 15.6113
# 2 40.1870 90.6733 31.7308 -7.4095 1.5078 17.9343
# 3 23.8775 31.7308 71.3662 -7.9387 -2.1932 17.8345
# 4 -4.2982 -7.4095 -7.9387 41.7249 3.1451 0.8972
# 5 -2.0772 1.5078 -2.1932 3.1451 25.5727 1.8768
# 6 15.6113 17.9343 17.8345 0.8972 1.8768 40.2174
#
#
#
# Elastic Compliance Matrix: (Units=1/GPa)
#
#
# Indices 1 2 3 4 5 6 
#
# 1 0.020103 -0.007361 -0.002486 0.000209 0.002086 -0.003521
# 2 -0.007361 0.016385 -0.004057 0.001580 -0.001916 -0.002596
# 3 -0.002486 -0.004057 0.018353 0.002505 0.001707 -0.005500
# 4 0.000209 0.001580 0.002505 0.025004 -0.002766 -0.002325
# 5 0.002086 -0.001916 0.001707 -0.002766 0.040058 -0.002520
# 6 -0.003521 -0.002596 -0.005500 -0.002325 -0.002520 0.029998
#
#
# Mechanical properties :
#
#
# Convention : Reuss Voigt Hill
#
# Bulk Modulus (GPa) = 36.99024 47.11500 42.05262
# Shear Modulus (GPa) = 26.77794 30.61293 28.69544
#
# Velocity S-wave (km/s) = 3.68577 3.94087 3.81546
# Velocity P-wave (km/s) = 6.07281 6.67904 6.38313
#
# Compressibility (1/GPa) = 0.02703416
#
# Stress axis : x y z
#
# Youngs Moduli (GPa) = 49.74265 61.03053 54.48612
#
# Poissons Ratio (x) = 0.44926 0.13545
# Poissons Ratio (y) = 0.36617 0.22103
# Poissons Ratio (z) = 0.12366 0.24758
#
# Static dielectric constant tensor:
#      x y z
#    x 1.745290 0.018220 -0.042550 
#    y 0.018220 1.742880 0.001350 
#    z -0.042550 0.001350 1.734120 
# 
# From -- ./inp_files/612251.got.cif
#   From: 2010.05.17/outbox.cif.g08.bks.cpg/sg2_307_cif.got.tgz:612251.got - 2010.06.03 11:33:40.
