data_PCOD9085624
_publ_section_title
;
Structure prediction by ZEFSAII (Michael W. Deem and Ramdas Pophale) SiO2 
 PCOD9085624
Probable space group: P -1
;
_chemical_formula_sum "Si O2"
_cell_formula_units_Z 12
_cell_length_a 10.211999
_cell_length_b 8.165760
_cell_length_c 11.841858
_cell_angle_alpha 142.438552
_cell_angle_beta 86.241864
_cell_angle_gamma 80.605361
_cell_volume 561.841712
_symmetry_space_group_name_H-M "P -1"
_symmetry_group_IT_number 2
_symmetry_cell_setting 'triclinic'
loop_
_space_group_symop_operation_xyz
x,y,z
-x,-y,-z
loop_
_atom_site_type_symbol
_atom_site_label
_atom_site_fract_x
_atom_site_fract_y
_atom_site_fract_z
Si Si1 0.654146 0.270697 0.872684
Si Si2 0.167484 0.350197 0.902529
Si Si3 0.812802 0.047613 0.963252
Si Si4 0.803239 0.908872 0.475419
Si Si5 0.869452 0.161989 0.253665
Si Si6 0.886571 0.399420 0.615902
O O1 0.685978 0.026931 0.642054
O O2 0.696092 0.146216 0.927729
O O3 0.500000 0.500000 0.000000
O O4 0.760803 0.440501 0.937232
O O5 0.215402 0.277451 0.730504
O O6 0.196501 0.055747 0.806096
O O7 0.000000 0.500000 0.000000
O O8 0.827608 0.731144 0.833783
O O9 0.964788 0.999532 0.871607
O O10 0.798292 0.247630 0.182815
O O11 0.822497 0.185882 0.564325
O O12 0.949132 0.733212 0.433869
O O13 0.864580 0.384353 0.474163
#
# Coordination Sequence:
#
# PCOD9085624 Si02
#       6
#     2   2   2   2   2   2
#     4  12  26  41  58  88 128 167 199 237 302 369
#     4  11  20  40  64  88 119 156 205 250 296 355
#     4  11  21  34  58  93 122 150 196 257 301 343
#     4  10  21  37  62  88 123 162 195 245 307 356
#     4  10  20  33  59  92 116 148 190 259 304 339
#     4  10  19  35  61  94 119 144 202 261 303 340
#
# _framework density 21.358328
#
# number of rings (size 3 to 8) (size 9 to 14) (size 15 to 20)
#    0.000    1.333    3.333    4.500    2.333    0.667 
#    0.000    3.333    0.000    4.000    0.000    0.000 
#    0.000    0.000    0.000    0.000    0.000    0.000 
#
# Total GULP energy -67074.660355 kJ/mol
# GULP energy per Si atom -5589.555030 kJ/mol
# Density = 2.130972 g / cm^3
# Si number density = 21.358328 Si / 1000 Ang^3
#
#
#
# Elastic Constant Matrix: (Units=GPa)
#
#
# Indices 1 2 3 4 5 6 
#
# 1 26.4536 14.5179 4.5019 1.2856 -5.4395 -10.4948
# 2 14.5179 111.6473 33.9675 -16.2686 -6.0549 -11.1237
# 3 4.5019 33.9675 128.9092 -47.1230 1.2962 -16.0527
# 4 1.2856 -16.2686 -47.1230 47.1677 4.8865 8.5222
# 5 -5.4395 -6.0549 1.2962 4.8865 23.1510 15.7489
# 6 -10.4948 -11.1237 -16.0527 8.5222 15.7489 26.0759
#
#
#
# Elastic Compliance Matrix: (Units=1/GPa)
#
#
# Indices 1 2 3 4 5 6 
#
# 1 0.048972 -0.005364 -0.000101 -0.006843 -0.003016 0.021418
# 2 -0.005364 0.010565 -0.002058 0.001644 0.001530 -0.000380
# 3 -0.000101 -0.002058 0.014504 0.013044 -0.011333 0.010592
# 4 -0.006843 0.001644 0.013044 0.035978 -0.009453 -0.000072
# 5 -0.003016 0.001530 -0.011333 -0.009453 0.082394 -0.054211
# 6 0.021418 -0.000380 0.010592 -0.000072 -0.054211 0.086093
#
#
# Mechanical properties :
#
#
# Convention : Reuss Voigt Hill
#
# Bulk Modulus (GPa) = 16.95051 41.44274 29.19663
# Shear Modulus (GPa) = 15.96328 33.54711 24.75519
#
# Velocity S-wave (km/s) = 2.73683 3.96748 3.40816
# Velocity P-wave (km/s) = 4.23562 6.35874 5.40250
#
# Compressibility (1/GPa) = 0.05899527
#
# Stress axis : x y z
#
# Youngs Moduli (GPa) = 20.41968 94.65073 68.94473
#
# Poissons Ratio (x) = 0.50772 0.00695
# Poissons Ratio (y) = 0.10953 0.14191
# Poissons Ratio (z) = 0.00206 0.19482
#
# Static dielectric constant tensor:
#      x y z
#    x 1.719970 0.048440 0.014440 
#    y 0.048440 1.824320 -0.013120 
#    z 0.014440 -0.013120 1.769360 
# 
# From -- ./inp_files/152163.got.cif
#   From: 2010.05.17/outbox.cif.g08.bks.cpg/sg2_77_cif.got.tgz:152163.got - 2010.06.03 11:33:40.
