data_PCOD9085720
_publ_section_title
;
Structure prediction by ZEFSAII (Michael W. Deem and Ramdas Pophale) SiO2 
 PCOD9085720
Probable space group: P -1
;
_chemical_formula_sum "Si O2"
_cell_formula_units_Z 14
_cell_length_a 5.028971
_cell_length_b 9.790858
_cell_length_c 12.426359
_cell_angle_alpha 87.365804
_cell_angle_beta 88.918650
_cell_angle_gamma 111.033839
_cell_volume 570.066005
_symmetry_space_group_name_H-M "P -1"
_symmetry_group_IT_number 2
_symmetry_cell_setting 'triclinic'
loop_
_space_group_symop_operation_xyz
x,y,z
-x,-y,-z
loop_
_atom_site_type_symbol
_atom_site_label
_atom_site_fract_x
_atom_site_fract_y
_atom_site_fract_z
Si Si1 0.980545 0.932347 0.354250
Si Si2 0.351126 0.767807 0.421694
Si Si3 0.186444 0.892278 0.118581
Si Si4 0.613925 0.735605 0.639311
Si Si5 0.383509 0.205140 0.989892
Si Si6 0.705650 0.422612 0.156690
Si Si7 0.279062 0.524088 0.256063
O O1 0.102940 0.832927 0.431128
O O2 0.053333 0.893489 0.235561
O O3 0.647923 0.894030 0.378408
O O4 0.165713 0.100429 0.366345
O O5 0.428190 0.707061 0.534031
O O6 0.275782 0.648332 0.332586
O O7 0.430177 0.823337 0.107779
O O8 0.928562 0.805476 0.043570
O O9 0.319638 0.060395 0.070763
O O10 0.410712 0.704825 0.746850
O O11 0.763526 0.617996 0.663323
O O12 0.565141 0.347122 0.050797
O O13 0.575549 0.542378 0.194446
O O14 0.040248 0.486578 0.167793
#
# Coordination Sequence:
#
# PCOD9085720 Si02
#       7
#     2   2   2   2   2   2   2
#     4  12  25  41  62  94 133 160 201 256 318 370
#     4  12  26  41  62  91 133 169 200 248 317 369
#     4  10  20  35  59  89 125 154 198 253 317 357
#     4  10  25  40  67  92 123 165 215 254 296 366
#     4  10  19  35  62  92 115 154 205 262 300 354
#     4  10  21  37  67  91 121 149 216 261 300 344
#     4  10  23  40  65  88 127 165 214 251 293 366
#
# _framework density 24.558558999999999
#
# number of rings (size 3 to 8) (size 9 to 14) (size 15 to 20)
#    0.857    0.571    1.429    3.857    4.000    1.714 
#    0.000    0.000    0.000   17.143    0.000    0.000 
#    0.000    0.000    0.000    0.000    0.000    0.000 
#
# Total GULP energy -78416.103663 kJ/mol
# GULP energy per Si atom -5601.150262 kJ/mol
# Density = 2.450266 g / cm^3
# Si number density = 24.558559 Si / 1000 Ang^3
#
#
#
# Elastic Constant Matrix: (Units=GPa)
#
#
# Indices 1 2 3 4 5 6 
#
# 1 46.9632 4.0416 3.3927 -10.2089 17.4567 6.4756
# 2 4.0416 99.8354 23.9621 13.3453 18.9833 -8.8659
# 3 3.3927 23.9621 105.2030 10.3259 -4.2238 10.0488
# 4 -10.2089 13.3453 10.3259 26.8894 7.0164 8.0763
# 5 17.4567 18.9833 -4.2238 7.0164 34.3541 4.0312
# 6 6.4756 -8.8659 10.0488 8.0763 4.0312 21.5324
#
#
#
# Elastic Compliance Matrix: (Units=1/GPa)
#
#
# Indices 1 2 3 4 5 6 
#
# 1 0.038322 -0.001810 -0.002792 0.027504 -0.022428 -0.017084
# 2 -0.001810 0.014787 -0.004036 -0.008437 -0.007561 0.013097
# 3 -0.002792 -0.004036 0.011703 -0.003376 0.006509 -0.006236
# 4 0.027504 -0.008437 -0.003376 0.067880 -0.019847 -0.031914
# 5 -0.022428 -0.007561 0.006509 -0.019847 0.049685 -0.001263
# 6 -0.017084 0.013097 -0.006236 -0.031914 -0.001263 0.072089
#
#
# Mechanical properties :
#
#
# Convention : Reuss Voigt Hill
#
# Bulk Modulus (GPa) = 21.03672 34.97717 28.00695
# Shear Modulus (GPa) = 17.38600 31.26218 24.32409
#
# Velocity S-wave (km/s) = 2.66360 3.57173 3.15056
# Velocity P-wave (km/s) = 4.24785 5.59312 4.96625
#
# Compressibility (1/GPa) = 0.04753592
#
# Stress axis : x y z
#
# Youngs Moduli (GPa) = 26.09469 67.62688 85.44709
#
# Poissons Ratio (x) = 0.12243 0.23854
# Poissons Ratio (y) = 0.04724 0.34487
# Poissons Ratio (z) = 0.07285 0.27295
#
# Static dielectric constant tensor:
#      x y z
#    x 1.873850 -0.005660 -0.002430 
#    y -0.005660 1.937040 -0.071580 
#    z -0.002430 -0.071580 1.959730 
# 
# From -- ./inp_files/105398.got.cif
#   From: 2010.05.17/outbox.cif.g08.bks.cpg/sg2_53_cif.got.tgz:105398.got - 2010.06.03 11:33:40.
