data_PCOD9085942
_publ_section_title
;
Structure prediction by ZEFSAII (Michael W. Deem and Ramdas Pophale) SiO2 
 PCOD9085942
Probable space group: P -1
;
_chemical_formula_sum "Si O2"
_cell_formula_units_Z 12
_cell_length_a 5.571729
_cell_length_b 15.163357
_cell_length_c 12.795289
_cell_angle_alpha 26.560023
_cell_angle_beta 83.770727
_cell_angle_gamma 78.882376
_cell_volume 469.224817
_symmetry_space_group_name_H-M "P -1"
_symmetry_group_IT_number 2
_symmetry_cell_setting 'triclinic'
loop_
_space_group_symop_operation_xyz
x,y,z
-x,-y,-z
loop_
_atom_site_type_symbol
_atom_site_label
_atom_site_fract_x
_atom_site_fract_y
_atom_site_fract_z
Si Si1 0.822742 0.424028 0.861341
Si Si2 0.689750 0.610711 0.004983
Si Si3 0.872284 0.325887 0.728366
Si Si4 0.740045 0.830519 0.556723
Si Si5 0.295572 0.925349 0.156683
Si Si6 0.247224 0.868097 0.462587
O O1 0.606277 0.340033 0.017851
O O2 0.767917 0.390613 0.778420
O O3 0.780366 0.662708 0.639441
O O4 0.111893 0.345603 0.963917
O O5 0.733504 0.365964 0.258858
O O6 0.761706 0.700003 0.798980
O O7 0.716638 0.279238 0.686659
O O8 0.000000 0.500000 0.500000
O O9 0.057694 0.109734 0.966042
O O10 0.454938 0.946009 0.435873
O O11 0.956697 0.951932 0.407305
O O12 0.320487 0.884910 0.320976
O O13 0.500000 0.000000 0.000000
#
# Coordination Sequence:
#
# PCOD9085942 Si02
#       6
#     2   2   2   2   2   2
#     4  10  20  34  62  96 133 170 230 284 340 408
#     4  10  19  35  65 102 134 178 234 284 346 423
#     4  11  26  46  71 101 140 188 243 295 353 425
#     4  10  19  36  66 100 134 181 231 284 350 420
#     4  11  28  45  70 101 145 188 234 297 363 420
#     4  10  20  36  63  92 134 177 228 278 345 413
#
# _framework density 25.574096999999998
#
# number of rings (size 3 to 8) (size 9 to 14) (size 15 to 20)
#    0.000    1.667    0.000    7.000   11.667    0.667 
#    0.000    0.000    0.000   11.000    0.000    0.000 
#    0.000    0.000    0.000    0.000    0.000    0.000 
#
# Total GULP energy -67131.897622 kJ/mol
# GULP energy per Si atom -5594.324802 kJ/mol
# Density = 2.551589 g / cm^3
# Si number density = 25.574097 Si / 1000 Ang^3
#
#
#
# Elastic Constant Matrix: (Units=GPa)
#
#
# Indices 1 2 3 4 5 6 
#
# 1 174.5398 4.3868 39.7787 3.4358 -17.1769 -0.4883
# 2 4.3868 78.6949 42.1826 -0.5448 3.5098 -2.6000
# 3 39.7787 42.1826 79.1042 14.1156 -9.2614 10.0165
# 4 3.4358 -0.5448 14.1156 51.6282 4.6718 -6.4305
# 5 -17.1769 3.5098 -9.2614 4.6718 55.2985 -3.5300
# 6 -0.4883 -2.6000 10.0165 -6.4305 -3.5300 40.7684
#
#
#
# Elastic Compliance Matrix: (Units=1/GPa)
#
#
# Indices 1 2 3 4 5 6 
#
# 1 0.006900 0.002274 -0.004941 0.001020 0.001194 0.001706
# 2 0.002274 0.020345 -0.013853 0.004771 -0.002975 0.005223
# 3 -0.004941 -0.013853 0.025437 -0.008128 0.003771 -0.008148
# 4 0.001020 0.004771 -0.008128 0.022535 -0.002893 0.005618
# 5 0.001194 -0.002975 0.003771 -0.002893 0.019528 0.000133
# 6 0.001706 0.005223 -0.008148 0.005618 0.000133 0.027782
#
#
# Mechanical properties :
#
#
# Convention : Reuss Voigt Hill
#
# Bulk Modulus (GPa) = 50.91163 56.11499 53.51331
# Shear Modulus (GPa) = 30.84238 45.93842 38.39040
#
# Velocity S-wave (km/s) = 3.47652 4.24286 3.87866
# Velocity P-wave (km/s) = 6.00547 6.78176 6.40538
#
# Compressibility (1/GPa) = 0.01964188
#
# Stress axis : x y z
#
# Youngs Moduli (GPa) = 144.91793 49.15331 39.31279
#
# Poissons Ratio (x) = -0.11177 0.19423
# Poissons Ratio (y) = -0.32952 0.54461
# Poissons Ratio (z) = 0.71600 0.68093
#
# Static dielectric constant tensor:
#      x y z
#    x 2.113730 -0.036040 0.074070 
#    y -0.036040 2.097230 0.024060 
#    z 0.074070 0.024060 2.015820 
# 
# From -- ./inp_files/20501.got.cif
#   From: 2010.05.17/outbox.cif.g08.bks.cpg/sg2_11_cif.got.tgz:20501.got - 2010.06.03 11:33:40.
