data_PCOD9085111
_publ_section_title
;
Structure prediction by ZEFSAII (Michael W. Deem and Ramdas Pophale) SiO2 
 PCOD9085111
Probable space group: P -1
;
_chemical_formula_sum "Si O2"
_cell_formula_units_Z 16
_cell_length_a 14.651176
_cell_length_b 11.840843
_cell_length_c 19.256049
_cell_angle_alpha 143.883481
_cell_angle_beta 152.622520
_cell_angle_gamma 31.164101
_cell_volume 778.633888
_symmetry_space_group_name_H-M "P -1"
_symmetry_group_IT_number 2
_symmetry_cell_setting 'triclinic'
loop_
_space_group_symop_operation_xyz
x,y,z
-x,-y,-z
loop_
_atom_site_type_symbol
_atom_site_label
_atom_site_fract_x
_atom_site_fract_y
_atom_site_fract_z
Si Si1 0.842014 0.544875 0.579657
Si Si2 0.947437 0.358070 0.797934
Si Si3 0.594858 0.711396 0.633316
Si Si4 0.731756 0.454861 0.850793
Si Si5 0.185073 0.047848 0.611402
Si Si6 0.807797 0.941010 0.825367
Si Si7 0.498951 0.786870 0.360921
Si Si8 0.359416 0.942481 0.821853
O O1 0.635412 0.621447 0.536553
O O2 0.739704 0.586084 0.453659
O O3 0.041572 0.298472 0.610527
O O4 0.909606 0.730718 0.736258
O O5 0.737359 0.504663 0.677572
O O6 0.858764 0.373847 0.823193
O O7 0.099998 0.102216 0.751572
O O8 0.114677 0.464610 0.963142
O O9 0.342897 0.875794 0.573611
O O10 0.725201 0.853105 0.790172
O O11 0.689009 0.272397 0.766837
O O12 0.483555 0.677815 0.779459
O O13 0.356480 0.011762 0.774210
O O14 0.000000 0.000000 0.500000
O O15 0.578227 0.143355 0.735525
O O16 0.000000 0.000000 0.000000
O O17 0.500000 0.000000 0.500000
O O18 0.500000 0.000000 0.000000
#
# Coordination Sequence:
#
# PCOD9085111 Si02
#       8
#     2   2   2   2   2   2   2   2
#     4   9  22  38  58  85 120 152 196 244 288 348
#     4  10  19  35  58  93 116 148 190 248 301 357
#     4  10  21  37  61  86 118 152 200 236 298 351
#     4  10  20  33  61  85 121 152 191 239 305 348
#     4  12  23  37  58  86 124 157 191 241 300 358
#     4   9  19  40  68  85 113 157 199 243 294 342
#     4  10  20  39  61  82 117 161 195 239 288 347
#     4  10  20  36  56  87 122 149 189 243 298 351
#
# _framework density 20.548811000000001
#
# number of rings (size 3 to 8) (size 9 to 14) (size 15 to 20)
#    0.750    1.250    2.500    1.500    0.000    1.500 
#    0.000    1.250    5.500    0.000    0.000    0.000 
#    0.000    0.000    0.000    0.000    0.000    0.000 
#
# Total GULP energy -89146.309427 kJ/mol
# GULP energy per Si atom -5571.644339 kJ/mol
# Density = 2.050204 g / cm^3
# Si number density = 20.548811 Si / 1000 Ang^3
#
#
#
# Elastic Constant Matrix: (Units=GPa)
#
#
# Indices 1 2 3 4 5 6 
#
# 1 41.7250 38.5745 8.7887 0.5816 -0.1456 -9.0984
# 2 38.5745 140.1210 31.3383 -14.6853 -1.0819 -2.0060
# 3 8.7887 31.3383 96.5968 1.1297 3.1667 2.5634
# 4 0.5816 -14.6853 1.1297 32.0474 12.5016 -0.3062
# 5 -0.1456 -1.0819 3.1667 12.5016 34.2094 -4.1694
# 6 -9.0984 -2.0060 2.5634 -0.3062 -4.1694 37.8793
#
#
#
# Elastic Compliance Matrix: (Units=1/GPa)
#
#
# Indices 1 2 3 4 5 6 
#
# 1 0.035372 -0.010245 -0.000144 -0.006511 0.003227 0.008266
# 2 -0.010245 0.011148 -0.002644 0.006113 -0.001906 -0.001852
# 3 -0.000144 -0.002644 0.011292 -0.001315 -0.000775 -0.001035
# 4 -0.006511 0.006113 -0.001315 0.039828 -0.014564 -0.002432
# 5 0.003227 -0.001906 -0.000775 -0.014564 0.035125 0.004475
# 6 0.008266 -0.001852 -0.001035 -0.002432 0.004475 0.028830
#
#
# Mechanical properties :
#
#
# Convention : Reuss Voigt Hill
#
# Bulk Modulus (GPa) = 31.49984 48.42729 39.96357
# Shear Modulus (GPa) = 25.22167 34.14330 29.68249
#
# Velocity S-wave (km/s) = 3.50723 4.08066 3.80476
# Velocity P-wave (km/s) = 5.63591 6.76908 6.22832
#
# Compressibility (1/GPa) = 0.03174619
#
# Stress axis : x y z
#
# Youngs Moduli (GPa) = 28.27055 89.70256 88.56189
#
# Poissons Ratio (x) = 0.91899 0.01272
# Poissons Ratio (y) = 0.28963 0.23420
# Poissons Ratio (z) = 0.00406 0.23721
#
# Static dielectric constant tensor:
#      x y z
#    x 1.719030 0.009490 -0.021060 
#    y 0.009490 1.743220 -0.009390 
#    z -0.021060 -0.009390 1.848920 
# 
# From -- ./inp_files/597740.got.cif
#   From: 2010.05.17/outbox.cif.g08.bks.cpg/sg2_299_cif.got.tgz:597740.got - 2010.06.03 11:33:40.
