data_PCOD9085822
_publ_section_title
;
Structure prediction by ZEFSAII (Michael W. Deem and Ramdas Pophale) SiO2 
 PCOD9085822
Probable space group: P -1
;
_chemical_formula_sum "Si O2"
_cell_formula_units_Z 11
_cell_length_a 9.110586
_cell_length_b 11.537857
_cell_length_c 11.477042
_cell_angle_alpha 137.014178
_cell_angle_beta 61.291586
_cell_angle_gamma 142.165090
_cell_volume 490.679804
_symmetry_space_group_name_H-M "P -1"
_symmetry_group_IT_number 2
_symmetry_cell_setting 'triclinic'
loop_
_space_group_symop_operation_xyz
x,y,z
-x,-y,-z
loop_
_atom_site_type_symbol
_atom_site_label
_atom_site_fract_x
_atom_site_fract_y
_atom_site_fract_z
Si Si1 0.344835 0.750174 0.719200
Si Si2 0.372116 0.345222 0.187207
Si Si3 0.729128 0.724956 0.159427
Si Si4 0.500000 0.500000 0.500000
Si Si5 0.123906 0.719089 0.019957
Si Si6 0.845822 0.093571 0.217341
O O1 0.354588 0.558791 0.548358
O O2 0.231466 0.771738 0.670767
O O3 0.621108 0.024605 0.835184
O O4 0.187067 0.676627 0.841447
O O5 0.612443 0.625939 0.258893
O O6 0.420219 0.333050 0.292002
O O7 0.124304 0.264880 0.198795
O O8 0.328101 0.141102 0.979452
O O9 0.942803 0.744210 0.084900
O O10 0.812065 0.970194 0.261949
O O11 0.500000 0.500000 0.000000
O O12 0.000000 0.500000 0.000000
#
# Coordination Sequence:
#
# PCOD9085822 Si02
#       6
#     2   2   2   1   2   2
#     4  11  23  38  59  89 123 162 204 248 305 362
#     4  10  21  39  63  91 121 156 199 251 306 360
#     4  10  19  35  63  92 114 148 205 257 293 345
#     4  12  24  40  58  90 136 162 190 252 318 366
#     4  11  21  38  64  90 119 161 210 252 293 359
#     4  10  20  40  65  86 115 162 213 249 286 357
#
# _framework density 22.417878999999999
#
# number of rings (size 3 to 8) (size 9 to 14) (size 15 to 20)
#    0.000    1.455    0.000    9.818    0.000    0.727 
#    0.000    9.091    0.000    0.000    0.000    3.818 
#    0.000    0.000    0.000    0.000    0.000    0.000 
#
# Total GULP energy -61263.464734 kJ/mol
# GULP energy per Si atom -5569.405885 kJ/mol
# Density = 2.236686 g / cm^3
# Si number density = 22.417879 Si / 1000 Ang^3
#
#
#
# Elastic Constant Matrix: (Units=GPa)
#
#
# Indices 1 2 3 4 5 6 
#
# 1 181.1276 53.0125 25.5380 8.0253 -44.4007 -9.2806
# 2 53.0125 138.1036 23.0233 5.8980 -17.6747 -4.1702
# 3 25.5380 23.0233 39.8283 6.0788 -0.8612 -10.4224
# 4 8.0253 5.8980 6.0788 6.4196 -4.2216 -5.0091
# 5 -44.4007 -17.6747 -0.8612 -4.2216 47.3686 3.5538
# 6 -9.2806 -4.1702 -10.4224 -5.0091 3.5538 33.2729
#
#
#
# Elastic Compliance Matrix: (Units=1/GPa)
#
#
# Indices 1 2 3 4 5 6 
#
# 1 0.008338 -0.001569 -0.004244 -0.000279 0.007129 -0.000004
# 2 -0.001569 0.008774 -0.003993 -0.002090 0.001625 -0.001077
# 3 -0.004244 -0.003993 0.035406 -0.024376 -0.007487 0.006537
# 4 -0.000279 -0.002090 -0.024376 0.208228 0.015444 0.021723
# 5 0.007129 0.001625 -0.007487 0.015444 0.029715 -0.001002
# 6 -0.000004 -0.001077 0.006537 0.021723 -0.001002 0.035343
#
#
# Mechanical properties :
#
#
# Convention : Reuss Voigt Hill
#
# Bulk Modulus (GPa) = 30.38983 62.46744 46.42863
# Shear Modulus (GPa) = 14.02975 34.57793 24.30384
#
# Velocity S-wave (km/s) = 2.50437 3.93163 3.29618
# Velocity P-wave (km/s) = 4.68487 6.96677 5.93649
#
# Compressibility (1/GPa) = 0.03290574
#
# Stress axis : x y z
#
# Youngs Moduli (GPa) = 119.93041 113.97721 28.24355
#
# Poissons Ratio (x) = 0.17884 0.11986
# Poissons Ratio (y) = 0.18818 0.11279
# Poissons Ratio (z) = 0.50895 0.45516
#
# Static dielectric constant tensor:
#      x y z
#    x 1.841180 -0.069490 -0.025300 
#    y -0.069490 1.938650 -0.023860 
#    z -0.025300 -0.023860 1.622770 
# 
# From -- ./inp_files/250105.got.cif
#   From: 2010.05.17/outbox.cif.g08.bks.cpg/sg2_126_cif.got.tgz:250105.got - 2010.06.03 11:33:40.
