data_PCOD9085066
_publ_section_title
;
Structure prediction by ZEFSAII (Michael W. Deem and Ramdas Pophale) SiO2 
 PCOD9085066
Probable space group: P -1
;
_chemical_formula_sum "Si O2"
_cell_formula_units_Z 16
_cell_length_a 13.964494
_cell_length_b 9.877771
_cell_length_c 9.223684
_cell_angle_alpha 136.720575
_cell_angle_beta 64.490710
_cell_angle_gamma 104.676664
_cell_volume 783.472733
_symmetry_space_group_name_H-M "P -1"
_symmetry_group_IT_number 2
_symmetry_cell_setting 'triclinic'
loop_
_space_group_symop_operation_xyz
x,y,z
-x,-y,-z
loop_
_atom_site_type_symbol
_atom_site_label
_atom_site_fract_x
_atom_site_fract_y
_atom_site_fract_z
Si Si1 0.549333 0.643578 0.965423
Si Si2 0.984333 0.965545 0.311986
Si Si3 0.374172 0.054142 0.647906
Si Si4 0.787688 0.250071 0.027275
Si Si5 0.846458 0.349624 0.627742
Si Si6 0.325466 0.881693 0.267955
Si Si7 0.890376 0.579370 0.051122
Si Si8 0.700484 0.339904 0.465623
O O1 0.607394 0.510336 0.699025
O O2 0.500000 0.500000 0.000000
O O3 0.632739 0.759543 0.094928
O O4 0.447409 0.788574 0.094247
O O5 0.895017 0.813003 0.237548
O O6 0.939660 0.169906 0.427813
O O7 0.000000 0.000000 0.500000
O O8 0.096338 0.863199 0.101214
O O9 0.500000 0.000000 0.500000
O O10 0.330796 0.063924 0.518909
O O11 0.328968 0.869357 0.612882
O O12 0.806147 0.455436 0.092202
O O13 0.723433 0.306247 0.256998
O O14 0.730928 0.107996 0.842728
O O15 0.745188 0.266994 0.712920
O O16 0.803735 0.397756 0.533065
O O17 0.885290 0.515783 0.837193
O O18 0.000000 0.500000 0.000000
#
# Coordination Sequence:
#
# PCOD9085066 Si02
#       8
#     2   2   2   2   2   2   2   2
#     4  11  19  37  62  82 112 155 191 234 279 335
#     4  11  19  37  64  80 111 153 193 234 277 337
#     4   9  18  36  61  84 108 151 199 228 273 346
#     4  10  22  40  56  89 121 145 186 246 289 329
#     4  10  19  35  58  88 108 151 195 226 282 341
#     4   9  18  36  59  86 109 144 203 228 274 345
#     4   9  18  36  60  83 108 148 199 230 272 345
#     4  11  23  39  56  86 128 143 185 246 283 340
#
# _framework density 20.421897999999999
#
# number of rings (size 3 to 8) (size 9 to 14) (size 15 to 20)
#    0.000    2.000    7.500    0.000    0.000    3.000 
#    2.250    5.000    0.000    0.000    0.000    0.000 
#    0.000    0.000    0.000    0.000    0.000    0.000 
#
# Total GULP energy -89187.227125 kJ/mol
# GULP energy per Si atom -5574.201695 kJ/mol
# Density = 2.037542 g / cm^3
# Si number density = 20.421898 Si / 1000 Ang^3
#
#
#
# Elastic Constant Matrix: (Units=GPa)
#
#
# Indices 1 2 3 4 5 6 
#
# 1 102.5045 10.1589 45.9669 -0.3962 11.8578 -1.9444
# 2 10.1589 27.1869 31.0475 -1.1140 9.4064 5.4978
# 3 45.9669 31.0475 133.4425 -9.6292 10.5260 16.3637
# 4 -0.3962 -1.1140 -9.6292 30.9901 1.9685 5.4951
# 5 11.8578 9.4064 10.5260 1.9685 48.0930 9.5900
# 6 -1.9444 5.4978 16.3637 5.4951 9.5900 16.7036
#
#
#
# Elastic Compliance Matrix: (Units=1/GPa)
#
#
# Indices 1 2 3 4 5 6 
#
# 1 0.012933 0.001061 -0.005874 -0.003187 -0.004029 0.010272
# 2 0.001061 0.052961 -0.012091 -0.001243 -0.007809 -0.000570
# 3 -0.005874 -0.012091 0.014334 0.006349 0.003360 -0.014764
# 4 -0.003187 -0.001243 0.006349 0.037518 0.002030 -0.019690
# 5 -0.004029 -0.007809 0.003360 0.002030 0.025822 -0.016683
# 6 0.010272 -0.000570 -0.014764 -0.019690 -0.016683 0.091770
#
#
# Mechanical properties :
#
#
# Convention : Reuss Voigt Hill
#
# Bulk Modulus (GPa) = 21.54255 48.60895 35.07575
# Shear Modulus (GPa) = 17.56735 30.88805 24.22770
#
# Velocity S-wave (km/s) = 2.93613 3.89330 3.44809
# Velocity P-wave (km/s) = 4.69746 6.63811 5.75024
#
# Compressibility (1/GPa) = 0.04641976
#
# Stress axis : x y z
#
# Youngs Moduli (GPa) = 77.32117 18.88196 69.76410
#
# Poissons Ratio (x) = -0.02004 0.40978
# Poissons Ratio (y) = -0.08206 0.84355
# Poissons Ratio (z) = 0.45417 0.22831
#
# Static dielectric constant tensor:
#      x y z
#    x 1.794550 -0.017350 0.003040 
#    y -0.017350 1.513350 -0.103880 
#    z 0.003040 -0.103880 1.663310 
# 
# From -- ./inp_files/304345.got.cif
#   From: 2010.05.17/outbox.cif.g08.bks.cpg/sg2_153_cif.got.tgz:304345.got - 2010.06.03 11:33:40.
