data_PCOD9085508
_publ_section_title
;
Structure prediction by ZEFSAII (Michael W. Deem and Ramdas Pophale) SiO2 
 PCOD9085508
Probable space group: P -1
;
_chemical_formula_sum "Si O2"
_cell_formula_units_Z 16
_cell_length_a 13.552049
_cell_length_b 13.996796
_cell_length_c 11.084405
_cell_angle_alpha 142.387326
_cell_angle_beta 55.454363
_cell_angle_gamma 147.703240
_cell_volume 650.856299
_symmetry_space_group_name_H-M "P -1"
_symmetry_group_IT_number 2
_symmetry_cell_setting 'triclinic'
loop_
_space_group_symop_operation_xyz
x,y,z
-x,-y,-z
loop_
_atom_site_type_symbol
_atom_site_label
_atom_site_fract_x
_atom_site_fract_y
_atom_site_fract_z
Si Si1 0.833509 0.047828 0.296238
Si Si2 0.621251 0.165660 0.775784
Si Si3 0.581683 0.316222 0.724845
Si Si4 0.685928 0.495362 0.389831
Si Si5 0.225243 0.052525 0.259947
Si Si6 0.789105 0.711131 0.780772
Si Si7 0.739643 0.018205 0.080892
Si Si8 0.048134 0.712904 0.279816
O O1 0.607542 0.780650 0.201933
O O2 0.842450 0.165296 0.285809
O O3 0.895940 0.176004 0.510993
O O4 0.982387 0.063737 0.179610
O O5 0.669228 0.333143 0.801361
O O6 0.455894 0.080292 0.884763
O O7 0.820062 0.307792 0.839498
O O8 0.507357 0.909129 0.526946
O O9 0.729789 0.569718 0.802549
O O10 0.456381 0.257436 0.291725
O O11 0.780536 0.763553 0.559788
O O12 0.703736 0.508224 0.534368
O O13 0.816252 0.499995 0.238629
O O14 0.131998 0.901454 0.298930
O O15 0.148845 0.877406 0.019878
O O16 0.701070 0.791888 0.901794
#
# Coordination Sequence:
#
# PCOD9085508 Si02
#       8
#     2   2   2   2   2   2   2   2
#     4   9  19  35  57  85 111 138 186 236 270 321
#     4   9  19  35  54  81 117 146 181 228 275 332
#     4   9  18  36  57  79 111 152 186 221 273 333
#     4   9  19  35  56  84 106 140 195 231 257 327
#     4  10  20  36  58  79 110 147 183 227 277 324
#     4  10  19  35  61  84 109 146 188 232 278 322
#     4  10  21  37  55  86 120 141 177 238 286 323
#     4  10  19  36  58  77 107 152 187 219 269 333
#
# _framework density 24.582999000000001
#
# number of rings (size 3 to 8) (size 9 to 14) (size 15 to 20)
#    0.000    2.500    0.000    3.000    0.000    2.500 
#    0.000   21.250    0.000    0.000    0.000    0.000 
#    0.000    0.000    0.000    0.000    0.000    0.000 
#
# Total GULP energy -89243.989892 kJ/mol
# GULP energy per Si atom -5577.749368 kJ/mol
# Density = 2.452705 g / cm^3
# Si number density = 24.582999 Si / 1000 Ang^3
#
#
#
# Elastic Constant Matrix: (Units=GPa)
#
#
# Indices 1 2 3 4 5 6 
#
# 1 72.8891 36.1610 14.1231 -15.5935 2.1353 14.5782
# 2 36.1610 77.3836 48.1271 -21.7219 -1.1705 14.1282
# 3 14.1231 48.1271 93.7445 -46.8314 -2.6499 2.2922
# 4 -15.5935 -21.7219 -46.8314 37.9817 6.4951 -4.4058
# 5 2.1353 -1.1705 -2.6499 6.4951 26.1036 -18.0235
# 6 14.5782 14.1282 2.2922 -4.4058 -18.0235 40.2272
#
#
#
# Elastic Compliance Matrix: (Units=1/GPa)
#
#
# Indices 1 2 3 4 5 6 
#
# 1 0.022844 -0.011290 0.010887 0.017316 -0.011114 -0.008017
# 2 -0.011290 0.027235 -0.018140 -0.011973 -0.000997 -0.006199
# 3 0.010887 -0.018140 0.041408 0.046708 -0.008028 0.001585
# 4 0.017316 -0.011973 0.046708 0.087435 -0.022620 -0.005290
# 5 -0.011114 -0.000997 -0.008028 -0.022620 0.066047 0.031950
# 6 -0.008017 -0.006199 0.001585 -0.005290 0.031950 0.043586
#
#
# Mechanical properties :
#
#
# Convention : Reuss Voigt Hill
#
# Bulk Modulus (GPa) = 18.38153 48.98216 33.68185
# Shear Modulus (GPa) = 14.54443 30.56956 22.55700
#
# Velocity S-wave (km/s) = 2.43502 3.53019 3.03245
# Velocity P-wave (km/s) = 3.92420 6.04854 5.09824
#
# Compressibility (1/GPa) = 0.05440242
#
# Stress axis : x y z
#
# Youngs Moduli (GPa) = 43.77431 36.71709 24.15018
#
# Poissons Ratio (x) = 0.41452 -0.26291
# Poissons Ratio (y) = 0.49419 0.43807
# Poissons Ratio (z) = -0.47655 0.66603
#
# Static dielectric constant tensor:
#      x y z
#    x 2.047680 0.011810 0.105300 
#    y 0.011810 1.880870 -0.007950 
#    z 0.105300 -0.007950 2.144300 
# 
# From -- ./inp_files/455914.got.cif
#   From: 2010.05.17/outbox.cif.g08.bks.cpg/sg2_228_cif.got.tgz:455914.got - 2010.06.03 11:33:40.
