data_PCOD9085151
_publ_section_title
;
Structure prediction by ZEFSAII (Michael W. Deem and Ramdas Pophale) SiO2 
 PCOD9085151
Probable space group: P -1
;
_chemical_formula_sum "Si O2"
_cell_formula_units_Z 14
_cell_length_a 17.365017
_cell_length_b 11.082243
_cell_length_c 14.496075
_cell_angle_alpha 136.615324
_cell_angle_beta 155.359461
_cell_angle_gamma 32.785301
_cell_volume 621.100870
_symmetry_space_group_name_H-M "P -1"
_symmetry_group_IT_number 2
_symmetry_cell_setting 'triclinic'
loop_
_space_group_symop_operation_xyz
x,y,z
-x,-y,-z
loop_
_atom_site_type_symbol
_atom_site_label
_atom_site_fract_x
_atom_site_fract_y
_atom_site_fract_z
Si Si1 0.476507 0.587167 0.763176
Si Si2 0.624710 0.853334 0.146925
Si Si3 0.431659 0.064524 0.568951
Si Si4 0.217700 0.849812 0.254638
Si Si5 0.135721 0.539100 0.461452
Si Si6 0.543292 0.718790 0.707539
Si Si7 0.057923 0.308654 0.083906
O O1 0.652321 0.319648 0.784727
O O2 0.241019 0.642106 0.579246
O O3 0.462293 0.683935 0.699485
O O4 0.573416 0.676659 0.988136
O O5 0.904754 0.718561 0.368747
O O6 0.515198 0.039491 0.209969
O O7 0.500000 0.000000 0.000000
O O8 0.336610 0.317953 0.616659
O O9 0.500000 0.000000 0.500000
O O10 0.218835 0.056633 0.354748
O O11 0.681599 0.850519 0.765084
O O12 0.386690 0.734003 0.463951
O O13 0.993312 0.862096 0.036482
O O14 0.058655 0.442544 0.245747
O O15 0.822401 0.508873 0.884261
#
# Coordination Sequence:
#
# PCOD9085151 Si02
#       7
#     2   2   2   2   2   2   2
#     4  10  19  35  59  83 111 147 190 231 276 326
#     4  10  20  38  56  83 116 151 189 226 279 336
#     4  10  22  35  56  88 113 145 194 234 277 327
#     4  11  20  38  58  85 117 146 184 240 284 328
#     4  11  20  36  59  87 112 145 196 235 269 333
#     4  10  22  38  55  87 120 146 183 230 294 337
#     4  10  19  36  56  87 112 144 186 234 282 325
#
# _framework density 22.540621000000002
#
# number of rings (size 3 to 8) (size 9 to 14) (size 15 to 20)
#    0.000    1.714    7.143    1.714    0.000    6.286 
#    2.571    0.714    0.000    1.714    0.000    0.000 
#    0.000    0.000    0.000    0.000    0.000    0.000 
#
# Total GULP energy -78103.822461 kJ/mol
# GULP energy per Si atom -5578.844461 kJ/mol
# Density = 2.248932 g / cm^3
# Si number density = 22.540621 Si / 1000 Ang^3
#
#
#
# Elastic Constant Matrix: (Units=GPa)
#
#
# Indices 1 2 3 4 5 6 
#
# 1 68.7228 36.3424 33.7623 5.9291 17.7984 -3.4732
# 2 36.3424 88.4648 33.6096 -4.8041 3.6644 -11.1316
# 3 33.7623 33.6096 95.5318 7.8421 12.5588 -6.4712
# 4 5.9291 -4.8041 7.8421 48.1076 6.3202 4.3093
# 5 17.7984 3.6644 12.5588 6.3202 30.1834 4.5081
# 6 -3.4732 -11.1316 -6.4712 4.3093 4.5081 30.4551
#
#
#
# Elastic Compliance Matrix: (Units=1/GPa)
#
#
# Indices 1 2 3 4 5 6 
#
# 1 0.023670 -0.007723 -0.003984 -0.001656 -0.011152 0.000915
# 2 -0.007723 0.016191 -0.003308 0.002404 0.002930 0.003560
# 3 -0.003984 -0.003308 0.013698 -0.001872 -0.002845 0.001933
# 4 -0.001656 0.002404 -0.001872 0.022122 -0.002807 -0.002422
# 5 -0.011152 0.002930 -0.002845 -0.002807 0.042115 -0.006643
# 6 0.000915 0.003560 0.001933 -0.002422 -0.006643 0.035978
#
#
# Mechanical properties :
#
#
# Convention : Reuss Voigt Hill
#
# Bulk Modulus (GPa) = 42.50184 51.12755 46.81469
# Shear Modulus (GPa) = 26.08957 31.68288 28.88623
#
# Velocity S-wave (km/s) = 3.40582 3.75319 3.58371
# Velocity P-wave (km/s) = 5.86197 6.44310 6.15939
#
# Compressibility (1/GPa) = 0.02352840
#
# Stress axis : x y z
#
# Youngs Moduli (GPa) = 42.24715 61.76402 73.00190
#
# Poissons Ratio (x) = 0.47701 0.29086
# Poissons Ratio (y) = 0.32628 0.24149
# Poissons Ratio (z) = 0.16832 0.20431
#
# Static dielectric constant tensor:
#      x y z
#    x 1.847890 0.074740 -0.013300 
#    y 0.074740 1.927830 -0.016170 
#    z -0.013300 -0.016170 1.871420 
# 
# From -- ./inp_files/460933.got.cif
#   From: 2010.05.17/outbox.cif.g08.bks.cpg/sg2_231_cif.got.tgz:460933.got - 2010.06.03 11:33:40.
