data_PCOD9085910
_publ_section_title
;
Structure prediction by ZEFSAII (Michael W. Deem and Ramdas Pophale) SiO2 
 PCOD9085910
Probable space group: P -1
;
_chemical_formula_sum "Si O2"
_cell_formula_units_Z 16
_cell_length_a 7.108642
_cell_length_b 16.880190
_cell_length_c 11.942541
_cell_angle_alpha 32.360184
_cell_angle_beta 124.728174
_cell_angle_gamma 125.313898
_cell_volume 614.923539
_symmetry_space_group_name_H-M "P -1"
_symmetry_group_IT_number 2
_symmetry_cell_setting 'triclinic'
loop_
_space_group_symop_operation_xyz
x,y,z
-x,-y,-z
loop_
_atom_site_type_symbol
_atom_site_label
_atom_site_fract_x
_atom_site_fract_y
_atom_site_fract_z
Si Si1 0.067290 0.825344 0.551282
Si Si2 0.248783 0.887679 0.205907
Si Si3 0.583722 0.710666 0.396172
Si Si4 0.181857 0.631951 0.653996
Si Si5 0.990862 0.872892 0.919183
Si Si6 0.086151 0.621944 0.980743
Si Si7 0.439265 0.815933 0.997915
Si Si8 0.241886 0.459907 0.682668
O O1 0.832138 0.746398 0.498066
O O2 0.254732 0.739120 0.659258
O O3 0.115788 0.002657 0.330701
O O4 0.014015 0.770949 0.725580
O O5 0.435293 0.818385 0.279646
O O6 0.113635 0.751988 0.399481
O O7 0.400407 0.021806 0.170900
O O8 0.098685 0.942653 0.991702
O O9 0.437489 0.540406 0.566026
O O10 0.582520 0.750822 0.218563
O O11 0.339195 0.556013 0.714631
O O12 0.012074 0.477776 0.825312
O O13 0.202711 0.841340 0.950361
O O14 0.834343 0.713167 0.097365
O O15 0.351956 0.699902 0.007680
O O16 0.000000 0.500000 0.000000
O O17 0.000000 0.500000 0.500000
#
# Coordination Sequence:
#
# PCOD9085910 Si02
#       8
#     2   2   2   2   2   2   2   2
#     4  11  23  40  58  93 127 151 197 264 292 342
#     4  10  19  35  64  93 118 155 200 246 302 361
#     4  10  19  36  63  93 120 149 204 252 289 358
#     4  10  21  40  60  83 124 169 191 239 312 361
#     4  11  19  35  65  91 123 146 204 250 300 346
#     4  10  23  42  59  80 126 171 196 234 307 371
#     4  11  18  37  65  88 113 166 203 231 305 365
#     4  11  18  36  63  88 120 163 197 237 306 368
#
# _framework density 26.019494000000002
#
# number of rings (size 3 to 8) (size 9 to 14) (size 15 to 20)
#    0.000    1.500    7.500    0.750    0.000    1.000 
#    0.000   14.375    0.000    0.000    0.000    0.000 
#    0.000    0.000    0.000    0.000    0.000    0.000 
#
# Total GULP energy -89257.723977 kJ/mol
# GULP energy per Si atom -5578.607749 kJ/mol
# Density = 2.596027 g / cm^3
# Si number density = 26.019494 Si / 1000 Ang^3
#
#
#
# Elastic Constant Matrix: (Units=GPa)
#
#
# Indices 1 2 3 4 5 6 
#
# 1 64.0764 18.3637 20.7766 0.3567 -19.2881 1.9020
# 2 18.3637 120.9091 46.0135 -15.6159 -9.7372 7.4254
# 3 20.7766 46.0135 201.8302 -30.3620 -38.8730 13.5868
# 4 0.3567 -15.6159 -30.3620 50.1884 3.9088 -2.9724
# 5 -19.2881 -9.7372 -38.8730 3.9088 25.4893 -9.6893
# 6 1.9020 7.4254 13.5868 -2.9724 -9.6893 23.9368
#
#
#
# Elastic Compliance Matrix: (Units=1/GPa)
#
#
# Indices 1 2 3 4 5 6 
#
# 1 0.021955 -0.002891 0.001810 -0.001208 0.020901 0.006436
# 2 -0.002891 0.009639 -0.001980 0.001888 -0.002775 -0.002525
# 3 0.001810 -0.001980 0.008148 0.003372 0.013121 0.001576
# 4 -0.001208 0.001888 0.003372 0.022479 0.001950 0.001177
# 5 0.020901 -0.002775 0.013121 0.001950 0.083506 0.025796
# 6 0.006436 -0.002525 0.001576 0.001177 0.025796 0.051743
#
#
# Mechanical properties :
#
#
# Convention : Reuss Voigt Hill
#
# Bulk Modulus (GPa) = 29.74530 61.90258 45.82394
# Shear Modulus (GPa) = 23.27749 40.03371 31.65560
#
# Velocity S-wave (km/s) = 2.99426 3.92676 3.49178
# Velocity P-wave (km/s) = 4.83848 6.66346 5.82291
#
# Compressibility (1/GPa) = 0.03361876
#
# Stress axis : x y z
#
# Youngs Moduli (GPa) = 45.54688 103.74633 122.72620
#
# Poissons Ratio (x) = 0.29996 -0.22210
# Poissons Ratio (y) = 0.13169 0.24304
# Poissons Ratio (z) = -0.08243 0.20545
#
# Static dielectric constant tensor:
#      x y z
#    x 2.202280 -0.096750 0.087570 
#    y -0.096750 2.046960 -0.020500 
#    z 0.087570 -0.020500 2.080330 
# 
# From -- ./inp_files/347406.got.cif
#   From: 2010.05.17/outbox.cif.g08.bks.cpg/sg2_174_cif.got.tgz:347406.got - 2010.06.03 11:33:40.
