data_PCOD9085352
_publ_section_title
;
Structure prediction by ZEFSAII (Michael W. Deem and Ramdas Pophale) SiO2 
 PCOD9085352
Probable space group: P -1
;
_chemical_formula_sum "Si O2"
_cell_formula_units_Z 16
_cell_length_a 11.534589
_cell_length_b 17.792621
_cell_length_c 11.793521
_cell_angle_alpha 93.588664
_cell_angle_beta 65.117594
_cell_angle_gamma 148.562898
_cell_volume 892.641654
_symmetry_space_group_name_H-M "P -1"
_symmetry_group_IT_number 2
_symmetry_cell_setting 'triclinic'
loop_
_space_group_symop_operation_xyz
x,y,z
-x,-y,-z
loop_
_atom_site_type_symbol
_atom_site_label
_atom_site_fract_x
_atom_site_fract_y
_atom_site_fract_z
Si Si1 0.740757 0.197908 0.420498
Si Si2 0.580295 0.623732 0.730053
Si Si3 0.948854 0.892971 0.951012
Si Si4 0.353836 0.505438 0.047285
Si Si5 0.779162 0.969491 0.390719
Si Si6 0.895610 0.528521 0.517435
Si Si7 0.339827 0.329826 0.757265
Si Si8 0.449872 0.316504 0.492531
O O1 0.034309 0.339054 0.232209
O O2 0.862190 0.284919 0.504522
O O3 0.500000 0.000000 0.500000
O O4 0.541429 0.161965 0.457337
O O5 0.531122 0.508868 0.714921
O O6 0.528407 0.641236 0.638146
O O7 0.923964 0.828771 0.657083
O O8 0.339240 0.512878 0.920208
O O9 0.182561 0.006880 0.759913
O O10 0.612510 0.701034 0.010357
O O11 0.939191 0.827659 0.052401
O O12 0.000000 0.000000 0.000000
O O13 0.500000 0.500000 0.000000
O O14 0.748565 0.866870 0.432086
O O15 0.563922 0.377694 0.693494
O O16 0.792731 0.485150 0.425026
O O17 0.000000 0.500000 0.500000
O O18 0.283316 0.287358 0.643074
#
# Coordination Sequence:
#
# PCOD9085352 Si02
#       8
#     2   2   2   2   2   2   2   2
#     4  12  22  36  59  90 118 154 196 253 300 348
#     4  11  22  38  61  87 122 157 202 245 294 366
#     4  11  19  35  57  88 118 147 199 252 288 342
#     4  11  21  38  59  86 118 154 201 249 295 348
#     4  11  23  35  60  89 124 154 198 249 300 352
#     4  10  19  36  57  83 114 152 194 246 292 348
#     4  10  19  35  60  85 115 150 201 243 295 347
#     4  10  21  38  58  89 118 162 198 243 298 358
#
# _framework density 17.924327000000002
#
# number of rings (size 3 to 8) (size 9 to 14) (size 15 to 20)
#    0.750    0.500    5.000    3.000    0.000    0.000 
#    0.000    0.625    0.000    2.250    0.000    0.000 
#    0.000    0.000    0.000    0.000    0.000    0.000 
#
# Total GULP energy -89069.633142 kJ/mol
# GULP energy per Si atom -5566.852071 kJ/mol
# Density = 1.788353 g / cm^3
# Si number density = 17.924327 Si / 1000 Ang^3
#
#
#
# Elastic Constant Matrix: (Units=GPa)
#
#
# Indices 1 2 3 4 5 6 
#
# 1 61.2344 41.5150 54.0798 10.3259 6.1002 -0.5574
# 2 41.5150 127.8741 49.0502 -0.4056 10.2083 -21.8172
# 3 54.0798 49.0502 127.2501 9.8817 9.4568 -0.0605
# 4 10.3259 -0.4056 9.8817 31.4498 6.8012 6.9036
# 5 6.1002 10.2083 9.4568 6.8012 33.6866 3.1100
# 6 -0.5574 -21.8172 -0.0605 6.9036 3.1100 28.7452
#
#
#
# Elastic Compliance Matrix: (Units=1/GPa)
#
#
# Indices 1 2 3 4 5 6 
#
# 1 0.030752 -0.006756 -0.010024 -0.006553 0.000900 -0.003076
# 2 -0.006756 0.012596 -0.001862 0.001610 -0.003263 0.009391
# 3 -0.010024 -0.001862 0.012935 -0.000258 -0.001070 -0.001403
# 4 -0.006553 0.001610 -0.000258 0.036916 -0.006025 -0.007120
# 5 0.000900 -0.003263 -0.001070 -0.006025 0.032446 -0.004525
# 6 -0.003076 0.009391 -0.001403 -0.007120 -0.004525 0.044053
#
#
# Mechanical properties :
#
#
# Convention : Reuss Voigt Hill
#
# Bulk Modulus (GPa) = 52.63686 67.29428 59.96557
# Shear Modulus (GPa) = 23.43955 30.22389 26.83172
#
# Velocity S-wave (km/s) = 3.62013 4.11078 3.87323
# Velocity P-wave (km/s) = 6.84863 7.75606 7.31642
#
# Compressibility (1/GPa) = 0.01899809
#
# Stress axis : x y z
#
# Youngs Moduli (GPa) = 32.51872 79.39239 77.30729
#
# Poissons Ratio (x) = 0.53637 0.77495
# Poissons Ratio (y) = 0.21969 0.14395
# Poissons Ratio (z) = 0.32598 0.14783
#
# Static dielectric constant tensor:
#      x y z
#    x 1.622620 -0.005440 0.001410 
#    y -0.005440 1.669260 0.025680 
#    z 0.001410 0.025680 1.655430 
# 
# From -- ./inp_files/435796.got.cif
#   From: 2010.05.17/outbox.cif.g08.bks.cpg/sg2_218_cif.got.tgz:435796.got - 2010.06.03 11:33:40.
