data_PCOD9085696
_publ_section_title
;
Structure prediction by ZEFSAII (Michael W. Deem and Ramdas Pophale) SiO2 
 PCOD9085696
Probable space group: P -1
;
_chemical_formula_sum "Si O2"
_cell_formula_units_Z 14
_cell_length_a 5.144700
_cell_length_b 9.404810
_cell_length_c 19.612784
_cell_angle_alpha 134.566352
_cell_angle_beta 113.000319
_cell_angle_gamma 71.161119
_cell_volume 620.611905
_symmetry_space_group_name_H-M "P -1"
_symmetry_group_IT_number 2
_symmetry_cell_setting 'triclinic'
loop_
_space_group_symop_operation_xyz
x,y,z
-x,-y,-z
loop_
_atom_site_type_symbol
_atom_site_label
_atom_site_fract_x
_atom_site_fract_y
_atom_site_fract_z
Si Si1 0.051638 0.813257 0.713055
Si Si2 0.228827 0.787867 0.201517
Si Si3 0.591186 0.722087 0.090232
Si Si4 0.679579 0.465318 0.738815
Si Si5 0.963142 0.607570 0.377708
Si Si6 0.234986 0.641845 0.543752
Si Si7 0.510292 0.928603 0.898749
O O1 0.928343 0.616130 0.662512
O O2 0.275113 0.768650 0.659089
O O3 0.206470 0.891732 0.821899
O O4 0.832820 0.976492 0.712140
O O5 0.494153 0.775615 0.174582
O O6 0.279673 0.644764 0.222368
O O7 0.929387 0.727595 0.118240
O O8 0.418541 0.880101 0.075407
O O9 0.500000 0.500000 0.000000
O O10 0.373925 0.405141 0.659860
O O11 0.674155 0.708120 0.830638
O O12 0.914851 0.378598 0.680457
O O13 0.093333 0.743703 0.495313
O O14 0.500000 0.500000 0.500000
O O15 0.000000 0.500000 0.500000
O O16 0.500000 0.000000 0.000000
#
# Coordination Sequence:
#
# PCOD9085696 Si02
#       7
#     2   2   2   2   2   2   2
#     4   9  21  39  60  88 119 156 199 243 295 358
#     4  11  23  40  60  85 121 161 194 245 303 354
#     4  11  23  41  60  85 117 161 207 246 293 355
#     4  11  22  39  59  88 122 155 195 247 296 348
#     4  10  20  38  61  88 116 153 199 245 291 347
#     4  10  19  35  62  90 117 154 198 244 293 353
#     4  10  21  38  61  88 117 154 198 246 294 349
#
# _framework density 22.558378999999999
#
# number of rings (size 3 to 8) (size 9 to 14) (size 15 to 20)
#    0.000    1.714    0.000    5.571    0.000    5.714 
#    0.000    7.857    0.000    0.000    0.000    0.000 
#    0.000    0.000    0.000    0.000    0.000    0.000 
#
# Total GULP energy -78027.267636 kJ/mol
# GULP energy per Si atom -5573.376260 kJ/mol
# Density = 2.250704 g / cm^3
# Si number density = 22.558379 Si / 1000 Ang^3
#
#
#
# Elastic Constant Matrix: (Units=GPa)
#
#
# Indices 1 2 3 4 5 6 
#
# 1 58.2715 -22.4586 12.4461 4.3467 -4.4479 5.0128
# 2 -22.4586 118.3374 6.5442 -14.2332 -0.9284 14.5293
# 3 12.4461 6.5442 76.5775 -45.9271 -6.6078 2.5897
# 4 4.3467 -14.2332 -45.9271 17.2162 9.8060 -7.2130
# 5 -4.4479 -0.9284 -6.6078 9.8060 32.9512 -7.1323
# 6 5.0128 14.5293 2.5897 -7.2130 -7.1323 32.4032
#
#
#
# Elastic Compliance Matrix: (Units=1/GPa)
#
#
# Indices 1 2 3 4 5 6 
#
# 1 0.016834 0.004930 0.005686 0.014812 -0.001347 -0.002269
# 2 0.004930 0.010004 -0.002400 -0.001510 -0.000265 -0.005451
# 3 0.005686 -0.002400 -0.011043 -0.040660 0.009303 -0.005924
# 4 0.014812 -0.001510 -0.040660 -0.066208 0.011204 -0.010637
# 5 -0.001347 -0.000265 0.009303 0.011204 0.030598 0.008812
# 6 -0.002269 -0.005451 -0.005924 -0.010637 0.008812 0.033702
#
#
# Mechanical properties :
#
#
# Convention : Reuss Voigt Hill
#
# Bulk Modulus (GPa) = 31.02968 27.36111 29.19539
# Shear Modulus (GPa) = 609.98879 33.62441 321.80660
#
# Velocity S-wave (km/s) = 16.46182 3.86495 11.95679
# Velocity P-wave (km/s) = 19.36768 5.66326 14.26849
#
# Compressibility (1/GPa) = 0.03222721
#
# Stress axis : x y z
#
# Youngs Moduli (GPa) = 59.40369 99.95656 -90.55530
#
# Poissons Ratio (x) = -0.49277 0.51493
# Poissons Ratio (y) = -0.29285 -0.21735
# Poissons Ratio (z) = -0.33779 0.23992
#
# Static dielectric constant tensor:
#      x y z
#    x 1.878730 -0.015850 0.003520 
#    y -0.015850 1.870850 0.050850 
#    z 0.003520 0.050850 2.015330 
# 
# From -- ./inp_files/43751.got.cif
#   From: 2010.05.17/outbox.cif.g08.bks.cpg/sg2_22_cif.got.tgz:43751.got - 2010.06.03 11:33:40.
