data_PCOD9085800
_publ_section_title
;
Structure prediction by ZEFSAII (Michael W. Deem and Ramdas Pophale) SiO2 
 PCOD9085800
Probable space group: P -1
;
_chemical_formula_sum "Si O2"
_cell_formula_units_Z 16
_cell_length_a 15.163255
_cell_length_b 8.986719
_cell_length_c 8.992900
_cell_angle_alpha 55.394161
_cell_angle_beta 47.020305
_cell_angle_gamma 62.366251
_cell_volume 731.912641
_symmetry_space_group_name_H-M "P -1"
_symmetry_group_IT_number 2
_symmetry_cell_setting 'triclinic'
loop_
_space_group_symop_operation_xyz
x,y,z
-x,-y,-z
loop_
_atom_site_type_symbol
_atom_site_label
_atom_site_fract_x
_atom_site_fract_y
_atom_site_fract_z
Si Si1 0.443479 0.697674 0.499432
Si Si2 0.110564 0.612514 0.266078
Si Si3 0.727410 0.692846 0.593060
Si Si4 0.035380 0.194395 0.909566
Si Si5 0.410850 0.005579 0.953392
Si Si6 0.982140 0.013912 0.687533
Si Si7 0.478667 0.802847 0.703788
Si Si8 0.738369 0.017694 0.602829
O O1 0.500000 0.500000 0.500000
O O2 0.552376 0.819975 0.272777
O O3 0.406343 0.717431 0.704258
O O4 0.330582 0.788685 0.478964
O O5 0.227906 0.479668 0.257473
O O6 0.000000 0.500000 0.500000
O O7 0.078202 0.667565 0.101183
O O8 0.094563 0.799167 0.274163
O O9 0.841199 0.744933 0.335727
O O10 0.607867 0.678063 0.643470
O O11 0.685785 0.865824 0.648880
O O12 0.056494 0.157626 0.080764
O O13 0.000000 0.000000 0.000000
O O14 0.422662 0.845816 0.907237
O O15 0.500000 0.000000 0.000000
O O16 0.283618 0.015091 0.179392
O O17 0.121521 0.013014 0.578542
O O18 0.000000 0.000000 0.500000
O O19 0.500000 0.000000 0.500000
#
# Coordination Sequence:
#
# PCOD9085800 Si02
#       8
#     2   2   2   2   2   2   2   2
#     4  10  22  40  58  88 124 150 204 264 301 359
#     4   9  18  36  60  82 111 154 208 240 283 372
#     4  11  18  35  67  87 116 162 209 248 297 364
#     4   9  18  36  59  86 117 156 199 241 302 358
#     4   9  18  36  60  83 112 160 201 236 294 373
#     4  11  23  39  58  90 126 154 196 258 308 357
#     4  10  19  35  63  89 116 160 206 243 301 375
#     4  11  20  39  61  78 123 167 192 242 317 356
#
# _framework density 21.860531999999999
#
# number of rings (size 3 to 8) (size 9 to 14) (size 15 to 20)
#    0.000    2.000    7.500    0.000    0.000    3.000 
#    2.250    5.000    0.000    0.000    0.000    0.000 
#    0.000    0.000    0.000    0.000    0.000    0.000 
#
# Total GULP energy -89132.023400 kJ/mol
# GULP energy per Si atom -5570.751462 kJ/mol
# Density = 2.181078 g / cm^3
# Si number density = 21.860532 Si / 1000 Ang^3
#
#
#
# Elastic Constant Matrix: (Units=GPa)
#
#
# Indices 1 2 3 4 5 6 
#
# 1 35.1650 11.7585 17.5917 -6.1969 20.5574 -9.3088
# 2 11.7585 87.3338 15.7960 -9.0066 21.0967 -14.5080
# 3 17.5917 15.7960 120.1183 7.9960 29.5582 3.4311
# 4 -6.1969 -9.0066 7.9960 30.0564 -2.6591 12.2146
# 5 20.5574 21.0967 29.5582 -2.6591 41.0815 2.4746
# 6 -9.3088 -14.5080 3.4311 12.2146 2.4746 34.3897
#
#
#
# Elastic Compliance Matrix: (Units=1/GPa)
#
#
# Indices 1 2 3 4 5 6 
#
# 1 0.047101 0.002606 -0.001882 0.002843 -0.024260 0.014773
# 2 0.002606 0.014630 -0.000421 0.001379 -0.008850 0.007067
# 3 -0.001882 -0.000421 0.010569 -0.003983 -0.006713 0.000156
# 4 0.002843 0.001379 -0.003983 0.041034 0.004182 -0.013127
# 5 -0.024260 -0.008850 -0.006713 0.004182 0.047001 -0.014498
# 6 0.014773 0.007067 0.000156 -0.013127 -0.014498 0.041749
#
#
# Mechanical properties :
#
#
# Convention : Reuss Voigt Hill
#
# Bulk Modulus (GPa) = 13.71648 36.98996 25.35322
# Shear Modulus (GPa) = 22.14545 34.27024 28.20784
#
# Velocity S-wave (km/s) = 3.18627 3.96368 3.59605
# Velocity P-wave (km/s) = 4.45248 6.15673 5.37261
#
# Compressibility (1/GPa) = 0.07290501
#
# Stress axis : x y z
#
# Youngs Moduli (GPa) = 21.23079 68.35467 94.61730
#
# Poissons Ratio (x) = -0.17815 0.17811
# Poissons Ratio (y) = -0.05533 0.03987
# Poissons Ratio (z) = 0.03997 0.02880
#
# Static dielectric constant tensor:
#      x y z
#    x 1.929750 -0.026710 -0.030850 
#    y -0.026710 1.810000 0.026690 
#    z -0.030850 0.026690 1.907860 
# 
# From -- ./inp_files/328543.got.cif
#   From: 2010.05.17/outbox.cif.g08.bks.cpg/sg2_165_cif.got.tgz:328543.got - 2010.06.03 11:33:40.
