data_PCOD9085052
_publ_section_title
;
Structure prediction by ZEFSAII (Michael W. Deem and Ramdas Pophale) SiO2 
 PCOD9085052
Probable space group: P -1
;
_chemical_formula_sum "Si O2"
_cell_formula_units_Z 16
_cell_length_a 9.472331
_cell_length_b 16.005067
_cell_length_c 8.684502
_cell_angle_alpha 138.283480
_cell_angle_beta 112.154777
_cell_angle_gamma 91.884002
_cell_volume 697.951290
_symmetry_space_group_name_H-M "P -1"
_symmetry_group_IT_number 2
_symmetry_cell_setting 'triclinic'
loop_
_space_group_symop_operation_xyz
x,y,z
-x,-y,-z
loop_
_atom_site_type_symbol
_atom_site_label
_atom_site_fract_x
_atom_site_fract_y
_atom_site_fract_z
Si Si1 0.244101 0.127869 0.415117
Si Si2 0.147447 0.169360 0.769367
Si Si3 0.010846 0.203581 0.210610
Si Si4 0.847327 0.228766 0.701043
Si Si5 0.834269 0.512280 0.507562
Si Si6 0.211062 0.692800 0.529441
Si Si7 0.597500 0.241802 0.850706
Si Si8 0.420956 0.108435 0.908507
O O1 0.214282 0.181624 0.639998
O O2 0.454150 0.197215 0.595092
O O3 0.152923 0.174868 0.314399
O O4 0.140698 0.952216 0.130476
O O5 0.310474 0.192847 0.974860
O O6 0.039059 0.251495 0.841578
O O7 0.000000 0.000000 0.500000
O O8 0.914774 0.259285 0.366582
O O9 0.113455 0.325688 0.292335
O O10 0.842400 0.327487 0.698092
O O11 0.763145 0.243895 0.843902
O O12 0.719726 0.061452 0.360544
O O13 0.800517 0.442470 0.567350
O O14 0.000000 0.500000 0.500000
O O15 0.669376 0.398186 0.176225
O O16 0.415211 0.820907 0.811849
O O17 0.507105 0.130248 0.802486
#
# Coordination Sequence:
#
# PCOD9085052 Si02
#       8
#     2   2   2   2   2   2   2   2
#     4  10  20  37  62  93 113 149 210 247 290 349
#     4   9  19  33  52  86 122 151 186 247 305 345
#     4  10  20  37  62  88 118 157 199 251 292 355
#     4  11  19  33  59  89 123 151 198 252 296 346
#     4   9  21  39  59  85 119 163 200 239 297 364
#     4  10  19  35  58  86 120 157 197 241 304 349
#     4  10  21  37  60  89 119 159 202 240 295 365
#     4   9  19  33  54  85 122 157 198 243 299 352
#
# _framework density 22.924236000000001
#
# number of rings (size 3 to 8) (size 9 to 14) (size 15 to 20)
#    0.000    2.250    1.250    1.500    0.000    8.500 
#    2.250    2.500    2.750    0.750    0.000    0.000 
#    0.000    0.000    0.000    0.000    0.000    0.000 
#
# Total GULP energy -89426.130952 kJ/mol
# GULP energy per Si atom -5589.133184 kJ/mol
# Density = 2.287206 g / cm^3
# Si number density = 22.924236 Si / 1000 Ang^3
#
#
#
# Elastic Constant Matrix: (Units=GPa)
#
#
# Indices 1 2 3 4 5 6 
#
# 1 77.4807 19.6899 4.5508 -5.4642 -0.1502 -14.0089
# 2 19.6899 131.5676 51.7553 6.5856 9.2065 -16.2363
# 3 4.5508 51.7553 77.7089 8.0929 15.9854 -16.1355
# 4 -5.4642 6.5856 8.0929 33.4356 -2.2043 6.5195
# 5 -0.1502 9.2065 15.9854 -2.2043 18.9420 -3.2432
# 6 -14.0089 -16.2363 -16.1355 6.5195 -3.2432 26.2840
#
#
#
# Elastic Compliance Matrix: (Units=1/GPa)
#
#
# Indices 1 2 3 4 5 6 
#
# 1 0.014774 -0.002104 0.001788 0.000992 0.001040 0.007554
# 2 -0.002104 0.010784 -0.006677 -0.001166 0.000549 0.001798
# 3 0.001788 -0.006677 0.023461 -0.007260 -0.015480 0.011121
# 4 0.000992 -0.001166 -0.007260 0.035021 0.008677 -0.012264
# 5 0.001040 0.000549 -0.015480 0.008677 0.066163 -0.002598
# 6 0.007554 0.001798 0.011121 -0.012264 -0.002598 0.052731
#
#
# Mechanical properties :
#
#
# Convention : Reuss Voigt Hill
#
# Bulk Modulus (GPa) = 28.54655 48.74993 38.64824
# Shear Modulus (GPa) = 21.87239 29.78307 25.82773
#
# Velocity S-wave (km/s) = 3.09223 3.60835 3.36021
# Velocity P-wave (km/s) = 5.02282 6.21869 5.65247
#
# Compressibility (1/GPa) = 0.03503051
#
# Stress axis : x y z
#
# Youngs Moduli (GPa) = 67.68638 92.72906 42.62451
#
# Poissons Ratio (x) = 0.19514 -0.07620
# Poissons Ratio (y) = 0.14244 0.28462
# Poissons Ratio (z) = -0.12100 0.61918
#
# Static dielectric constant tensor:
#      x y z
#    x 1.919390 -0.006290 -0.024040 
#    y -0.006290 1.862710 0.004100 
#    z -0.024040 0.004100 1.884320 
# 
# From -- ./inp_files/204448.got.cif
#   From: 2010.05.17/outbox.cif.g08.bks.cpg/sg2_103_cif.got.tgz:204448.got - 2010.06.03 11:33:40.
