data_PCOD9085618
_publ_section_title
;
Structure prediction by ZEFSAII (Michael W. Deem and Ramdas Pophale) SiO2 
 PCOD9085618
Probable space group: P -1
;
_chemical_formula_sum "Si O2"
_cell_formula_units_Z 16
_cell_length_a 13.959874
_cell_length_b 16.834687
_cell_length_c 11.767660
_cell_angle_alpha 124.339852
_cell_angle_beta 35.578490
_cell_angle_gamma 148.897534
_cell_volume 746.315338
_symmetry_space_group_name_H-M "P -1"
_symmetry_group_IT_number 2
_symmetry_cell_setting 'triclinic'
loop_
_space_group_symop_operation_xyz
x,y,z
-x,-y,-z
loop_
_atom_site_type_symbol
_atom_site_label
_atom_site_fract_x
_atom_site_fract_y
_atom_site_fract_z
Si Si1 0.698457 0.305517 0.605752
Si Si2 0.308681 0.013115 0.928740
Si Si3 0.580619 0.455754 0.220933
Si Si4 0.458190 0.792893 0.916797
Si Si5 0.804338 0.870682 0.188977
Si Si6 0.495628 0.220012 0.391689
Si Si7 0.192124 0.430517 0.657386
Si Si8 0.861497 0.263363 0.208778
O O1 0.526419 0.186350 0.786381
O O2 0.508494 0.287854 0.698041
O O3 0.761470 0.244802 0.415170
O O4 0.000000 0.500000 0.500000
O O5 0.344605 0.919752 0.789035
O O6 0.346546 0.057391 0.058807
O O7 0.987320 0.876769 0.077145
O O8 0.531124 0.316635 0.155094
O O9 0.295422 0.385986 0.452767
O O10 0.768415 0.570972 0.247381
O O11 0.791392 0.583026 0.015102
O O12 0.566469 0.851199 0.729436
O O13 0.130542 0.681675 0.146013
O O14 0.747385 0.914060 0.385463
O O15 0.000000 0.000000 0.000000
O O16 0.570388 0.369497 0.431944
O O17 0.789982 0.317402 0.237837
#
# Coordination Sequence:
#
# PCOD9085618 Si02
#       8
#     2   2   2   2   2   2   2   2
#     4  10  22  42  70  87 116 169 224 271 317 380
#     4  11  24  39  60  95 132 168 208 265 329 387
#     4  10  19  36  62  89 124 175 217 261 317 370
#     4  11  21  39  61  94 135 166 224 259 308 395
#     4   9  21  41  61  88 126 163 206 266 327 372
#     4  10  19  37  64  89 127 179 207 266 324 368
#     4  10  19  35  61  93 128 166 219 269 309 371
#     4  11  20  38  62  89 129 169 211 260 333 383
#
# _framework density 21.438659000000001
#
# number of rings (size 3 to 8) (size 9 to 14) (size 15 to 20)
#    0.000    1.750    2.500    2.625    1.750    1.000 
#    4.500    0.625    0.000    0.000    0.000    0.000 
#    0.000    0.000    0.000    0.000    0.000    0.000 
#
# Total GULP energy -89188.688278 kJ/mol
# GULP energy per Si atom -5574.293017 kJ/mol
# Density = 2.138986 g / cm^3
# Si number density = 21.438659 Si / 1000 Ang^3
#
#
#
# Elastic Constant Matrix: (Units=GPa)
#
#
# Indices 1 2 3 4 5 6 
#
# 1 75.8141 25.2897 41.1226 3.4285 2.6852 16.3580
# 2 25.2897 63.3650 18.2632 12.5703 -6.6983 12.3623
# 3 41.1226 18.2632 110.6353 10.9938 5.8743 -1.9491
# 4 3.4285 12.5703 10.9938 26.9514 -1.3304 0.3312
# 5 2.6852 -6.6983 5.8743 -1.3304 40.1553 11.1278
# 6 16.3580 12.3623 -1.9491 0.3312 11.1278 17.6104
#
#
#
# Elastic Compliance Matrix: (Units=1/GPa)
#
#
# Indices 1 2 3 4 5 6 
#
# 1 0.024762 -0.001125 -0.010133 0.002224 0.007504 -0.028117
# 2 -0.001125 0.024914 -0.003795 -0.009093 0.011045 -0.023673
# 3 -0.010133 -0.003795 0.014482 -0.003432 -0.007269 0.018337
# 4 0.002224 -0.009093 -0.003432 0.042380 -0.000763 0.003623
# 5 0.007504 0.011045 -0.007269 -0.000763 0.038286 -0.039707
# 6 -0.028117 -0.023673 0.018337 0.003623 -0.039707 0.126572
#
#
# Mechanical properties :
#
#
# Convention : Reuss Voigt Hill
#
# Bulk Modulus (GPa) = 29.36585 46.57390 37.96987
# Shear Modulus (GPa) = 15.98207 27.95267 21.96737
#
# Velocity S-wave (km/s) = 2.73331 3.61480 3.20451
# Velocity P-wave (km/s) = 4.86710 6.26049 5.60725
#
# Compressibility (1/GPa) = 0.03405316
#
# Stress axis : x y z
#
# Youngs Moduli (GPa) = 40.38481 40.13771 69.05332
#
# Poissons Ratio (x) = 0.04514 0.69971
# Poissons Ratio (y) = 0.04542 0.26203
# Poissons Ratio (z) = 0.40922 0.15231
#
# Static dielectric constant tensor:
#      x y z
#    x 1.819960 -0.041220 -0.054610 
#    y -0.041220 1.744400 0.013330 
#    z -0.054610 0.013330 1.896490 
# 
# From -- ./inp_files/327869.got.cif
#   From: 2010.05.17/outbox.cif.g08.bks.cpg/sg2_164_cif.got.tgz:327869.got - 2010.06.03 11:33:40.
