data_PCOD9085024
_publ_section_title
;
Structure prediction by ZEFSAII (Michael W. Deem and Ramdas Pophale) SiO2 
 PCOD9085024
Probable space group: P -1
;
_chemical_formula_sum "Si O2"
_cell_formula_units_Z 16
_cell_length_a 15.715931
_cell_length_b 8.721350
_cell_length_c 7.460693
_cell_angle_alpha 128.648610
_cell_angle_beta 82.596633
_cell_angle_gamma 76.611028
_cell_volume 724.854700
_symmetry_space_group_name_H-M "P -1"
_symmetry_group_IT_number 2
_symmetry_cell_setting 'triclinic'
loop_
_space_group_symop_operation_xyz
x,y,z
-x,-y,-z
loop_
_atom_site_type_symbol
_atom_site_label
_atom_site_fract_x
_atom_site_fract_y
_atom_site_fract_z
Si Si1 0.760972 0.622883 0.033646
Si Si2 0.534363 0.522439 0.708997
Si Si3 0.889912 0.497885 0.386509
Si Si4 0.940857 0.253234 0.865085
Si Si5 0.141295 0.062278 0.731361
Si Si6 0.541127 0.760442 0.231597
Si Si7 0.251230 0.581792 0.448869
Si Si8 0.929932 0.852915 0.776700
O O1 0.847683 0.398681 0.892626
O O2 0.755383 0.606348 0.808822
O O3 0.793588 0.808500 0.221312
O O4 0.655330 0.662951 0.149572
O O5 0.500000 0.500000 0.500000
O O6 0.501962 0.371258 0.730332
O O7 0.644056 0.445084 0.586824
O O8 0.515923 0.725607 0.003277
O O9 0.799278 0.442820 0.374826
O O10 0.871608 0.738230 0.611792
O O11 0.963200 0.330420 0.384418
O O12 0.942620 0.430451 0.136465
O O13 0.048493 0.138976 0.687143
O O14 0.926348 0.065941 0.842148
O O15 0.198863 0.809559 0.533295
O O16 0.104060 0.103603 0.977753
O O17 0.500000 0.000000 0.500000
#
# Coordination Sequence:
#
# PCOD9085024 Si02
#       8
#     2   2   2   2   2   2   2   2
#     4  11  25  38  60  91 126 162 208 262 322 383
#     4  10  24  43  72 100 128 167 220 283 339 396
#     4  10  19  35  59  82 121 168 207 254 300 369
#     4  11  22  36  56  92 126 163 208 258 300 371
#     4  11  20  37  59  87 125 171 204 245 310 384
#     4  10  23  48  69  95 136 171 215 280 344 398
#     4  11  21  39  63  88 122 164 209 256 324 387
#     4  10  19  35  58  84 122 168 213 249 302 363
#
# _framework density 22.073388999999999
#
# number of rings (size 3 to 8) (size 9 to 14) (size 15 to 20)
#    0.000    1.500    3.750    1.875    1.750    2.000 
#    0.000    1.250    0.000    0.000    0.000    0.000 
#    0.000    0.000    0.000    0.000    0.000    0.000 
#
# Total GULP energy -89149.830128 kJ/mol
# GULP energy per Si atom -5571.864383 kJ/mol
# Density = 2.202315 g / cm^3
# Si number density = 22.073389 Si / 1000 Ang^3
#
#
#
# Elastic Constant Matrix: (Units=GPa)
#
#
# Indices 1 2 3 4 5 6 
#
# 1 137.8388 29.6108 42.0140 -1.4318 4.8058 3.0915
# 2 29.6108 44.8886 17.2182 -3.1481 14.4616 4.8694
# 3 42.0140 17.2182 107.3352 -1.2853 23.1607 -13.4469
# 4 -1.4318 -3.1481 -1.2853 29.0909 6.8184 4.6553
# 5 4.8058 14.4616 23.1607 6.8184 33.3090 -0.1907
# 6 3.0915 4.8694 -13.4469 4.6553 -0.1907 34.7778
#
#
#
# Elastic Compliance Matrix: (Units=1/GPa)
#
#
# Indices 1 2 3 4 5 6 
#
# 1 0.009627 -0.006157 -0.003864 -0.001137 0.004196 -0.001312
# 2 -0.006157 0.032140 -0.000168 0.007377 -0.014488 -0.005085
# 3 -0.003864 -0.000168 0.013498 0.001662 -0.009065 0.005314
# 4 -0.001137 0.007377 0.001662 0.038941 -0.012198 -0.005569
# 5 0.004196 -0.014488 -0.009065 -0.012198 0.044507 0.000027
# 6 -0.001312 -0.005085 0.005314 -0.005569 0.000027 0.032383
#
#
# Mechanical properties :
#
#
# Convention : Reuss Voigt Hill
#
# Bulk Modulus (GPa) = 28.66509 51.97207 40.31858
# Shear Modulus (GPa) = 24.61823 32.85018 28.73421
#
# Velocity S-wave (km/s) = 3.34322 3.86194 3.61190
# Velocity P-wave (km/s) = 5.28368 6.59411 5.97493
#
# Compressibility (1/GPa) = 0.03488564
#
# Stress axis : x y z
#
# Youngs Moduli (GPa) = 103.87832 31.11389 74.08749
#
# Poissons Ratio (x) = 0.19158 0.28627
# Poissons Ratio (y) = 0.63962 0.01245
# Poissons Ratio (z) = 0.40138 0.00523
#
# Static dielectric constant tensor:
#      x y z
#    x 1.843980 -0.035160 0.030810 
#    y -0.035160 1.840110 -0.054050 
#    z 0.030810 -0.054050 1.881000 
# 
# From -- ./inp_files/296750.got.cif
#   From: 2010.05.17/outbox.cif.g08.bks.cpg/sg2_149_cif.got.tgz:296750.got - 2010.06.03 11:33:40.
