data_PCOD9085185
_publ_section_title
;
Structure prediction by ZEFSAII (Michael W. Deem and Ramdas Pophale) SiO2 
 PCOD9085185
Probable space group: P -1
;
_chemical_formula_sum "Si O2"
_cell_formula_units_Z 12
_cell_length_a 9.391559
_cell_length_b 11.363673
_cell_length_c 10.119067
_cell_angle_alpha 83.066222
_cell_angle_beta 111.495929
_cell_angle_gamma 38.557726
_cell_volume 445.887161
_symmetry_space_group_name_H-M "P -1"
_symmetry_group_IT_number 2
_symmetry_cell_setting 'triclinic'
loop_
_space_group_symop_operation_xyz
x,y,z
-x,-y,-z
loop_
_atom_site_type_symbol
_atom_site_label
_atom_site_fract_x
_atom_site_fract_y
_atom_site_fract_z
Si Si1 0.729249 0.845738 0.417122
Si Si2 0.286954 0.385556 0.442448
Si Si3 0.464299 0.726304 0.932276
Si Si4 0.810426 0.180919 0.780725
Si Si5 0.233127 0.234336 0.987311
Si Si6 0.242729 0.662417 0.696835
O O1 0.727287 0.746725 0.540440
O O2 0.018782 0.608704 0.438258
O O3 0.861139 0.883220 0.501916
O O4 0.366285 0.087275 0.187902
O O5 0.646423 0.189316 0.637370
O O6 0.134191 0.533688 0.231896
O O7 0.707111 0.666408 0.989265
O O8 0.325205 0.731940 0.775674
O O9 0.630764 0.526059 0.128664
O O10 0.117606 0.028053 0.828409
O O11 0.490347 0.478294 0.679501
O O12 0.000000 0.000000 0.000000
O O13 0.500000 0.000000 0.000000
#
# Coordination Sequence:
#
# PCOD9085185 Si02
#       6
#     2   2   2   2   2   2
#     4   9  17  31  57  80 109 157 186 229 286 339
#     4   9  17  34  54  80 116 146 192 233 281 342
#     4  10  19  35  59  85 113 148 195 232 284 344
#     4   9  19  33  60  85 109 152 190 235 286 336
#     4  10  20  32  58  85 111 154 192 230 286 343
#     4   9  18  35  58  84 113 150 189 236 286 333
#
# _framework density 26.91264
#
# number of rings (size 3 to 8) (size 9 to 14) (size 15 to 20)
#    0.000    2.667    1.667    0.000    7.000    0.667 
#    0.000    8.333    0.000    2.000    0.000    0.000 
#    0.000    0.000    0.000    0.000    0.000    0.000 
#
# Total GULP energy -67200.634819 kJ/mol
# GULP energy per Si atom -5600.052902 kJ/mol
# Density = 2.685139 g / cm^3
# Si number density = 26.912640 Si / 1000 Ang^3
#
#
#
# Elastic Constant Matrix: (Units=GPa)
#
#
# Indices 1 2 3 4 5 6 
#
# 1 89.3465 14.2936 35.2572 3.6580 18.7783 18.5448
# 2 14.2936 82.4888 5.9218 10.3367 8.8399 6.7583
# 3 35.2572 5.9218 198.8456 10.4859 17.6747 8.1176
# 4 3.6580 10.3367 10.4859 33.9213 7.4948 14.3554
# 5 18.7783 8.8399 17.6747 7.4948 36.8313 0.4320
# 6 18.5448 6.7583 8.1176 14.3554 0.4320 36.8211
#
#
#
# Elastic Compliance Matrix: (Units=1/GPa)
#
#
# Indices 1 2 3 4 5 6 
#
# 1 0.015400 -0.001614 -0.001916 0.004795 -0.007417 -0.008820
# 2 -0.001614 0.013016 0.000242 -0.003358 -0.001730 -0.000300
# 3 -0.001916 0.000242 0.005554 -0.001362 -0.001472 0.000244
# 4 0.004795 -0.003358 -0.001362 0.039455 -0.008817 -0.016777
# 5 -0.007417 -0.001730 -0.001472 -0.008817 0.033761 0.007419
# 6 -0.008820 -0.000300 0.000244 -0.016777 0.007419 0.038055
#
#
# Mechanical properties :
#
#
# Convention : Reuss Voigt Hill
#
# Bulk Modulus (GPa) = 36.50591 53.51401 45.00996
# Shear Modulus (GPa) = 31.06556 42.52864 36.79710
#
# Velocity S-wave (km/s) = 3.40120 3.97955 3.70169
# Velocity P-wave (km/s) = 5.38686 6.40650 5.91868
#
# Compressibility (1/GPa) = 0.02739283
#
# Stress axis : x y z
#
# Youngs Moduli (GPa) = 64.93573 76.82873 180.04180
#
# Poissons Ratio (x) = 0.12403 0.34496
# Poissons Ratio (y) = 0.10483 -0.04352
# Poissons Ratio (z) = 0.12442 -0.01857
#
# Static dielectric constant tensor:
#      x y z
#    x 1.999000 -0.029990 -0.004100 
#    y -0.029990 2.174610 -0.005270 
#    z -0.004100 -0.005270 2.142780 
# 
# From -- ./inp_files/147349.got.cif
#   From: 2010.05.17/outbox.cif.g08.bks.cpg/sg2_74_cif.got.tgz:147349.got - 2010.06.03 11:33:40.
