data_PCOD9085502
_publ_section_title
;
Structure prediction by ZEFSAII (Michael W. Deem and Ramdas Pophale) SiO2 
 PCOD9085502
Probable space group: P -1
;
_chemical_formula_sum "Si O2"
_cell_formula_units_Z 14
_cell_length_a 5.001277
_cell_length_b 15.986007
_cell_length_c 14.414925
_cell_angle_alpha 46.606550
_cell_angle_beta 90.257867
_cell_angle_gamma 63.320833
_cell_volume 655.630693
_symmetry_space_group_name_H-M "P -1"
_symmetry_group_IT_number 2
_symmetry_cell_setting 'triclinic'
loop_
_space_group_symop_operation_xyz
x,y,z
-x,-y,-z
loop_
_atom_site_type_symbol
_atom_site_label
_atom_site_fract_x
_atom_site_fract_y
_atom_site_fract_z
Si Si1 0.870258 0.800662 0.872120
Si Si2 0.008379 0.634433 0.413292
Si Si3 0.400043 0.711483 0.604192
Si Si4 0.191092 0.616749 0.842965
Si Si5 0.320838 0.147643 0.594446
Si Si6 0.610030 0.646079 0.071595
Si Si7 0.625705 0.443362 0.697835
O O1 0.891301 0.733809 0.822201
O O2 0.595251 0.974517 0.738187
O O3 0.773888 0.726742 0.001103
O O4 0.246100 0.745781 0.940928
O O5 0.335525 0.561715 0.535344
O O6 0.064418 0.670157 0.283400
O O7 0.000000 0.500000 0.500000
O O8 0.717125 0.769859 0.372367
O O9 0.303950 0.691541 0.720661
O O10 0.652337 0.547049 0.685619
O O11 0.043546 0.804383 0.475479
O O12 0.437141 0.208063 0.470708
O O13 0.155616 0.513752 0.856603
O O14 0.500000 0.500000 0.000000
O O15 0.516739 0.622147 0.190727
#
# Coordination Sequence:
#
# PCOD9085502 Si02
#       7
#     2   2   2   2   2   2   2
#     4  11  23  39  57  83 118 155 182 233 280 333
#     4  10  19  35  61  83 111 146 188 238 283 330
#     4  10  21  37  59  86 113 148 187 237 276 332
#     4   9  21  38  62  86 113 149 194 229 277 332
#     4  11  23  38  57  85 119 147 188 229 289 334
#     4  10  22  39  61  82 115 150 192 229 277 334
#     4   9  20  35  58  89 107 144 194 238 277 329
#
# _framework density 21.353486
#
# number of rings (size 3 to 8) (size 9 to 14) (size 15 to 20)
#    0.000    2.000    1.429    1.286    2.000   10.286 
#    0.000    1.429    0.000    0.000    0.000    0.000 
#    0.000    0.000    0.000    0.000    0.000    0.000 
#
# Total GULP energy -78216.347995 kJ/mol
# GULP energy per Si atom -5586.882000 kJ/mol
# Density = 2.130488 g / cm^3
# Si number density = 21.353486 Si / 1000 Ang^3
#
#
#
# Elastic Constant Matrix: (Units=GPa)
#
#
# Indices 1 2 3 4 5 6 
#
# 1 55.9923 7.6894 10.0802 -13.4780 -0.4680 2.6761
# 2 7.6894 124.8451 68.9702 -3.8041 -8.3084 -19.0353
# 3 10.0802 68.9702 106.3081 -15.6046 -14.1721 -15.1349
# 4 -13.4780 -3.8041 -15.6046 38.7343 -3.8353 0.5733
# 5 -0.4680 -8.3084 -14.1721 -3.8353 33.5872 4.5054
# 6 2.6761 -19.0353 -15.1349 0.5733 4.5054 20.4484
#
#
#
# Elastic Compliance Matrix: (Units=1/GPa)
#
#
# Indices 1 2 3 4 5 6 
#
# 1 0.020016 -0.001381 -0.000528 0.006798 0.001126 -0.004735
# 2 -0.001381 0.013549 -0.008236 -0.002711 -0.001402 0.007082
# 3 -0.000528 -0.008236 0.016951 0.006312 0.005347 0.003594
# 4 0.006798 -0.002711 0.006312 0.031041 0.005750 -0.000879
# 5 0.001126 -0.001402 0.005347 0.005750 0.033016 -0.004931
# 6 -0.004735 0.007082 0.003594 -0.000879 -0.004931 0.059887
#
#
# Mechanical properties :
#
#
# Convention : Reuss Voigt Hill
#
# Bulk Modulus (GPa) = 33.08390 51.18059 42.13225
# Shear Modulus (GPa) = 24.41094 31.91434 28.16264
#
# Velocity S-wave (km/s) = 3.38477 3.87016 3.63558
# Velocity P-wave (km/s) = 5.55001 6.63259 6.11530
#
# Compressibility (1/GPa) = 0.03022618
#
# Stress axis : x y z
#
# Youngs Moduli (GPa) = 49.95908 73.80752 58.99399
#
# Poissons Ratio (x) = 0.10192 0.03116
# Poissons Ratio (y) = 0.06899 0.48586
# Poissons Ratio (z) = 0.02639 0.60787
#
# Static dielectric constant tensor:
#      x y z
#    x 1.844410 0.001600 0.035860 
#    y 0.001600 1.831620 0.039960 
#    z 0.035860 0.039960 1.749190 
# 
# From -- ./inp_files/109864.got.cif
#   From: 2010.05.17/outbox.cif.g08.bks.cpg/sg2_55_cif.got.tgz:109864.got - 2010.06.03 11:33:40.
