data_PCOD9085786
_publ_section_title
;
Structure prediction by ZEFSAII (Michael W. Deem and Ramdas Pophale) SiO2 
 PCOD9085786
Probable space group: P -1
;
_chemical_formula_sum "Si O2"
_cell_formula_units_Z 16
_cell_length_a 14.356211
_cell_length_b 8.390398
_cell_length_c 12.628467
_cell_angle_alpha 113.830551
_cell_angle_beta 110.714860
_cell_angle_gamma 32.289273
_cell_volume 743.082895
_symmetry_space_group_name_H-M "P -1"
_symmetry_group_IT_number 2
_symmetry_cell_setting 'triclinic'
loop_
_space_group_symop_operation_xyz
x,y,z
-x,-y,-z
loop_
_atom_site_type_symbol
_atom_site_label
_atom_site_fract_x
_atom_site_fract_y
_atom_site_fract_z
Si Si1 0.633293 0.016417 0.948156
Si Si2 0.777337 0.104780 0.165886
Si Si3 0.792998 0.226390 0.675057
Si Si4 0.939184 0.735679 0.459106
Si Si5 0.121379 0.495442 0.246267
Si Si6 0.401566 0.771297 0.681135
Si Si7 0.024533 0.873967 0.862647
Si Si8 0.309940 0.249683 0.890539
O O1 0.737420 0.838606 0.834260
O O2 0.433781 0.239911 0.923450
O O3 0.711656 0.765582 0.998876
O O4 0.669124 0.153786 0.048213
O O5 0.666525 0.274643 0.274661
O O6 0.855008 0.171141 0.171428
O O7 0.944558 0.747326 0.172255
O O8 0.806457 0.412779 0.713434
O O9 0.595011 0.455249 0.636670
O O10 0.924397 0.936986 0.572263
O O11 0.851081 0.101060 0.785092
O O12 0.000000 0.500000 0.500000
O O13 0.066402 0.553058 0.360677
O O14 0.745307 0.989221 0.401548
O O15 0.404596 0.947413 0.796648
O O16 0.128280 0.548428 0.840651
O O17 0.000000 0.000000 0.000000
#
# Coordination Sequence:
#
# PCOD9085786 Si02
#       8
#     2   2   2   2   2   2   2   2
#     4  10  19  35  63  87 121 164 202 238 301 366
#     4   9  21  35  59  88 125 157 199 243 300 364
#     4  11  22  42  64  85 119 165 204 241 308 364
#     4  11  24  41  63  91 119 153 207 263 299 348
#     4  10  20  39  61  87 116 164 204 242 302 366
#     4  10  21  42  65  87 120 162 204 246 301 369
#     4  11  24  38  59  93 129 159 197 252 304 352
#     4  10  20  36  61  90 124 157 199 249 299 357
#
# _framework density 21.531915999999999
#
# number of rings (size 3 to 8) (size 9 to 14) (size 15 to 20)
#    0.000    1.750    1.250    3.375    3.500    3.500 
#    2.250    0.625    0.000    0.000    0.000    0.000 
#    0.000    0.000    0.000    0.000    0.000    0.000 
#
# Total GULP energy -89434.449095 kJ/mol
# GULP energy per Si atom -5589.653068 kJ/mol
# Density = 2.148291 g / cm^3
# Si number density = 21.531916 Si / 1000 Ang^3
#
#
#
# Elastic Constant Matrix: (Units=GPa)
#
#
# Indices 1 2 3 4 5 6 
#
# 1 46.9260 20.5542 10.2344 -8.6481 -7.9497 -12.7616
# 2 20.5542 64.0226 30.5701 -12.5163 -25.2363 -2.1030
# 3 10.2344 30.5701 101.7626 -4.9542 -12.9937 -4.8298
# 4 -8.6481 -12.5163 -4.9542 35.2271 0.0418 0.2301
# 5 -7.9497 -25.2363 -12.9937 0.0418 32.1495 -0.0529
# 6 -12.7616 -2.1030 -4.8298 0.2301 -0.0529 28.2868
#
#
#
# Elastic Compliance Matrix: (Units=1/GPa)
#
#
# Indices 1 2 3 4 5 6 
#
# 1 0.029053 -0.007740 0.000374 0.004351 0.001274 0.012563
# 2 -0.007740 0.029744 -0.005423 0.007897 0.019228 -0.002235
# 3 0.000374 -0.005423 0.011555 -0.000222 0.000509 0.001741
# 4 0.004351 0.007897 -0.000222 0.032207 0.007147 0.002264
# 5 0.001274 0.019228 0.000509 0.007147 0.046713 0.002121
# 6 0.012563 -0.002235 0.001741 0.002264 0.002121 0.041137
#
#
# Mechanical properties :
#
#
# Convention : Reuss Voigt Hill
#
# Bulk Modulus (GPa) = 22.33483 37.26986 29.80234
# Shear Modulus (GPa) = 21.65328 29.22283 25.43805
#
# Velocity S-wave (km/s) = 3.17462 3.68800 3.44090
# Velocity P-wave (km/s) = 4.88191 5.95666 5.44586
#
# Compressibility (1/GPa) = 0.04477313
#
# Stress axis : x y z
#
# Youngs Moduli (GPa) = 34.41964 33.62052 86.54161
#
# Poissons Ratio (x) = 0.26024 -0.03238
# Poissons Ratio (y) = 0.26642 0.46933
# Poissons Ratio (z) = -0.01288 0.18233
#
# Static dielectric constant tensor:
#      x y z
#    x 1.797570 -0.018650 0.012510 
#    y -0.018650 1.775710 0.006780 
#    z 0.012510 0.006780 1.800940 
# 
# From -- ./inp_files/177550.got.cif
#   From: 2010.05.17/outbox.cif.g08.bks.cpg/sg2_89_cif.got.tgz:177550.got - 2010.06.03 11:33:40.
