data_PCOD9085157
_publ_section_title
;
Structure prediction by ZEFSAII (Michael W. Deem and Ramdas Pophale) SiO2 
 PCOD9085157
Probable space group: P -1
;
_chemical_formula_sum "Si O2"
_cell_formula_units_Z 16
_cell_length_a 25.994078
_cell_length_b 11.047207
_cell_length_c 11.881028
_cell_angle_alpha 52.276401
_cell_angle_beta 25.393268
_cell_angle_gamma 35.609439
_cell_volume 742.112292
_symmetry_space_group_name_H-M "P -1"
_symmetry_group_IT_number 2
_symmetry_cell_setting 'triclinic'
loop_
_space_group_symop_operation_xyz
x,y,z
-x,-y,-z
loop_
_atom_site_type_symbol
_atom_site_label
_atom_site_fract_x
_atom_site_fract_y
_atom_site_fract_z
Si Si1 0.340052 0.157067 0.594592
Si Si2 0.121609 0.760666 0.825997
Si Si3 0.699086 0.613067 0.127872
Si Si4 0.376232 0.850201 0.995846
Si Si5 0.509975 0.633945 0.315176
Si Si6 0.537243 0.400414 0.827487
Si Si7 0.917211 0.646331 0.787906
Si Si8 0.832345 0.788681 0.318781
O O1 0.462113 0.192618 0.345177
O O2 0.209339 0.264001 0.682651
O O3 0.501613 0.874514 0.410670
O O4 0.217194 0.246612 0.896754
O O5 0.247428 0.563814 0.786033
O O6 0.258934 0.720281 0.499477
O O7 0.005929 0.739596 0.006027
O O8 0.000000 0.000000 0.000000
O O9 0.681053 0.563145 0.068255
O O10 0.853489 0.590814 0.849269
O O11 0.400652 0.658529 0.004902
O O12 0.434139 0.778783 0.052991
O O13 0.168034 0.113417 0.229323
O O14 0.500000 0.500000 0.500000
O O15 0.522445 0.568577 0.199982
O O16 0.337851 0.924482 0.489959
O O17 0.115695 0.389988 0.587529
#
# Coordination Sequence:
#
# PCOD9085157 Si02
#       8
#     2   2   2   2   2   2   2   2
#     4  10  19  35  59  84 111 148 197 240 272 335
#     4  11  18  34  57  85 117 142 185 240 286 335
#     4   9  18  31  54  83 104 143 194 231 282 318
#     4  10  22  39  60  82 116 159 190 228 290 340
#     4  11  20  34  57  86 114 144 194 240 279 335
#     4  11  22  37  60  84 119 153 192 231 284 356
#     4  10  19  35  59  83 115 146 195 241 276 340
#     4  10  21  33  59  90 109 141 195 243 291 316
#
# _framework density 21.560079000000002
#
# number of rings (size 3 to 8) (size 9 to 14) (size 15 to 20)
#    0.000    1.750    2.500    4.125    1.750    0.000 
#    0.000    6.250    5.500    2.250    0.000    0.000 
#    0.000    0.000    0.000    0.000    0.000    0.000 
#
# Total GULP energy -89148.625347 kJ/mol
# GULP energy per Si atom -5571.789084 kJ/mol
# Density = 2.151101 g / cm^3
# Si number density = 21.560079 Si / 1000 Ang^3
#
#
#
# Elastic Constant Matrix: (Units=GPa)
#
#
# Indices 1 2 3 4 5 6 
#
# 1 155.0169 32.1314 5.3095 6.6207 -10.8682 -21.1078
# 2 32.1314 141.1952 11.7726 22.5949 10.1330 -23.2994
# 3 5.3095 11.7726 11.2352 6.9797 0.1478 -9.8443
# 4 6.6207 22.5949 6.9797 20.0967 -6.4812 -3.5852
# 5 -10.8682 10.1330 0.1478 -6.4812 24.4509 4.3250
# 6 -21.1078 -23.2994 -9.8443 -3.5852 4.3250 28.6998
#
#
#
# Elastic Compliance Matrix: (Units=1/GPa)
#
#
# Indices 1 2 3 4 5 6 
#
# 1 0.007506 -0.001388 0.001568 0.000379 0.003207 0.004495
# 2 -0.001388 0.012644 0.010611 -0.019511 -0.013295 0.012450
# 3 0.001568 0.010611 0.186604 -0.076914 -0.037567 0.069828
# 4 0.000379 -0.019511 -0.076914 0.105875 0.043010 -0.035198
# 5 0.003207 -0.013295 -0.037567 0.043010 0.063988 -0.025591
# 6 0.004495 0.012450 0.069828 -0.035198 -0.025591 0.071668
#
#
# Mechanical properties :
#
#
# Convention : Reuss Voigt Hill
#
# Bulk Modulus (GPa) = 4.37947 45.09717 24.73832
# Shear Modulus (GPa) = 9.94402 31.86504 20.90453
#
# Velocity S-wave (km/s) = 2.14994 3.84860 3.11721
# Velocity P-wave (km/s) = 2.86334 6.38055 4.94520
#
# Compressibility (1/GPa) = 0.22833795
#
# Stress axis : x y z
#
# Youngs Moduli (GPa) = 133.23306 79.08649 5.35893
#
# Poissons Ratio (x) = 0.10976 -0.00840
# Poissons Ratio (y) = 0.18491 -0.05687
# Poissons Ratio (z) = -0.20895 -0.83922
#
# Static dielectric constant tensor:
#      x y z
#    x 1.792630 -0.012530 0.000940 
#    y -0.012530 1.737720 0.103970 
#    z 0.000940 0.103970 1.765380 
# 
# From -- ./inp_files/281403.got.cif
#   From: 2010.05.17/outbox.cif.g08.bks.cpg/sg2_141_cif.got.tgz:281403.got - 2010.06.03 11:33:40.
