data_PCOD9085994
_publ_section_title
;
Structure prediction by ZEFSAII (Michael W. Deem and Ramdas Pophale) SiO2 
 PCOD9085994
Probable space group: P -1
;
_chemical_formula_sum "Si O2"
_cell_formula_units_Z 16
_cell_length_a 7.906811
_cell_length_b 11.909797
_cell_length_c 13.868392
_cell_angle_alpha 117.886879
_cell_angle_beta 44.839200
_cell_angle_gamma 90.825955
_cell_volume 700.585440
_symmetry_space_group_name_H-M "P -1"
_symmetry_group_IT_number 2
_symmetry_cell_setting 'triclinic'
loop_
_space_group_symop_operation_xyz
x,y,z
-x,-y,-z
loop_
_atom_site_type_symbol
_atom_site_label
_atom_site_fract_x
_atom_site_fract_y
_atom_site_fract_z
Si Si1 0.517902 0.189516 0.131774
Si Si2 0.579815 0.350544 0.709219
Si Si3 0.922897 0.388032 0.433193
Si Si4 0.522576 0.668049 0.596428
Si Si5 0.598162 0.752873 0.093642
Si Si6 0.315213 0.660724 0.015215
Si Si7 0.900235 0.902488 0.942697
Si Si8 0.112242 0.421294 0.775175
O O1 0.446111 0.236738 0.291865
O O2 0.225572 0.265891 0.222557
O O3 0.684753 0.268346 0.058625
O O4 0.716492 0.015264 0.977974
O O5 0.825674 0.310986 0.519612
O O6 0.305870 0.420683 0.781769
O O7 0.563874 0.231488 0.734669
O O8 0.545959 0.485687 0.843827
O O9 0.662719 0.503541 0.519590
O O10 0.000000 0.500000 0.500000
O O11 0.704661 0.651192 0.422774
O O12 0.193246 0.755519 0.740617
O O13 0.706522 0.862729 0.068666
O O14 0.872651 0.589126 0.919903
O O15 0.402692 0.745265 0.088106
O O16 0.037855 0.665484 0.162140
O O17 0.000000 0.000000 0.000000
#
# Coordination Sequence:
#
# PCOD9085994 Si02
#       8
#     2   2   2   2   2   2   2   2
#     4  10  22  40  70  87 135 174 215 260 331 382
#     4  11  22  38  62 100 133 169 209 275 335 381
#     4  10  19  35  66  94 126 159 219 269 321 364
#     4  10  21  40  65  99 127 167 218 270 323 375
#     4  11  24  38  67  96 132 173 218 263 335 388
#     4  11  22  40  62  98 133 169 211 273 330 392
#     4  10  24  44  67  90 133 179 218 259 326 396
#     4  11  24  36  68  99 134 162 219 277 331 377
#
# _framework density 22.838042000000002
#
# number of rings (size 3 to 8) (size 9 to 14) (size 15 to 20)
#    0.000    1.500    2.500    4.500   10.500    3.500 
#    0.000    1.250    0.000    0.000    0.000    0.000 
#    0.000    0.000    0.000    0.000    0.000    0.000 
#
# Total GULP energy -89423.202756 kJ/mol
# GULP energy per Si atom -5588.950172 kJ/mol
# Density = 2.278606 g / cm^3
# Si number density = 22.838042 Si / 1000 Ang^3
#
#
#
# Elastic Constant Matrix: (Units=GPa)
#
#
# Indices 1 2 3 4 5 6 
#
# 1 79.5893 21.0727 14.8900 -0.9046 -16.8988 4.6229
# 2 21.0727 153.7086 62.4903 -29.7444 -20.7789 15.8540
# 3 14.8900 62.4903 101.4815 -26.3859 -13.3659 -6.2513
# 4 -0.9046 -29.7444 -26.3859 59.0396 -1.7941 -7.8128
# 5 -16.8988 -20.7789 -13.3659 -1.7941 40.1953 3.1211
# 6 4.6229 15.8540 -6.2513 -7.8128 3.1211 37.9323
#
#
#
# Elastic Compliance Matrix: (Units=1/GPa)
#
#
# Indices 1 2 3 4 5 6 
#
# 1 0.014245 -0.000586 -0.001385 -0.000842 0.005369 -0.002334
# 2 -0.000586 0.010247 -0.005480 0.002159 0.003711 -0.004975
# 3 -0.001385 -0.005480 0.015238 0.004846 0.001414 0.005852
# 4 -0.000842 0.002159 0.004846 0.020803 0.002988 0.004038
# 5 0.005369 0.003711 0.001414 0.002988 0.029954 -0.003821
# 6 -0.002334 -0.004975 0.005852 0.004038 -0.003821 0.030837
#
#
# Mechanical properties :
#
#
# Convention : Reuss Voigt Hill
#
# Bulk Modulus (GPa) = 40.27749 59.07613 49.67681
# Shear Modulus (GPa) = 34.60159 43.18855 38.89507
#
# Velocity S-wave (km/s) = 3.89663 4.35337 4.13132
# Velocity P-wave (km/s) = 6.15787 7.15491 6.67503
#
# Compressibility (1/GPa) = 0.02482776
#
# Stress axis : x y z
#
# Youngs Moduli (GPa) = 70.20130 97.59288 65.62407
#
# Poissons Ratio (x) = 0.05722 0.09086
# Poissons Ratio (y) = 0.04116 0.35963
# Poissons Ratio (z) = 0.09720 0.53482
#
# Static dielectric constant tensor:
#      x y z
#    x 1.959720 -0.014740 0.016840 
#    y -0.014740 1.857680 0.007680 
#    z 0.016840 0.007680 1.863020 
# 
# From -- ./inp_files/500516.got.cif
#   From: 2010.05.17/outbox.cif.g08.bks.cpg/sg2_251_cif.got.tgz:500516.got - 2010.06.03 11:33:40.
