data_PCOD9085556
_publ_section_title
;
Structure prediction by ZEFSAII (Michael W. Deem and Ramdas Pophale) SiO2 
 PCOD9085556
Probable space group: P -1
;
_chemical_formula_sum "Si O2"
_cell_formula_units_Z 14
_cell_length_a 25.822728
_cell_length_b 23.341206
_cell_length_c 6.423354
_cell_angle_alpha 119.823792
_cell_angle_beta 119.513684
_cell_angle_gamma 10.515965
_cell_volume 612.852996
_symmetry_space_group_name_H-M "P -1"
_symmetry_group_IT_number 2
_symmetry_cell_setting 'triclinic'
loop_
_space_group_symop_operation_xyz
x,y,z
-x,-y,-z
loop_
_atom_site_type_symbol
_atom_site_label
_atom_site_fract_x
_atom_site_fract_y
_atom_site_fract_z
Si Si1 0.888031 0.051458 0.115748
Si Si2 0.151773 0.223555 0.788061
Si Si3 0.259425 0.393328 0.000950
Si Si4 0.572203 0.194787 0.663535
Si Si5 0.170145 0.372785 0.491988
Si Si6 0.881882 0.326619 0.001847
Si Si7 0.659090 0.426215 0.224172
O O1 0.785977 0.236638 0.300015
O O2 0.614454 0.312748 0.945679
O O3 0.020865 0.854068 0.181125
O O4 0.114925 0.812229 0.946420
O O5 0.963445 0.474675 0.724367
O O6 0.330490 0.978431 0.558913
O O7 0.931716 0.421390 0.849273
O O8 0.404889 0.983839 0.983534
O O9 0.141859 0.475202 0.730281
O O10 0.218434 0.514749 0.087903
O O11 0.356305 0.417267 0.827741
O O12 0.437086 0.394803 0.596302
O O13 0.845606 0.933734 0.829082
O O14 0.000000 0.500000 0.500000
O O15 0.500000 0.000000 0.500000
#
# Coordination Sequence:
#
# PCOD9085556 Si02
#       7
#     2   2   2   2   2   2   2
#     4   8  14  25  46  80 115 155 207 254 299 356
#     4  12  26  43  69  98 130 166 209 259 313 376
#     4  12  26  43  69  98 130 166 209 259 313 376
#     4  10  19  35  61  87 124 168 209 257 310 364
#     4  12  28  48  72  96 129 164 205 258 316 380
#     4  10  19  35  61  87 124 168 209 257 310 364
#     4   8  14  25  46  80 115 155 207 254 299 356
#
# _framework density 22.843979999999998
#
# number of rings (size 3 to 8) (size 9 to 14) (size 15 to 20)
#    0.000    1.714    1.429    3.429    2.000    3.429 
#    0.000    0.000    0.000    1.714    0.000    0.000 
#    0.000    0.000    0.000    0.000    0.000    0.000 
#
# Total GULP energy -78197.156272 kJ/mol
# GULP energy per Si atom -5585.511162 kJ/mol
# Density = 2.279199 g / cm^3
# Si number density = 22.843980 Si / 1000 Ang^3
#
#
#
# Elastic Constant Matrix: (Units=GPa)
#
#
# Indices 1 2 3 4 5 6 
#
# 1 164.5996 85.2084 38.1409 -12.5137 -17.6225 6.7715
# 2 85.2084 154.4629 25.2671 -14.8473 -15.8593 -5.9036
# 3 38.1409 25.2671 36.9313 -15.5351 8.3283 8.7386
# 4 -12.5137 -14.8473 -15.5351 31.1109 3.5978 -3.3278
# 5 -17.6225 -15.8593 8.3283 3.5978 37.4202 -2.8065
# 6 6.7715 -5.9036 8.7386 -3.3278 -2.8065 70.1164
#
#
#
# Elastic Compliance Matrix: (Units=1/GPa)
#
#
# Indices 1 2 3 4 5 6 
#
# 1 0.011429 -0.003953 -0.012526 -0.004324 0.006925 0.000197
# 2 -0.003953 0.009641 -0.003008 0.001362 0.002894 0.001749
# 3 -0.012526 -0.003008 0.059389 0.025213 -0.023279 -0.006180
# 4 -0.004324 0.001362 0.025213 0.044868 -0.011455 -0.000939
# 5 0.006925 0.002894 -0.023279 -0.011455 0.037752 0.003444
# 6 0.000197 0.001749 -0.006180 -0.000939 0.003444 0.015254
#
#
# Mechanical properties :
#
#
# Convention : Reuss Voigt Hill
#
# Bulk Modulus (GPa) = 24.10434 72.58072 48.34253
# Shear Modulus (GPa) = 21.63250 41.55468 31.59359
#
# Velocity S-wave (km/s) = 3.08062 4.26968 3.72293
# Velocity P-wave (km/s) = 4.81957 7.49321 6.29986
#
# Compressibility (1/GPa) = 0.04148631
#
# Stress axis : x y z
#
# Youngs Moduli (GPa) = 87.50037 103.71885 16.83820
#
# Poissons Ratio (x) = 0.40996 0.21091
# Poissons Ratio (y) = 0.34585 0.05065
# Poissons Ratio (z) = 1.09599 0.31199
#
# Static dielectric constant tensor:
#      x y z
#    x 1.845420 0.085090 0.033890 
#    y 0.085090 1.838280 -0.012460 
#    z 0.033890 -0.012460 1.820770 
# 
# From -- ./inp_files/114070.got.cif
#   From: 2010.05.17/outbox.cif.g08.bks.cpg/sg2_58_cif.got.tgz:114070.got - 2010.06.03 11:33:40.
