data_PCOD9085649
_publ_section_title
;
Structure prediction by ZEFSAII (Michael W. Deem and Ramdas Pophale) SiO2 
 PCOD9085649
Probable space group: P -1
;
_chemical_formula_sum "Si O2"
_cell_formula_units_Z 16
_cell_length_a 5.614185
_cell_length_b 10.260624
_cell_length_c 12.708094
_cell_angle_alpha 104.796739
_cell_angle_beta 62.931778
_cell_angle_gamma 84.335054
_cell_volume 610.293188
_symmetry_space_group_name_H-M "P -1"
_symmetry_group_IT_number 2
_symmetry_cell_setting 'triclinic'
loop_
_space_group_symop_operation_xyz
x,y,z
-x,-y,-z
loop_
_atom_site_type_symbol
_atom_site_label
_atom_site_fract_x
_atom_site_fract_y
_atom_site_fract_z
Si Si1 0.134082 0.329740 0.048075
Si Si2 0.050676 0.886802 0.106652
Si Si3 0.435334 0.169457 0.152849
Si Si4 0.117020 0.859019 0.688979
Si Si5 0.217393 0.859366 0.449247
Si Si6 0.170311 0.610778 0.511131
Si Si7 0.361309 0.691569 0.189172
Si Si8 0.542760 0.455849 0.250379
O O1 0.851911 0.443800 0.147147
O O2 0.238379 0.250187 0.116678
O O3 0.077545 0.213872 0.957132
O O4 0.385072 0.372374 0.951843
O O5 0.151219 0.797153 0.175143
O O6 0.846922 0.036065 0.205787
O O7 0.300236 0.909129 0.985712
O O8 0.224922 0.095405 0.240053
O O9 0.505383 0.298778 0.228621
O O10 0.307573 0.880197 0.555626
O O11 0.169783 0.691826 0.636772
O O12 0.051070 0.742318 0.485638
O O13 0.403492 0.791673 0.299609
O O14 0.000000 0.000000 0.500000
O O15 0.470051 0.541612 0.390082
O O16 0.000000 0.500000 0.500000
O O17 0.332072 0.552030 0.227704
#
# Coordination Sequence:
#
# PCOD9085649 Si02
#       8
#     2   2   2   2   2   2   2   2
#     4  10  23  35  54  84 120 153 193 232 282 344
#     4  10  21  37  58  85 113 153 191 236 286 343
#     4  10  21  37  58  85 113 153 191 236 286 343
#     4  10  19  35  62  82 116 145 196 239 289 347
#     4   9  17  32  61  86 113 151 188 239 290 347
#     4   9  17  32  61  86 113 151 188 239 290 347
#     4  10  19  36  60  85 116 148 190 237 292 343
#     4  10  19  36  60  85 116 148 190 237 292 343
#
# _framework density 26.216906000000002
#
# number of rings (size 3 to 8) (size 9 to 14) (size 15 to 20)
#    0.750    1.500    2.500    0.750    0.000    6.000 
#    0.000    2.500    0.000    0.000    0.000    0.000 
#    0.000    0.000    0.000    0.000    0.000    0.000 
#
# Total GULP energy -89126.090099 kJ/mol
# GULP energy per Si atom -5570.380631 kJ/mol
# Density = 2.615724 g / cm^3
# Si number density = 26.216906 Si / 1000 Ang^3
#
#
#
# Elastic Constant Matrix: (Units=GPa)
#
#
# Indices 1 2 3 4 5 6 
#
# 1 34.9056 8.6294 23.6505 8.8908 11.9148 -6.8712
# 2 8.6294 106.4456 23.2245 26.4914 -14.2529 -12.6805
# 3 23.6505 23.2245 208.7439 36.8466 20.6873 2.7433
# 4 8.8908 26.4914 36.8466 50.6871 3.9555 4.7681
# 5 11.9148 -14.2529 20.6873 3.9555 20.5565 3.5788
# 6 -6.8712 -12.6805 2.7433 4.7681 3.5788 23.5769
#
#
#
# Elastic Compliance Matrix: (Units=1/GPa)
#
#
# Indices 1 2 3 4 5 6 
#
# 1 0.045006 -0.004559 -0.001134 -0.003853 -0.030178 0.016157
# 2 -0.004559 0.014581 -0.001278 -0.007584 0.014452 0.006002
# 3 -0.001134 -0.001278 0.006200 -0.003165 -0.005822 -0.000215
# 4 -0.003853 -0.007584 -0.003165 0.027876 -0.003472 -0.009944
# 5 -0.030178 0.014452 -0.005822 -0.003472 0.084866 -0.012524
# 6 0.016157 0.006002 -0.000215 -0.009944 -0.012524 0.054289
#
#
# Mechanical properties :
#
#
# Convention : Reuss Voigt Hill
#
# Bulk Modulus (GPa) = 19.28777 51.23377 35.26077
# Shear Modulus (GPa) = 18.93653 38.60346 28.76999
#
# Velocity S-wave (km/s) = 2.69048 3.84143 3.31627
# Velocity P-wave (km/s) = 4.12608 6.26579 5.30494
#
# Compressibility (1/GPa) = 0.05184631
#
# Stress axis : x y z
#
# Youngs Moduli (GPa) = 22.21902 68.58457 161.29717
#
# Poissons Ratio (x) = 0.31264 0.18284
# Poissons Ratio (y) = 0.10129 0.20617
# Poissons Ratio (z) = 0.02519 0.08766
#
# Static dielectric constant tensor:
#      x y z
#    x 2.109340 -0.037940 0.093160 
#    y -0.037940 2.101410 -0.048820 
#    z 0.093160 -0.048820 2.053700 
# 
# From -- ./inp_files/482224.got.cif
#   From: 2010.05.17/outbox.cif.g08.bks.cpg/sg2_242_cif.got.tgz:482224.got - 2010.06.03 11:33:40.
