data_PCOD9085468
_publ_section_title
;
Structure prediction by ZEFSAII (Michael W. Deem and Ramdas Pophale) SiO2 
 PCOD9085468
Probable space group: P -1
;
_chemical_formula_sum "Si O2"
_cell_formula_units_Z 15
_cell_length_a 11.969777
_cell_length_b 12.500767
_cell_length_c 8.470757
_cell_angle_alpha 88.403022
_cell_angle_beta 125.521374
_cell_angle_gamma 133.359004
_cell_volume 584.303244
_symmetry_space_group_name_H-M "P -1"
_symmetry_group_IT_number 2
_symmetry_cell_setting 'triclinic'
loop_
_space_group_symop_operation_xyz
x,y,z
-x,-y,-z
loop_
_atom_site_type_symbol
_atom_site_label
_atom_site_fract_x
_atom_site_fract_y
_atom_site_fract_z
Si Si1 0.519863 0.666046 0.857542
Si Si2 0.209841 0.426007 0.165840
Si Si3 0.476543 0.151132 0.386350
Si Si4 0.213365 0.021029 0.715553
Si Si5 0.976514 0.119849 0.783683
Si Si6 0.500000 0.000000 0.000000
Si Si7 0.728483 0.208473 0.880322
Si Si8 0.283759 0.316703 0.524170
O O1 0.426648 0.701781 0.666573
O O2 0.360286 0.457665 0.709183
O O3 0.781788 0.793032 0.010543
O O4 0.586999 0.763244 0.075454
O O5 0.225657 0.341288 0.312805
O O6 0.489928 0.614904 0.335742
O O7 0.067649 0.297137 0.897487
O O8 0.014504 0.378784 0.086101
O O9 0.631761 0.225974 0.665804
O O10 0.222166 0.033936 0.242871
O O11 0.417098 0.997347 0.267103
O O12 0.151099 0.963102 0.485405
O O13 0.960230 0.889506 0.599678
O O14 0.284836 0.950829 0.844680
O O15 0.358016 0.824621 0.012900
#
# Coordination Sequence:
#
# PCOD9085468 Si02
#       8
#     2   2   2   2   2   1   2   2
#     4  11  23  40  62  94 130 165 213 265 311 375
#     4   9  19  38  61  89 124 160 209 261 304 369
#     4  10  19  35  60  93 121 162 216 257 309 371
#     4  12  23  41  66  94 128 174 206 258 321 378
#     4  10  21  36  64  96 126 165 214 261 316 373
#     4  12  20  38  68  90 124 174 206 254 318 380
#     4  10  19  35  64  90 121 164 213 255 309 380
#     4  10  22  41  66  92 128 166 209 264 319 367
#
# _framework density 25.671602
#
# number of rings (size 3 to 8) (size 9 to 14) (size 15 to 20)
#    0.000    1.600    4.000    1.600    0.000    4.267 
#    0.000    2.667    0.000    0.000    0.000    0.000 
#    0.000    0.000    0.000    0.000    0.000    0.000 
#
# Total GULP energy -83635.935552 kJ/mol
# GULP energy per Si atom -5575.729037 kJ/mol
# Density = 2.561317 g / cm^3
# Si number density = 25.671602 Si / 1000 Ang^3
#
#
#
# Elastic Constant Matrix: (Units=GPa)
#
#
# Indices 1 2 3 4 5 6 
#
# 1 63.2335 12.3406 26.6753 10.8844 13.8698 9.9648
# 2 12.3406 77.2344 34.3261 7.9812 4.1463 0.0662
# 3 26.6753 34.3261 114.5340 0.0165 0.2329 -3.2235
# 4 10.8844 7.9812 0.0165 42.3511 -11.4612 -6.1605
# 5 13.8698 4.1463 0.2329 -11.4612 42.2284 4.0280
# 6 9.9648 0.0662 -3.2235 -6.1605 4.0280 38.3499
#
#
#
# Elastic Compliance Matrix: (Units=1/GPa)
#
#
# Indices 1 2 3 4 5 6 
#
# 1 0.022930 0.000329 -0.005615 -0.009525 -0.009453 -0.006968
# 2 0.000329 0.015542 -0.004753 -0.003831 -0.002566 -0.000858
# 3 -0.005615 -0.004753 0.011532 0.003523 0.002947 0.002693
# 4 -0.009525 -0.003831 0.003523 0.030766 0.011211 0.006542
# 5 -0.009453 -0.002566 0.002947 0.011211 0.029934 0.001365
# 6 -0.006968 -0.000858 0.002693 0.006542 0.001365 0.029022
#
#
# Mechanical properties :
#
#
# Convention : Reuss Voigt Hill
#
# Bulk Modulus (GPa) = 33.41423 44.63175 39.02299
# Shear Modulus (GPa) = 29.45025 36.69652 33.07339
#
# Velocity S-wave (km/s) = 3.39070 3.78492 3.59322
# Velocity P-wave (km/s) = 5.32667 6.04353 5.69639
#
# Compressibility (1/GPa) = 0.02992737
#
# Stress axis : x y z
#
# Youngs Moduli (GPa) = 43.61178 64.34280 86.71171
#
# Poissons Ratio (x) = -0.02119 0.48685
# Poissons Ratio (y) = -0.01436 0.41214
# Poissons Ratio (z) = 0.24486 0.30582
#
# Static dielectric constant tensor:
#      x y z
#    x 2.181320 0.057250 -0.070300 
#    y 0.057250 2.110460 0.025550 
#    z -0.070300 0.025550 2.082290 
# 
# From -- ./inp_files/270527.got.cif
#   From: 2010.05.17/outbox.cif.g08.bks.cpg/sg2_136_cif.got.tgz:270527.got - 2010.06.03 11:33:40.
