data_PCOD9085479
_publ_section_title
;
Structure prediction by ZEFSAII (Michael W. Deem and Ramdas Pophale) SiO2 
 PCOD9085479
Probable space group: P -1
;
_chemical_formula_sum "Si O2"
_cell_formula_units_Z 16
_cell_length_a 26.046787
_cell_length_b 5.377362
_cell_length_c 13.484696
_cell_angle_alpha 105.817336
_cell_angle_beta 23.605533
_cell_angle_gamma 104.256364
_cell_volume 727.641865
_symmetry_space_group_name_H-M "P -1"
_symmetry_group_IT_number 2
_symmetry_cell_setting 'triclinic'
loop_
_space_group_symop_operation_xyz
x,y,z
-x,-y,-z
loop_
_atom_site_type_symbol
_atom_site_label
_atom_site_fract_x
_atom_site_fract_y
_atom_site_fract_z
Si Si1 0.597728 0.641224 0.769214
Si Si2 0.110204 0.353579 0.160592
Si Si3 0.116849 0.483375 0.713344
Si Si4 0.659420 0.933314 0.039603
Si Si5 0.928429 0.758058 0.558585
Si Si6 0.608503 0.104288 0.949823
Si Si7 0.636029 0.526481 0.212679
Si Si8 0.890528 0.108267 0.408810
O O1 0.736686 0.504090 0.500273
O O2 0.619941 0.917123 0.814190
O O3 0.500000 0.500000 0.000000
O O4 0.507944 0.697366 0.839619
O O5 0.112156 0.376369 0.280261
O O6 0.029469 0.603323 0.298552
O O7 0.015926 0.142420 0.260371
O O8 0.260573 0.362390 0.878834
O O9 0.098998 0.709930 0.687765
O O10 0.113350 0.193940 0.643207
O O11 0.000000 0.500000 0.000000
O O12 0.622087 0.733319 0.169780
O O13 0.673448 0.229887 0.084575
O O14 0.798014 0.833270 0.746271
O O15 0.576584 0.948358 0.088870
O O16 0.000000 0.000000 0.500000
O O17 0.754982 0.207320 0.708774
O O18 0.500000 0.500000 0.500000
#
# Coordination Sequence:
#
# PCOD9085479 Si02
#       8
#     2   2   2   2   2   2   2   2
#     4  10  21  42  67  94 135 171 207 290 335 390
#     4  10  23  37  62  97 127 167 211 262 330 380
#     4  11  25  46  67  96 135 178 221 268 338 401
#     4  11  24  39  69  94 125 172 217 273 319 393
#     4  10  19  35  60  94 131 156 201 270 326 379
#     4  10  23  39  66 102 127 160 222 274 346 381
#     4  11  25  46  63  88 138 183 217 262 321 387
#     4  11  24  40  71  97 132 169 217 279 325 406
#
# _framework density 21.988838000000001
#
# number of rings (size 3 to 8) (size 9 to 14) (size 15 to 20)
#    0.000    1.500    2.500    1.500   10.500    0.000 
#    2.250    0.000    0.000    0.000    0.000    0.000 
#    0.000    0.000    0.000    0.000    0.000    0.000 
#
# Total GULP energy -89168.428992 kJ/mol
# GULP energy per Si atom -5573.026812 kJ/mol
# Density = 2.193879 g / cm^3
# Si number density = 21.988838 Si / 1000 Ang^3
#
#
#
# Elastic Constant Matrix: (Units=GPa)
#
#
# Indices 1 2 3 4 5 6 
#
# 1 91.2234 30.2400 56.7747 1.3120 -20.4622 -38.0441
# 2 30.2400 102.3323 22.3500 -5.2731 1.3734 -22.8610
# 3 56.7747 22.3500 157.1415 -9.5150 -26.1461 -17.2064
# 4 1.3120 -5.2731 -9.5150 27.0458 -4.7174 0.8090
# 5 -20.4622 1.3734 -26.1461 -4.7174 27.2716 0.8451
# 6 -38.0441 -22.8610 -17.2064 0.8090 0.8451 46.8304
#
#
#
# Elastic Compliance Matrix: (Units=1/GPa)
#
#
# Indices 1 2 3 4 5 6 
#
# 1 0.024886 -0.002836 -0.004547 -0.001482 0.013674 0.016940
# 2 -0.002836 0.011586 -0.000735 0.001477 -0.003257 0.003115
# 3 -0.004547 -0.000735 0.009362 0.004513 0.006406 -0.000807
# 4 -0.001482 0.001477 0.004513 0.040687 0.010169 0.000289
# 5 0.013674 -0.003257 0.006406 0.010169 0.054661 0.010710
# 6 0.016940 0.003115 -0.000807 0.000289 0.010710 0.036142
#
#
# Mechanical properties :
#
#
# Convention : Reuss Voigt Hill
#
# Bulk Modulus (GPa) = 33.78629 63.26963 48.52796
# Shear Modulus (GPa) = 24.57897 36.31838 30.44868
#
# Velocity S-wave (km/s) = 3.34697 4.06849 3.72524
# Velocity P-wave (km/s) = 5.50771 7.13485 6.37342
#
# Compressibility (1/GPa) = 0.02959781
#
# Stress axis : x y z
#
# Youngs Moduli (GPa) = 40.18358 86.30791 106.81541
#
# Poissons Ratio (x) = 0.24478 0.48574
# Poissons Ratio (y) = 0.11397 0.07846
# Poissons Ratio (z) = 0.18273 0.06340
#
# Static dielectric constant tensor:
#      x y z
#    x 1.915500 -0.012510 0.001150 
#    y -0.012510 1.872900 -0.019260 
#    z 0.001150 -0.019260 1.878380 
# 
# From -- ./inp_files/543603.got.cif
#   From: 2010.05.17/outbox.cif.g08.bks.cpg/sg2_272_cif.got.tgz:543603.got - 2010.06.03 11:33:40.
