data_PCOD9085710
_publ_section_title
;
Structure prediction by ZEFSAII (Michael W. Deem and Ramdas Pophale) SiO2 
 PCOD9085710
Probable space group: P -1
;
_chemical_formula_sum "Si O2"
_cell_formula_units_Z 14
_cell_length_a 9.220474
_cell_length_b 16.785008
_cell_length_c 23.299230
_cell_angle_alpha 160.770053
_cell_angle_beta 30.129081
_cell_angle_gamma 148.048275
_cell_volume 584.968152
_symmetry_space_group_name_H-M "P -1"
_symmetry_group_IT_number 2
_symmetry_cell_setting 'triclinic'
loop_
_space_group_symop_operation_xyz
x,y,z
-x,-y,-z
loop_
_atom_site_type_symbol
_atom_site_label
_atom_site_fract_x
_atom_site_fract_y
_atom_site_fract_z
Si Si1 0.525685 0.105216 0.243083
Si Si2 0.178610 0.199261 0.533243
Si Si3 0.096576 0.108297 0.111251
Si Si4 0.172183 0.469310 0.186198
Si Si5 0.026770 0.209481 0.424482
Si Si6 0.257160 0.349877 0.821006
Si Si7 0.633856 0.401770 0.608901
O O1 0.284392 0.078456 0.357328
O O2 0.378362 0.237314 0.332334
O O3 0.641632 0.887683 0.022276
O O4 0.826001 0.210875 0.245594
O O5 0.465534 0.312404 0.548328
O O6 0.965886 0.389141 0.720290
O O7 0.000000 0.000000 0.500000
O O8 0.243845 0.307056 0.240898
O O9 0.964618 0.820991 0.972506
O O10 0.066678 0.608796 0.372352
O O11 0.520388 0.526172 0.119765
O O12 0.899272 0.270614 0.448864
O O13 0.876899 0.928298 0.301157
O O14 0.419358 0.344478 0.699746
O O15 0.000000 0.500000 0.000000
#
# Coordination Sequence:
#
# PCOD9085710 Si02
#       7
#     2   2   2   2   2   2   2
#     4  10  21  41  67  90 124 164 209 260 305 371
#     4  11  24  43  64  93 127 164 207 261 326 372
#     4  11  23  41  63  95 124 165 220 254 306 367
#     4  10  22  39  63  88 125 168 208 258 307 378
#     4  10  19  35  62  91 119 166 215 254 306 368
#     4  11  20  36  62  93 124 163 216 262 304 365
#     4  11  23  38  62  92 128 163 208 264 308 375
#
# _framework density 23.932925000000001
#
# number of rings (size 3 to 8) (size 9 to 14) (size 15 to 20)
#    0.000    1.429    0.000    9.429    0.000    6.286 
#    0.000    5.714    0.000    2.571    0.000    0.000 
#    0.000    0.000    0.000    0.000    0.000    0.000 
#
# Total GULP energy -78145.489652 kJ/mol
# GULP energy per Si atom -5581.820689 kJ/mol
# Density = 2.387845 g / cm^3
# Si number density = 23.932925 Si / 1000 Ang^3
#
#
#
# Elastic Constant Matrix: (Units=GPa)
#
#
# Indices 1 2 3 4 5 6 
#
# 1 173.7971 61.3385 61.1591 9.1343 -19.5071 26.0860
# 2 61.3385 109.5995 80.9004 30.9595 -8.6681 11.0359
# 3 61.1591 80.9004 92.7989 14.8775 -20.5298 5.1147
# 4 9.1343 30.9595 14.8775 63.8792 6.0109 -4.3953
# 5 -19.5071 -8.6681 -20.5298 6.0109 43.3479 -0.7916
# 6 26.0860 11.0359 5.1147 -4.3953 -0.7916 42.8430
#
#
#
# Elastic Compliance Matrix: (Units=1/GPa)
#
#
# Indices 1 2 3 4 5 6 
#
# 1 0.008376 -0.001329 -0.003732 -0.000138 0.001677 -0.004295
# 2 -0.001329 0.032271 -0.026765 -0.009051 -0.005663 -0.005341
# 3 -0.003732 -0.026765 0.037949 0.004042 0.010477 0.005244
# 4 -0.000138 -0.009051 0.004042 0.019633 -0.002609 0.003899
# 5 0.001677 -0.005663 0.010477 -0.002609 0.028005 -0.000563
# 6 -0.004295 -0.005341 0.005244 0.003899 -0.000563 0.027096
#
#
# Mechanical properties :
#
#
# Convention : Reuss Voigt Hill
#
# Bulk Modulus (GPa) = 66.91164 86.99905 76.95535
# Shear Modulus (GPa) = 22.52621 41.53386 32.03003
#
# Velocity S-wave (km/s) = 3.07126 4.17037 3.66228
# Velocity P-wave (km/s) = 6.37146 7.72136 7.07866
#
# Compressibility (1/GPa) = 0.01494508
#
# Stress axis : x y z
#
# Youngs Moduli (GPa) = 119.38361 30.98753 26.35104
#
# Poissons Ratio (x) = 0.04119 0.09834
# Poissons Ratio (y) = 0.15869 0.70528
# Poissons Ratio (z) = 0.44552 0.82937
#
# Static dielectric constant tensor:
#      x y z
#    x 1.927150 0.017280 -0.047530 
#    y 0.017280 2.022190 -0.019870 
#    z -0.047530 -0.019870 1.924890 
# 
# From -- ./inp_files/608458.got.cif
#   From: 2010.05.17/outbox.cif.g08.bks.cpg/sg2_305_cif.got.tgz:608458.got - 2010.06.03 11:33:40.
