data_PCOD9085346
_publ_section_title
;
Structure prediction by ZEFSAII (Michael W. Deem and Ramdas Pophale) SiO2 
 PCOD9085346
Probable space group: P -1
;
_chemical_formula_sum "Si O2"
_cell_formula_units_Z 16
_cell_length_a 10.146293
_cell_length_b 20.512926
_cell_length_c 16.904570
_cell_angle_alpha 161.262153
_cell_angle_beta 133.813406
_cell_angle_gamma 54.706827
_cell_volume 768.192253
_symmetry_space_group_name_H-M "P -1"
_symmetry_group_IT_number 2
_symmetry_cell_setting 'triclinic'
loop_
_space_group_symop_operation_xyz
x,y,z
-x,-y,-z
loop_
_atom_site_type_symbol
_atom_site_label
_atom_site_fract_x
_atom_site_fract_y
_atom_site_fract_z
Si Si1 0.167377 0.356874 0.821419
Si Si2 0.162359 0.069423 0.804781
Si Si3 0.120641 0.008398 0.140670
Si Si4 0.232340 0.618745 0.732475
Si Si5 0.566154 0.203007 0.390584
Si Si6 0.414071 0.436598 0.735307
Si Si7 0.248664 0.250759 0.212737
Si Si8 0.092149 0.375550 0.999135
O O1 0.097666 0.554166 0.991921
O O2 0.395905 0.418407 0.973555
O O3 0.124723 0.336455 0.875303
O O4 0.023436 0.128978 0.469722
O O5 0.329014 0.966087 0.737755
O O6 0.240833 0.238870 0.102417
O O7 0.101736 0.182672 0.835583
O O8 0.242180 0.251928 0.494673
O O9 0.258715 0.866926 0.018636
O O10 0.963467 0.883219 0.995773
O O11 0.000000 0.000000 0.000000
O O12 0.322424 0.577192 0.804433
O O13 0.306454 0.491178 0.549577
O O14 0.000000 0.500000 0.500000
O O15 0.490857 0.297122 0.543815
O O16 0.391872 0.137342 0.180214
O O17 0.732326 0.407993 0.657872
#
# Coordination Sequence:
#
# PCOD9085346 Si02
#       8
#     2   2   2   2   2   2   2   2
#     4   9  20  37  55  80 112 143 198 236 257 330
#     4  11  21  36  56  82 119 157 177 223 286 332
#     4  11  19  37  60  83 106 148 183 227 284 321
#     4   9  18  34  54  82 108 134 184 232 267 328
#     4   9  19  35  53  85 117 143 187 231 269 339
#     4  10  19  35  60  85 108 143 191 236 271 318
#     4  10  21  37  53  87 123 142 184 228 276 346
#     4   9  19  36  55  77 109 152 193 230 273 319
#
# _framework density 20.828119000000001
#
# number of rings (size 3 to 8) (size 9 to 14) (size 15 to 20)
#    0.000    2.250    3.750    1.500    0.000    4.500 
#    4.500    0.625    0.000    3.750    0.000    0.000 
#    0.000    0.000    0.000    0.000    0.000    0.000 
#
# Total GULP energy -89265.448584 kJ/mol
# GULP energy per Si atom -5579.090536 kJ/mol
# Density = 2.078071 g / cm^3
# Si number density = 20.828119 Si / 1000 Ang^3
#
#
#
# Elastic Constant Matrix: (Units=GPa)
#
#
# Indices 1 2 3 4 5 6 
#
# 1 20.9568 22.3414 0.7338 0.6492 3.2908 -11.1344
# 2 22.3414 133.4191 31.6957 20.8372 -6.1025 -27.7093
# 3 0.7338 31.6957 53.7240 5.8672 5.3739 -12.1516
# 4 0.6492 20.8372 5.8672 35.4110 -4.9461 1.2637
# 5 3.2908 -6.1025 5.3739 -4.9461 22.2467 -7.8389
# 6 -11.1344 -27.7093 -12.1516 1.2637 -7.8389 24.1891
#
#
#
# Elastic Compliance Matrix: (Units=1/GPa)
#
#
# Indices 1 2 3 4 5 6 
#
# 1 0.072492 -0.010042 0.011250 0.000820 -0.007149 0.025158
# 2 -0.010042 0.014750 -0.005937 -0.006568 0.010047 0.012891
# 3 0.011250 -0.005937 0.024848 -0.002073 -0.006650 0.008813
# 4 0.000820 -0.006568 -0.002073 0.033142 0.002767 -0.009023
# 5 -0.007149 0.010047 -0.006650 0.002767 0.059441 0.023997
# 6 0.025158 0.012891 0.008813 -0.009023 0.023997 0.080363
#
#
# Mechanical properties :
#
#
# Convention : Reuss Voigt Hill
#
# Bulk Modulus (GPa) = 9.74351 35.29352 22.51852
# Shear Modulus (GPa) = 15.21131 26.59129 20.90130
#
# Velocity S-wave (km/s) = 2.70539 3.57697 3.17127
# Velocity P-wave (km/s) = 3.80092 5.83451 4.92385
#
# Compressibility (1/GPa) = 0.10263242
#
# Stress axis : x y z
#
# Youngs Moduli (GPa) = 13.79465 67.79836 40.24532
#
# Poissons Ratio (x) = 0.68081 -0.45276
# Poissons Ratio (y) = 0.13852 0.23893
# Poissons Ratio (z) = -0.15519 0.40250
#
# Static dielectric constant tensor:
#      x y z
#    x 1.777860 -0.019980 0.008670 
#    y -0.019980 1.735640 -0.011430 
#    z 0.008670 -0.011430 1.798310 
# 
# From -- ./inp_files/436583.got.cif
#   From: 2010.05.17/outbox.cif.g08.bks.cpg/sg2_219_cif.got.tgz:436583.got - 2010.06.03 11:33:40.
