data_PCOD9085550
_publ_section_title
;
Structure prediction by ZEFSAII (Michael W. Deem and Ramdas Pophale) SiO2 
 PCOD9085550
Probable space group: P -1
;
_chemical_formula_sum "Si O2"
_cell_formula_units_Z 16
_cell_length_a 7.766297
_cell_length_b 9.236804
_cell_length_c 10.830983
_cell_angle_alpha 112.365346
_cell_angle_beta 59.899426
_cell_angle_gamma 118.707689
_cell_volume 579.502343
_symmetry_space_group_name_H-M "P -1"
_symmetry_group_IT_number 2
_symmetry_cell_setting 'triclinic'
loop_
_space_group_symop_operation_xyz
x,y,z
-x,-y,-z
loop_
_atom_site_type_symbol
_atom_site_label
_atom_site_fract_x
_atom_site_fract_y
_atom_site_fract_z
Si Si1 0.682821 0.980518 0.207087
Si Si2 0.595299 0.282413 0.067851
Si Si3 0.414844 0.372732 0.840926
Si Si4 0.196264 0.664581 0.442150
Si Si5 0.781333 0.332543 0.287263
Si Si6 0.710004 0.629532 0.397290
Si Si7 0.173879 0.015746 0.571343
Si Si8 0.723719 0.033187 0.812822
O O1 0.699583 0.803153 0.104776
O O2 0.461889 0.981184 0.226609
O O3 0.851878 0.170478 0.186620
O O4 0.682183 0.959766 0.348901
O O5 0.586990 0.447222 0.057941
O O6 0.648709 0.321106 0.205501
O O7 0.382124 0.117194 0.099989
O O8 0.760911 0.210908 0.922821
O O9 0.652645 0.381445 0.723023
O O10 0.310233 0.355475 0.736811
O O11 0.304396 0.709540 0.555415
O O12 0.149531 0.830065 0.475526
O O13 0.000000 0.500000 0.500000
O O14 0.882177 0.537414 0.323363
O O15 0.500000 0.500000 0.500000
O O16 0.747612 0.818055 0.488728
O O17 0.056595 0.982606 0.307509
#
# Coordination Sequence:
#
# PCOD9085550 Si02
#       8
#     2   2   2   2   2   2   2   2
#     4   9  21  38  62  89 122 167 207 260 320 376
#     4   9  20  38  67  88 119 169 211 264 318 377
#     4  10  20  36  57  90 122 163 205 255 321 379
#     4  11  22  36  56  89 134 166 205 262 316 386
#     4   9  19  37  58  85 118 166 208 248 321 372
#     4  10  19  35  61  87 118 170 211 253 314 378
#     4  10  23  39  62  94 129 165 215 260 314 383
#     4  10  20  43  63  90 126 162 216 266 315 374
#
# _framework density 27.609897
#
# number of rings (size 3 to 8) (size 9 to 14) (size 15 to 20)
#    0.000    2.250    1.250    0.750    1.750    3.000 
#    0.000   18.125    0.000    0.000    0.000    0.000 
#    0.000    0.000    0.000    0.000    0.000    0.000 
#
# Total GULP energy -89156.236926 kJ/mol
# GULP energy per Si atom -5572.264808 kJ/mol
# Density = 2.754706 g / cm^3
# Si number density = 27.609897 Si / 1000 Ang^3
#
#
#
# Elastic Constant Matrix: (Units=GPa)
#
#
# Indices 1 2 3 4 5 6 
#
# 1 98.2818 36.8348 46.7033 -7.6110 5.4714 -27.1477
# 2 36.8348 312.9993 59.1296 52.4986 -18.1741 -53.7049
# 3 46.7033 59.1296 104.7585 24.4702 -12.7030 0.2173
# 4 -7.6110 52.4986 24.4702 60.6160 -10.9497 -2.3850
# 5 5.4714 -18.1741 -12.7030 -10.9497 46.1525 -3.5581
# 6 -27.1477 -53.7049 0.2173 -2.3850 -3.5581 47.4197
#
#
#
# Elastic Compliance Matrix: (Units=1/GPa)
#
#
# Indices 1 2 3 4 5 6 
#
# 1 0.018691 0.000583 -0.010403 0.006038 -0.002529 0.011522
# 2 0.000583 0.005205 -0.002369 -0.003040 0.001083 0.006168
# 3 -0.010403 -0.002369 0.017311 -0.006056 0.002950 -0.008801
# 4 0.006038 -0.003040 -0.006056 0.022731 0.001916 0.001329
# 5 -0.002529 0.001083 0.002950 0.001916 0.023787 0.001646
# 6 0.011522 0.006168 -0.008801 0.001329 0.001646 0.034901
#
#
# Mechanical properties :
#
#
# Convention : Reuss Voigt Hill
#
# Bulk Modulus (GPa) = 59.41999 89.04165 74.23082
# Shear Modulus (GPa) = 32.76261 55.72910 44.24586
#
# Velocity S-wave (km/s) = 3.44848 4.49759 4.00751
# Velocity P-wave (km/s) = 6.11752 7.70006 6.95395
#
# Compressibility (1/GPa) = 0.01682935
#
# Stress axis : x y z
#
# Youngs Moduli (GPa) = 53.50253 192.12778 57.76578
#
# Poissons Ratio (x) = -0.11203 0.60092
# Poissons Ratio (y) = -0.03120 0.13686
# Poissons Ratio (z) = 0.55657 0.45519
#
# Static dielectric constant tensor:
#      x y z
#    x 2.258190 0.070010 0.050730 
#    y 0.070010 2.238880 0.099500 
#    z 0.050730 0.099500 2.247630 
# 
# From -- ./inp_files/418038.got.cif
#   From: 2010.05.17/outbox.cif.g08.bks.cpg/sg2_210_cif.got.tgz:418038.got - 2010.06.03 11:33:40.
