data_PCOD9085510
_publ_section_title
;
Structure prediction by ZEFSAII (Michael W. Deem and Ramdas Pophale) SiO2 
 PCOD9085510
Probable space group: P -1
;
_chemical_formula_sum "Si O2"
_cell_formula_units_Z 16
_cell_length_a 16.462854
_cell_length_b 10.424845
_cell_length_c 7.248305
_cell_angle_alpha 138.459168
_cell_angle_beta 90.717257
_cell_angle_gamma 65.047218
_cell_volume 645.844328
_symmetry_space_group_name_H-M "P -1"
_symmetry_group_IT_number 2
_symmetry_cell_setting 'triclinic'
loop_
_space_group_symop_operation_xyz
x,y,z
-x,-y,-z
loop_
_atom_site_type_symbol
_atom_site_label
_atom_site_fract_x
_atom_site_fract_y
_atom_site_fract_z
Si Si1 0.390059 0.050064 0.550517
Si Si2 0.187096 0.904757 0.039492
Si Si3 0.789548 0.207628 0.491817
Si Si4 0.407508 0.664973 0.399909
Si Si5 0.991822 0.060916 0.848008
Si Si6 0.950077 0.569974 0.331812
Si Si7 0.619667 0.172602 0.017354
Si Si8 0.834155 0.702718 0.080425
O O1 0.418966 0.806913 0.395540
O O2 0.500000 0.000000 0.500000
O O3 0.272962 0.262238 0.864665
O O4 0.364431 0.048156 0.331573
O O5 0.125852 0.190808 0.288170
O O6 0.211965 0.758990 0.694525
O O7 0.109758 0.908191 0.175313
O O8 0.292892 0.809686 0.032977
O O9 0.668117 0.396398 0.738283
O O10 0.804442 0.958821 0.279012
O O11 0.899947 0.140433 0.470340
O O12 0.509792 0.414327 0.210732
O O13 0.369363 0.836399 0.770641
O O14 0.968367 0.321688 0.112650
O O15 0.000000 0.000000 0.000000
O O16 0.887221 0.658240 0.232881
O O17 0.062383 0.508436 0.258329
#
# Coordination Sequence:
#
# PCOD9085510 Si02
#       8
#     2   2   2   2   2   2   2   2
#     4  11  22  38  60  86 121 153 197 249 298 354
#     4  10  19  35  61  84 110 157 192 234 298 349
#     4   8  17  35  56  80 115 147 191 243 289 347
#     4   9  20  38  63  83 115 159 196 248 296 347
#     4   9  19  33  54  87 113 141 193 236 281 353
#     4  10  19  36  59  79 117 152 184 239 290 344
#     4  10  20  39  61  85 116 157 201 240 300 354
#     4   9  19  36  54  78 114 152 186 237 291 347
#
# _framework density 24.773771
#
# number of rings (size 3 to 8) (size 9 to 14) (size 15 to 20)
#    0.000    2.500    1.250    0.375    0.000    6.000 
#    2.250    5.625   11.000    0.000    0.000    0.000 
#    0.000    0.000    0.000    0.000    0.000    0.000 
#
# Total GULP energy -89143.471502 kJ/mol
# GULP energy per Si atom -5571.466969 kJ/mol
# Density = 2.471738 g / cm^3
# Si number density = 24.773771 Si / 1000 Ang^3
#
#
#
# Elastic Constant Matrix: (Units=GPa)
#
#
# Indices 1 2 3 4 5 6 
#
# 1 208.6110 11.3539 2.0182 6.9402 -26.4030 13.8609
# 2 11.3539 84.2897 5.1834 -14.7603 -2.1503 10.0012
# 3 2.0182 5.1834 33.2784 -5.6805 -17.7453 5.0439
# 4 6.9402 -14.7603 -5.6805 37.1265 -8.7466 -0.2851
# 5 -26.4030 -2.1503 -17.7453 -8.7466 37.7972 6.6996
# 6 13.8609 10.0012 5.0439 -0.2851 6.6996 21.4057
#
#
#
# Elastic Compliance Matrix: (Units=1/GPa)
#
#
# Indices 1 2 3 4 5 6 
#
# 1 0.006431 0.000399 0.006319 0.002100 0.009526 -0.008793
# 2 0.000399 0.014226 0.003988 0.007638 0.006459 -0.009764
# 3 0.006319 0.003988 0.060878 0.019773 0.043778 -0.033738
# 4 0.002100 0.007638 0.019773 0.037856 0.022821 -0.016226
# 5 0.009526 0.006459 0.043778 0.022821 0.066400 -0.039980
# 6 -0.008793 -0.009764 -0.033738 -0.016226 -0.039980 0.077219
#
#
# Mechanical properties :
#
#
# Convention : Reuss Voigt Hill
#
# Bulk Modulus (GPa) = 9.71383 40.36558 25.03971
# Shear Modulus (GPa) = 18.12161 39.77412 28.94787
#
# Velocity S-wave (km/s) = 2.70753 4.01121 3.42202
# Velocity P-wave (km/s) = 3.70187 6.14671 5.07375
#
# Compressibility (1/GPa) = 0.10294596
#
# Stress axis : x y z
#
# Youngs Moduli (GPa) = 155.50152 70.29561 16.42623
#
# Poissons Ratio (x) = -0.02807 -0.10379
# Poissons Ratio (y) = -0.06209 -0.06550
# Poissons Ratio (z) = -0.98257 -0.28032
#
# Static dielectric constant tensor:
#      x y z
#    x 2.092950 -0.035140 -0.059990 
#    y -0.035140 1.919780 -0.027200 
#    z -0.059990 -0.027200 2.140340 
# 
# From -- ./inp_files/308785.got.cif
#   From: 2010.05.17/outbox.cif.g08.bks.cpg/sg2_155_cif.got.tgz:308785.got - 2010.06.03 11:33:40.
