data_PCOD9085708
_publ_section_title
;
Structure prediction by ZEFSAII (Michael W. Deem and Ramdas Pophale) SiO2 
 PCOD9085708
Probable space group: P -1
;
_chemical_formula_sum "Si O2"
_cell_formula_units_Z 16
_cell_length_a 5.230047
_cell_length_b 15.326004
_cell_length_c 9.422850
_cell_angle_alpha 109.564179
_cell_angle_beta 74.283018
_cell_angle_gamma 106.877311
_cell_volume 668.285099
_symmetry_space_group_name_H-M "P -1"
_symmetry_group_IT_number 2
_symmetry_cell_setting 'triclinic'
loop_
_space_group_symop_operation_xyz
x,y,z
-x,-y,-z
loop_
_atom_site_type_symbol
_atom_site_label
_atom_site_fract_x
_atom_site_fract_y
_atom_site_fract_z
Si Si1 0.473189 0.789852 0.051380
Si Si2 0.830350 0.538574 0.804624
Si Si3 0.697316 0.997641 0.103271
Si Si4 0.580964 0.097597 0.453795
Si Si5 0.136970 0.222356 0.547941
Si Si6 0.674999 0.694686 0.734040
Si Si7 0.357088 0.504393 0.674755
Si Si8 0.144863 0.314539 0.892118
O O1 0.634163 0.784246 0.876602
O O2 0.570765 0.897323 0.144008
O O3 0.602331 0.720664 0.093705
O O4 0.150319 0.754188 0.061973
O O5 0.863309 0.631728 0.746861
O O6 0.538602 0.480045 0.761587
O O7 0.037640 0.472036 0.708358
O O8 0.849311 0.583284 0.982199
O O9 0.681685 0.076141 0.268116
O O10 0.500000 0.000000 0.000000
O O11 0.000000 0.000000 0.000000
O O12 0.327086 0.147933 0.507571
O O13 0.830543 0.166530 0.533322
O O14 0.500000 0.000000 0.500000
O O15 0.244723 0.280337 0.422760
O O16 0.157372 0.294310 0.713729
O O17 0.390948 0.618423 0.751695
O O18 0.500000 0.500000 0.500000
#
# Coordination Sequence:
#
# PCOD9085708 Si02
#       8
#     2   2   2   2   2   2   2   2
#     4  11  21  38  58  78 110 150 196 239 282 348
#     4   9  19  35  58  86 116 148 193 230 273 352
#     4  12  24  39  58  82 109 149 194 248 298 341
#     4  12  26  43  56  83 119 157 200 242 302 351
#     4  12  25  38  62  84 118 155 194 253 290 334
#     4   9  22  35  60  88 116 144 198 237 288 333
#     4  10  19  35  62  91 119 147 184 232 285 344
#     4  11  20  38  57  83 108 153 193 233 278 341
#
# _framework density 23.941877999999999
#
# number of rings (size 3 to 8) (size 9 to 14) (size 15 to 20)
#    0.750    0.500    1.250    6.000    1.750    1.000 
#    0.000    0.000    0.000    1.500    0.000    0.000 
#    0.000    0.000    0.000    0.000    0.000    0.000 
#
# Total GULP energy -89411.429555 kJ/mol
# GULP energy per Si atom -5588.214347 kJ/mol
# Density = 2.388739 g / cm^3
# Si number density = 23.941878 Si / 1000 Ang^3
#
#
#
# Elastic Constant Matrix: (Units=GPa)
#
#
# Indices 1 2 3 4 5 6 
#
# 1 145.2075 17.7370 35.2946 -4.2705 -1.1968 1.1205
# 2 17.7370 48.2482 5.9638 1.4815 0.2232 -5.0916
# 3 35.2946 5.9638 179.5987 1.9935 17.4958 -5.0538
# 4 -4.2705 1.4815 1.9935 37.5316 2.4505 2.8146
# 5 -1.1968 0.2232 17.4958 2.4505 29.8749 7.8642
# 6 1.1205 -5.0916 -5.0538 2.8146 7.8642 34.3254
#
#
#
# Elastic Compliance Matrix: (Units=1/GPa)
#
#
# Indices 1 2 3 4 5 6 
#
# 1 0.007676 -0.002804 -0.001615 0.001070 0.001541 -0.001345
# 2 -0.002804 0.022198 0.000052 -0.001404 -0.001188 0.003779
# 3 -0.001615 0.000052 0.006362 -0.000395 -0.004288 0.002012
# 4 0.001070 -0.001404 -0.000395 0.027097 -0.001356 -0.002213
# 5 0.001541 -0.001188 -0.004288 -0.001356 0.038696 -0.009612
# 6 -0.001345 0.003779 0.002012 -0.002213 -0.009612 0.032417
#
#
# Mechanical properties :
#
#
# Convention : Reuss Voigt Hill
#
# Bulk Modulus (GPa) = 36.36210 54.56057 45.46133
# Shear Modulus (GPa) = 32.81908 41.28366 37.05137
#
# Velocity S-wave (km/s) = 3.70642 4.15701 3.93817
# Velocity P-wave (km/s) = 5.79115 6.77342 6.30145
#
# Compressibility (1/GPa) = 0.02750116
#
# Stress axis : x y z
#
# Youngs Moduli (GPa) = 130.26930 45.04888 157.17229
#
# Poissons Ratio (x) = 0.12633 0.25387
# Poissons Ratio (y) = 0.36531 -0.00812
# Poissons Ratio (z) = 0.21042 -0.00233
#
# Static dielectric constant tensor:
#      x y z
#    x 1.914920 0.016390 0.016610 
#    y 0.016390 1.988030 0.013420 
#    z 0.016610 0.013420 1.945770 
# 
# From -- ./inp_files/140617.got.cif
#   From: 2010.05.17/outbox.cif.g08.bks.cpg/sg2_71_cif.got.tgz:140617.got - 2010.06.03 11:33:40.
