data_PCOD9085604
_publ_section_title
;
Structure prediction by ZEFSAII (Michael W. Deem and Ramdas Pophale) SiO2 
 PCOD9085604
Probable space group: P -1
;
_chemical_formula_sum "Si O2"
_cell_formula_units_Z 16
_cell_length_a 8.996263
_cell_length_b 19.726217
_cell_length_c 13.791749
_cell_angle_alpha 147.780072
_cell_angle_beta 33.705286
_cell_angle_gamma 138.902066
_cell_volume 713.812671
_symmetry_space_group_name_H-M "P -1"
_symmetry_group_IT_number 2
_symmetry_cell_setting 'triclinic'
loop_
_space_group_symop_operation_xyz
x,y,z
-x,-y,-z
loop_
_atom_site_type_symbol
_atom_site_label
_atom_site_fract_x
_atom_site_fract_y
_atom_site_fract_z
Si Si1 0.296876 0.059588 0.334501
Si Si2 0.979567 0.283927 0.698734
Si Si3 0.626163 0.455356 0.186407
Si Si4 0.419391 0.858707 0.415807
Si Si5 0.548816 0.574351 0.163268
Si Si6 0.150524 0.883347 0.801375
Si Si7 0.036018 0.390221 0.424539
Si Si8 0.102883 0.168436 0.762371
O O1 0.155128 0.172657 0.499029
O O2 0.620542 0.088637 0.205435
O O3 0.217609 0.073121 0.507703
O O4 0.193729 0.917820 0.173251
O O5 0.181887 0.416630 0.723819
O O6 0.784405 0.228691 0.650507
O O7 0.779168 0.332245 0.946910
O O8 0.579834 0.491228 0.141389
O O9 0.327122 0.434823 0.371306
O O10 0.275986 0.863795 0.603309
O O11 0.711830 0.817715 0.226387
O O12 0.500000 0.000000 0.500000
O O13 0.809087 0.688384 0.154903
O O14 0.266079 0.627942 0.389458
O O15 0.500000 0.500000 0.000000
O O16 0.950336 0.755310 0.789786
O O17 0.000000 0.000000 0.000000
O O18 0.000000 0.500000 0.500000
#
# Coordination Sequence:
#
# PCOD9085604 Si02
#       8
#     2   2   2   2   2   2   2   2
#     4  10  19  37  65  88 126 167 215 267 327 396
#     4  11  21  40  63  96 128 171 227 280 321 397
#     4  10  23  36  65  93 127 176 223 268 338 396
#     4  11  22  38  65  96 129 166 217 279 329 387
#     4  11  20  39  64  96 130 171 224 276 325 397
#     4  11  25  44  67  97 135 175 219 273 343 408
#     4  10  21  42  63  94 133 177 221 268 338 393
#     4  10  19  35  61  92 121 164 211 268 321 379
#
# _framework density 22.414843999999999
#
# number of rings (size 3 to 8) (size 9 to 14) (size 15 to 20)
#    0.000    1.500    5.000    1.500    1.750    0.000 
#    0.000    2.500    0.000    0.000    0.000    0.000 
#    0.000    0.000    0.000    0.000    0.000    0.000 
#
# Total GULP energy -89068.030931 kJ/mol
# GULP energy per Si atom -5566.751933 kJ/mol
# Density = 2.236383 g / cm^3
# Si number density = 22.414844 Si / 1000 Ang^3
#
#
#
# Elastic Constant Matrix: (Units=GPa)
#
#
# Indices 1 2 3 4 5 6 
#
# 1 139.0992 52.2954 41.3271 14.2281 -2.6390 37.2548
# 2 52.2954 108.4560 41.7953 33.9498 -0.4521 28.7622
# 3 41.3271 41.7953 63.9468 24.8694 -13.8985 5.8418
# 4 14.2281 33.9498 24.8694 19.3647 5.2433 3.1913
# 5 -2.6390 -0.4521 -13.8985 5.2433 37.0142 8.9828
# 6 37.2548 28.7622 5.8418 3.1913 8.9828 54.9470
#
#
#
# Elastic Compliance Matrix: (Units=1/GPa)
#
#
# Indices 1 2 3 4 5 6 
#
# 1 0.012242 -0.006963 -0.013225 0.022539 -0.006523 -0.003492
# 2 -0.006963 0.039236 0.026771 -0.102997 0.028847 -0.017398
# 3 -0.013225 0.026771 0.076720 -0.147741 0.052318 -0.013175
# 4 0.022539 -0.102997 -0.147741 0.431904 -0.128507 0.050263
# 5 -0.006523 0.028847 0.052318 -0.128507 0.069645 -0.020162
# 6 -0.003492 -0.017398 -0.013175 0.050263 -0.020162 0.031451
#
#
# Mechanical properties :
#
#
# Convention : Reuss Voigt Hill
#
# Bulk Modulus (GPa) = 7.07394 64.70417 35.88905
# Shear Modulus (GPa) = 7.19265 34.00412 20.59838
#
# Velocity S-wave (km/s) = 1.79328 3.89914 3.03473
# Velocity P-wave (km/s) = 2.72957 7.01430 5.32217
#
# Compressibility (1/GPa) = 0.14136393
#
# Stress axis : x y z
#
# Youngs Moduli (GPa) = 81.68425 25.48670 13.03443
#
# Poissons Ratio (x) = 0.17746 0.17238
# Poissons Ratio (y) = 0.56874 -0.34894
# Poissons Ratio (z) = 1.08030 -0.68230
#
# Static dielectric constant tensor:
#      x y z
#    x 1.861820 -0.003130 0.009760 
#    y -0.003130 1.981820 0.086650 
#    z 0.009760 0.086650 1.650010 
# 
# From -- ./inp_files/507950.got.cif
#   From: 2010.05.17/outbox.cif.g08.bks.cpg/sg2_254_cif.got.tgz:507950.got - 2010.06.03 11:33:40.
