data_PCOD9085241
_publ_section_title
;
Structure prediction by ZEFSAII (Michael W. Deem and Ramdas Pophale) SiO2 
 PCOD9085241
Probable space group: P -1
;
_chemical_formula_sum "Si O2"
_cell_formula_units_Z 16
_cell_length_a 7.174537
_cell_length_b 8.022660
_cell_length_c 13.179642
_cell_angle_alpha 97.890643
_cell_angle_beta 89.376171
_cell_angle_gamma 52.831706
_cell_volume 594.536392
_symmetry_space_group_name_H-M "P -1"
_symmetry_group_IT_number 2
_symmetry_cell_setting 'triclinic'
loop_
_space_group_symop_operation_xyz
x,y,z
-x,-y,-z
loop_
_atom_site_type_symbol
_atom_site_label
_atom_site_fract_x
_atom_site_fract_y
_atom_site_fract_z
Si Si1 0.233557 0.185341 0.274306
Si Si2 0.229590 0.983977 0.466844
Si Si3 0.231087 0.756702 0.955902
Si Si4 0.798668 0.300651 0.825052
Si Si5 0.985560 0.604597 0.404909
Si Si6 0.040774 0.410024 0.108614
Si Si7 0.456012 0.561215 0.362041
Si Si8 0.692631 0.140657 0.242701
O O1 0.213430 0.069064 0.359594
O O2 0.009947 0.437904 0.312263
O O3 0.217342 0.181104 0.150751
O O4 0.490802 0.126708 0.279782
O O5 0.219101 0.144233 0.559850
O O6 0.447205 0.732376 0.443993
O O7 0.000000 0.000000 0.500000
O O8 0.365890 0.779679 0.867879
O O9 0.170564 0.609486 0.895071
O O10 0.309717 0.684354 0.064598
O O11 0.000000 0.000000 0.000000
O O12 0.881626 0.449300 0.836689
O O13 0.617029 0.350223 0.743942
O O14 0.043698 0.071147 0.780223
O O15 0.228038 0.575004 0.392627
O O16 0.000000 0.500000 0.500000
O O17 0.000000 0.500000 0.000000
O O18 0.671736 0.316265 0.329072
#
# Coordination Sequence:
#
# PCOD9085241 Si02
#       8
#     2   2   2   2   2   2   2   2
#     4  10  19  36  63  90 121 161 208 246 304 365
#     4   9  19  33  62  95 118 157 205 250 311 369
#     4   9  21  37  56  84 125 157 197 251 292 349
#     4  10  20  38  59  84 124 164 200 249 301 359
#     4   8  15  32  57  87 112 152 197 246 299 363
#     4  10  20  38  59  87 121 160 206 243 296 373
#     4  10  19  35  59  88 117 156 204 241 315 357
#     4  10  21  37  59  90 122 159 204 259 286 360
#
# _framework density 26.911726999999999
#
# number of rings (size 3 to 8) (size 9 to 14) (size 15 to 20)
#    0.000    2.500    2.500    0.000    3.500    1.500 
#    0.000    5.625    0.000   24.000    0.000    0.000 
#    0.000    0.000    0.000    0.000    0.000    0.000 
#
# Total GULP energy -89101.331054 kJ/mol
# GULP energy per Si atom -5568.833191 kJ/mol
# Density = 2.685047 g / cm^3
# Si number density = 26.911727 Si / 1000 Ang^3
#
#
#
# Elastic Constant Matrix: (Units=GPa)
#
#
# Indices 1 2 3 4 5 6 
#
# 1 105.9595 46.1560 45.2432 4.5383 -12.2098 10.2424
# 2 46.1560 104.9853 63.5681 14.5389 -13.7672 -5.7327
# 3 45.2432 63.5681 115.7891 -18.4870 -30.8090 2.4638
# 4 4.5383 14.5389 -18.4870 80.9994 7.5043 -7.9635
# 5 -12.2098 -13.7672 -30.8090 7.5043 43.8403 -7.3962
# 6 10.2424 -5.7327 2.4638 -7.9635 -7.3962 41.4816
#
#
#
# Elastic Compliance Matrix: (Units=1/GPa)
#
#
# Indices 1 2 3 4 5 6 
#
# 1 0.012803 -0.003893 -0.003015 -0.001056 -0.000230 -0.003764
# 2 -0.003893 0.017400 -0.009009 -0.004614 -0.000673 0.002895
# 3 -0.003015 -0.009009 0.017706 0.005168 0.008036 0.000873
# 4 -0.001056 -0.004614 0.005168 0.014642 -0.000266 0.002079
# 5 -0.000230 -0.000673 0.008036 -0.000266 0.029005 0.004607
# 6 -0.003764 0.002895 0.000873 0.002079 0.004607 0.026605
#
#
# Mechanical properties :
#
#
# Convention : Reuss Voigt Hill
#
# Bulk Modulus (GPa) = 62.20847 70.74094 66.47470
# Shear Modulus (GPa) = 32.18456 44.71536 38.44996
#
# Velocity S-wave (km/s) = 3.46197 4.08064 3.78397
# Velocity P-wave (km/s) = 6.25670 6.96746 6.62162
#
# Compressibility (1/GPa) = 0.01607498
#
# Stress axis : x y z
#
# Youngs Moduli (GPa) = 78.10542 57.46990 56.47947
#
# Poissons Ratio (x) = 0.22371 0.17030
# Poissons Ratio (y) = 0.30403 0.50884
# Poissons Ratio (z) = 0.23551 0.51776
#
# Static dielectric constant tensor:
#      x y z
#    x 1.997740 0.009130 0.042460 
#    y 0.009130 2.273490 0.032890 
#    z 0.042460 0.032890 2.180610 
# 
# From -- ./inp_files/493183.got.cif
#   From: 2010.05.17/outbox.cif.g08.bks.cpg/sg2_247_cif.got.tgz:493183.got - 2010.06.03 11:33:40.
