data_PCOD9085138
_publ_section_title
;
Structure prediction by ZEFSAII (Michael W. Deem and Ramdas Pophale) SiO2 
 PCOD9085138
Probable space group: P -1
;
_chemical_formula_sum "Si O2"
_cell_formula_units_Z 16
_cell_length_a 9.893457
_cell_length_b 12.401824
_cell_length_c 24.027382
_cell_angle_alpha 150.110798
_cell_angle_beta 46.875952
_cell_angle_gamma 143.752866
_cell_volume 867.413113
_symmetry_space_group_name_H-M "P -1"
_symmetry_group_IT_number 2
_symmetry_cell_setting 'triclinic'
loop_
_space_group_symop_operation_xyz
x,y,z
-x,-y,-z
loop_
_atom_site_type_symbol
_atom_site_label
_atom_site_fract_x
_atom_site_fract_y
_atom_site_fract_z
Si Si1 0.606454 0.712655 0.669605
Si Si2 0.277915 0.855219 0.444340
Si Si3 0.901132 0.397063 0.072254
Si Si4 0.905467 0.576199 0.328332
Si Si5 0.649477 0.182951 0.934118
Si Si6 0.256990 0.636816 0.466636
Si Si7 0.144938 0.902209 0.938519
Si Si8 0.051347 0.134817 0.664985
O O1 0.355865 0.540615 0.635370
O O2 0.659377 0.531128 0.606657
O O3 0.610969 0.912938 0.802023
O O4 0.809367 0.894610 0.650567
O O5 0.252533 0.655682 0.409390
O O6 0.087148 0.702316 0.382686
O O7 0.537423 0.053617 0.437546
O O8 0.218367 0.044207 0.575506
O O9 0.143514 0.578120 0.053252
O O10 0.861904 0.602833 0.205135
O O11 0.907443 0.221429 0.039913
O O12 0.718419 0.231723 0.001074
O O13 0.896066 0.332201 0.194622
O O14 0.975799 0.791381 0.356370
O O15 0.413477 0.142428 0.971195
O O16 0.000000 0.500000 0.500000
O O17 0.000000 0.000000 0.000000
#
# Coordination Sequence:
#
# PCOD9085138 Si02
#       8
#     2   2   2   2   2   2   2   2
#     4  10  20  36  61  80 111 145 184 231 267 324
#     4  11  23  38  56  81 114 149 181 224 277 326
#     4   9  19  36  58  83 107 144 186 226 268 324
#     4  10  22  39  56  82 110 146 189 221 268 333
#     4   9  19  37  58  83 106 142 190 223 270 324
#     4  11  23  39  54  82 115 144 180 230 277 321
#     4  10  21  37  55  83 113 142 177 229 278 322
#     4  10  19  35  59  82 109 145 185 226 270 315
#
# _framework density 18.445651999999999
#
# number of rings (size 3 to 8) (size 9 to 14) (size 15 to 20)
#    0.000    2.000    2.500    0.750    0.000    3.000 
#    4.500    0.000    0.000    0.000    0.000    0.000 
#    0.000    0.000    0.000    0.000    0.000    0.000 
#
# Total GULP energy -89273.390517 kJ/mol
# GULP energy per Si atom -5579.586907 kJ/mol
# Density = 1.840367 g / cm^3
# Si number density = 18.445652 Si / 1000 Ang^3
#
#
#
# Elastic Constant Matrix: (Units=GPa)
#
#
# Indices 1 2 3 4 5 6 
#
# 1 113.2808 38.0305 33.5210 2.9371 4.3399 32.4206
# 2 38.0305 104.2717 24.4680 4.3997 4.3456 22.7840
# 3 33.5210 24.4680 28.0313 -0.4905 2.7811 9.5889
# 4 2.9371 4.3997 -0.4905 16.3095 1.5648 0.1513
# 5 4.3399 4.3456 2.7811 1.5648 36.5335 4.2431
# 6 32.4206 22.7840 9.5889 0.1513 4.2431 25.6924
#
#
#
# Elastic Compliance Matrix: (Units=1/GPa)
#
#
# Indices 1 2 3 4 5 6 
#
# 1 0.019097 0.001495 -0.017866 -0.004329 0.001299 -0.018945
# 2 0.001495 0.013944 -0.010527 -0.004285 0.000351 -0.010357
# 3 -0.017866 -0.010527 0.063740 0.008165 -0.002815 0.008508
# 4 -0.004329 -0.004285 0.008165 0.063730 -0.003064 0.006346
# 5 0.001299 0.000351 -0.002815 -0.003064 0.028164 -0.005534
# 6 -0.018945 -0.010357 0.008508 0.006346 -0.005534 0.069714
#
#
# Mechanical properties :
#
#
# Convention : Reuss Voigt Hill
#
# Bulk Modulus (GPa) = 23.26348 48.62476 35.94412
# Shear Modulus (GPa) = 15.31329 25.67803 20.49566
#
# Velocity S-wave (km/s) = 2.88442 3.73512 3.33699
# Velocity P-wave (km/s) = 4.87160 6.70968 5.86312
#
# Compressibility (1/GPa) = 0.04298583
#
# Stress axis : x y z
#
# Youngs Moduli (GPa) = 52.36476 71.71374 15.68870
#
# Poissons Ratio (x) = -0.10724 0.28030
# Poissons Ratio (y) = -0.07831 0.16516
# Poissons Ratio (z) = 0.93555 0.75494
#
# Static dielectric constant tensor:
#      x y z
#    x 1.604780 0.013250 0.007470 
#    y 0.013250 1.663360 0.001150 
#    z 0.007470 0.001150 1.640460 
# 
# From -- ./inp_files/272730.got.cif
#   From: 2010.05.17/outbox.cif.g08.bks.cpg/sg2_137_cif.got.tgz:272730.got - 2010.06.03 11:33:40.
