data_PCOD9085273
_publ_section_title
;
Structure prediction by ZEFSAII (Michael W. Deem and Ramdas Pophale) SiO2 
 PCOD9085273
Probable space group: P -1
;
_chemical_formula_sum "Si O2"
_cell_formula_units_Z 16
_cell_length_a 11.549256
_cell_length_b 20.294117
_cell_length_c 9.468096
_cell_angle_alpha 138.813581
_cell_angle_beta 140.173845
_cell_angle_gamma 24.388385
_cell_volume 574.917710
_symmetry_space_group_name_H-M "P -1"
_symmetry_group_IT_number 2
_symmetry_cell_setting 'triclinic'
loop_
_space_group_symop_operation_xyz
x,y,z
-x,-y,-z
loop_
_atom_site_type_symbol
_atom_site_label
_atom_site_fract_x
_atom_site_fract_y
_atom_site_fract_z
Si Si1 0.190013 0.876614 0.772122
Si Si2 0.336049 0.497475 0.438212
Si Si3 0.640627 0.819774 0.571390
Si Si4 0.500822 0.657157 0.063739
Si Si5 0.851756 0.918386 0.747847
Si Si6 0.052451 0.371245 0.922344
Si Si7 0.520414 0.165245 0.263283
Si Si8 0.690839 0.527744 0.325568
O O1 0.481541 0.683263 0.712408
O O2 0.928225 0.920134 0.658436
O O3 0.178629 0.937045 0.705667
O O4 0.266813 0.928364 0.041393
O O5 0.500000 0.500000 0.500000
O O6 0.007738 0.661935 0.334358
O O7 0.391937 0.493316 0.645205
O O8 0.560174 0.749512 0.304610
O O9 0.462850 0.908392 0.697484
O O10 0.680131 0.899075 0.630669
O O11 0.972998 0.650663 0.666419
O O12 0.507198 0.602208 0.133377
O O13 0.187260 0.776163 0.891986
O O14 0.773931 0.499839 0.974345
O O15 0.000000 0.500000 0.000000
O O16 0.307590 0.224055 0.028986
O O17 0.358488 0.336577 0.446654
#
# Coordination Sequence:
#
# PCOD9085273 Si02
#       8
#     2   2   2   2   2   2   2   2
#     4  10  22  42  59  84 130 164 196 257 308 358
#     4  11  22  36  59  90 120 154 198 255 308 358
#     4  11  21  38  63  93 122 161 207 252 310 364
#     4  11  21  39  62  91 125 161 203 252 310 363
#     4  11  24  40  62  88 123 171 207 244 302 375
#     4  12  18  34  62  89 116 160 198 247 316 361
#     4  10  19  37  62  90 123 160 199 261 311 355
#     4  10  19  35  59  90 124 150 194 260 312 348
#
# _framework density 27.830069999999999
#
# number of rings (size 3 to 8) (size 9 to 14) (size 15 to 20)
#    0.000    1.250    6.250    1.500    0.000    2.000 
#    0.000    9.375    0.000    0.000    0.000    0.000 
#    0.000    0.000    0.000    0.000    0.000    0.000 
#
# Total GULP energy -89172.026881 kJ/mol
# GULP energy per Si atom -5573.251680 kJ/mol
# Density = 2.776673 g / cm^3
# Si number density = 27.830070 Si / 1000 Ang^3
#
#
#
# Elastic Constant Matrix: (Units=GPa)
#
#
# Indices 1 2 3 4 5 6 
#
# 1 290.3509 28.8146 71.4790 -6.7462 -33.8868 17.0360
# 2 28.8146 60.8780 31.5809 -1.1250 -22.0012 13.8875
# 3 71.4790 31.5809 68.2899 -6.8892 -27.7285 21.0989
# 4 -6.7462 -1.1250 -6.8892 48.7463 11.7298 -7.2746
# 5 -33.8868 -22.0012 -27.7285 11.7298 64.0346 1.4429
# 6 17.0360 13.8875 21.0989 -7.2746 1.4429 42.3913
#
#
#
# Elastic Compliance Matrix: (Units=1/GPa)
#
#
# Indices 1 2 3 4 5 6 
#
# 1 0.004670 0.000479 -0.005084 -0.000098 0.000442 0.000465
# 2 0.000479 0.023222 -0.007943 -0.002471 0.005345 -0.004452
# 3 -0.005084 -0.007943 0.030109 -0.000114 0.007879 -0.010628
# 4 -0.000098 -0.002471 -0.000114 0.022406 -0.005165 0.004926
# 5 0.000442 0.005345 0.007879 -0.005165 0.022214 -0.007493
# 6 0.000465 -0.004452 -0.010628 0.004926 -0.007493 0.031252
#
#
# Mechanical properties :
#
#
# Convention : Reuss Voigt Hill
#
# Bulk Modulus (GPa) = 30.39047 75.91866 53.15457
# Shear Modulus (GPa) = 29.42242 50.21072 39.81657
#
# Velocity S-wave (km/s) = 3.25501 4.25218 3.78657
# Velocity P-wave (km/s) = 5.00705 7.17263 6.18535
#
# Compressibility (1/GPa) = 0.03290505
#
# Stress axis : x y z
#
# Youngs Moduli (GPa) = 214.12678 43.06208 33.21236
#
# Poissons Ratio (x) = -0.02061 0.16884
# Poissons Ratio (y) = -0.10248 0.26382
# Poissons Ratio (z) = 1.08852 0.34206
#
# Static dielectric constant tensor:
#      x y z
#    x 2.329460 0.003940 0.285670 
#    y 0.003940 2.181450 0.183720 
#    z 0.285670 0.183720 3.181020 
# 
# From -- ./inp_files/283281.got.cif
#   From: 2010.05.17/outbox.cif.g08.bks.cpg/sg2_142_cif.got.tgz:283281.got - 2010.06.03 11:33:40.
