data_PCOD9085963
_publ_section_title
;
Structure prediction by ZEFSAII (Michael W. Deem and Ramdas Pophale) SiO2 
 PCOD9085963
Probable space group: P -1
;
_chemical_formula_sum "Si O2"
_cell_formula_units_Z 16
_cell_length_a 5.380977
_cell_length_b 9.473029
_cell_length_c 22.381992
_cell_angle_alpha 47.494744
_cell_angle_beta 68.919282
_cell_angle_gamma 51.319454
_cell_volume 652.697244
_symmetry_space_group_name_H-M "P -1"
_symmetry_group_IT_number 2
_symmetry_cell_setting 'triclinic'
loop_
_space_group_symop_operation_xyz
x,y,z
-x,-y,-z
loop_
_atom_site_type_symbol
_atom_site_label
_atom_site_fract_x
_atom_site_fract_y
_atom_site_fract_z
Si Si1 0.269429 0.661812 0.607009
Si Si2 0.773434 0.906293 0.739336
Si Si3 0.876717 0.284165 0.623520
Si Si4 0.544394 0.623771 0.781266
Si Si5 0.726095 0.294460 0.757489
Si Si6 0.567731 0.559279 0.042107
Si Si7 0.843645 0.877222 0.477395
Si Si8 0.291284 0.128496 0.111391
O O1 0.618696 0.555538 0.575898
O O2 0.387658 0.467710 0.702740
O O3 0.064714 0.683023 0.561958
O O4 0.103941 0.911671 0.580287
O O5 0.661018 0.791596 0.735672
O O6 0.612243 0.916890 0.814277
O O7 0.164108 0.757818 0.758886
O O8 0.691844 0.158369 0.659850
O O9 0.977510 0.208559 0.705456
O O10 0.111539 0.204937 0.570780
O O11 0.742064 0.451506 0.759790
O O12 0.606909 0.475387 0.878415
O O13 0.728557 0.083720 0.845421
O O14 0.938303 0.360361 0.078166
O O15 0.500000 0.500000 0.000000
O O16 0.516295 0.806726 0.966967
O O17 0.500000 0.000000 0.500000
#
# Coordination Sequence:
#
# PCOD9085963 Si02
#       8
#     2   2   2   2   2   2   2   2
#     4   9  22  44  67 101 140 179 237 287 354 428
#     4  10  21  42  67  97 138 190 232 291 352 423
#     4   9  21  45  69  99 141 186 236 286 360 419
#     4  11  22  41  67 100 143 184 238 292 356 421
#     4   9  21  43  63  98 135 185 233 294 345 424
#     4  10  19  35  65  94 131 188 233 288 357 418
#     4  11  22  43  72 103 139 182 231 294 360 426
#     4   9  19  39  62  93 136 178 239 288 354 417
#
# _framework density 24.513665
#
# number of rings (size 3 to 8) (size 9 to 14) (size 15 to 20)
#    0.750    1.500    1.250    1.125    0.000    1.000 
#   18.000    1.875    0.000    0.000    0.000    0.000 
#    0.000    0.000    0.000    0.000    0.000    0.000 
#
# Total GULP energy -89278.398102 kJ/mol
# GULP energy per Si atom -5579.899881 kJ/mol
# Density = 2.445787 g / cm^3
# Si number density = 24.513665 Si / 1000 Ang^3
#
#
#
# Elastic Constant Matrix: (Units=GPa)
#
#
# Indices 1 2 3 4 5 6 
#
# 1 73.8407 30.3221 34.0696 4.6170 -8.0862 16.4383
# 2 30.3221 153.6450 29.5548 16.7191 -5.4471 24.8072
# 3 34.0696 29.5548 105.3026 1.2585 -7.3656 2.5098
# 4 4.6170 16.7191 1.2585 37.9756 4.3839 -3.5965
# 5 -8.0862 -5.4471 -7.3656 4.3839 28.6931 -4.2771
# 6 16.4383 24.8072 2.5098 -3.5965 -4.2771 32.7834
#
#
#
# Elastic Compliance Matrix: (Units=1/GPa)
#
#
# Indices 1 2 3 4 5 6 
#
# 1 0.018719 -0.000931 -0.005362 -0.002803 0.002929 -0.008197
# 2 -0.000931 0.008540 -0.001854 -0.004246 0.000601 -0.006241
# 3 -0.005362 -0.001854 0.011757 0.001240 0.001491 0.003522
# 4 -0.002803 -0.004246 0.001240 0.029729 -0.004752 0.007164
# 5 0.002929 0.000601 0.001491 -0.004752 0.037243 0.002300
# 6 -0.008197 -0.006241 0.003522 0.007164 0.002300 0.040152
#
#
# Mechanical properties :
#
#
# Convention : Reuss Voigt Hill
#
# Bulk Modulus (GPa) = 44.00747 57.85347 50.93047
# Shear Modulus (GPa) = 29.41060 35.81320 32.61190
#
# Velocity S-wave (km/s) = 3.46752 3.82638 3.65136
# Velocity P-wave (km/s) = 5.83290 6.57064 6.21273
#
# Compressibility (1/GPa) = 0.02272342
#
# Stress axis : x y z
#
# Youngs Moduli (GPa) = 53.42047 117.09930 85.05555
#
# Poissons Ratio (x) = 0.10898 0.45603
# Poissons Ratio (y) = 0.04972 0.15771
# Poissons Ratio (z) = 0.28642 0.21712
#
# Static dielectric constant tensor:
#      x y z
#    x 2.094320 -0.030950 -0.024570 
#    y -0.030950 1.954650 -0.012250 
#    z -0.024570 -0.012250 2.007230 
# 
# From -- ./inp_files/603979.got.cif
#   From: 2010.05.17/outbox.cif.g08.bks.cpg/sg2_302_cif.got.tgz:603979.got - 2010.06.03 11:33:40.
