data_PCOD9085284
_publ_section_title
;
Structure prediction by ZEFSAII (Michael W. Deem and Ramdas Pophale) SiO2 
 PCOD9085284
Probable space group: P -1
;
_chemical_formula_sum "Si O2"
_cell_formula_units_Z 12
_cell_length_a 8.182728
_cell_length_b 8.066870
_cell_length_c 6.731267
_cell_angle_alpha 104.990279
_cell_angle_beta 79.474519
_cell_angle_gamma 75.682865
_cell_volume 401.175316
_symmetry_space_group_name_H-M "P -1"
_symmetry_group_IT_number 2
_symmetry_cell_setting 'triclinic'
loop_
_space_group_symop_operation_xyz
x,y,z
-x,-y,-z
loop_
_atom_site_type_symbol
_atom_site_label
_atom_site_fract_x
_atom_site_fract_y
_atom_site_fract_z
Si Si1 0.824039 0.270907 0.284072
Si Si2 0.147513 0.990069 0.143275
Si Si3 0.507178 0.033103 0.770266
Si Si4 0.657336 0.584503 0.955683
Si Si5 0.036653 0.724556 0.315276
Si Si6 0.324519 0.334464 0.493344
O O1 0.844110 0.268279 0.517175
O O2 0.691521 0.472243 0.344629
O O3 0.773695 0.133709 0.102607
O O4 0.037015 0.193200 0.171048
O O5 0.292527 0.967241 0.270103
O O6 0.010263 0.904808 0.251727
O O7 0.519038 0.856867 0.579845
O O8 0.375809 0.235256 0.848007
O O9 0.500000 0.000000 0.000000
O O10 0.842745 0.433800 0.898008
O O11 0.663287 0.637158 0.738604
O O12 0.500000 0.500000 0.000000
O O13 0.864143 0.685678 0.416058
#
# Coordination Sequence:
#
# PCOD9085284 Si02
#       6
#     2   2   2   2   2   2
#     4  10  22  38  59  97 120 159 205 260 298 359
#     4  11  22  37  64  93 124 157 206 257 307 357
#     4  10  21  37  62  91 120 167 202 248 313 368
#     4  10  19  35  59  91 118 159 205 242 304 365
#     4  11  21  39  66  91 121 163 208 250 304 366
#     4  10  22  37  61  90 125 158 208 252 297 364
#
# _framework density 29.912110999999999
#
# number of rings (size 3 to 8) (size 9 to 14) (size 15 to 20)
#    0.000    1.667    3.333    2.500    2.333    0.667 
#    0.000    7.500    0.000    2.000    0.000    0.000 
#    0.000    0.000    0.000    0.000    0.000    0.000 
#
# Total GULP energy -67087.564086 kJ/mol
# GULP energy per Si atom -5590.630340 kJ/mol
# Density = 2.984403 g / cm^3
# Si number density = 29.912111 Si / 1000 Ang^3
#
#
#
# Elastic Constant Matrix: (Units=GPa)
#
#
# Indices 1 2 3 4 5 6 
#
# 1 116.3801 27.3128 45.4453 -4.8873 -7.8360 -2.6573
# 2 27.3128 149.7321 75.9747 50.2981 -25.1820 -29.3088
# 3 45.4453 75.9747 262.7460 67.2428 -12.8764 9.2035
# 4 -4.8873 50.2981 67.2428 96.3130 4.1881 -29.3632
# 5 -7.8360 -25.1820 -12.8764 4.1881 70.1136 -7.8223
# 6 -2.6573 -29.3088 9.2035 -29.3632 -7.8223 39.8303
#
#
#
# Elastic Compliance Matrix: (Units=1/GPa)
#
#
# Indices 1 2 3 4 5 6 
#
# 1 0.010103 -0.001154 -0.002497 0.003854 0.000396 0.003321
# 2 -0.001154 0.011216 -0.002702 -0.001643 0.004445 0.008462
# 3 -0.002497 -0.002702 0.006801 -0.005945 -0.000562 -0.008219
# 4 0.003854 -0.001643 -0.005945 0.020256 -0.000765 0.015205
# 5 0.000396 0.004445 -0.000562 -0.000765 0.016528 0.006109
# 6 0.003321 0.008462 -0.008219 0.015205 0.006109 0.045863
#
#
# Mechanical properties :
#
#
# Convention : Reuss Voigt Hill
#
# Bulk Modulus (GPa) = 64.87190 91.81377 78.34284
# Shear Modulus (GPa) = 38.87764 66.59307 52.73536
#
# Velocity S-wave (km/s) = 3.60909 4.72348 4.20338
# Velocity P-wave (km/s) = 6.25315 7.77878 7.05732
#
# Compressibility (1/GPa) = 0.01541499
#
# Stress axis : x y z
#
# Youngs Moduli (GPa) = 98.98392 89.15973 147.03795
#
# Poissons Ratio (x) = 0.10287 0.36714
# Poissons Ratio (y) = 0.11420 0.39724
# Poissons Ratio (z) = 0.24715 0.24088
#
# Static dielectric constant tensor:
#      x y z
#    x 2.382160 0.014930 -0.035630 
#    y 0.014930 2.502850 0.023620 
#    z -0.035630 0.023620 2.375000 
# 
# From -- ./inp_files/170820.got.cif
#   From: 2010.05.17/outbox.cif.g08.bks.cpg/sg2_86_cif.got.tgz:170820.got - 2010.06.03 11:33:40.
