data_PCOD9085260
_publ_section_title
;
Structure prediction by ZEFSAII (Michael W. Deem and Ramdas Pophale) SiO2 
 PCOD9085260
Probable space group: P -1
;
_chemical_formula_sum "Si O2"
_cell_formula_units_Z 14
_cell_length_a 8.142055
_cell_length_b 8.142726
_cell_length_c 16.583675
_cell_angle_alpha 143.429288
_cell_angle_beta 118.054567
_cell_angle_gamma 73.643555
_cell_volume 568.371118
_symmetry_space_group_name_H-M "P -1"
_symmetry_group_IT_number 2
_symmetry_cell_setting 'triclinic'
loop_
_space_group_symop_operation_xyz
x,y,z
-x,-y,-z
loop_
_atom_site_type_symbol
_atom_site_label
_atom_site_fract_x
_atom_site_fract_y
_atom_site_fract_z
Si Si1 0.605275 0.020044 0.324553
Si Si2 0.502156 0.065974 0.149356
Si Si3 0.899074 0.670020 0.209285
Si Si4 0.287189 0.937368 0.461065
Si Si5 0.825052 0.476966 0.295193
Si Si6 0.111797 0.034443 0.955142
Si Si7 0.694689 0.535122 0.953095
O O1 0.792114 0.937421 0.292794
O O2 0.453008 0.747505 0.212122
O O3 0.499680 0.138748 0.272677
O O4 0.685357 0.173821 0.485598
O O5 0.650632 0.304856 0.235145
O O6 0.319549 0.046400 0.045386
O O7 0.569111 0.767935 0.039345
O O8 0.828205 0.528680 0.221017
O O9 0.125987 0.737984 0.294477
O O10 0.808351 0.488989 0.042009
O O11 0.500000 0.000000 0.500000
O O12 0.184430 0.209520 0.552998
O O13 0.956456 0.234078 0.226067
O O14 0.156254 0.305152 0.013805
O O15 0.000000 0.000000 0.000000
#
# Coordination Sequence:
#
# PCOD9085260 Si02
#       7
#     2   2   2   2   2   2   2
#     4  10  19  38  64  89 117 159 202 248 299 355
#     4  10  19  35  59  89 120 153 196 249 303 353
#     4  10  20  38  62  89 118 158 205 248 296 358
#     4  11  24  41  61  87 120 161 204 247 298 360
#     4  10  20  39  60  81 118 158 196 246 296 348
#     4  11  22  35  57  92 126 157 194 245 304 357
#     4  10  20  38  64  91 120 158 201 249 300 355
#
# _framework density 24.631793999999999
#
# number of rings (size 3 to 8) (size 9 to 14) (size 15 to 20)
#    0.000    1.714    0.000    9.429    0.000    3.429 
#    0.000   14.286    0.000    0.000    0.000    0.000 
#    0.000    0.000    0.000    0.000    0.000    0.000 
#
# Total GULP energy -77973.841112 kJ/mol
# GULP energy per Si atom -5569.560079 kJ/mol
# Density = 2.457573 g / cm^3
# Si number density = 24.631794 Si / 1000 Ang^3
#
#
#
# Elastic Constant Matrix: (Units=GPa)
#
#
# Indices 1 2 3 4 5 6 
#
# 1 88.7080 12.3056 20.2676 -2.4388 -1.0807 22.9194
# 2 12.3056 68.1932 24.6776 -3.4408 12.7188 24.7346
# 3 20.2676 24.6776 90.6750 -11.0931 4.8347 2.5015
# 4 -2.4388 -3.4408 -11.0931 29.2654 -1.8665 8.1120
# 5 -1.0807 12.7188 4.8347 -1.8665 32.8004 4.6967
# 6 22.9194 24.7346 2.5015 8.1120 4.6967 26.2213
#
#
#
# Elastic Compliance Matrix: (Units=1/GPa)
#
#
# Indices 1 2 3 4 5 6 
#
# 1 0.018043 0.007495 -0.004549 0.007816 0.002420 -0.025258
# 2 0.007495 0.031330 -0.007459 0.011772 -0.004663 -0.038200
# 3 -0.004549 -0.007459 0.014024 0.001436 -0.000579 0.009334
# 4 0.007816 0.011772 0.001436 0.046023 0.002799 -0.032813
# 5 0.002420 -0.004663 -0.000579 0.002799 0.033262 -0.004486
# 6 -0.025258 -0.038200 0.009334 -0.032813 -0.004486 0.106313
#
#
# Mechanical properties :
#
#
# Convention : Reuss Voigt Hill
#
# Bulk Modulus (GPa) = 18.39219 40.23085 29.31152
# Shear Modulus (GPa) = 18.10636 30.34578 24.22607
#
# Velocity S-wave (km/s) = 2.71418 3.51376 3.13953
# Velocity P-wave (km/s) = 4.15998 5.72978 5.00678
#
# Compressibility (1/GPa) = 0.05437089
#
# Stress axis : x y z
#
# Youngs Moduli (GPa) = 55.42372 31.91783 71.30534
#
# Poissons Ratio (x) = -0.23921 0.32434
# Poissons Ratio (y) = -0.41538 0.53189
# Poissons Ratio (z) = 0.25210 0.23808
#
# Static dielectric constant tensor:
#      x y z
#    x 2.052960 -0.086380 -0.084330 
#    y -0.086380 2.053110 0.072980 
#    z -0.084330 0.072980 2.017130 
# 
# From -- ./inp_files/557693.got.cif
#   From: 2010.05.17/outbox.cif.g08.bks.cpg/sg2_279_cif.got.tgz:557693.got - 2010.06.03 11:33:40.
