data_PCOD9085485
_publ_section_title
;
Structure prediction by ZEFSAII (Michael W. Deem and Ramdas Pophale) SiO2 
 PCOD9085485
Probable space group: P -1
;
_chemical_formula_sum "Si O2"
_cell_formula_units_Z 16
_cell_length_a 14.954765
_cell_length_b 8.994207
_cell_length_c 10.862267
_cell_angle_alpha 125.589775
_cell_angle_beta 145.764941
_cell_angle_gamma 49.113654
_cell_volume 618.545172
_symmetry_space_group_name_H-M "P -1"
_symmetry_group_IT_number 2
_symmetry_cell_setting 'triclinic'
loop_
_space_group_symop_operation_xyz
x,y,z
-x,-y,-z
loop_
_atom_site_type_symbol
_atom_site_label
_atom_site_fract_x
_atom_site_fract_y
_atom_site_fract_z
Si Si1 0.061017 0.675712 0.130925
Si Si2 0.124591 0.918208 0.990681
Si Si3 0.601849 0.985534 0.974333
Si Si4 0.222289 0.533667 0.672813
Si Si5 0.620114 0.558371 0.760707
Si Si6 0.104269 0.214959 0.502102
Si Si7 0.457240 0.727817 0.176664
Si Si8 0.289647 0.800483 0.621774
O O1 0.194836 0.612406 0.135962
O O2 0.164564 0.703531 0.380017
O O3 0.911126 0.886708 0.038916
O O4 0.000000 0.500000 0.000000
O O5 0.033752 0.786016 0.757489
O O6 0.330124 0.820496 0.190838
O O7 0.000000 0.000000 0.000000
O O8 0.734300 0.083745 0.221302
O O9 0.656348 0.760315 0.886493
O O10 0.500000 0.000000 0.000000
O O11 0.529690 0.113046 0.830989
O O12 0.189104 0.368783 0.639189
O O13 0.347023 0.414161 0.647898
O O14 0.032960 0.689457 0.498573
O O15 0.344316 0.621419 0.927145
O O16 0.500000 0.500000 0.500000
O O17 0.484401 0.636093 0.756809
O O18 0.238324 0.991914 0.561892
#
# Coordination Sequence:
#
# PCOD9085485 Si02
#       8
#     2   2   2   2   2   2   2   2
#     4  10  20  38  59  87 123 162 204 262 307 366
#     4  10  22  42  59  83 120 171 212 248 312 366
#     4  10  19  35  60  96 121 157 200 253 324 367
#     4   9  18  35  58  87 115 156 198 246 315 346
#     4   9  18  34  56  86 116 158 200 240 297 370
#     4   9  18  37  61  84 123 160 197 254 309 366
#     4  10  20  37  61  86 126 153 201 259 303 367
#     4   9  19  36  59  88 124 156 198 247 317 372
#
# _framework density 25.867149999999999
#
# number of rings (size 3 to 8) (size 9 to 14) (size 15 to 20)
#    0.000    2.500    0.000    2.250    0.000    0.000 
#   22.500    9.375    0.000    0.000    0.000    0.000 
#    0.000    0.000    0.000    0.000    0.000    0.000 
#
# Total GULP energy -89091.592614 kJ/mol
# GULP energy per Si atom -5568.224538 kJ/mol
# Density = 2.580828 g / cm^3
# Si number density = 25.867150 Si / 1000 Ang^3
#
#
#
# Elastic Constant Matrix: (Units=GPa)
#
#
# Indices 1 2 3 4 5 6 
#
# 1 130.0550 44.9033 12.1741 -7.6467 24.9696 -12.6587
# 2 44.9033 104.2365 39.8515 15.4182 12.3522 -20.3568
# 3 12.1741 39.8515 69.7620 32.1579 11.9381 3.6120
# 4 -7.6467 15.4182 32.1579 49.4339 -5.2011 18.1562
# 5 24.9696 12.3522 11.9381 -5.2011 35.9772 -0.9959
# 6 -12.6587 -20.3568 3.6120 18.1562 -0.9959 50.7202
#
#
#
# Elastic Compliance Matrix: (Units=1/GPa)
#
#
# Indices 1 2 3 4 5 6 
#
# 1 0.010311 -0.004350 0.000815 0.001823 -0.005669 0.000006
# 2 -0.004350 0.016214 -0.006951 -0.003962 -0.000611 0.007323
# 3 0.000815 -0.006951 0.027768 -0.017339 -0.009860 0.001449
# 4 0.001823 -0.003962 -0.017339 0.039241 0.011142 -0.013728
# 5 -0.005669 -0.000611 -0.009860 0.011142 0.036706 -0.004226
# 6 0.000006 0.007323 0.001449 -0.013728 -0.004226 0.027385
#
#
# Mechanical properties :
#
#
# Convention : Reuss Voigt Hill
#
# Bulk Modulus (GPa) = 30.01144 55.32345 42.66744
# Shear Modulus (GPa) = 26.35700 41.03456 33.69578
#
# Velocity S-wave (km/s) = 3.19554 3.98723 3.61314
# Velocity P-wave (km/s) = 5.02421 6.52927 5.82555
#
# Compressibility (1/GPa) = 0.03332063
#
# Stress axis : x y z
#
# Youngs Moduli (GPa) = 96.98465 61.67627 36.01237
#
# Poissons Ratio (x) = 0.26830 -0.02936
# Poissons Ratio (y) = 0.42190 0.25033
# Poissons Ratio (z) = -0.07908 0.42873
#
# Static dielectric constant tensor:
#      x y z
#    x 2.432300 -0.197830 -0.037490 
#    y -0.197830 2.384840 0.108160 
#    z -0.037490 0.108160 2.061500 
# 
# From -- ./inp_files/448255.got.cif
#   From: 2010.05.17/outbox.cif.g08.bks.cpg/sg2_225_cif.got.tgz:448255.got - 2010.06.03 11:33:40.
