data_PCOD9085082
_publ_section_title
;
Structure prediction by ZEFSAII (Michael W. Deem and Ramdas Pophale) SiO2 
 PCOD9085082
Probable space group: P -1
;
_chemical_formula_sum "Si O2"
_cell_formula_units_Z 12
_cell_length_a 5.222994
_cell_length_b 16.714792
_cell_length_c 5.332427
_cell_angle_alpha 91.125058
_cell_angle_beta 101.794157
_cell_angle_gamma 97.064817
_cell_volume 451.759063
_symmetry_space_group_name_H-M "P -1"
_symmetry_group_IT_number 2
_symmetry_cell_setting 'triclinic'
loop_
_space_group_symop_operation_xyz
x,y,z
-x,-y,-z
loop_
_atom_site_type_symbol
_atom_site_label
_atom_site_fract_x
_atom_site_fract_y
_atom_site_fract_z
Si Si1 0.121904 0.275039 0.834744
Si Si2 0.245211 0.024823 0.739194
Si Si3 0.127992 0.591382 0.018393
Si Si4 0.400379 0.178474 0.547829
Si Si5 0.940236 0.125864 0.074897
Si Si6 0.727865 0.332665 0.447386
O O1 0.357767 0.228478 0.796155
O O2 0.023107 0.312256 0.560794
O O3 0.104302 0.350291 0.015086
O O4 0.908199 0.203732 0.903826
O O5 0.453932 0.088197 0.631712
O O6 0.293628 0.938876 0.863512
O O7 0.000000 0.000000 0.500000
O O8 0.118726 0.074864 0.934523
O O9 0.716858 0.384584 0.202726
O O10 0.000000 0.500000 0.000000
O O11 0.307651 0.617508 0.300526
O O12 0.567772 0.243442 0.409345
O O13 0.121259 0.159511 0.346213
#
# Coordination Sequence:
#
# PCOD9085082 Si02
#       6
#     2   2   2   2   2   2
#     4   9  21  35  61  85 119 155 196 242 294 346
#     4   8  16  29  51  84 115 158 192 237 283 340
#     4  10  22  43  63  85 119 155 191 244 302 354
#     4  10  19  35  58  89 117 155 201 240 288 343
#     4   9  16  31  57  80 120 155 197 234 291 338
#     4  10  23  38  63  88 117 154 195 244 295 349
#
# _framework density 26.562830999999999
#
# number of rings (size 3 to 8) (size 9 to 14) (size 15 to 20)
#    1.000    1.667    0.000    1.500    4.667    0.000 
#    0.000    2.500    0.000   35.000    0.000    0.000 
#    0.000    0.000    0.000    0.000    0.000    0.000 
#
# Total GULP energy -66940.089977 kJ/mol
# GULP energy per Si atom -5578.340831 kJ/mol
# Density = 2.650237 g / cm^3
# Si number density = 26.562831 Si / 1000 Ang^3
#
#
#
# Elastic Constant Matrix: (Units=GPa)
#
#
# Indices 1 2 3 4 5 6 
#
# 1 62.2887 34.8912 15.3292 -4.0552 -5.6047 19.7599
# 2 34.8912 227.0487 71.5425 -10.5331 -13.7515 45.0137
# 3 15.3292 71.5425 152.5340 -12.7777 -25.9929 24.0226
# 4 -4.0552 -10.5331 -12.7777 43.0683 10.9814 -10.5373
# 5 -5.6047 -13.7515 -25.9929 10.9814 17.7667 -0.1193
# 6 19.7599 45.0137 24.0226 -10.5373 -0.1193 33.2912
#
#
#
# Elastic Compliance Matrix: (Units=1/GPa)
#
#
# Indices 1 2 3 4 5 6 
#
# 1 0.021286 -0.000475 0.002080 -0.004124 0.011839 -0.014755
# 2 -0.000475 0.006728 -0.001141 -0.002011 0.004574 -0.008612
# 3 0.002080 -0.001141 0.011031 -0.003541 0.018043 -0.008709
# 4 -0.004124 -0.002011 -0.003541 0.032906 -0.028256 0.018036
# 5 0.011839 0.004574 0.018043 -0.028256 0.107187 -0.034790
# 6 -0.014755 -0.008612 -0.008709 0.018036 -0.034790 0.062308
#
#
# Mechanical properties :
#
#
# Convention : Reuss Voigt Hill
#
# Bulk Modulus (GPa) = 25.01697 76.15526 50.58611
# Shear Modulus (GPa) = 19.69719 40.16580 29.93150
#
# Velocity S-wave (km/s) = 2.72606 3.89280 3.36045
# Velocity P-wave (km/s) = 4.39853 6.99552 5.84313
#
# Compressibility (1/GPa) = 0.03997287
#
# Stress axis : x y z
#
# Youngs Moduli (GPa) = 46.97847 148.63602 90.65120
#
# Poissons Ratio (x) = 0.07066 -0.18852
# Poissons Ratio (y) = 0.02233 0.10339
# Poissons Ratio (z) = -0.09770 0.16952
#
# Static dielectric constant tensor:
#      x y z
#    x 2.218550 0.004230 0.054540 
#    y 0.004230 2.054400 -0.024860 
#    z 0.054540 -0.024860 2.175670 
# 
# From -- ./inp_files/8195.got.cif
#   From: 2010.05.17/outbox.cif.g08.bks.cpg/sg2_5_cif.got.tgz:8195.got - 2010.06.03 11:33:40.
