data_PCOD9085575
_publ_section_title
;
Structure prediction by ZEFSAII (Michael W. Deem and Ramdas Pophale) SiO2 
 PCOD9085575
Probable space group: P -1
;
_chemical_formula_sum "Si O2"
_cell_formula_units_Z 14
_cell_length_a 8.691862
_cell_length_b 12.154327
_cell_length_c 9.129195
_cell_angle_alpha 129.505454
_cell_angle_beta 68.765142
_cell_angle_gamma 129.078863
_cell_volume 576.436382
_symmetry_space_group_name_H-M "P -1"
_symmetry_group_IT_number 2
_symmetry_cell_setting 'triclinic'
loop_
_space_group_symop_operation_xyz
x,y,z
-x,-y,-z
loop_
_atom_site_type_symbol
_atom_site_label
_atom_site_fract_x
_atom_site_fract_y
_atom_site_fract_z
Si Si1 0.570635 0.910878 0.611668
Si Si2 0.056201 0.390290 0.713570
Si Si3 0.041661 0.858678 0.211225
Si Si4 0.006860 0.775156 0.715155
Si Si5 0.372998 0.740715 0.239470
Si Si6 0.253139 0.170702 0.957477
Si Si7 0.243959 0.736202 0.819240
O O1 0.451603 0.773877 0.407434
O O2 0.442040 0.845521 0.748462
O O3 0.794892 0.966386 0.613239
O O4 0.597859 0.083648 0.682820
O O5 0.005470 0.271986 0.488134
O O6 0.232715 0.579603 0.770439
O O7 0.071187 0.294490 0.764249
O O8 0.860580 0.395931 0.808469
O O9 0.889088 0.858709 0.155024
O O10 0.185336 0.826795 0.035094
O O11 0.068625 0.671128 0.704404
O O12 0.810370 0.756047 0.828111
O O13 0.181869 0.975590 0.852585
O O14 0.520829 0.716546 0.073265
#
# Coordination Sequence:
#
# PCOD9085575 Si02
#       7
#     2   2   2   2   2   2   2
#     4  10  19  35  61  89 113 146 208 236 278 333
#     4  11  22  38  63  85 119 152 198 232 292 344
#     4  10  23  36  60  88 117 155 189 244 289 340
#     4  10  20  35  61  88 109 154 194 241 282 340
#     4  10  19  35  61  92 110 149 195 248 275 343
#     4  10  20  38  60  86 122 144 197 240 295 333
#     4  11  20  38  61  88 116 152 196 242 281 345
#
# _framework density 24.287154000000001
#
# number of rings (size 3 to 8) (size 9 to 14) (size 15 to 20)
#    0.000    1.714    2.857    3.000    0.000    2.286 
#    0.000    2.857    3.143    1.714    0.000    0.000 
#    0.000    0.000    0.000    0.000    0.000    0.000 
#
# Total GULP energy -78364.267155 kJ/mol
# GULP energy per Si atom -5597.447654 kJ/mol
# Density = 2.423188 g / cm^3
# Si number density = 24.287154 Si / 1000 Ang^3
#
#
#
# Elastic Constant Matrix: (Units=GPa)
#
#
# Indices 1 2 3 4 5 6 
#
# 1 75.7143 28.9566 23.5111 -13.3267 -2.6773 2.1217
# 2 28.9566 111.9990 21.4220 -27.8360 7.5293 -10.4162
# 3 23.5111 21.4220 73.9287 -20.1542 3.6419 -2.1753
# 4 -13.3267 -27.8360 -20.1542 34.5468 -0.8442 2.2426
# 5 -2.6773 7.5293 3.6419 -0.8442 25.9255 -13.7157
# 6 2.1217 -10.4162 -2.1753 2.2426 -13.7157 27.1479
#
#
#
# Elastic Compliance Matrix: (Units=1/GPa)
#
#
# Indices 1 2 3 4 5 6 
#
# 1 0.016098 -0.003397 -0.003932 0.001353 0.002272 -0.001841
# 2 -0.003397 0.012323 -0.000025 0.008340 -0.001881 0.003352
# 3 -0.003932 -0.000025 0.017216 0.008466 -0.002763 -0.000418
# 4 0.001353 0.008340 0.008466 0.041125 -0.002639 -0.000958
# 5 0.002272 -0.001881 -0.002763 -0.002639 0.053469 0.026111
# 6 -0.001841 0.003352 -0.000418 -0.000958 0.026111 0.051503
#
#
# Mechanical properties :
#
#
# Convention : Reuss Voigt Hill
#
# Bulk Modulus (GPa) = 32.33385 45.49128 38.91256
# Shear Modulus (GPa) = 23.06765 30.04086 26.55426
#
# Velocity S-wave (km/s) = 3.08521 3.52078 3.31016
# Velocity P-wave (km/s) = 5.10229 5.94130 5.53771
#
# Compressibility (1/GPa) = 0.03092734
#
# Stress axis : x y z
#
# Youngs Moduli (GPa) = 62.11920 81.14920 58.08477
#
# Poissons Ratio (x) = 0.27570 0.22840
# Poissons Ratio (y) = 0.21105 0.00147
# Poissons Ratio (z) = 0.24427 0.00205
#
# Static dielectric constant tensor:
#      x y z
#    x 1.927530 0.018460 0.015440 
#    y 0.018460 1.913140 0.014150 
#    z 0.015440 0.014150 1.978790 
# 
# From -- ./inp_files/157610.got.cif
#   From: 2010.05.17/outbox.cif.g08.bks.cpg/sg2_79_cif.got.tgz:157610.got - 2010.06.03 11:33:40.
