data_PCOD9085481
_publ_section_title
;
Structure prediction by ZEFSAII (Michael W. Deem and Ramdas Pophale) SiO2 
 PCOD9085481
Probable space group: P -1
;
_chemical_formula_sum "Si O2"
_cell_formula_units_Z 16
_cell_length_a 12.210178
_cell_length_b 13.349597
_cell_length_c 7.857183
_cell_angle_alpha 98.810855
_cell_angle_beta 130.368968
_cell_angle_gamma 45.619927
_cell_volume 582.149645
_symmetry_space_group_name_H-M "P -1"
_symmetry_group_IT_number 2
_symmetry_cell_setting 'triclinic'
loop_
_space_group_symop_operation_xyz
x,y,z
-x,-y,-z
loop_
_atom_site_type_symbol
_atom_site_label
_atom_site_fract_x
_atom_site_fract_y
_atom_site_fract_z
Si Si1 0.360635 0.579440 0.600250
Si Si2 0.759574 0.564825 0.591953
Si Si3 0.072275 0.935428 0.747835
Si Si4 0.291893 0.206332 0.980256
Si Si5 0.122482 0.334546 0.488574
Si Si6 0.440849 0.748952 0.651770
Si Si7 0.879920 0.286433 0.075085
Si Si8 0.828864 0.916128 0.997034
O O1 0.322201 0.487631 0.615058
O O2 0.421626 0.662247 0.734611
O O3 0.089761 0.747074 0.303456
O O4 0.632724 0.410624 0.755921
O O5 0.724137 0.695025 0.508602
O O6 0.622111 0.629972 0.647887
O O7 0.044561 0.391717 0.855475
O O8 0.825963 0.089421 0.644681
O O9 0.238206 0.932509 0.978847
O O10 0.143512 0.780416 0.813041
O O11 0.000000 0.000000 0.500000
O O12 0.240550 0.209863 0.732637
O O13 0.335522 0.081616 0.100977
O O14 0.483720 0.187752 0.172475
O O15 0.935554 0.366339 0.219477
O O16 0.000000 0.500000 0.500000
O O17 0.104826 0.133708 0.144830
#
# Coordination Sequence:
#
# PCOD9085481 Si02
#       8
#     2   2   2   2   2   2   2   2
#     4  10  20  35  64  96 121 156 215 269 314 370
#     4  10  19  35  60  95 127 159 210 267 317 383
#     4  11  26  45  63  94 134 171 214 267 323 381
#     4  10  20  38  62  91 127 165 207 268 322 371
#     4  10  22  37  58  94 132 164 205 262 323 375
#     4  11  21  40  65  91 123 171 217 260 318 385
#     4  12  22  41  67  93 128 174 215 263 318 382
#     4  10  21  41  67  96 126 166 216 266 318 385
#
# _framework density 27.484342000000002
#
# number of rings (size 3 to 8) (size 9 to 14) (size 15 to 20)
#    0.000    1.500    0.000    7.500    0.000    2.000 
#    0.000   18.750    0.000    0.000    0.000    0.000 
#    0.000    0.000    0.000    0.000    0.000    0.000 
#
# Total GULP energy -89364.971167 kJ/mol
# GULP energy per Si atom -5585.310698 kJ/mol
# Density = 2.742179 g / cm^3
# Si number density = 27.484342 Si / 1000 Ang^3
#
#
#
# Elastic Constant Matrix: (Units=GPa)
#
#
# Indices 1 2 3 4 5 6 
#
# 1 187.6716 47.6955 46.1923 20.8007 7.3316 44.8242
# 2 47.6955 74.1546 19.9899 13.0004 14.0055 13.3162
# 3 46.1923 19.9899 80.0681 19.9200 20.8076 26.5218
# 4 20.8007 13.0004 19.9200 40.2707 7.1345 18.4653
# 5 7.3316 14.0055 20.8076 7.1345 46.4134 16.6522
# 6 44.8242 13.3162 26.5218 18.4653 16.6522 63.4818
#
#
#
# Elastic Compliance Matrix: (Units=1/GPa)
#
#
# Indices 1 2 3 4 5 6 
#
# 1 0.008014 -0.004145 -0.002916 0.000136 0.002834 -0.004353
# 2 -0.004145 0.017404 -0.000541 -0.003149 -0.004438 0.001583
# 3 -0.002916 -0.000541 0.017824 -0.005065 -0.005767 -0.002288
# 4 0.000136 -0.003149 -0.005065 0.031168 0.000772 -0.006588
# 5 0.002834 -0.004438 -0.005767 0.000772 0.027050 -0.005980
# 6 -0.004353 0.001583 -0.002288 -0.006588 -0.005980 0.022935
#
#
# Mechanical properties :
#
#
# Convention : Reuss Voigt Hill
#
# Bulk Modulus (GPa) = 35.66932 63.29442 49.48187
# Shear Modulus (GPa) = 33.56969 45.23430 39.40199
#
# Velocity S-wave (km/s) = 3.49866 4.06127 3.79042
# Velocity P-wave (km/s) = 5.41545 6.71351 6.09911
#
# Compressibility (1/GPa) = 0.02803530
#
# Stress axis : x y z
#
# Youngs Moduli (GPa) = 124.78379 57.45953 56.10569
#
# Poissons Ratio (x) = 0.23820 0.16363
# Poissons Ratio (y) = 0.51729 0.03035
# Poissons Ratio (z) = 0.36393 0.03108
#
# Static dielectric constant tensor:
#      x y z
#    x 2.158930 -0.018290 -0.058970 
#    y -0.018290 2.285950 -0.087450 
#    z -0.058970 -0.087450 2.171430 
# 
# From -- ./inp_files/273500.got.cif
#   From: 2010.05.17/outbox.cif.g08.bks.cpg/sg2_137_cif.got.tgz:273500.got - 2010.06.03 11:33:40.
