data_PCOD9085864
_publ_section_title
;
Structure prediction by ZEFSAII (Michael W. Deem and Ramdas Pophale) SiO2 
 PCOD9085864
Probable space group: P -1
;
_chemical_formula_sum "Si O2"
_cell_formula_units_Z 16
_cell_length_a 15.960472
_cell_length_b 12.755765
_cell_length_c 9.075333
_cell_angle_alpha 109.111868
_cell_angle_beta 56.703439
_cell_angle_gamma 60.660910
_cell_volume 773.389943
_symmetry_space_group_name_H-M "P -1"
_symmetry_group_IT_number 2
_symmetry_cell_setting 'triclinic'
loop_
_space_group_symop_operation_xyz
x,y,z
-x,-y,-z
loop_
_atom_site_type_symbol
_atom_site_label
_atom_site_fract_x
_atom_site_fract_y
_atom_site_fract_z
Si Si1 0.659056 0.918135 0.890717
Si Si2 0.335580 0.480136 0.173621
Si Si3 0.597379 0.467425 0.183731
Si Si4 0.808261 0.172687 0.352096
Si Si5 0.999715 0.412854 0.830305
Si Si6 0.182900 0.384911 0.191056
Si Si7 0.678448 0.141304 0.899796
Si Si8 0.993427 0.170049 0.765425
O O1 0.829583 0.746351 0.526924
O O2 0.669537 0.844198 0.001101
O O3 0.640492 0.067284 0.997093
O O4 0.500000 0.000000 0.000000
O O5 0.243734 0.658367 0.451454
O O6 0.223320 0.470170 0.255184
O O7 0.359516 0.522278 0.015644
O O8 0.538456 0.259604 0.948332
O O9 0.370793 0.698824 0.514691
O O10 0.623597 0.310572 0.096186
O O11 0.771591 0.348040 0.058494
O O12 0.871673 0.030226 0.355099
O O13 0.000000 0.000000 0.000000
O O14 0.001320 0.291903 0.848683
O O15 0.829363 0.590960 0.961097
O O16 0.000000 0.500000 0.000000
O O17 0.000000 0.500000 0.500000
O O18 0.899353 0.940059 0.547199
#
# Coordination Sequence:
#
# PCOD9085864 Si02
#       8
#     2   2   2   2   2   2   2   2
#     4  10  20  36  63  91 125 161 207 259 311 378
#     4  11  19  39  67  90 124 166 213 259 308 380
#     4  11  21  39  67  93 120 162 220 257 305 381
#     4  11  25  39  59  95 133 163 199 262 329 375
#     4  10  23  41  62  87 122 168 212 262 321 372
#     4  10  21  37  63  95 126 160 218 265 313 371
#     4  10  19  35  63  99 119 158 213 262 303 374
#     4  11  21  38  67  87 123 161 213 258 312 381
#
# _framework density 20.688139
#
# number of rings (size 3 to 8) (size 9 to 14) (size 15 to 20)
#    0.000    1.500    5.000    1.125    0.000    2.500 
#    0.000    0.625    5.500    0.000    0.000    0.000 
#    0.000    0.000    0.000    0.000    0.000    0.000 
#
# Total GULP energy -89099.500936 kJ/mol
# GULP energy per Si atom -5568.718809 kJ/mol
# Density = 2.064105 g / cm^3
# Si number density = 20.688139 Si / 1000 Ang^3
#
#
#
# Elastic Constant Matrix: (Units=GPa)
#
#
# Indices 1 2 3 4 5 6 
#
# 1 104.6710 51.0625 35.2127 13.2676 -11.7412 16.8024
# 2 51.0625 112.9305 19.6472 20.9233 3.5117 30.4339
# 3 35.2127 19.6472 72.2609 8.7455 -22.0579 8.4289
# 4 13.2676 20.9233 8.7455 23.6322 -1.6730 -3.5474
# 5 -11.7412 3.5117 -22.0579 -1.6730 26.9560 3.2257
# 6 16.8024 30.4339 8.4289 -3.5474 3.2257 33.1866
#
#
#
# Elastic Compliance Matrix: (Units=1/GPa)
#
#
# Indices 1 2 3 4 5 6 
#
# 1 0.014360 -0.004792 -0.003944 -0.002467 0.003798 -0.002507
# 2 -0.004792 0.018411 0.000069 -0.016268 -0.003540 -0.015870
# 3 -0.003944 0.000069 0.022293 -0.005801 0.016872 -0.005988
# 4 -0.002467 -0.016268 -0.005801 0.063770 -0.002702 0.024721
# 5 0.003798 -0.003540 0.016872 -0.002702 0.053867 -0.008486
# 6 -0.002507 -0.015870 -0.005988 0.024721 -0.008486 0.050944
#
#
# Mechanical properties :
#
#
# Convention : Reuss Voigt Hill
#
# Bulk Modulus (GPa) = 26.50530 55.74525 41.12527
# Shear Modulus (GPa) = 19.71967 29.01762 24.36864
#
# Velocity S-wave (km/s) = 3.09072 3.74922 3.43578
# Velocity P-wave (km/s) = 5.05731 6.76360 5.97171
#
# Compressibility (1/GPa) = 0.03772830
#
# Stress axis : x y z
#
# Youngs Moduli (GPa) = 69.64029 54.31572 44.85797
#
# Poissons Ratio (x) = 0.26029 0.17692
# Poissons Ratio (y) = 0.33373 -0.00309
# Poissons Ratio (z) = 0.27466 -0.00374
#
# Static dielectric constant tensor:
#      x y z
#    x 1.736570 -0.052430 -0.029590 
#    y -0.052430 1.857910 -0.005950 
#    z -0.029590 -0.005950 1.795230 
# 
# From -- ./inp_files/307940.got.cif
#   From: 2010.05.17/outbox.cif.g08.bks.cpg/sg2_154_cif.got.tgz:307940.got - 2010.06.03 11:33:40.
