data_PCOD9085969
_publ_section_title
;
Structure prediction by ZEFSAII (Michael W. Deem and Ramdas Pophale) SiO2 
 PCOD9085969
Probable space group: P -1
;
_chemical_formula_sum "Si O2"
_cell_formula_units_Z 16
_cell_length_a 24.285490
_cell_length_b 9.697621
_cell_length_c 13.213927
_cell_angle_alpha 67.124092
_cell_angle_beta 157.778985
_cell_angle_gamma 124.946081
_cell_volume 858.291768
_symmetry_space_group_name_H-M "P -1"
_symmetry_group_IT_number 2
_symmetry_cell_setting 'triclinic'
loop_
_space_group_symop_operation_xyz
x,y,z
-x,-y,-z
loop_
_atom_site_type_symbol
_atom_site_label
_atom_site_fract_x
_atom_site_fract_y
_atom_site_fract_z
Si Si1 0.282516 0.871845 0.149485
Si Si2 0.694299 0.123374 0.358646
Si Si3 0.391994 0.197482 0.554980
Si Si4 0.878539 0.961516 0.047728
Si Si5 0.876699 0.802273 0.784095
Si Si6 0.769274 0.319798 0.084722
Si Si7 0.974132 0.263150 0.623109
Si Si8 0.012304 0.465403 0.911989
O O1 0.500000 0.000000 0.500000
O O2 0.197350 0.972909 0.016584
O O3 0.272396 0.830742 0.025828
O O4 0.161070 0.670280 0.058089
O O5 0.834325 0.143065 0.509803
O O6 0.814891 0.337288 0.551184
O O7 0.665878 0.998894 0.441532
O O8 0.500000 0.000000 0.000000
O O9 0.281320 0.159322 0.274405
O O10 0.328294 0.275780 0.509844
O O11 0.603273 0.306084 0.857583
O O12 0.934637 0.835838 0.222198
O O13 0.050576 0.136236 0.224827
O O14 0.916320 0.661078 0.930554
O O15 0.000000 0.000000 0.000000
O O16 0.872069 0.290367 0.354043
O O17 0.879512 0.519968 0.157750
O O18 0.000000 0.500000 0.000000
#
# Coordination Sequence:
#
# PCOD9085969 Si02
#       8
#     2   2   2   2   2   2   2   2
#     4  12  25  41  64  96 134 174 216 261 336 400
#     4  12  21  38  69  97 125 175 220 270 322 391
#     4  11  20  37  65  96 125 159 223 272 314 385
#     4  11  21  39  64  94 127 165 218 276 325 379
#     4  10  19  35  65  98 123 160 220 276 322 372
#     4  11  25  41  61  93 133 170 219 259 334 397
#     4  11  24  41  64  93 125 177 217 270 323 389
#     4  12  23  41  67  99 133 172 218 276 332 388
#
# _framework density 18.641679
#
# number of rings (size 3 to 8) (size 9 to 14) (size 15 to 20)
#    0.000    0.750    8.750    0.750    0.000    2.000 
#    0.000    0.000    0.000    4.500    0.000    0.000 
#    0.000    0.000    0.000    0.000    0.000    0.000 
#
# Total GULP energy -89091.558614 kJ/mol
# GULP energy per Si atom -5568.222413 kJ/mol
# Density = 1.859925 g / cm^3
# Si number density = 18.641679 Si / 1000 Ang^3
#
#
#
# Elastic Constant Matrix: (Units=GPa)
#
#
# Indices 1 2 3 4 5 6 
#
# 1 79.0729 19.4905 41.2165 -4.5491 12.5009 -24.2878
# 2 19.4905 64.9581 49.1063 -6.1088 17.5402 -11.6802
# 3 41.2165 49.1063 102.6593 -5.6632 12.5041 -10.2421
# 4 -4.5491 -6.1088 -5.6632 27.4269 -9.5765 5.8186
# 5 12.5009 17.5402 12.5041 -9.5765 17.8668 -3.3233
# 6 -24.2878 -11.6802 -10.2421 5.8186 -3.3233 35.5289
#
#
#
# Elastic Compliance Matrix: (Units=1/GPa)
#
#
# Indices 1 2 3 4 5 6 
#
# 1 0.022272 0.006398 -0.008961 -0.005235 -0.015771 0.014127
# 2 0.006398 0.033187 -0.014352 -0.006576 -0.028765 0.009533
# 3 -0.008961 -0.014352 0.018907 0.003038 0.007795 -0.005162
# 4 -0.005235 -0.006576 0.003038 0.047953 0.031885 -0.009736
# 5 -0.015771 -0.028765 0.007795 0.031885 0.104376 -0.013449
# 6 0.014127 0.009533 -0.005162 -0.009736 -0.013449 0.039786
#
#
# Mechanical properties :
#
#
# Convention : Reuss Voigt Hill
#
# Bulk Modulus (GPa) = 24.66891 51.81296 38.24093
# Shear Modulus (GPa) = 15.93262 25.28965 20.61113
#
# Velocity S-wave (km/s) = 2.92666 3.68723 3.32874
# Velocity P-wave (km/s) = 4.96813 6.78100 5.94409
#
# Compressibility (1/GPa) = 0.04053685
#
# Stress axis : x y z
#
# Youngs Moduli (GPa) = 44.89995 30.13226 52.89144
#
# Poissons Ratio (x) = -0.19278 0.47394
# Poissons Ratio (y) = -0.28726 0.75907
# Poissons Ratio (z) = 0.40233 0.43244
#
# Static dielectric constant tensor:
#      x y z
#    x 1.599810 -0.006030 0.055090 
#    y -0.006030 1.653960 0.036530 
#    z 0.055090 0.036530 1.682090 
# 
# From -- ./inp_files/543832.got.cif
#   From: 2010.05.17/outbox.cif.g08.bks.cpg/sg2_272_cif.got.tgz:543832.got - 2010.06.03 11:33:40.
