data_PCOD9085176
_publ_section_title
;
Structure prediction by ZEFSAII (Michael W. Deem and Ramdas Pophale) SiO2 
 PCOD9085176
Probable space group: P -1
;
_chemical_formula_sum "Si O2"
_cell_formula_units_Z 16
_cell_length_a 26.992795
_cell_length_b 10.903743
_cell_length_c 18.302738
_cell_angle_alpha 26.820300
_cell_angle_beta 17.702579
_cell_angle_gamma 33.832950
_cell_volume 731.562784
_symmetry_space_group_name_H-M "P -1"
_symmetry_group_IT_number 2
_symmetry_cell_setting 'triclinic'
loop_
_space_group_symop_operation_xyz
x,y,z
-x,-y,-z
loop_
_atom_site_type_symbol
_atom_site_label
_atom_site_fract_x
_atom_site_fract_y
_atom_site_fract_z
Si Si1 0.644121 0.458328 0.376560
Si Si2 0.689744 0.175146 0.713299
Si Si3 0.673746 0.044619 0.275668
Si Si4 0.552217 0.299301 0.125441
Si Si5 0.968702 0.892560 0.685544
Si Si6 0.107136 0.760270 0.250758
Si Si7 0.446997 0.403943 0.832512
Si Si8 0.520511 0.909690 0.807132
O O1 0.563749 0.093677 0.151196
O O2 0.566934 0.453163 0.568294
O O3 0.670209 0.147706 0.484345
O O4 0.804323 0.676029 0.030107
O O5 0.879784 0.258022 0.418792
O O6 0.576629 0.386789 0.725942
O O7 0.659842 0.897672 0.854151
O O8 0.611738 0.066788 0.957223
O O9 0.625072 0.831096 0.522981
O O10 0.671682 0.363637 0.130998
O O11 0.500000 0.000000 0.500000
O O12 0.832004 0.020224 0.016521
O O13 0.435750 0.392287 0.083076
O O14 0.712501 0.310625 0.943748
O O15 0.955176 0.117005 0.651093
O O16 0.000000 0.000000 0.500000
O O17 0.000000 0.500000 0.500000
O O18 0.500000 0.500000 0.500000
#
# Coordination Sequence:
#
# PCOD9085176 Si02
#       8
#     2   2   2   2   2   2   2   2
#     4  11  22  39  63  90 124 165 213 256 312 382
#     4  10  21  37  59  89 126 160 203 258 312 370
#     4  10  19  35  59  84 114 154 203 248 297 362
#     4  10  21  40  63  88 120 158 210 259 308 374
#     4  12  25  41  63  93 130 168 208 259 315 376
#     4  11  23  38  62  93 126 163 203 254 312 371
#     4  10  20  37  61  89 120 162 208 256 311 369
#     4  10  21  39  64  89 117 161 208 258 311 372
#
# _framework density 21.870985999999998
#
# number of rings (size 3 to 8) (size 9 to 14) (size 15 to 20)
#    0.000    1.500    0.000    7.500    0.000    3.500 
#    0.000    3.750    0.000    3.750    0.000    0.000 
#    0.000    0.000    0.000    0.000    0.000    0.000 
#
# Total GULP energy -89112.309680 kJ/mol
# GULP energy per Si atom -5569.519355 kJ/mol
# Density = 2.182121 g / cm^3
# Si number density = 21.870986 Si / 1000 Ang^3
#
#
#
# Elastic Constant Matrix: (Units=GPa)
#
#
# Indices 1 2 3 4 5 6 
#
# 1 116.3185 20.9189 69.1639 -0.1064 -3.9242 17.4600
# 2 20.9189 68.6552 29.4406 -13.9993 -6.9407 14.9519
# 3 69.1639 29.4406 137.4299 -2.8843 -6.6353 10.8187
# 4 -0.1064 -13.9993 -2.8843 25.3452 -2.5090 -5.6480
# 5 -3.9242 -6.9407 -6.6353 -2.5090 34.3637 2.3010
# 6 17.4600 14.9519 10.8187 -5.6480 2.3010 36.6219
#
#
#
# Elastic Compliance Matrix: (Units=1/GPa)
#
#
# Indices 1 2 3 4 5 6 
#
# 1 0.013015 -0.000784 -0.006061 -0.002024 0.000306 -0.004426
# 2 -0.000784 0.019728 -0.002975 0.009748 0.004405 -0.005575
# 3 -0.006061 -0.002975 0.010934 -0.000172 0.000752 0.000801
# 4 -0.002024 0.009748 -0.000172 0.046146 0.004816 0.003850
# 5 0.000306 0.004405 0.000752 0.004816 0.030747 -0.003356
# 6 -0.004426 -0.005575 0.000801 0.003850 -0.003356 0.032260
#
#
# Mechanical properties :
#
#
# Convention : Reuss Voigt Hill
#
# Bulk Modulus (GPa) = 41.60651 62.38339 51.99495
# Shear Modulus (GPa) = 27.70340 32.79150 30.24745
#
# Velocity S-wave (km/s) = 3.56290 3.87630 3.72290
# Velocity P-wave (km/s) = 5.99921 6.97277 6.50423
#
# Compressibility (1/GPa) = 0.02403470
#
# Stress axis : x y z
#
# Youngs Moduli (GPa) = 76.83409 50.69045 91.45846
#
# Poissons Ratio (x) = 0.03976 0.55436
# Poissons Ratio (y) = 0.06027 0.27210
# Poissons Ratio (z) = 0.46572 0.15081
#
# Static dielectric constant tensor:
#      x y z
#    x 1.955020 0.047300 0.065880 
#    y 0.047300 1.939630 -0.064570 
#    z 0.065880 -0.064570 1.834190 
# 
# From -- ./inp_files/579760.got.cif
#   From: 2010.05.17/outbox.cif.g08.bks.cpg/sg2_290_cif.got.tgz:579760.got - 2010.06.03 11:33:40.
