data_PCOD9085523
_publ_section_title
;
Structure prediction by ZEFSAII (Michael W. Deem and Ramdas Pophale) SiO2 
 PCOD9085523
Probable space group: P -1
;
_chemical_formula_sum "Si O2"
_cell_formula_units_Z 16
_cell_length_a 8.095527
_cell_length_b 10.865542
_cell_length_c 12.399395
_cell_angle_alpha 132.498720
_cell_angle_beta 75.438527
_cell_angle_gamma 119.099515
_cell_volume 697.592521
_symmetry_space_group_name_H-M "P -1"
_symmetry_group_IT_number 2
_symmetry_cell_setting 'triclinic'
loop_
_space_group_symop_operation_xyz
x,y,z
-x,-y,-z
loop_
_atom_site_type_symbol
_atom_site_label
_atom_site_fract_x
_atom_site_fract_y
_atom_site_fract_z
Si Si1 0.721839 0.424340 0.097774
Si Si2 0.962551 0.729915 0.082880
Si Si3 0.501367 0.228250 0.400573
Si Si4 0.232380 0.353903 0.384471
Si Si5 0.402954 0.030793 0.925689
Si Si6 0.037760 0.402906 0.648573
Si Si7 0.970753 0.768713 0.867215
Si Si8 0.851856 0.058089 0.614210
O O1 0.782413 0.582106 0.090748
O O2 0.767032 0.517841 0.264346
O O3 0.883212 0.349646 0.014081
O O4 0.519255 0.250599 0.015432
O O5 0.077877 0.892730 0.244704
O O6 0.903087 0.772040 0.002020
O O7 0.381536 0.291259 0.375025
O O8 0.669815 0.424143 0.523534
O O9 0.565383 0.090336 0.246015
O O10 0.358581 0.106989 0.445890
O O11 0.074533 0.323654 0.484224
O O12 0.154231 0.244078 0.222868
O O13 0.178624 0.938999 0.924565
O O14 0.500000 0.000000 0.000000
O O15 0.995680 0.577780 0.740001
O O16 0.881934 0.245407 0.657042
O O17 0.000000 0.000000 0.500000
#
# Coordination Sequence:
#
# PCOD9085523 Si02
#       8
#     2   2   2   2   2   2   2   2
#     4   9  17  31  57  87 115 145 198 247 279 340
#     4   9  18  34  56  88 115 151 196 240 295 339
#     4  11  23  38  61  87 117 158 204 239 290 363
#     4  11  23  41  56  87 126 158 193 241 305 350
#     4  12  19  35  61  93 114 149 204 244 287 351
#     4  10  19  35  61  85 115 156 194 239 292 344
#     4  11  22  37  63  87 124 156 191 250 296 346
#     4  11  20  36  62  88 115 153 202 243 288 355
#
# _framework density 22.936025999999998
#
# number of rings (size 3 to 8) (size 9 to 14) (size 15 to 20)
#    0.000    1.500    6.250    1.125    0.000    0.000 
#    0.000    4.375    0.000    0.750    0.000    0.000 
#    0.000    0.000    0.000    0.000    0.000    0.000 
#
# Total GULP energy -89524.057753 kJ/mol
# GULP energy per Si atom -5595.253610 kJ/mol
# Density = 2.288382 g / cm^3
# Si number density = 22.936026 Si / 1000 Ang^3
#
#
#
# Elastic Constant Matrix: (Units=GPa)
#
#
# Indices 1 2 3 4 5 6 
#
# 1 25.8759 20.3604 16.3638 -2.1575 12.2473 -3.7121
# 2 20.3604 149.4069 29.2971 17.6067 14.7395 11.5693
# 3 16.3638 29.2971 91.4535 -12.2530 5.4346 -2.4945
# 4 -2.1575 17.6067 -12.2530 38.9336 3.2216 1.1542
# 5 12.2473 14.7395 5.4346 3.2216 34.7077 5.5242
# 6 -3.7121 11.5693 -2.4945 1.1542 5.5242 23.1749
#
#
#
# Elastic Compliance Matrix: (Units=1/GPa)
#
#
# Indices 1 2 3 4 5 6 
#
# 1 0.060924 -0.007073 -0.006142 0.005852 -0.020830 0.017302
# 2 -0.007073 0.009184 -0.002558 -0.005211 0.000408 -0.005831
# 3 -0.006142 -0.002558 0.013534 0.004997 0.000449 0.001394
# 4 0.005852 -0.005211 0.004997 0.030164 -0.003996 0.003527
# 5 -0.020830 0.000408 0.000449 -0.003996 0.038266 -0.012414
# 6 0.017302 -0.005831 0.001394 0.003527 -0.012414 0.051766
#
#
# Mechanical properties :
#
#
# Convention : Reuss Voigt Hill
#
# Bulk Modulus (GPa) = 19.19475 44.30875 31.75175
# Shear Modulus (GPa) = 19.78251 32.74425 26.26338
#
# Velocity S-wave (km/s) = 2.94003 3.78250 3.38756
# Velocity P-wave (km/s) = 4.46229 6.19974 5.40134
#
# Compressibility (1/GPa) = 0.05209757
#
# Stress axis : x y z
#
# Youngs Moduli (GPa) = 16.41380 108.88614 73.88911
#
# Poissons Ratio (x) = 0.77011 0.45380
# Poissons Ratio (y) = 0.11609 0.18901
# Poissons Ratio (z) = 0.10081 0.27853
#
# Static dielectric constant tensor:
#      x y z
#    x 1.857740 -0.019270 -0.016580 
#    y -0.019270 1.894970 0.017870 
#    z -0.016580 0.017870 1.853150 
# 
# From -- ./inp_files/391046.got.cif
#   From: 2010.05.17/outbox.cif.g08.bks.cpg/sg2_196_cif.got.tgz:391046.got - 2010.06.03 11:33:40.
