data_PCOD9085516
_publ_section_title
;
Structure prediction by ZEFSAII (Michael W. Deem and Ramdas Pophale) SiO2 
 PCOD9085516
Probable space group: P -1
;
_chemical_formula_sum "Si O2"
_cell_formula_units_Z 16
_cell_length_a 11.997250
_cell_length_b 9.040548
_cell_length_c 9.262652
_cell_angle_alpha 58.319117
_cell_angle_beta 115.831140
_cell_angle_gamma 93.165535
_cell_volume 749.486125
_symmetry_space_group_name_H-M "P -1"
_symmetry_group_IT_number 2
_symmetry_cell_setting 'triclinic'
loop_
_space_group_symop_operation_xyz
x,y,z
-x,-y,-z
loop_
_atom_site_type_symbol
_atom_site_label
_atom_site_fract_x
_atom_site_fract_y
_atom_site_fract_z
Si Si1 0.490244 0.685414 0.986739
Si Si2 0.131473 0.247072 0.314208
Si Si3 0.189914 0.747068 0.515845
Si Si4 0.380685 0.978225 0.538042
Si Si5 0.775016 0.647935 0.264854
Si Si6 0.766544 0.307006 0.084704
Si Si7 0.077514 0.416399 0.918162
Si Si8 0.910639 0.920726 0.341865
O O1 0.437965 0.857865 0.769234
O O2 0.380088 0.676005 0.044038
O O3 0.500000 0.500000 0.000000
O O4 0.627376 0.695226 0.115298
O O5 0.081528 0.112709 0.462798
O O6 0.056833 0.440006 0.235860
O O7 0.282571 0.163098 0.432244
O O8 0.081617 0.258688 0.114648
O O9 0.289199 0.863948 0.466454
O O10 0.203484 0.551831 0.556485
O O11 0.220576 0.709865 0.723738
O O12 0.043412 0.845808 0.376871
O O13 0.500000 0.000000 0.500000
O O14 0.863266 0.635791 0.177358
O O15 0.815885 0.793704 0.311486
O O16 0.825815 0.475640 0.005243
O O17 0.845827 0.122047 0.164311
#
# Coordination Sequence:
#
# PCOD9085516 Si02
#       8
#     2   2   2   2   2   2   2   2
#     4  11  19  37  59  85 117 163 211 243 290 362
#     4  11  21  36  61  94 117 160 203 253 299 359
#     4  10  19  36  61  90 116 159 205 249 292 367
#     4  11  22  36  64  90 118 158 214 253 289 358
#     4  11  22  35  62  95 124 161 197 255 306 368
#     4  10  19  35  61  84 115 163 208 248 286 371
#     4  10  21  37  62  87 125 156 208 249 304 360
#     4  12  21  37  64  96 124 149 210 255 312 352
#
# _framework density 21.347958999999999
#
# number of rings (size 3 to 8) (size 9 to 14) (size 15 to 20)
#    0.000    1.250    8.750    2.250    0.000    0.500 
#    0.000    0.000    5.500    6.000    0.000    0.000 
#    0.000    0.000    0.000    0.000    0.000    0.000 
#
# Total GULP energy -89241.041907 kJ/mol
# GULP energy per Si atom -5577.565119 kJ/mol
# Density = 2.129937 g / cm^3
# Si number density = 21.347959 Si / 1000 Ang^3
#
#
#
# Elastic Constant Matrix: (Units=GPa)
#
#
# Indices 1 2 3 4 5 6 
#
# 1 151.3360 25.3151 39.2397 -3.9265 25.0553 17.9722
# 2 25.3151 76.5687 21.6803 -7.4250 11.4597 22.8344
# 3 39.2397 21.6803 83.2323 -20.0678 25.4612 -3.7324
# 4 -3.9265 -7.4250 -20.0678 18.8918 -1.4901 4.2627
# 5 25.0553 11.4597 25.4612 -1.4901 45.7650 -5.4428
# 6 17.9722 22.8344 -3.7324 4.2627 -5.4428 27.8987
#
#
#
# Elastic Compliance Matrix: (Units=1/GPa)
#
#
# Indices 1 2 3 4 5 6 
#
# 1 0.008992 0.001005 -0.003637 -0.000145 -0.004093 -0.007878
# 2 0.001005 0.022089 -0.002526 0.010634 -0.006952 -0.022046
# 3 -0.003637 -0.002526 0.022097 0.020464 -0.008701 0.002542
# 4 -0.000145 0.010634 0.020464 0.082508 -0.013800 -0.021171
# 5 -0.004093 -0.006952 -0.008701 -0.013800 0.032070 0.015527
# 6 -0.007878 -0.022046 0.002542 -0.021171 0.015527 0.065567
#
#
# Mechanical properties :
#
#
# Convention : Reuss Voigt Hill
#
# Bulk Modulus (GPa) = 23.33083 53.73413 38.53248
# Shear Modulus (GPa) = 19.38526 33.50456 26.44491
#
# Velocity S-wave (km/s) = 3.01668 3.96593 3.52341
# Velocity P-wave (km/s) = 4.80482 6.79682 5.88570
#
# Compressibility (1/GPa) = 0.04286174
#
# Stress axis : x y z
#
# Youngs Moduli (GPa) = 111.20671 45.27104 45.25499
#
# Poissons Ratio (x) = -0.04549 0.16461
# Poissons Ratio (y) = -0.11174 0.11430
# Poissons Ratio (z) = 0.40451 0.11434
#
# Static dielectric constant tensor:
#      x y z
#    x 1.833890 0.016610 0.000620 
#    y 0.016610 1.822680 -0.021760 
#    z 0.000620 -0.021760 1.822040 
# 
# From -- ./inp_files/418976.got.cif
#   From: 2010.05.17/outbox.cif.g08.bks.cpg/sg2_210_cif.got.tgz:418976.got - 2010.06.03 11:33:40.
