data_PCOD9085357
_publ_section_title
;
Structure prediction by ZEFSAII (Michael W. Deem and Ramdas Pophale) SiO2 
 PCOD9085357
Probable space group: P -1
;
_chemical_formula_sum "Si O2"
_cell_formula_units_Z 14
_cell_length_a 9.661182
_cell_length_b 15.083326
_cell_length_c 14.833417
_cell_angle_alpha 144.038014
_cell_angle_beta 129.574723
_cell_angle_gamma 35.727219
_cell_volume 739.961570
_symmetry_space_group_name_H-M "P -1"
_symmetry_group_IT_number 2
_symmetry_cell_setting 'triclinic'
loop_
_space_group_symop_operation_xyz
x,y,z
-x,-y,-z
loop_
_atom_site_type_symbol
_atom_site_label
_atom_site_fract_x
_atom_site_fract_y
_atom_site_fract_z
Si Si1 0.409640 0.626758 0.755669
Si Si2 0.682958 0.003187 0.983334
Si Si3 0.016975 0.450820 0.239978
Si Si4 0.246981 0.395997 0.568000
Si Si5 0.630612 0.027269 0.306346
Si Si6 0.961373 0.409150 0.826524
Si Si7 0.469273 0.726845 0.687335
O O1 0.323471 0.524159 0.682063
O O2 0.395557 0.630587 0.642763
O O3 0.687550 0.508295 0.790508
O O4 0.265526 0.855641 0.914922
O O5 0.899142 0.770224 0.899122
O O6 0.503929 0.020169 0.853448
O O7 0.567902 0.116830 0.124962
O O8 0.254422 0.411012 0.335475
O O9 0.807502 0.593224 0.340381
O O10 0.974248 0.534058 0.190554
O O11 0.447937 0.177862 0.431304
O O12 0.000000 0.500000 0.500000
O O13 0.673528 0.147866 0.357444
O O14 0.865239 0.826614 0.279268
O O15 0.000000 0.500000 0.000000
#
# Coordination Sequence:
#
# PCOD9085357 Si02
#       7
#     2   2   2   2   2   2   2
#     4   9  22  36  60  91 115 143 203 241 289 332
#     4   9  16  35  59  88 107 142 205 248 266 321
#     4  10  19  35  60  85 120 151 188 241 289 344
#     4  12  24  39  56  86 124 161 184 233 300 349
#     4  11  19  34  63  83 119 152 193 230 296 348
#     4  11  20  38  67  87 111 154 195 245 290 331
#     4   8  16  34  59  86 106 142 207 248 264 320
#
# _framework density 18.919899999999998
#
# number of rings (size 3 to 8) (size 9 to 14) (size 15 to 20)
#    0.857    1.143    4.286    2.571    0.000    2.286 
#    0.000    0.714    3.143    0.000    0.000    0.000 
#    0.000    0.000    0.000    0.000    0.000    0.000 
#
# Total GULP energy -77989.596825 kJ/mol
# GULP energy per Si atom -5570.685487 kJ/mol
# Density = 1.887684 g / cm^3
# Si number density = 18.919900 Si / 1000 Ang^3
#
#
#
# Elastic Constant Matrix: (Units=GPa)
#
#
# Indices 1 2 3 4 5 6 
#
# 1 113.7188 40.9141 62.3870 -1.2429 -9.8532 16.5670
# 2 40.9141 112.7801 36.6869 14.9109 -6.6994 24.7395
# 3 62.3870 36.6869 74.5298 0.5178 -7.0947 1.7225
# 4 -1.2429 14.9109 0.5178 21.1175 1.6250 -3.2076
# 5 -9.8532 -6.6994 -7.0947 1.6250 28.2095 -2.4274
# 6 16.5670 24.7395 1.7225 -3.2076 -2.4274 22.1030
#
#
#
# Elastic Compliance Matrix: (Units=1/GPa)
#
#
# Indices 1 2 3 4 5 6 
#
# 1 0.019991 0.002580 -0.017412 -0.002908 0.001945 -0.016723
# 2 0.002580 0.019284 -0.010804 -0.017118 0.001600 -0.024985
# 3 -0.017412 -0.010804 0.032797 0.009369 0.001133 0.024071
# 4 -0.002908 -0.017118 0.009369 0.063810 -0.003867 0.029445
# 5 0.001945 0.001600 0.001133 -0.003867 0.037030 0.000169
# 6 -0.016723 -0.024985 0.024071 0.029445 0.000169 0.088158
#
#
# Mechanical properties :
#
#
# Convention : Reuss Voigt Hill
#
# Bulk Modulus (GPa) = 48.07468 64.55610 56.31539
# Shear Modulus (GPa) = 15.66051 25.02205 20.34128
#
# Velocity S-wave (km/s) = 2.88015 3.64060 3.28247
# Velocity P-wave (km/s) = 6.04360 7.20186 6.64800
#
# Compressibility (1/GPa) = 0.02080097
#
# Stress axis : x y z
#
# Youngs Moduli (GPa) = 50.02346 51.85654 30.49053
#
# Poissons Ratio (x) = -0.13381 0.53090
# Poissons Ratio (y) = -0.12908 0.32941
# Poissons Ratio (z) = 0.87101 0.56024
#
# Static dielectric constant tensor:
#      x y z
#    x 1.690760 0.049950 0.019930 
#    y 0.049950 1.651910 0.021460 
#    z 0.019930 0.021460 1.741890 
# 
# From -- ./inp_files/503266.got.cif
#   From: 2010.05.17/outbox.cif.g08.bks.cpg/sg2_252_cif.got.tgz:503266.got - 2010.06.03 11:33:40.
