data_PCOD9085972
_publ_section_title
;
Structure prediction by ZEFSAII (Michael W. Deem and Ramdas Pophale) SiO2 
 PCOD9085972
Probable space group: P -1
;
_chemical_formula_sum "Si O2"
_cell_formula_units_Z 10
_cell_length_a 11.554025
_cell_length_b 14.419170
_cell_length_c 14.020526
_cell_angle_alpha 20.444200
_cell_angle_beta 151.818876
_cell_angle_gamma 152.040985
_cell_volume 361.279863
_symmetry_space_group_name_H-M "P -1"
_symmetry_group_IT_number 2
_symmetry_cell_setting 'triclinic'
loop_
_space_group_symop_operation_xyz
x,y,z
-x,-y,-z
loop_
_atom_site_type_symbol
_atom_site_label
_atom_site_fract_x
_atom_site_fract_y
_atom_site_fract_z
Si Si1 0.290281 0.724030 0.163555
Si Si2 0.211786 0.783128 0.517274
Si Si3 0.706261 0.554083 0.746155
Si Si4 0.914809 0.165982 0.896453
Si Si5 0.333403 0.941081 0.663623
O O1 0.447836 0.567700 0.490934
O O2 0.148742 0.526619 0.161906
O O3 0.126892 0.812804 0.039544
O O4 0.500000 0.000000 0.000000
O O5 0.142077 0.457755 0.754071
O O6 0.189176 0.804022 0.595434
O O7 0.500000 0.000000 0.500000
O O8 0.008321 0.903077 0.203665
O O9 0.799488 0.857659 0.574032
O O10 0.628429 0.295824 0.011400
O O11 0.637190 0.134820 0.677994
#
# Coordination Sequence:
#
# PCOD9085972 Si02
#       5
#     2   2   2   2   2
#     4  10  19  36  69 103 134 173 218 255 326 410
#     4  12  28  47  67  98 131 171 235 286 320 390
#     4  10  19  35  65  98 136 173 201 271 316 390
#     4  11  24  43  72  95 132 183 211 269 350 376
#     4  11  23  43  68  98 137 169 226 272 323 402
#
# _framework density 27.679372999999998
#
# number of rings (size 3 to 8) (size 9 to 14) (size 15 to 20)
#    0.000    1.200    4.000    4.200    2.800    1.600 
#    0.000    6.000    0.000    0.000    0.000    0.000 
#    0.000    0.000    0.000    0.000    0.000    0.000 
#
# Total GULP energy -56105.747350 kJ/mol
# GULP energy per Si atom -5610.574735 kJ/mol
# Density = 2.761637 g / cm^3
# Si number density = 27.679373 Si / 1000 Ang^3
#
#
#
# Elastic Constant Matrix: (Units=GPa)
#
#
# Indices 1 2 3 4 5 6 
#
# 1 85.4554 15.1747 32.4863 -5.7766 -13.1307 -11.0495
# 2 15.1747 122.6094 14.7830 -16.2515 -12.6418 -9.3101
# 3 32.4863 14.7830 155.3935 -32.6646 -14.5704 -0.9553
# 4 -5.7766 -16.2515 -32.6646 40.7992 0.9471 -0.0984
# 5 -13.1307 -12.6418 -14.5704 0.9471 44.6735 2.0384
# 6 -11.0495 -9.3101 -0.9553 -0.0984 2.0384 72.9075
#
#
#
# Elastic Compliance Matrix: (Units=1/GPa)
#
#
# Indices 1 2 3 4 5 6 
#
# 1 0.013480 -0.001018 -0.002582 -0.000624 0.002763 0.001801
# 2 -0.001018 0.009032 0.000343 0.003678 0.002247 0.000946
# 3 -0.002582 0.000343 0.008499 0.006529 0.001985 -0.000283
# 4 -0.000624 0.003678 0.006529 0.031062 0.002308 0.000438
# 5 0.002763 0.002247 0.001985 0.002308 0.024429 0.000052
# 6 0.001801 0.000946 -0.000283 0.000438 0.000052 0.014105
#
#
# Mechanical properties :
#
#
# Convention : Reuss Voigt Hill
#
# Bulk Modulus (GPa) = 40.82180 54.26068 47.54124
# Shear Modulus (GPa) = 43.37045 51.74365 47.55705
#
# Velocity S-wave (km/s) = 3.96269 4.32834 4.14954
# Velocity P-wave (km/s) = 5.97639 6.68021 6.33808
#
# Compressibility (1/GPa) = 0.02449672
#
# Stress axis : x y z
#
# Youngs Moduli (GPa) = 74.18591 110.72132 117.65716
#
# Poissons Ratio (x) = 0.11272 0.30382
# Poissons Ratio (y) = 0.07553 -0.04040
# Poissons Ratio (z) = 0.19157 -0.03802
#
# Static dielectric constant tensor:
#      x y z
#    x 2.276590 0.029820 0.015720 
#    y 0.029820 2.158150 0.016050 
#    z 0.015720 0.016050 2.081550 
# 
# From -- ./inp_files/3768.got.cif
#   From: 2010.05.17/outbox.cif.g08.bks.cpg/sg2_2_cif.got.tgz:3768.got - 2010.06.03 11:33:40.
