data_PCOD9085665
_publ_section_title
;
Structure prediction by ZEFSAII (Michael W. Deem and Ramdas Pophale) SiO2 
 PCOD9085665
Probable space group: P -1
;
_chemical_formula_sum "Si O2"
_cell_formula_units_Z 16
_cell_length_a 19.353699
_cell_length_b 25.613273
_cell_length_c 15.906850
_cell_angle_alpha 161.873539
_cell_angle_beta 27.279815
_cell_angle_gamma 160.711983
_cell_volume 807.722133
_symmetry_space_group_name_H-M "P -1"
_symmetry_group_IT_number 2
_symmetry_cell_setting 'triclinic'
loop_
_space_group_symop_operation_xyz
x,y,z
-x,-y,-z
loop_
_atom_site_type_symbol
_atom_site_label
_atom_site_fract_x
_atom_site_fract_y
_atom_site_fract_z
Si Si1 0.270851 0.738830 0.338226
Si Si2 0.254095 0.315491 0.198947
Si Si3 0.862893 0.042988 0.099928
Si Si4 0.127955 0.426223 0.154022
Si Si5 0.716400 0.124123 0.225432
Si Si6 0.395140 0.338029 0.782551
Si Si7 0.728934 0.129386 0.749604
Si Si8 0.972919 0.588454 0.289336
O O1 0.124499 0.758135 0.575311
O O2 0.226418 0.533313 0.120020
O O3 0.172763 0.666786 0.242659
O O4 0.500000 0.000000 0.500000
O O5 0.454288 0.527955 0.255926
O O6 0.153204 0.377116 0.464069
O O7 0.087632 0.142316 0.038190
O O8 0.287005 0.181547 0.020178
O O9 0.778800 0.018776 0.060481
O O10 0.234142 0.657922 0.449360
O O11 0.878740 0.247395 0.160949
O O12 0.195981 0.300331 0.922716
O O13 0.475484 0.942435 0.181254
O O14 0.343016 0.105549 0.498798
O O15 0.500000 0.500000 0.000000
O O16 0.917288 0.246413 0.658362
O O17 0.820438 0.323772 0.018448
#
# Coordination Sequence:
#
# PCOD9085665 Si02
#       8
#     2   2   2   2   2   2   2   2
#     4  10  19  35  62  87 119 163 209 261 304 368
#     4  10  22  37  61  96 125 163 209 264 325 364
#     4   9  19  32  59  89 122 153 205 266 307 361
#     4  10  21  35  60  95 126 153 213 267 316 362
#     4  10  20  37  61  92 126 167 203 262 318 372
#     4  12  24  37  64  99 127 163 208 270 314 372
#     4  11  25  42  65  89 129 175 211 253 322 381
#     4  10  24  44  63  90 128 173 213 253 312 397
#
# _framework density 19.808792
#
# number of rings (size 3 to 8) (size 9 to 14) (size 15 to 20)
#    0.000    1.750    1.250    3.000   12.250    0.500 
#    0.000    1.250    2.750    0.000    0.000    0.000 
#    0.000    0.000    0.000    0.000    0.000    0.000 
#
# Total GULP energy -89127.839089 kJ/mol
# GULP energy per Si atom -5570.489943 kJ/mol
# Density = 1.976371 g / cm^3
# Si number density = 19.808792 Si / 1000 Ang^3
#
#
#
# Elastic Constant Matrix: (Units=GPa)
#
#
# Indices 1 2 3 4 5 6 
#
# 1 94.1558 33.2124 51.1288 13.1763 -19.9679 -2.9198
# 2 33.2124 88.4190 42.1591 7.6248 -3.4432 -6.1201
# 3 51.1288 42.1591 80.5160 12.1317 -6.4001 -1.3262
# 4 13.1763 7.6248 12.1317 29.3550 -2.7708 -2.5082
# 5 -19.9679 -3.4432 -6.4001 -2.7708 31.2374 7.9789
# 6 -2.9198 -6.1201 -1.3262 -2.5082 7.9789 28.6828
#
#
#
# Elastic Compliance Matrix: (Units=1/GPa)
#
#
# Indices 1 2 3 4 5 6 
#
# 1 0.019294 -0.001966 -0.009948 -0.003241 0.010320 -0.002069
# 2 -0.001966 0.015533 -0.006950 -0.000171 -0.001823 0.003285
# 3 -0.009948 -0.006950 0.022675 -0.003428 -0.002516 -0.001047
# 4 -0.003241 -0.000171 -0.003428 0.037200 -0.000205 0.002785
# 5 0.010320 -0.001823 -0.002516 -0.000205 0.040627 -0.010774
# 6 -0.002069 0.003285 -0.001047 0.002785 -0.010774 0.038547
#
#
# Mechanical properties :
#
#
# Convention : Reuss Voigt Hill
#
# Bulk Modulus (GPa) = 50.56938 57.34348 53.95643
# Shear Modulus (GPa) = 22.91519 26.96108 24.93813
#
# Velocity S-wave (km/s) = 3.40489 3.69327 3.55201
# Velocity P-wave (km/s) = 6.40640 6.87010 6.64230
#
# Compressibility (1/GPa) = 0.01977481
#
# Stress axis : x y z
#
# Youngs Moduli (GPa) = 51.82937 64.37823 44.10070
#
# Poissons Ratio (x) = 0.12656 0.43872
# Poissons Ratio (y) = 0.10189 0.30650
# Poissons Ratio (z) = 0.51560 0.44743
#
# Static dielectric constant tensor:
#      x y z
#    x 1.822890 0.001000 -0.032130 
#    y 0.001000 1.744850 -0.029910 
#    z -0.032130 -0.029910 1.683710 
# 
# From -- ./inp_files/262417.got.cif
#   From: 2010.05.17/outbox.cif.g08.bks.cpg/sg2_132_cif.got.tgz:262417.got - 2010.06.03 11:33:40.
