data_PCOD9085490
_publ_section_title
;
Structure prediction by ZEFSAII (Michael W. Deem and Ramdas Pophale) SiO2 
 PCOD9085490
Probable space group: P -1
;
_chemical_formula_sum "Si O2"
_cell_formula_units_Z 13
_cell_length_a 11.863162
_cell_length_b 5.393215
_cell_length_c 11.866123
_cell_angle_alpha 86.440755
_cell_angle_beta 44.322117
_cell_angle_gamma 76.560090
_cell_volume 509.819510
_symmetry_space_group_name_H-M "P -1"
_symmetry_group_IT_number 2
_symmetry_cell_setting 'triclinic'
loop_
_space_group_symop_operation_xyz
x,y,z
-x,-y,-z
loop_
_atom_site_type_symbol
_atom_site_label
_atom_site_fract_x
_atom_site_fract_y
_atom_site_fract_z
Si Si1 0.000000 0.500000 0.500000
Si Si2 0.352432 0.371651 0.384555
Si Si3 0.437178 0.782105 0.983456
Si Si4 0.204135 0.891093 0.862321
Si Si5 0.075515 0.122076 0.262698
Si Si6 0.148405 0.402839 0.987731
Si Si7 0.286628 0.884527 0.546934
O O1 0.168903 0.470375 0.456978
O O2 0.089537 0.236533 0.371470
O O3 0.378317 0.622242 0.423540
O O4 0.351467 0.135021 0.474359
O O5 0.478062 0.256568 0.197758
O O6 0.236203 0.882774 0.133563
O O7 0.500000 0.500000 0.000000
O O8 0.500000 0.000000 0.000000
O O9 0.236101 0.630365 0.917608
O O10 0.273947 0.831391 0.689529
O O11 0.256553 0.130437 0.871219
O O12 0.000000 0.000000 0.000000
O O13 0.906220 0.041862 0.362701
O O14 0.083292 0.338716 0.156972
O O15 0.000000 0.500000 0.000000
#
# Coordination Sequence:
#
# PCOD9085490 Si02
#       7
#     1   2   2   2   2   2   2
#     4  10  24  38  68 100 128 170 230 280 332 386
#     4  11  25  42  62  96 135 175 219 277 342 396
#     4  12  27  48  65  94 141 191 224 273 339 418
#     4  10  19  35  60  99 131 158 217 280 337 383
#     4  11  24  42  73 101 139 177 231 281 340 407
#     4  10  20  36  62 102 127 167 217 285 330 394
#     4  11  23  39  70  99 128 171 224 285 329 391
#
# _framework density 25.499220000000001
#
# number of rings (size 3 to 8) (size 9 to 14) (size 15 to 20)
#    0.000    1.231    4.615    1.846    8.615    2.462 
#    0.000    0.000    0.000    5.538    0.000    0.000 
#    0.000    0.000    0.000    0.000    0.000    0.000 
#
# Total GULP energy -72631.309922 kJ/mol
# GULP energy per Si atom -5587.023840 kJ/mol
# Density = 2.544118 g / cm^3
# Si number density = 25.499220 Si / 1000 Ang^3
#
#
#
# Elastic Constant Matrix: (Units=GPa)
#
#
# Indices 1 2 3 4 5 6 
#
# 1 61.8066 34.9186 11.6069 13.3609 -6.5008 10.5407
# 2 34.9186 196.9416 54.7414 9.6553 -6.9614 19.0085
# 3 11.6069 54.7414 109.6893 31.0298 7.2412 -0.6721
# 4 13.3609 9.6553 31.0298 49.9302 2.0306 9.4026
# 5 -6.5008 -6.9614 7.2412 2.0306 34.5908 19.0229
# 6 10.5407 19.0085 -0.6721 9.4026 19.0229 43.7980
#
#
#
# Elastic Compliance Matrix: (Units=1/GPa)
#
#
# Indices 1 2 3 4 5 6 
#
# 1 0.020220 -0.002508 -0.000264 -0.003928 0.006828 -0.005904
# 2 -0.002508 0.007324 -0.004551 0.002892 0.004706 -0.005310
# 3 -0.000264 -0.004551 0.014574 -0.009219 -0.007630 0.007555
# 4 -0.003928 0.002892 -0.009219 0.027650 0.004813 -0.008477
# 5 0.006828 0.004706 -0.007630 0.004813 0.046133 -0.024873
# 6 -0.005904 -0.005310 0.007555 -0.008477 -0.024873 0.039296
#
#
# Mechanical properties :
#
#
# Convention : Reuss Voigt Hill
#
# Bulk Modulus (GPa) = 36.40013 63.44125 49.92069
# Shear Modulus (GPa) = 27.93284 43.47517 35.70401
#
# Velocity S-wave (km/s) = 3.31333 4.13360 3.74598
# Velocity P-wave (km/s) = 5.37992 6.90767 6.19110
#
# Compressibility (1/GPa) = 0.02747243
#
# Stress axis : x y z
#
# Youngs Moduli (GPa) = 49.45561 136.53043 68.61652
#
# Poissons Ratio (x) = 0.34241 0.01811
# Poissons Ratio (y) = 0.12403 0.31228
# Poissons Ratio (z) = 0.01305 0.62136
#
# Static dielectric constant tensor:
#      x y z
#    x 1.909250 0.041110 0.022620 
#    y 0.041110 1.992860 -0.080560 
#    z 0.022620 -0.080560 2.001390 
# 
# From -- ./inp_files/73900.got.cif
#   From: 2010.05.17/outbox.cif.g08.bks.cpg/sg2_37_cif.got.tgz:73900.got - 2010.06.03 11:33:40.
