data_PCOD9085196
_publ_section_title
;
Structure prediction by ZEFSAII (Michael W. Deem and Ramdas Pophale) SiO2 
 PCOD9085196
Probable space group: P -1
;
_chemical_formula_sum "Si O2"
_cell_formula_units_Z 12
_cell_length_a 7.325082
_cell_length_b 7.221889
_cell_length_c 9.802907
_cell_angle_alpha 91.454174
_cell_angle_beta 61.180202
_cell_angle_gamma 104.928011
_cell_volume 436.016854
_symmetry_space_group_name_H-M "P -1"
_symmetry_group_IT_number 2
_symmetry_cell_setting 'triclinic'
loop_
_space_group_symop_operation_xyz
x,y,z
-x,-y,-z
loop_
_atom_site_type_symbol
_atom_site_label
_atom_site_fract_x
_atom_site_fract_y
_atom_site_fract_z
Si Si1 0.105816 0.934248 0.178904
Si Si2 0.626409 0.476637 0.757052
Si Si3 0.174572 0.818165 0.683104
Si Si4 0.759569 0.575909 0.429018
Si Si5 0.610813 0.051299 0.668490
Si Si6 0.775814 0.396766 0.002255
O O1 0.435994 0.744594 0.277156
O O2 0.276141 0.002624 0.240630
O O3 0.215882 0.823311 0.029630
O O4 0.016029 0.112544 0.175817
O O5 0.783914 0.593290 0.584414
O O6 0.725670 0.465818 0.870019
O O7 0.102684 0.233382 0.692816
O O8 0.419834 0.558125 0.843639
O O9 0.394573 0.904963 0.688964
O O10 0.222458 0.912076 0.517174
O O11 0.500000 0.500000 0.500000
O O12 0.846068 0.403262 0.339242
O O13 0.000000 0.500000 0.000000
#
# Coordination Sequence:
#
# PCOD9085196 Si02
#       6
#     2   2   2   2   2   2
#     4  11  22  37  62  91 118 154 201 249 299 354
#     4   9  20  35  56  87 119 157 201 242 296 360
#     4  10  20  36  57  87 125 156 190 244 305 359
#     4  11  22  38  63  94 124 155 198 253 304 354
#     4   9  18  34  55  82 116 153 190 236 293 351
#     4  10  19  35  59  85 117 160 203 242 294 359
#
# _framework density 27.52187
#
# number of rings (size 3 to 8) (size 9 to 14) (size 15 to 20)
#    0.000    2.000    0.000    5.500    0.000    6.000 
#    0.000    3.333    0.000   13.000    0.000   63.000 
#    0.000    0.000    0.000    0.000    0.000    0.000 
#
# Total GULP energy -67378.492872 kJ/mol
# GULP energy per Si atom -5614.874406 kJ/mol
# Density = 2.745923 g / cm^3
# Si number density = 27.521870 Si / 1000 Ang^3
#
#
#
# Elastic Constant Matrix: (Units=GPa)
#
#
# Indices 1 2 3 4 5 6 
#
# 1 173.3429 46.6741 44.7881 25.3000 -11.4811 1.6094
# 2 46.6741 138.7239 42.5624 38.9583 -25.9066 -11.6317
# 3 44.7881 42.5624 119.4394 17.9450 -6.0308 -0.6481
# 4 25.3000 38.9583 17.9450 42.4132 -13.5698 -6.4655
# 5 -11.4811 -25.9066 -6.0308 -13.5698 63.5049 13.8894
# 6 1.6094 -11.6317 -0.6481 -6.4655 13.8894 51.3167
#
#
#
# Elastic Compliance Matrix: (Units=1/GPa)
#
#
# Indices 1 2 3 4 5 6 
#
# 1 0.006916 -0.001119 -0.001829 -0.002358 0.000307 -0.000874
# 2 -0.001119 0.010867 -0.002204 -0.007534 0.002210 0.000923
# 3 -0.001829 -0.002204 0.010018 -0.001332 -0.000486 -0.000352
# 4 -0.002358 -0.007534 -0.001332 0.033759 0.003208 0.001734
# 5 0.000307 0.002210 -0.000486 0.003208 0.018228 -0.004044
# 6 -0.000874 0.000923 -0.000352 0.001734 -0.004044 0.021032
#
#
# Mechanical properties :
#
#
# Convention : Reuss Voigt Hill
#
# Bulk Modulus (GPa) = 57.16016 77.72837 67.44426
# Shear Modulus (GPa) = 42.75092 51.27906 47.01499
#
# Velocity S-wave (km/s) = 3.94552 4.32118 4.13762
# Velocity P-wave (km/s) = 6.44750 7.29386 6.88370
#
# Compressibility (1/GPa) = 0.01749470
#
# Stress axis : x y z
#
# Youngs Moduli (GPa) = 144.60142 92.01867 99.82461
#
# Poissons Ratio (x) = 0.10298 0.18262
# Poissons Ratio (y) = 0.16183 0.22005
# Poissons Ratio (z) = 0.26453 0.20284
#
# Static dielectric constant tensor:
#      x y z
#    x 2.106410 -0.002260 0.018860 
#    y -0.002260 2.130120 -0.066600 
#    z 0.018860 -0.066600 2.156800 
# 
# From -- ./inp_files/376585.got.cif
#   From: 2010.05.17/outbox.cif.g08.bks.cpg/sg2_189_cif.got.tgz:376585.got - 2010.06.03 11:33:40.
