data_PCOD9085259
_publ_section_title
;
Structure prediction by ZEFSAII (Michael W. Deem and Ramdas Pophale) SiO2 
 PCOD9085259
Probable space group: P -1
;
_chemical_formula_sum "Si O2"
_cell_formula_units_Z 15
_cell_length_a 7.586324
_cell_length_b 8.059881
_cell_length_c 9.527850
_cell_angle_alpha 82.126752
_cell_angle_beta 96.725111
_cell_angle_gamma 83.451588
_cell_volume 568.084131
_symmetry_space_group_name_H-M "P -1"
_symmetry_group_IT_number 2
_symmetry_cell_setting 'triclinic'
loop_
_space_group_symop_operation_xyz
x,y,z
-x,-y,-z
loop_
_atom_site_type_symbol
_atom_site_label
_atom_site_fract_x
_atom_site_fract_y
_atom_site_fract_z
Si Si1 0.882429 0.396973 0.677417
Si Si2 0.500000 0.000000 0.500000
Si Si3 0.250929 0.197262 0.688064
Si Si4 0.163133 0.951266 0.126746
Si Si5 0.683887 0.326995 0.398849
Si Si6 0.640611 0.566406 0.837061
Si Si7 0.968085 0.089286 0.333757
Si Si8 0.485107 0.763574 0.042194
O O1 0.918092 0.655933 0.356613
O O2 0.845804 0.229024 0.778686
O O3 0.745476 0.412172 0.533921
O O4 0.822494 0.542937 0.767225
O O5 0.370639 0.142532 0.570522
O O6 0.619885 0.147353 0.450899
O O7 0.163201 0.028609 0.737869
O O8 0.371110 0.247026 0.819597
O O9 0.343890 0.923632 0.055211
O O10 0.140128 0.071429 0.249555
O O11 0.000000 0.000000 0.000000
O O12 0.522692 0.426753 0.288092
O O13 0.860527 0.272028 0.327213
O O14 0.629111 0.396819 0.946354
O O15 0.592101 0.730038 0.910757
O O16 0.000000 0.000000 0.500000
#
# Coordination Sequence:
#
# PCOD9085259 Si02
#       8
#     2   1   2   2   2   2   2   2
#     4  10  21  38  61  85 122 162 201 251 305 363
#     4  10  22  34  58  90 118 144 200 252 304 358
#     4  10  21  36  62  85 120 157 190 259 307 350
#     4  10  19  35  59  89 119 157 199 247 309 363
#     4  11  20  39  62  90 119 161 202 251 314 360
#     4  10  22  40  63  82 119 170 204 247 304 365
#     4  10  19  36  61  87 118 159 194 246 320 363
#     4  10  22  40  60  91 121 156 213 251 295 368
#
# _framework density 26.404543
#
# number of rings (size 3 to 8) (size 9 to 14) (size 15 to 20)
#    0.000    1.867    2.667    2.800    1.867    0.533 
#    0.000   16.000    0.000    0.000    0.000    0.000 
#    0.000    0.000    0.000    0.000    0.000    0.000 
#
# Total GULP energy -83656.230879 kJ/mol
# GULP energy per Si atom -5577.082059 kJ/mol
# Density = 2.634444 g / cm^3
# Si number density = 26.404543 Si / 1000 Ang^3
#
#
#
# Elastic Constant Matrix: (Units=GPa)
#
#
# Indices 1 2 3 4 5 6 
#
# 1 118.1264 47.8479 60.4792 36.5924 -43.3889 -41.2970
# 2 47.8479 115.0875 51.4219 35.0879 -36.3891 -20.2870
# 3 60.4792 51.4219 124.6316 43.9405 -24.8161 -21.5957
# 4 36.5924 35.0879 43.9405 48.6871 -15.1019 -30.3861
# 5 -43.3889 -36.3891 -24.8161 -15.1019 52.1684 20.0923
# 6 -41.2970 -20.2870 -21.5957 -30.3861 20.0923 60.7206
#
#
#
# Elastic Compliance Matrix: (Units=1/GPa)
#
#
# Indices 1 2 3 4 5 6 
#
# 1 0.016809 -0.000691 -0.004546 -0.001690 0.008573 0.005902
# 2 -0.000691 0.013748 -0.001889 -0.006986 0.007004 -0.002362
# 3 -0.004546 -0.001889 0.013955 -0.010228 0.000083 -0.003906
# 4 -0.001690 -0.006986 -0.010228 0.045302 -0.004605 0.017073
# 5 0.008573 0.007004 0.000083 -0.004605 0.031655 -0.004578
# 6 0.005902 -0.002362 -0.003906 0.017073 -0.004578 0.028363
#
#
# Mechanical properties :
#
#
# Convention : Reuss Voigt Hill
#
# Bulk Modulus (GPa) = 33.04682 75.26037 54.15359
# Shear Modulus (GPa) = 28.70764 45.52166 37.11465
#
# Velocity S-wave (km/s) = 3.30088 4.15662 3.75322
# Velocity P-wave (km/s) = 5.20294 7.18341 6.27184
#
# Compressibility (1/GPa) = 0.03026010
#
# Stress axis : x y z
#
# Youngs Moduli (GPa) = 59.49342 72.73630 71.65937
#
# Poissons Ratio (x) = 0.05024 0.32578
# Poissons Ratio (y) = 0.04109 0.13536
# Poissons Ratio (z) = 0.27047 0.13740
#
# Static dielectric constant tensor:
#      x y z
#    x 2.934760 -1.178520 0.927960 
#    y -1.178520 3.571500 -1.299580 
#    z 0.927960 -1.299580 3.205190 
# 
# From -- ./inp_files/153995.got.cif
#   From: 2010.05.17/outbox.cif.g08.bks.cpg/sg2_77_cif.got.tgz:153995.got - 2010.06.03 11:33:40.
