data_PCOD9085542
_publ_section_title
;
Structure prediction by ZEFSAII (Michael W. Deem and Ramdas Pophale) SiO2 
 PCOD9085542
Probable space group: P -1
;
_chemical_formula_sum "Si O2"
_cell_formula_units_Z 16
_cell_length_a 9.045048
_cell_length_b 16.217143
_cell_length_c 15.823735
_cell_angle_alpha 46.157393
_cell_angle_beta 150.684735
_cell_angle_gamma 130.664529
_cell_volume 812.158566
_symmetry_space_group_name_H-M "P -1"
_symmetry_group_IT_number 2
_symmetry_cell_setting 'triclinic'
loop_
_space_group_symop_operation_xyz
x,y,z
-x,-y,-z
loop_
_atom_site_type_symbol
_atom_site_label
_atom_site_fract_x
_atom_site_fract_y
_atom_site_fract_z
Si Si1 0.386977 0.097561 0.313416
Si Si2 0.817096 0.954520 0.187489
Si Si3 0.283051 0.545124 0.047705
Si Si4 0.232854 0.076415 0.624481
Si Si5 0.956886 0.732789 0.704481
Si Si6 0.517372 0.312735 0.345787
Si Si7 0.161076 0.261179 0.766785
Si Si8 0.431306 0.105801 0.129265
O O1 0.486166 0.217471 0.324534
O O2 0.458939 0.102669 0.246336
O O3 0.500000 0.000000 0.500000
O O4 0.031747 0.053131 0.175720
O O5 0.899592 0.940989 0.335897
O O6 0.804191 0.831314 0.223859
O O7 0.500000 0.000000 0.000000
O O8 0.447586 0.434608 0.186961
O O9 0.553684 0.637011 0.157283
O O10 0.000000 0.500000 0.000000
O O11 0.103243 0.616155 0.840338
O O12 0.229432 0.208061 0.501218
O O13 0.545801 0.022088 0.804192
O O14 0.000000 0.000000 0.500000
O O15 0.743229 0.720563 0.689120
O O16 0.264129 0.821044 0.810306
O O17 0.845018 0.311013 0.555580
O O18 0.171383 0.177700 0.913839
#
# Coordination Sequence:
#
# PCOD9085542 Si02
#       8
#     2   2   2   2   2   2   2   2
#     4  12  23  39  60  97 126 162 205 252 315 366
#     4  12  25  39  60  94 131 164 202 255 307 378
#     4   9  21  41  67  88 115 168 214 254 303 371
#     4  10  19  35  61  86 123 166 200 242 307 367
#     4   9  19  37  62  87 115 160 210 240 303 362
#     4  11  22  39  68  89 124 161 211 258 303 368
#     4  11  23  40  62  95 127 158 211 258 308 362
#     4  10  21  38  60  89 130 164 200 249 308 376
#
# _framework density 19.700588
#
# number of rings (size 3 to 8) (size 9 to 14) (size 15 to 20)
#    0.000    1.500    2.500    4.125    3.500    1.500 
#    0.000    2.500    2.750    1.500    0.000    0.000 
#    0.000    0.000    0.000    0.000    0.000    0.000 
#
# Total GULP energy -89081.125509 kJ/mol
# GULP energy per Si atom -5567.570344 kJ/mol
# Density = 1.965575 g / cm^3
# Si number density = 19.700588 Si / 1000 Ang^3
#
#
#
# Elastic Constant Matrix: (Units=GPa)
#
#
# Indices 1 2 3 4 5 6 
#
# 1 94.4206 37.2991 43.9808 7.4979 -10.0712 -3.0872
# 2 37.2991 107.5837 61.1120 -18.2134 -1.3865 -6.6585
# 3 43.9808 61.1120 129.9217 -30.7539 7.2044 -6.2789
# 4 7.4979 -18.2134 -30.7539 46.7480 -0.1214 5.8887
# 5 -10.0712 -1.3865 7.2044 -0.1214 38.8043 6.9692
# 6 -3.0872 -6.6585 -6.2789 5.8887 6.9692 25.5318
#
#
#
# Elastic Compliance Matrix: (Units=1/GPa)
#
#
# Indices 1 2 3 4 5 6 
#
# 1 0.015809 -0.003392 -0.005859 -0.007696 0.005048 -0.000017
# 2 -0.003392 0.013602 -0.004565 0.002672 0.000221 0.001338
# 3 -0.005859 -0.004565 0.014080 0.008304 -0.004426 0.000856
# 4 -0.007696 0.002672 0.008304 0.029669 -0.002573 -0.004332
# 5 0.005048 0.000221 -0.004426 -0.002573 0.029308 -0.007827
# 6 -0.000017 0.001338 0.000856 -0.004332 -0.007827 0.042860
#
#
# Mechanical properties :
#
#
# Convention : Reuss Voigt Hill
#
# Bulk Modulus (GPa) = 63.05099 68.52329 65.78714
# Shear Modulus (GPa) = 28.05124 34.85243 31.45184
#
# Velocity S-wave (km/s) = 3.77753 4.21064 3.99995
# Velocity P-wave (km/s) = 7.14845 7.64834 7.40262
#
# Compressibility (1/GPa) = 0.01586018
#
# Stress axis : x y z
#
# Youngs Moduli (GPa) = 63.25597 73.51754 71.02271
#
# Poissons Ratio (x) = 0.24936 0.41610
# Poissons Ratio (y) = 0.21455 0.32422
# Poissons Ratio (z) = 0.37059 0.33561
#
# Static dielectric constant tensor:
#      x y z
#    x 1.655230 0.005390 0.007910 
#    y 0.005390 1.712660 -0.045180 
#    z 0.007910 -0.045180 1.832310 
# 
# From -- ./inp_files/201888.got.cif
#   From: 2010.05.17/outbox.cif.g08.bks.cpg/sg2_101_cif.got.tgz:201888.got - 2010.06.03 11:33:40.
