data_PCOD9085308
_publ_section_title
;
Structure prediction by ZEFSAII (Michael W. Deem and Ramdas Pophale) SiO2 
 PCOD9085308
Probable space group: P -1
;
_chemical_formula_sum "Si O2"
_cell_formula_units_Z 16
_cell_length_a 7.015111
_cell_length_b 11.686080
_cell_length_c 11.493746
_cell_angle_alpha 71.396991
_cell_angle_beta 91.532582
_cell_angle_gamma 125.679977
_cell_volume 709.682819
_symmetry_space_group_name_H-M "P -1"
_symmetry_group_IT_number 2
_symmetry_cell_setting 'triclinic'
loop_
_space_group_symop_operation_xyz
x,y,z
-x,-y,-z
loop_
_atom_site_type_symbol
_atom_site_label
_atom_site_fract_x
_atom_site_fract_y
_atom_site_fract_z
Si Si1 0.096580 0.472239 0.869238
Si Si2 0.724563 0.058976 0.240955
Si Si3 0.695970 0.849690 0.126170
Si Si4 0.095217 0.290811 0.720590
Si Si5 0.409308 0.576520 0.379719
Si Si6 0.696925 0.236066 0.561126
Si Si7 0.386928 0.742124 0.933798
Si Si8 0.994555 0.686649 0.680186
O O1 0.150780 0.409357 0.781945
O O2 0.325718 0.594516 0.912705
O O3 0.012891 0.570386 0.790226
O O4 0.867789 0.331840 0.979722
O O5 0.587535 0.132390 0.189973
O O6 0.964452 0.188547 0.271126
O O7 0.749673 0.997100 0.140553
O O8 0.568495 0.913482 0.369141
O O9 0.906454 0.837250 0.168656
O O10 0.472621 0.703220 0.240585
O O11 0.603174 0.817944 0.003895
O O12 0.324418 0.370915 0.611959
O O13 0.866489 0.238509 0.659654
O O14 0.294692 0.616178 0.464445
O O15 0.245930 0.417530 0.363558
O O16 0.793877 0.237326 0.436629
#
# Coordination Sequence:
#
# PCOD9085308 Si02
#       8
#     2   2   2   2   2   2   2   2
#     4  10  19  35  59  95 114 151 202 247 295 346
#     4  10  22  38  61  87 122 160 198 238 299 354
#     4   9  19  38  56  83 121 152 192 239 292 349
#     4  10  21  38  63  91 120 153 202 242 298 356
#     4   9  20  37  61  86 121 149 198 246 287 349
#     4  11  21  40  63  84 125 159 197 240 297 357
#     4  10  19  36  64  83 120 157 197 246 294 346
#     4  11  20  38  63  91 117 159 198 246 297 346
#
# _framework density 22.545282
#
# number of rings (size 3 to 8) (size 9 to 14) (size 15 to 20)
#    0.750    1.250    2.500    1.875    0.000    1.000 
#    0.000    5.625    0.000    0.000    0.000    0.000 
#    0.000    0.000    0.000    0.000    0.000    0.000 
#
# Total GULP energy -89291.781690 kJ/mol
# GULP energy per Si atom -5580.736356 kJ/mol
# Density = 2.249397 g / cm^3
# Si number density = 22.545282 Si / 1000 Ang^3
#
#
#
# Elastic Constant Matrix: (Units=GPa)
#
#
# Indices 1 2 3 4 5 6 
#
# 1 45.9449 23.8189 -1.5287 4.3340 12.4672 1.3322
# 2 23.8189 134.9361 21.6879 21.3021 11.3405 4.2327
# 3 -1.5287 21.6879 62.7054 15.3426 6.4995 4.8809
# 4 4.3340 21.3021 15.3426 35.8486 4.4102 -1.6717
# 5 12.4672 11.3405 6.4995 4.4102 29.2763 -0.1108
# 6 1.3322 4.2327 4.8809 -1.6717 -0.1108 13.7692
#
#
#
# Elastic Compliance Matrix: (Units=1/GPa)
#
#
# Indices 1 2 3 4 5 6 
#
# 1 0.027148 -0.004223 0.003739 -0.001206 -0.010585 -0.002885
# 2 -0.004223 0.009269 -0.002049 -0.004135 -0.000723 -0.002222
# 3 0.003739 -0.002049 0.019589 -0.007475 -0.004050 -0.007616
# 4 -0.001206 -0.004135 -0.007475 0.034245 -0.001353 0.008184
# 5 -0.010585 -0.000723 -0.004050 -0.001353 0.040058 0.002840
# 6 -0.002885 -0.002222 -0.007616 0.008184 0.002840 0.077304
#
#
# Mechanical properties :
#
#
# Convention : Reuss Voigt Hill
#
# Bulk Modulus (GPa) = 19.63071 36.83805 28.23438
# Shear Modulus (GPa) = 21.77128 29.08605 25.42866
#
# Velocity S-wave (km/s) = 3.11089 3.59572 3.36206
# Velocity P-wave (km/s) = 4.65077 5.79775 5.25565
#
# Compressibility (1/GPa) = 0.05094059
#
# Stress axis : x y z
#
# Youngs Moduli (GPa) = 36.83466 107.88756 51.04885
#
# Poissons Ratio (x) = 0.45559 -0.19088
# Poissons Ratio (y) = 0.15555 0.10461
# Poissons Ratio (z) = -0.13773 0.22108
#
# Static dielectric constant tensor:
#      x y z
#    x 1.820450 -0.000220 -0.004240 
#    y -0.000220 1.854180 -0.044920 
#    z -0.004240 -0.044920 1.920160 
# 
# From -- ./inp_files/227146.got.cif
#   From: 2010.05.17/outbox.cif.g08.bks.cpg/sg2_114_cif.got.tgz:227146.got - 2010.06.03 11:33:40.
