data_PCOD9085065
_publ_section_title
;
Structure prediction by ZEFSAII (Michael W. Deem and Ramdas Pophale) SiO2 
 PCOD9085065
Probable space group: P -1
;
_chemical_formula_sum "Si O2"
_cell_formula_units_Z 12
_cell_length_a 13.561234
_cell_length_b 12.191388
_cell_length_c 13.871519
_cell_angle_alpha 46.214942
_cell_angle_beta 21.010789
_cell_angle_gamma 45.363175
_cell_volume 579.238497
_symmetry_space_group_name_H-M "P -1"
_symmetry_group_IT_number 2
_symmetry_cell_setting 'triclinic'
loop_
_space_group_symop_operation_xyz
x,y,z
-x,-y,-z
loop_
_atom_site_type_symbol
_atom_site_label
_atom_site_fract_x
_atom_site_fract_y
_atom_site_fract_z
Si Si1 0.180660 0.365151 0.558283
Si Si2 0.551397 0.157978 0.495222
Si Si3 0.642469 0.553632 0.037677
Si Si4 0.431130 0.327521 0.160573
Si Si5 0.894779 0.024945 0.969489
Si Si6 0.284465 0.530482 0.766274
O O1 0.399890 0.222648 0.493804
O O2 0.182672 0.333687 0.461589
O O3 0.898561 0.414191 0.849303
O O4 0.342551 0.505554 0.335005
O O5 0.673026 0.300316 0.339574
O O6 0.297162 0.096242 0.813246
O O7 0.815429 0.016086 0.328118
O O8 0.643075 0.685031 0.876497
O O9 0.677949 0.572887 0.107117
O O10 0.692834 0.192658 0.035341
O O11 0.500000 0.500000 0.000000
O O12 0.000000 0.000000 0.000000
O O13 0.500000 0.500000 0.500000
O O14 0.000000 0.500000 0.000000
#
# Coordination Sequence:
#
# PCOD9085065 Si02
#       6
#     2   2   2   2   2   2
#     4  10  19  35  58  87 128 166 196 248 301 382
#     4  11  23  39  62  93 130 163 219 258 313 377
#     4  10  21  36  58  92 123 155 208 263 315 366
#     4  10  23  38  60  91 134 178 206 244 308 389
#     4  12  24  39  61  93 139 177 201 246 313 389
#     4  11  22  42  70  92 117 162 223 286 319 357
#
# _framework density 20.716854000000001
#
# number of rings (size 3 to 8) (size 9 to 14) (size 15 to 20)
#    0.000    1.333    1.667    6.000    2.333    2.667 
#    0.000    0.000    0.000    6.000    0.000    0.000 
#    0.000    0.000    0.000    0.000    0.000    0.000 
#
# Total GULP energy -66878.753403 kJ/mol
# GULP energy per Si atom -5573.229450 kJ/mol
# Density = 2.066970 g / cm^3
# Si number density = 20.716854 Si / 1000 Ang^3
#
#
#
# Elastic Constant Matrix: (Units=GPa)
#
#
# Indices 1 2 3 4 5 6 
#
# 1 151.7003 35.3909 46.2573 4.3247 16.8634 -12.1867
# 2 35.3909 93.2020 23.2190 9.8200 -3.4291 -22.8167
# 3 46.2573 23.2190 133.6139 14.4469 -4.0683 7.4459
# 4 4.3247 9.8200 14.4469 38.0874 10.7223 -10.8712
# 5 16.8634 -3.4291 -4.0683 10.7223 42.2054 -3.1271
# 6 -12.1867 -22.8167 7.4459 -10.8712 -3.1271 32.1194
#
#
#
# Elastic Compliance Matrix: (Units=1/GPa)
#
#
# Indices 1 2 3 4 5 6 
#
# 1 0.008782 -0.002249 -0.003280 0.002978 -0.004538 0.003061
# 2 -0.002249 0.014812 -0.002219 -0.000581 0.002796 0.010258
# 3 -0.003280 -0.002219 0.010090 -0.005676 0.003042 -0.006785
# 4 0.002978 -0.000581 -0.005676 0.034582 -0.009621 0.012801
# 5 -0.004538 0.002796 0.003042 -0.009621 0.028402 -0.000932
# 6 0.003061 0.010258 -0.006785 0.012801 -0.000932 0.045397
#
#
# Mechanical properties :
#
#
# Convention : Reuss Voigt Hill
#
# Bulk Modulus (GPa) = 54.98422 65.36116 60.17269
# Shear Modulus (GPa) = 30.55768 40.72572 35.64170
#
# Velocity S-wave (km/s) = 3.84476 4.43857 4.15229
# Velocity P-wave (km/s) = 6.80500 7.60829 7.21783
#
# Compressibility (1/GPa) = 0.01818704
#
# Stress axis : x y z
#
# Youngs Moduli (GPa) = 113.86488 67.51463 99.10839
#
# Poissons Ratio (x) = 0.15184 0.32512
# Poissons Ratio (y) = 0.25607 0.21993
# Poissons Ratio (z) = 0.37352 0.14982
#
# Static dielectric constant tensor:
#      x y z
#    x 1.803700 -0.016620 0.007590 
#    y -0.016620 1.778140 -0.033950 
#    z 0.007590 -0.033950 1.775740 
# 
# From -- ./inp_files/70949.got.cif
#   From: 2010.05.17/outbox.cif.g08.bks.cpg/sg2_36_cif.got.tgz:70949.got - 2010.06.03 11:33:40.
