data_PCOD9085543
_publ_section_title
;
Structure prediction by ZEFSAII (Michael W. Deem and Ramdas Pophale) SiO2 
 PCOD9085543
Probable space group: P -1
;
_chemical_formula_sum "Si O2"
_cell_formula_units_Z 14
_cell_length_a 15.504037
_cell_length_b 15.358426
_cell_length_c 7.703576
_cell_angle_alpha 132.068269
_cell_angle_beta 114.916857
_cell_angle_gamma 27.829614
_cell_volume 552.711042
_symmetry_space_group_name_H-M "P -1"
_symmetry_group_IT_number 2
_symmetry_cell_setting 'triclinic'
loop_
_space_group_symop_operation_xyz
x,y,z
-x,-y,-z
loop_
_atom_site_type_symbol
_atom_site_label
_atom_site_fract_x
_atom_site_fract_y
_atom_site_fract_z
Si Si1 0.567643 0.316400 0.930373
Si Si2 0.960767 0.584301 0.301084
Si Si3 0.754350 0.600485 0.014018
Si Si4 0.333620 0.105044 0.189807
Si Si5 0.158435 0.739349 0.383372
Si Si6 0.954082 0.240689 0.345216
Si Si7 0.614463 0.696392 0.405720
O O1 0.558613 0.211918 0.656488
O O2 0.500000 0.500000 0.000000
O O3 0.388596 0.501666 0.174642
O O4 0.801098 0.065016 0.872771
O O5 0.836125 0.642988 0.134817
O O6 0.804597 0.767643 0.582691
O O7 0.158568 0.286432 0.135331
O O8 0.037734 0.633053 0.401637
O O9 0.653819 0.706124 0.262853
O O10 0.554539 0.793225 0.976079
O O11 0.911221 0.317890 0.789975
O O12 0.407481 0.159908 0.313994
O O13 0.147093 0.743404 0.587696
O O14 0.000000 0.000000 0.500000
O O15 0.815349 0.408257 0.278144
#
# Coordination Sequence:
#
# PCOD9085543 Si02
#       7
#     2   2   2   2   2   2   2
#     4  11  22  42  67  84 118 168 206 244 310 357
#     4   9  17  31  59  95 116 158 193 242 310 359
#     4  10  19  35  61  86 125 159 198 245 300 363
#     4   9  16  32  59  91 126 148 197 246 299 369
#     4  11  24  43  60  90 125 160 209 258 294 355
#     4  11  22  41  66  90 129 153 202 258 301 365
#     4   9  20  36  62  98 120 159 201 252 305 361
#
# _framework density 25.329692999999999
#
# number of rings (size 3 to 8) (size 9 to 14) (size 15 to 20)
#    0.000    2.000    1.429    5.143    0.000    1.143 
#    0.000    7.857    0.000    0.000    0.000    0.000 
#    0.000    0.000    0.000    0.000    0.000    0.000 
#
# Total GULP energy -78156.561327 kJ/mol
# GULP energy per Si atom -5582.611523 kJ/mol
# Density = 2.527204 g / cm^3
# Si number density = 25.329693 Si / 1000 Ang^3
#
#
#
# Elastic Constant Matrix: (Units=GPa)
#
#
# Indices 1 2 3 4 5 6 
#
# 1 150.8762 31.7469 25.0473 18.1342 -13.1182 25.0676
# 2 31.7469 135.4982 13.5779 42.2095 -8.3776 11.2389
# 3 25.0473 13.5779 45.5387 29.5824 0.6379 -1.4591
# 4 18.1342 42.2095 29.5824 42.4599 -7.0859 7.9664
# 5 -13.1182 -8.3776 0.6379 -7.0859 39.0838 4.5752
# 6 25.0676 11.2389 -1.4591 7.9664 4.5752 39.0556
#
#
#
# Elastic Compliance Matrix: (Units=1/GPa)
#
#
# Indices 1 2 3 4 5 6 
#
# 1 0.009703 -0.002758 -0.010009 0.007949 0.005212 -0.008040
# 2 -0.002758 0.012791 0.010814 -0.019992 -0.002318 0.002842
# 3 -0.010009 0.010814 0.060228 -0.054196 -0.013987 0.018256
# 4 0.007949 -0.019992 -0.054196 0.084492 0.016997 -0.020599
# 5 0.005212 -0.002318 -0.013987 0.016997 0.031359 -0.010341
# 6 -0.008040 0.002842 0.018256 -0.020599 -0.010341 0.036042
#
#
# Mechanical properties :
#
#
# Convention : Reuss Voigt Hill
#
# Bulk Modulus (GPa) = 12.68775 52.51747 32.60261
# Shear Modulus (GPa) = 18.88259 41.55593 30.21926
#
# Velocity S-wave (km/s) = 2.73330 4.05483 3.45778
# Velocity P-wave (km/s) = 3.87055 6.53458 5.37038
#
# Compressibility (1/GPa) = 0.07881615
#
# Stress axis : x y z
#
# Youngs Moduli (GPa) = 103.05596 78.17694 16.60367
#
# Poissons Ratio (x) = 0.21558 0.16619
# Poissons Ratio (y) = 0.28418 -0.17955
# Poissons Ratio (z) = 1.03151 -0.84537
#
# Static dielectric constant tensor:
#      x y z
#    x 2.071430 0.010590 -0.135130 
#    y 0.010590 1.947520 -0.070940 
#    z -0.135130 -0.070940 2.267760 
# 
# From -- ./inp_files/315953.got.cif
#   From: 2010.05.17/outbox.cif.g08.bks.cpg/sg2_158_cif.got.tgz:315953.got - 2010.06.03 11:33:40.
