data_PCOD9085401
_publ_section_title
;
Structure prediction by ZEFSAII (Michael W. Deem and Ramdas Pophale) SiO2 
 PCOD9085401
Probable space group: P -1
;
_chemical_formula_sum "Si O2"
_cell_formula_units_Z 14
_cell_length_a 7.293880
_cell_length_b 8.892239
_cell_length_c 16.015541
_cell_angle_alpha 143.668829
_cell_angle_beta 115.402260
_cell_angle_gamma 73.458952
_cell_volume 552.302105
_symmetry_space_group_name_H-M "P -1"
_symmetry_group_IT_number 2
_symmetry_cell_setting 'triclinic'
loop_
_space_group_symop_operation_xyz
x,y,z
-x,-y,-z
loop_
_atom_site_type_symbol
_atom_site_label
_atom_site_fract_x
_atom_site_fract_y
_atom_site_fract_z
Si Si1 0.964435 0.474117 0.078736
Si Si2 0.194690 0.284836 0.361883
Si Si3 0.808450 0.036594 0.612483
Si Si4 0.431966 0.740511 0.999236
Si Si5 0.864248 0.005986 0.057823
Si Si6 0.445723 0.383684 0.700266
Si Si7 0.588671 0.257894 0.307378
O O1 0.999325 0.748338 0.252853
O O2 0.743089 0.336371 0.000776
O O3 0.136764 0.286651 0.048952
O O4 0.000000 0.500000 0.000000
O O5 0.381714 0.260778 0.323413
O O6 0.230318 0.575499 0.532747
O O7 0.210202 0.099523 0.361229
O O8 0.985483 0.192184 0.231856
O O9 0.626559 0.212189 0.642210
O O10 0.766395 0.805498 0.435624
O O11 0.476376 0.490143 0.847370
O O12 0.394414 0.042150 0.838241
O O13 0.330553 0.886278 0.968864
O O14 0.000000 0.000000 0.000000
O O15 0.441774 0.587334 0.714783
#
# Coordination Sequence:
#
# PCOD9085401 Si02
#       7
#     2   2   2   2   2   2   2
#     4  11  20  36  64  86 119 156 199 240 296 361
#     4  10  19  36  62  89 113 154 206 244 286 359
#     4  10  21  40  61  86 116 162 203 238 303 362
#     4  11  22  38  61  92 122 154 201 251 296 349
#     4  10  19  35  60  88 116 151 198 243 296 351
#     4  10  23  39  61  86 121 159 199 249 296 356
#     4  10  19  36  61  85 118 155 198 244 292 351
#
# _framework density 25.348445000000002
#
# number of rings (size 3 to 8) (size 9 to 14) (size 15 to 20)
#    0.000    1.714    4.286    1.286    2.000    0.571 
#    0.000    7.143    3.143    0.000    0.000    0.000 
#    0.000    0.000    0.000    0.000    0.000    0.000 
#
# Total GULP energy -78285.131322 kJ/mol
# GULP energy per Si atom -5591.795094 kJ/mol
# Density = 2.529075 g / cm^3
# Si number density = 25.348445 Si / 1000 Ang^3
#
#
#
# Elastic Constant Matrix: (Units=GPa)
#
#
# Indices 1 2 3 4 5 6 
#
# 1 55.0861 16.1507 23.6459 1.7506 2.9307 24.3723
# 2 16.1507 98.6486 40.9528 6.5857 7.8081 21.7631
# 3 23.6459 40.9528 217.4230 35.2932 13.3957 28.1733
# 4 1.7506 6.5857 35.2932 43.8018 8.6833 7.8567
# 5 2.9307 7.8081 13.3957 8.6833 41.2284 1.6630
# 6 24.3723 21.7631 28.1733 7.8567 1.6630 22.3747
#
#
#
# Elastic Compliance Matrix: (Units=1/GPa)
#
#
# Indices 1 2 3 4 5 6 
#
# 1 0.037922 0.003961 0.000423 0.006736 -0.003073 -0.047830
# 2 0.003961 0.013683 -0.001015 0.002091 -0.002302 -0.016909
# 3 0.000423 -0.001015 0.006141 -0.003591 -0.000840 -0.005884
# 4 0.006736 0.002091 -0.003591 0.028781 -0.005182 -0.014571
# 5 -0.003073 -0.002302 -0.000840 -0.005182 0.026010 0.006530
# 6 -0.047830 -0.016909 -0.005884 -0.014571 0.006530 0.125281
#
#
# Mechanical properties :
#
#
# Convention : Reuss Voigt Hill
#
# Bulk Modulus (GPa) = 15.50732 59.18406 37.34569
# Shear Modulus (GPa) = 19.79624 40.84152 30.31888
#
# Velocity S-wave (km/s) = 2.79761 4.01834 3.46220
# Velocity P-wave (km/s) = 4.07019 6.70285 5.54503
#
# Compressibility (1/GPa) = 0.06448568
#
# Stress axis : x y z
#
# Youngs Moduli (GPa) = 26.37008 73.08567 162.82720
#
# Poissons Ratio (x) = -0.28950 -0.06893
# Poissons Ratio (y) = -0.10446 0.16520
# Poissons Ratio (z) = -0.01116 0.07415
#
# Static dielectric constant tensor:
#      x y z
#    x 2.021950 -0.019370 0.011740 
#    y -0.019370 1.988700 0.031980 
#    z 0.011740 0.031980 2.101740 
# 
# From -- ./inp_files/234691.got.cif
#   From: 2010.05.17/outbox.cif.g08.bks.cpg/sg2_118_cif.got.tgz:234691.got - 2010.06.03 11:33:40.
