data_PCOD9085064
_publ_section_title
;
Structure prediction by ZEFSAII (Michael W. Deem and Ramdas Pophale) SiO2 
 PCOD9085064
Probable space group: P -1
;
_chemical_formula_sum "Si O2"
_cell_formula_units_Z 14
_cell_length_a 9.403183
_cell_length_b 13.417822
_cell_length_c 9.179909
_cell_angle_alpha 49.041503
_cell_angle_beta 108.711247
_cell_angle_gamma 131.370472
_cell_volume 643.353919
_symmetry_space_group_name_H-M "P -1"
_symmetry_group_IT_number 2
_symmetry_cell_setting 'triclinic'
loop_
_space_group_symop_operation_xyz
x,y,z
-x,-y,-z
loop_
_atom_site_type_symbol
_atom_site_label
_atom_site_fract_x
_atom_site_fract_y
_atom_site_fract_z
Si Si1 0.620570 0.120492 0.248330
Si Si2 0.539644 0.239766 0.358346
Si Si3 0.609813 0.293190 0.824082
Si Si4 0.177979 0.192402 0.408769
Si Si5 0.698530 0.683333 0.343815
Si Si6 0.953603 0.612866 0.804182
Si Si7 0.808673 0.479245 0.435191
O O1 0.541009 0.207096 0.219928
O O2 0.827376 0.210818 0.310827
O O3 0.492067 0.922484 0.425491
O O4 0.634831 0.170267 0.036858
O O5 0.368464 0.235819 0.362161
O O6 0.736074 0.415168 0.309288
O O7 0.399211 0.241564 0.833316
O O8 0.794020 0.484111 0.755204
O O9 0.647271 0.319234 0.639025
O O10 0.195315 0.219273 0.564522
O O11 0.146219 0.320814 0.211167
O O12 0.000000 0.000000 0.500000
O O13 0.500000 0.500000 0.500000
O O14 0.810516 0.635673 0.329632
O O15 0.000000 0.500000 0.000000
O O16 0.000000 0.500000 0.500000
#
# Coordination Sequence:
#
# PCOD9085064 Si02
#       7
#     2   2   2   2   2   2   2
#     4  10  23  37  58  89 134 156 197 267 310 356
#     4  11  22  38  59  93 117 167 211 243 313 373
#     4  10  19  39  60  84 125 164 196 253 308 358
#     4  12  21  37  64  90 120 164 209 247 308 381
#     4  10  19  37  61  83 117 160 198 249 306 357
#     4  10  19  35  58  87 121 160 197 253 308 349
#     4  11  21  36  65  88 115 159 211 250 301 373
#
# _framework density 21.760961999999999
#
# number of rings (size 3 to 8) (size 9 to 14) (size 15 to 20)
#    0.000    1.429    7.143    0.857    0.000    0.571 
#    0.000    9.286    0.000    1.714    0.000    0.000 
#    0.000    0.000    0.000    0.000    0.000    0.000 
#
# Total GULP energy -77980.437354 kJ/mol
# GULP energy per Si atom -5570.031240 kJ/mol
# Density = 2.171143 g / cm^3
# Si number density = 21.760962 Si / 1000 Ang^3
#
#
#
# Elastic Constant Matrix: (Units=GPa)
#
#
# Indices 1 2 3 4 5 6 
#
# 1 144.5110 33.9307 4.8889 6.7323 26.1915 -13.5904
# 2 33.9307 119.3014 1.1882 16.9549 12.7841 -1.6285
# 3 4.8889 1.1882 46.9965 7.9244 13.1862 -3.2160
# 4 6.7323 16.9549 7.9244 18.0231 2.3370 0.4250
# 5 26.1915 12.7841 13.1862 2.3370 24.2474 3.5028
# 6 -13.5904 -1.6285 -3.2160 0.4250 3.5028 35.4100
#
#
#
# Elastic Compliance Matrix: (Units=1/GPa)
#
#
# Indices 1 2 3 4 5 6 
#
# 1 0.009952 -0.001071 0.003316 -0.002672 -0.012502 0.005340
# 2 -0.001071 0.010724 0.003172 -0.010411 -0.005367 0.001026
# 3 0.003316 0.003172 0.029618 -0.014689 -0.020862 0.006348
# 4 -0.002672 -0.010411 -0.014689 0.071530 0.010149 -0.004701
# 5 -0.012502 -0.005367 -0.020862 0.010149 0.069962 -0.013982
# 6 0.005340 0.001026 0.006348 -0.004701 -0.013982 0.032354
#
#
# Mechanical properties :
#
#
# Convention : Reuss Voigt Hill
#
# Bulk Modulus (GPa) = 16.35960 43.42495 29.89227
# Shear Modulus (GPa) = 21.39662 33.58951 27.49306
#
# Velocity S-wave (km/s) = 3.13910 3.93309 3.55831
# Velocity P-wave (km/s) = 4.54673 6.37372 5.53611
#
# Compressibility (1/GPa) = 0.06112620
#
# Stress axis : x y z
#
# Youngs Moduli (GPa) = 100.48432 93.25004 33.76356
#
# Poissons Ratio (x) = 0.09987 -0.11195
# Poissons Ratio (y) = 0.10762 -0.10709
# Poissons Ratio (z) = -0.33317 -0.29577
#
# Static dielectric constant tensor:
#      x y z
#    x 1.876530 -0.021810 0.021060 
#    y -0.021810 1.865430 0.040270 
#    z 0.021060 0.040270 1.835400 
# 
# From -- ./inp_files/174819.got.cif
#   From: 2010.05.17/outbox.cif.g08.bks.cpg/sg2_88_cif.got.tgz:174819.got - 2010.06.03 11:33:40.
