data_PCOD9085979
_publ_section_title
;
Structure prediction by ZEFSAII (Michael W. Deem and Ramdas Pophale) SiO2 
 PCOD9085979
Probable space group: P -1
;
_chemical_formula_sum "Si O2"
_cell_formula_units_Z 16
_cell_length_a 8.683598
_cell_length_b 11.007346
_cell_length_c 11.327717
_cell_angle_alpha 116.738144
_cell_angle_beta 50.037311
_cell_angle_gamma 102.464990
_cell_volume 736.901571
_symmetry_space_group_name_H-M "P -1"
_symmetry_group_IT_number 2
_symmetry_cell_setting 'triclinic'
loop_
_space_group_symop_operation_xyz
x,y,z
-x,-y,-z
loop_
_atom_site_type_symbol
_atom_site_label
_atom_site_fract_x
_atom_site_fract_y
_atom_site_fract_z
Si Si1 0.346048 0.572786 0.851670
Si Si2 0.939574 0.068693 0.213530
Si Si3 0.942414 0.343479 0.752524
Si Si4 0.840927 0.099122 0.548276
Si Si5 0.729166 0.734326 0.255848
Si Si6 0.490462 0.093946 0.386170
Si Si7 0.637072 0.610163 0.542075
Si Si8 0.965867 0.220598 0.049179
O O1 0.340454 0.413345 0.759383
O O2 0.568420 0.605121 0.711977
O O3 0.196615 0.664381 0.875175
O O4 0.238120 0.591552 0.042666
O O5 0.911643 0.096062 0.376491
O O6 0.723634 0.047915 0.253780
O O7 0.986945 0.196909 0.167690
O O8 0.070637 0.925597 0.057273
O O9 0.843243 0.248858 0.666963
O O10 0.084153 0.255796 0.740934
O O11 0.123226 0.414555 0.624732
O O12 0.638168 0.027618 0.635023
O O13 0.000000 0.000000 0.500000
O O14 0.565079 0.850942 0.430605
O O15 0.819851 0.744460 0.088321
O O16 0.434455 0.233671 0.398702
O O17 0.500000 0.500000 0.500000
#
# Coordination Sequence:
#
# PCOD9085979 Si02
#       8
#     2   2   2   2   2   2   2   2
#     4  11  20  38  64  96 124 159 219 264 296 367
#     4  11  23  36  61  90 126 164 204 261 309 380
#     4  10  21  35  58  91 122 164 196 255 317 355
#     4  12  21  40  60  85 132 167 200 253 319 385
#     4  10  19  35  66  90 117 160 208 266 296 361
#     4  11  21  38  61  95 119 162 212 253 313 373
#     4  11  20  34  63  96 121 154 214 262 298 361
#     4  10  20  35  55  92 123 156 209 254 316 354
#
# _framework density 21.712534000000002
#
# number of rings (size 3 to 8) (size 9 to 14) (size 15 to 20)
#    0.000    1.250    7.500    2.625    0.000    0.000 
#    0.000    3.125    0.000    7.500    0.000    0.000 
#    0.000    0.000    0.000    0.000    0.000    0.000 
#
# Total GULP energy -89100.495990 kJ/mol
# GULP energy per Si atom -5568.780999 kJ/mol
# Density = 2.166312 g / cm^3
# Si number density = 21.712534 Si / 1000 Ang^3
#
#
#
# Elastic Constant Matrix: (Units=GPa)
#
#
# Indices 1 2 3 4 5 6 
#
# 1 40.1276 27.2430 26.0672 -8.0346 9.5631 13.0611
# 2 27.2430 120.2081 52.2607 -27.4274 12.5103 20.8945
# 3 26.0672 52.2607 139.5023 -32.9578 7.9066 21.5347
# 4 -8.0346 -27.4274 -32.9578 53.3952 -0.7996 5.0286
# 5 9.5631 12.5103 7.9066 -0.7996 28.1753 0.0435
# 6 13.0611 20.8945 21.5347 5.0286 0.0435 23.5771
#
#
#
# Elastic Compliance Matrix: (Units=1/GPa)
#
#
# Indices 1 2 3 4 5 6 
#
# 1 0.036946 -0.002304 -0.001420 0.005048 -0.010947 -0.018185
# 2 -0.002304 0.013199 -0.000944 0.006818 -0.004603 -0.011005
# 3 -0.001420 -0.000944 0.011125 0.007085 -0.002004 -0.010046
# 4 0.005048 0.006818 0.007085 0.029305 -0.005864 -0.021549
# 5 -0.010947 -0.004603 -0.002004 -0.005864 0.041627 0.013149
# 6 -0.018185 -0.011005 -0.010046 -0.021549 0.013149 0.075988
#
#
# Mechanical properties :
#
#
# Convention : Reuss Voigt Hill
#
# Bulk Modulus (GPa) = 19.25500 56.77552 38.01526
# Shear Modulus (GPa) = 21.29135 33.98067 27.63601
#
# Velocity S-wave (km/s) = 3.13485 3.96033 3.57152
# Velocity P-wave (km/s) = 4.68940 6.86424 5.87828
#
# Compressibility (1/GPa) = 0.05193456
#
# Stress axis : x y z
#
# Youngs Moduli (GPa) = 27.06670 75.76431 89.88442
#
# Poissons Ratio (x) = 0.17453 0.12768
# Poissons Ratio (y) = 0.06235 0.08482
# Poissons Ratio (z) = 0.03845 0.07149
#
# Static dielectric constant tensor:
#      x y z
#    x 1.773930 -0.015310 -0.004810 
#    y -0.015310 1.893360 -0.053930 
#    z -0.004810 -0.053930 1.915360 
# 
# From -- ./inp_files/390905.got.cif
#   From: 2010.05.17/outbox.cif.g08.bks.cpg/sg2_196_cif.got.tgz:390905.got - 2010.06.03 11:33:40.
