data_PCOD9085469
_publ_section_title
;
Structure prediction by ZEFSAII (Michael W. Deem and Ramdas Pophale) SiO2 
 PCOD9085469
Probable space group: P -1
;
_chemical_formula_sum "Si O2"
_cell_formula_units_Z 16
_cell_length_a 8.126430
_cell_length_b 26.417258
_cell_length_c 9.013742
_cell_angle_alpha 142.416799
_cell_angle_beta 102.908113
_cell_angle_gamma 50.621395
_cell_volume 734.817810
_symmetry_space_group_name_H-M "P -1"
_symmetry_group_IT_number 2
_symmetry_cell_setting 'triclinic'
loop_
_space_group_symop_operation_xyz
x,y,z
-x,-y,-z
loop_
_atom_site_type_symbol
_atom_site_label
_atom_site_fract_x
_atom_site_fract_y
_atom_site_fract_z
Si Si1 0.550349 0.659936 0.046295
Si Si2 0.103190 0.554050 0.154767
Si Si3 0.954897 0.654181 0.052653
Si Si4 0.284672 0.972106 0.359596
Si Si5 0.459830 0.948924 0.672404
Si Si6 0.249301 0.200703 0.155373
Si Si7 0.921264 0.265232 0.984252
Si Si8 0.864999 0.053463 0.255306
O O1 0.776101 0.635813 0.963279
O O2 0.343851 0.689370 0.968687
O O3 0.366204 0.790815 0.411263
O O4 0.667651 0.543952 0.906497
O O5 0.154862 0.563856 0.020110
O O6 0.862718 0.696466 0.507007
O O7 0.000000 0.500000 0.000000
O O8 0.076513 0.653067 0.929221
O O9 0.746611 0.802469 0.409143
O O10 0.351863 0.952351 0.500790
O O11 0.554139 0.841534 0.030858
O O12 0.162930 0.110886 0.625789
O O13 0.065398 0.996598 0.299093
O O14 0.266269 0.984950 0.837538
O O15 0.421944 0.060428 0.926231
O O16 0.997761 0.260880 0.155430
O O17 0.000000 0.000000 0.000000
#
# Coordination Sequence:
#
# PCOD9085469 Si02
#       8
#     2   2   2   2   2   2   2   2
#     4   9  22  40  58  82 129 162 196 253 301 348
#     4  10  24  41  58  83 124 167 200 247 303 358
#     4  10  19  38  63  86 121 163 196 246 314 346
#     4  10  19  35  60  93 124 151 191 255 312 353
#     4  10  19  37  58  91 125 149 196 255 307 352
#     4  11  21  36  65  90 118 158 203 247 305 368
#     4  10  19  39  63  91 120 152 208 254 298 365
#     4  10  22  35  61  91 120 158 200 246 307 365
#
# _framework density 21.774104999999999
#
# number of rings (size 3 to 8) (size 9 to 14) (size 15 to 20)
#    0.000    2.000    2.500    1.125    5.250    4.500 
#    0.000    2.500    0.000    0.000    0.000    0.000 
#    0.000    0.000    0.000    0.000    0.000    0.000 
#
# Total GULP energy -89183.948538 kJ/mol
# GULP energy per Si atom -5573.996784 kJ/mol
# Density = 2.172455 g / cm^3
# Si number density = 21.774105 Si / 1000 Ang^3
#
#
#
# Elastic Constant Matrix: (Units=GPa)
#
#
# Indices 1 2 3 4 5 6 
#
# 1 50.5963 5.5717 6.5809 -10.5539 5.5030 -1.5873
# 2 5.5717 73.7583 8.5295 9.1886 14.0744 -6.0526
# 3 6.5809 8.5295 31.8953 -3.7957 10.7194 -6.9178
# 4 -10.5539 9.1886 -3.7957 23.9034 1.7576 -0.0034
# 5 5.5030 14.0744 10.7194 1.7576 20.7662 -1.4183
# 6 -1.5873 -6.0526 -6.9178 -0.0034 -1.4183 34.7027
#
#
#
# Elastic Compliance Matrix: (Units=1/GPa)
#
#
# Indices 1 2 3 4 5 6 
#
# 1 0.023013 -0.002002 -0.001120 0.011127 -0.005086 0.000273
# 2 -0.002002 0.016672 -0.001214 -0.006793 -0.009418 0.002189
# 3 -0.001120 -0.001214 0.041254 0.008022 -0.020368 0.007129
# 4 0.011127 -0.006793 0.008022 0.051130 -0.006768 0.000652
# 5 -0.005086 -0.009418 -0.020368 -0.006768 0.066754 -0.003208
# 6 0.000273 0.002189 0.007129 0.000652 -0.003208 0.030501
#
#
# Mechanical properties :
#
#
# Convention : Reuss Voigt Hill
#
# Bulk Modulus (GPa) = 13.83735 21.95713 17.89724
# Shear Modulus (GPa) = 19.07771 24.91231 21.99501
#
# Velocity S-wave (km/s) = 2.96322 3.38616 3.18173
# Velocity P-wave (km/s) = 4.25162 5.03925 4.66210
#
# Compressibility (1/GPa) = 0.07226817
#
# Stress axis : x y z
#
# Youngs Moduli (GPa) = 43.45356 59.97937 24.23984
#
# Poissons Ratio (x) = 0.12008 0.02715
# Poissons Ratio (y) = 0.08699 0.02942
# Poissons Ratio (z) = 0.04867 0.07281
#
# Static dielectric constant tensor:
#      x y z
#    x 1.837270 -0.021990 -0.005220 
#    y -0.021990 1.900470 0.013210 
#    z -0.005220 0.013210 1.763840 
# 
# From -- ./inp_files/179200.got.cif
#   From: 2010.05.17/outbox.cif.g08.bks.cpg/sg2_90_cif.got.tgz:179200.got - 2010.06.03 11:33:40.
