data_PCOD9085824
_publ_section_title
;
Structure prediction by ZEFSAII (Michael W. Deem and Ramdas Pophale) SiO2 
 PCOD9085824
Probable space group: P -1
;
_chemical_formula_sum "Si O2"
_cell_formula_units_Z 16
_cell_length_a 7.221528
_cell_length_b 7.851047
_cell_length_c 15.944232
_cell_angle_alpha 112.280544
_cell_angle_beta 95.689866
_cell_angle_gamma 124.365595
_cell_volume 629.783271
_symmetry_space_group_name_H-M "P -1"
_symmetry_group_IT_number 2
_symmetry_cell_setting 'triclinic'
loop_
_space_group_symop_operation_xyz
x,y,z
-x,-y,-z
loop_
_atom_site_type_symbol
_atom_site_label
_atom_site_fract_x
_atom_site_fract_y
_atom_site_fract_z
Si Si1 0.542356 0.019300 0.294229
Si Si2 0.714412 0.455576 0.283422
Si Si3 0.707767 0.441768 0.911426
Si Si4 0.841405 0.984323 0.615649
Si Si5 0.192117 0.293848 0.286843
Si Si6 0.467738 0.171301 0.577902
Si Si7 0.606953 0.386238 0.077268
Si Si8 0.898973 0.096064 0.073711
O O1 0.728096 0.287807 0.313475
O O2 0.420456 0.824322 0.177705
O O3 0.331282 0.995027 0.330479
O O4 0.637071 0.942176 0.356358
O O5 0.446006 0.367475 0.276619
O O6 0.706829 0.398385 0.174376
O O7 0.927869 0.744589 0.352081
O O8 0.516944 0.489457 0.897157
O O9 0.948366 0.633647 0.903006
O O10 0.774217 0.497465 0.022928
O O11 0.880583 0.841528 0.653889
O O12 0.697456 0.826955 0.496481
O O13 0.275943 0.558596 0.348140
O O14 0.983655 0.122200 0.177284
O O15 0.500000 0.000000 0.500000
O O16 0.388674 0.107418 0.988809
O O17 0.000000 0.000000 0.000000
#
# Coordination Sequence:
#
# PCOD9085824 Si02
#       8
#     2   2   2   2   2   2   2   2
#     4  10  22  42  62  86 129 163 201 255 306 366
#     4  11  23  40  60  95 129 158 205 251 302 369
#     4  10  20  37  61  88 121 162 206 251 298 358
#     4  10  25  39  65  91 121 163 203 255 314 356
#     4  11  21  41  69  91 124 158 207 257 302 361
#     4  10  21  45  66  90 121 160 208 256 309 366
#     4  10  22  36  61  90 124 159 211 250 289 372
#     4  10  19  35  63  92 116 163 200 245 304 357
#
# _framework density 25.405567000000001
#
# number of rings (size 3 to 8) (size 9 to 14) (size 15 to 20)
#    0.000    1.750    3.750    0.375    5.250    2.500 
#    0.000    1.250    0.000    0.000    0.000    0.000 
#    0.000    0.000    0.000    0.000    0.000    0.000 
#
# Total GULP energy -89623.299369 kJ/mol
# GULP energy per Si atom -5601.456211 kJ/mol
# Density = 2.534774 g / cm^3
# Si number density = 25.405567 Si / 1000 Ang^3
#
#
#
# Elastic Constant Matrix: (Units=GPa)
#
#
# Indices 1 2 3 4 5 6 
#
# 1 72.0659 26.5833 11.0497 -4.2130 -18.8546 5.1818
# 2 26.5833 159.9521 35.3118 -16.2758 -0.0701 -8.2625
# 3 11.0497 35.3118 125.4964 -1.6474 -4.0541 -12.1023
# 4 -4.2130 -16.2758 -1.6474 36.6885 -4.6735 10.4114
# 5 -18.8546 -0.0701 -4.0541 -4.6735 29.7662 -2.6023
# 6 5.1818 -8.2625 -12.1023 10.4114 -2.6023 37.9829
#
#
#
# Elastic Compliance Matrix: (Units=1/GPa)
#
#
# Indices 1 2 3 4 5 6 
#
# 1 0.018562 -0.002746 -0.000770 0.003381 0.011872 -0.003488
# 2 -0.002746 0.007391 -0.001794 0.002515 -0.001517 0.000617
# 3 -0.000770 -0.001794 0.008831 -0.001217 0.000775 0.002915
# 4 0.003381 0.002515 -0.001217 0.031951 0.006244 -0.008632
# 5 0.011872 -0.001517 0.000775 0.006244 0.042151 -0.000526
# 6 -0.003488 0.000617 0.002915 -0.008632 -0.000526 0.030197
#
#
# Mechanical properties :
#
#
# Convention : Reuss Voigt Hill
#
# Bulk Modulus (GPa) = 41.38489 55.93377 48.65933
# Shear Modulus (GPa) = 31.69405 39.85883 35.77644
#
# Velocity S-wave (km/s) = 3.53586 3.96523 3.75669
# Velocity P-wave (km/s) = 5.74411 6.55959 6.16535
#
# Compressibility (1/GPa) = 0.02416341
#
# Stress axis : x y z
#
# Youngs Moduli (GPa) = 53.87450 135.29101 113.23394
#
# Poissons Ratio (x) = 0.37148 0.08721
# Poissons Ratio (y) = 0.14793 0.20320
# Poissons Ratio (z) = 0.04150 0.24278
#
# Static dielectric constant tensor:
#      x y z
#    x 2.204520 -0.086700 0.049300 
#    y -0.086700 2.009030 -0.023670 
#    z 0.049300 -0.023670 1.914850 
# 
# From -- ./inp_files/495475.got.cif
#   From: 2010.05.17/outbox.cif.g08.bks.cpg/sg2_248_cif.got.tgz:495475.got - 2010.06.03 11:33:40.
