data_PCOD9085282
_publ_section_title
;
Structure prediction by ZEFSAII (Michael W. Deem and Ramdas Pophale) SiO2 
 PCOD9085282
Probable space group: P -1
;
_chemical_formula_sum "Si O2"
_cell_formula_units_Z 16
_cell_length_a 8.058020
_cell_length_b 11.975384
_cell_length_c 8.416594
_cell_angle_alpha 88.960399
_cell_angle_beta 74.977996
_cell_angle_gamma 54.066059
_cell_volume 625.758505
_symmetry_space_group_name_H-M "P -1"
_symmetry_group_IT_number 2
_symmetry_cell_setting 'triclinic'
loop_
_space_group_symop_operation_xyz
x,y,z
-x,-y,-z
loop_
_atom_site_type_symbol
_atom_site_label
_atom_site_fract_x
_atom_site_fract_y
_atom_site_fract_z
Si Si1 0.682144 0.046843 0.643338
Si Si2 0.036597 0.058617 0.729914
Si Si3 0.141484 0.247310 0.341384
Si Si4 0.293139 0.517811 0.793981
Si Si5 0.367794 0.309896 0.547437
Si Si6 0.303114 0.765094 0.801763
Si Si7 0.260733 0.401022 0.124318
Si Si8 0.189601 0.648545 0.319398
O O1 0.701157 0.919204 0.721173
O O2 0.847462 0.063550 0.689971
O O3 0.774028 0.992719 0.443520
O O4 0.456960 0.196328 0.669293
O O5 0.142314 0.932648 0.832270
O O6 0.927401 0.221545 0.778945
O O7 0.239179 0.286000 0.456266
O O8 0.156131 0.322238 0.184306
O O9 0.926918 0.286556 0.483232
O O10 0.253640 0.460669 0.647784
O O11 0.208695 0.677334 0.827721
O O12 0.555842 0.427740 0.734653
O O13 0.231956 0.466406 0.959595
O O14 0.566728 0.278379 0.395844
O O15 0.484179 0.707265 0.893980
O O16 0.171723 0.528844 0.266454
#
# Coordination Sequence:
#
# PCOD9085282 Si02
#       8
#     2   2   2   2   2   2   2   2
#     4   9  17  33  58  88 120 148 190 249 299 331
#     4   9  17  32  59  93 113 142 201 258 279 327
#     4  10  21  36  61  90 118 150 199 244 290 348
#     4  11  21  39  62  84 124 157 196 236 295 351
#     4  10  19  35  59  91 116 154 198 241 292 350
#     4   9  19  34  59  90 113 153 201 244 282 343
#     4  10  22  40  58  87 125 161 184 238 306 352
#     4  10  19  37  64  87 114 154 199 244 284 345
#
# _framework density 25.568973
#
# number of rings (size 3 to 8) (size 9 to 14) (size 15 to 20)
#    0.000    2.250    1.250    2.625    1.750    1.000 
#    2.250    3.750    2.750    0.000    0.000    0.000 
#    0.000    0.000    0.000    0.000    0.000    0.000 
#
# Total GULP energy -89550.963043 kJ/mol
# GULP energy per Si atom -5596.935190 kJ/mol
# Density = 2.551078 g / cm^3
# Si number density = 25.568973 Si / 1000 Ang^3
#
#
#
# Elastic Constant Matrix: (Units=GPa)
#
#
# Indices 1 2 3 4 5 6 
#
# 1 73.9971 16.5823 1.1428 -12.0169 -11.3975 15.0901
# 2 16.5823 191.4826 20.0831 -48.1996 -9.8365 8.4627
# 3 1.1428 20.0831 62.5985 -23.0881 -13.8869 6.7229
# 4 -12.0169 -48.1996 -23.0881 32.6913 3.6988 -2.8711
# 5 -11.3975 -9.8365 -13.8869 3.6988 22.9004 -10.4576
# 6 15.0901 8.4627 6.7229 -2.8711 -10.4576 37.0575
#
#
#
# Elastic Compliance Matrix: (Units=1/GPa)
#
#
# Indices 1 2 3 4 5 6 
#
# 1 0.017261 0.001318 0.005733 0.010922 0.008533 -0.005116
# 2 0.001318 0.008950 0.003950 0.015946 0.003878 -0.000967
# 3 0.005733 0.003950 0.027908 0.025621 0.016590 -0.001633
# 4 0.010922 0.015946 0.025621 0.074314 0.014500 -0.002888
# 5 0.008533 0.003878 0.016590 0.014500 0.062500 0.011391
# 6 -0.005116 -0.000967 -0.001633 -0.002888 0.011391 0.032576
#
#
# Mechanical properties :
#
#
# Convention : Reuss Voigt Hill
#
# Bulk Modulus (GPa) = 13.13712 44.85496 28.99604
# Shear Modulus (GPa) = 22.03787 37.88118 29.95952
#
# Velocity S-wave (km/s) = 2.93900 3.85324 3.42674
# Velocity P-wave (km/s) = 4.08240 6.11371 5.19824
#
# Compressibility (1/GPa) = 0.07612016
#
# Stress axis : x y z
#
# Youngs Moduli (GPa) = 57.93244 111.73425 35.83185
#
# Poissons Ratio (x) = -0.14721 -0.20542
# Poissons Ratio (y) = -0.07633 -0.14154
# Poissons Ratio (z) = -0.33212 -0.44136
#
# Static dielectric constant tensor:
#      x y z
#    x 2.063720 -0.063680 -0.010730 
#    y -0.063680 2.053700 -0.063830 
#    z -0.010730 -0.063830 2.005200 
# 
# From -- ./inp_files/178929.got.cif
#   From: 2010.05.17/outbox.cif.g08.bks.cpg/sg2_90_cif.got.tgz:178929.got - 2010.06.03 11:33:40.
