data_PCOD9085017
_publ_section_title
;
Structure prediction by ZEFSAII (Michael W. Deem and Ramdas Pophale) SiO2 
 PCOD9085017
Probable space group: P -1
;
_chemical_formula_sum "Si O2"
_cell_formula_units_Z 14
_cell_length_a 11.272716
_cell_length_b 12.878421
_cell_length_c 11.190912
_cell_angle_alpha 137.516601
_cell_angle_beta 99.930953
_cell_angle_gamma 48.745713
_cell_volume 648.457264
_symmetry_space_group_name_H-M "P -1"
_symmetry_group_IT_number 2
_symmetry_cell_setting 'triclinic'
loop_
_space_group_symop_operation_xyz
x,y,z
-x,-y,-z
loop_
_atom_site_type_symbol
_atom_site_label
_atom_site_fract_x
_atom_site_fract_y
_atom_site_fract_z
Si Si1 0.912196 0.913458 0.931044
Si Si2 0.453416 0.604415 0.216180
Si Si3 0.448760 0.324538 0.146818
Si Si4 0.122282 0.746315 0.050447
Si Si5 0.756900 0.897102 0.458430
Si Si6 0.053209 0.728051 0.546959
Si Si7 0.664698 0.702643 0.129206
O O1 0.005084 0.735660 0.681203
O O2 0.976141 0.807967 0.986824
O O3 0.676208 0.119977 0.052455
O O4 0.000000 0.000000 0.000000
O O5 0.406490 0.514305 0.217138
O O6 0.278468 0.905457 0.445408
O O7 0.500000 0.500000 0.000000
O O8 0.668725 0.455798 0.159583
O O9 0.289011 0.486668 0.361583
O O10 0.393447 0.245912 0.976324
O O11 0.186534 0.585122 0.041817
O O12 0.039107 0.005663 0.270976
O O13 0.761422 0.757570 0.245440
O O14 0.940977 0.728660 0.437013
O O15 0.551296 0.092931 0.667341
#
# Coordination Sequence:
#
# PCOD9085017 Si02
#       7
#     2   2   2   2   2   2   2
#     4  10  20  38  57  81 119 149 183 237 275 335
#     4  11  16  35  59  84 114 144 184 236 281 331
#     4  12  21  35  62  86 115 145 191 231 285 333
#     4  10  19  36  58  82 116 146 189 233 278 330
#     4  10  19  35  58  84 117 144 191 230 282 334
#     4  11  21  35  60  85 114 151 186 230 286 330
#     4  10  20  36  61  85 109 153 189 232 281 336
#
# _framework density 21.589703
#
# number of rings (size 3 to 8) (size 9 to 14) (size 15 to 20)
#    0.000    1.429    8.571    0.000    0.000    5.143 
#    0.000    0.714    0.000    0.857    0.000    0.000 
#    0.000    0.000    0.000    0.000    0.000    0.000 
#
# Total GULP energy -78057.169869 kJ/mol
# GULP energy per Si atom -5575.512133 kJ/mol
# Density = 2.154056 g / cm^3
# Si number density = 21.589703 Si / 1000 Ang^3
#
#
#
# Elastic Constant Matrix: (Units=GPa)
#
#
# Indices 1 2 3 4 5 6 
#
# 1 41.1364 32.1308 28.0686 -5.3230 -6.3459 -28.5750
# 2 32.1308 124.7610 21.8816 -4.6373 -8.6958 -44.7503
# 3 28.0686 21.8816 52.6335 7.1098 -18.9284 -20.5586
# 4 -5.3230 -4.6373 7.1098 -2.3876 -11.3007 9.7319
# 5 -6.3459 -8.6958 -18.9284 -11.3007 36.1832 1.2183
# 6 -28.5750 -44.7503 -20.5586 9.7319 1.2183 27.8706
#
#
#
# Elastic Compliance Matrix: (Units=1/GPa)
#
#
# Indices 1 2 3 4 5 6 
#
# 1 0.114519 0.020795 -0.018700 0.038462 0.023186 0.122567
# 2 0.020795 0.020883 -0.000179 0.025511 0.015019 0.045155
# 3 -0.018700 -0.000179 0.031519 0.021711 0.020104 -0.004669
# 4 0.038462 0.025511 0.021711 -0.049719 0.004882 0.113558
# 5 0.023186 0.015019 0.020104 0.004882 0.045367 0.059029
# 6 0.122567 0.045155 -0.004669 0.113558 0.059029 0.188371
#
#
# Mechanical properties :
#
#
# Convention : Reuss Voigt Hill
#
# Bulk Modulus (GPa) = 5.85632 42.52144 24.18888
# Shear Modulus (GPa) = 12.37547 21.42990 16.90268
#
# Velocity S-wave (km/s) = 2.39678 3.15397 2.80108
# Velocity P-wave (km/s) = 3.22147 5.74468 4.65721
#
# Compressibility (1/GPa) = 0.17075558
#
# Stress axis : x y z
#
# Youngs Moduli (GPa) = 8.73214 47.88651 31.72659
#
# Poissons Ratio (x) = -0.99582 0.59328
# Poissons Ratio (y) = -0.18159 0.00567
# Poissons Ratio (z) = 0.16329 0.00856
#
# Static dielectric constant tensor:
#      x y z
#    x 1.862470 -0.031530 0.025480 
#    y -0.031530 1.840940 -0.009070 
#    z 0.025480 -0.009070 1.813920 
# 
# From -- ./inp_files/220765.got.cif
#   From: 2010.05.17/outbox.cif.g08.bks.cpg/sg2_111_cif.got.tgz:220765.got - 2010.06.03 11:33:40.
