data_PCOD9085187
_publ_section_title
;
Structure prediction by ZEFSAII (Michael W. Deem and Ramdas Pophale) SiO2 
 PCOD9085187
Probable space group: P -1
;
_chemical_formula_sum "Si O2"
_cell_formula_units_Z 16
_cell_length_a 19.864139
_cell_length_b 5.102722
_cell_length_c 8.644186
_cell_angle_alpha 95.581133
_cell_angle_beta 68.174295
_cell_angle_gamma 66.472089
_cell_volume 714.019386
_symmetry_space_group_name_H-M "P -1"
_symmetry_group_IT_number 2
_symmetry_cell_setting 'triclinic'
loop_
_space_group_symop_operation_xyz
x,y,z
-x,-y,-z
loop_
_atom_site_type_symbol
_atom_site_label
_atom_site_fract_x
_atom_site_fract_y
_atom_site_fract_z
Si Si1 0.913889 0.051000 0.639897
Si Si2 0.585791 0.956087 0.857824
Si Si3 0.090790 0.909193 0.978299
Si Si4 0.533876 0.772062 0.597128
Si Si5 0.334855 0.665030 0.101477
Si Si6 0.808639 0.754144 0.109646
Si Si7 0.629689 0.242581 0.261194
Si Si8 0.823718 0.711650 0.721945
O O1 0.845845 0.371876 0.647964
O O2 0.895839 0.778252 0.603474
O O3 0.912870 0.067520 0.829496
O O4 0.000000 0.000000 0.500000
O O5 0.580824 0.878717 0.680424
O O6 0.653580 0.648966 0.862849
O O7 0.596759 0.247509 0.888873
O O8 0.500000 0.000000 0.000000
O O9 0.152943 0.567734 0.866379
O O10 0.133889 0.097415 0.887684
O O11 0.000000 0.000000 0.000000
O O12 0.594470 0.459432 0.449690
O O13 0.449848 0.783592 0.732991
O O14 0.500000 0.000000 0.500000
O O15 0.255481 0.974507 0.233804
O O16 0.341729 0.640010 0.907243
O O17 0.711300 0.951576 0.227980
O O18 0.818821 0.716494 0.913063
#
# Coordination Sequence:
#
# PCOD9085187 Si02
#       8
#     2   2   2   2   2   2   2   2
#     4  10  19  35  59  85 114 150 189 232 290 355
#     4  12  24  40  62  90 120 158 203 251 305 352
#     4  10  20  37  59  87 115 148 192 241 290 353
#     4  11  25  40  62  87 126 164 209 249 305 362
#     4  11  23  41  65  89 119 158 208 254 299 350
#     4   9  20  36  61  85 113 153 200 238 288 354
#     4  10  23  40  63  89 118 165 208 254 299 360
#     4   9  19  36  58  86 113 150 195 238 285 352
#
# _framework density 22.408353999999999
#
# number of rings (size 3 to 8) (size 9 to 14) (size 15 to 20)
#    0.000    1.750    1.250    2.625    5.250    2.000 
#    0.000    3.750    0.000    0.000    0.000    0.000 
#    0.000    0.000    0.000    0.000    0.000    0.000 
#
# Total GULP energy -89317.778046 kJ/mol
# GULP energy per Si atom -5582.361128 kJ/mol
# Density = 2.235735 g / cm^3
# Si number density = 22.408354 Si / 1000 Ang^3
#
#
#
# Elastic Constant Matrix: (Units=GPa)
#
#
# Indices 1 2 3 4 5 6 
#
# 1 44.4414 -7.8070 7.9694 14.7794 2.8496 -0.0683
# 2 -7.8070 75.0845 3.5393 14.2154 6.6925 -2.4810
# 3 7.9694 3.5393 39.0752 6.9831 -11.6914 -3.1502
# 4 14.7794 14.2154 6.9831 26.9675 -6.2216 -3.9567
# 5 2.8496 6.6925 -11.6914 -6.2216 26.3524 5.7979
# 6 -0.0683 -2.4810 -3.1502 -3.9567 5.7979 41.4360
#
#
#
# Elastic Compliance Matrix: (Units=1/GPa)
#
#
# Indices 1 2 3 4 5 6 
#
# 1 0.036001 0.010761 -0.008503 -0.027093 -0.016754 -0.000186
# 2 0.010761 0.019088 -0.004399 -0.017528 -0.012293 0.000873
# 3 -0.008503 -0.004399 0.032357 0.002524 0.016977 0.000048
# 4 -0.027093 -0.017528 0.002524 0.066291 0.023687 0.002113
# 5 -0.016754 -0.012293 0.016977 0.023687 0.057151 -0.005208
# 6 -0.000186 0.000873 0.000048 0.002113 -0.005208 0.025120
#
#
# Mechanical properties :
#
#
# Convention : Reuss Voigt Hill
#
# Bulk Modulus (GPa) = 12.02466 18.44493 15.23480
# Shear Modulus (GPa) = 18.65607 29.27780 23.96693
#
# Velocity S-wave (km/s) = 2.88852 3.61855 3.27395
# Velocity P-wave (km/s) = 4.06233 5.07028 4.59403
#
# Compressibility (1/GPa) = 0.08316241
#
# Stress axis : x y z
#
# Youngs Moduli (GPa) = 27.77739 52.39017 30.90543
#
# Poissons Ratio (x) = -0.56375 0.26279
# Poissons Ratio (y) = -0.29890 0.13595
# Poissons Ratio (z) = 0.23619 0.23045
#
# Static dielectric constant tensor:
#      x y z
#    x 1.915570 -0.034450 -0.050960 
#    y -0.034450 1.861110 0.040460 
#    z -0.050960 0.040460 1.853230 
# 
# From -- ./inp_files/55523.got.cif
#   From: 2010.05.17/outbox.cif.g08.bks.cpg/sg2_28_cif.got.tgz:55523.got - 2010.06.03 11:33:40.
