data_PCOD9085194
_publ_section_title
;
Structure prediction by ZEFSAII (Michael W. Deem and Ramdas Pophale) SiO2 
 PCOD9085194
Probable space group: P -1
;
_chemical_formula_sum "Si O2"
_cell_formula_units_Z 14
_cell_length_a 5.104670
_cell_length_b 5.272640
_cell_length_c 23.416432
_cell_angle_alpha 57.500959
_cell_angle_beta 100.026222
_cell_angle_gamma 93.672718
_cell_volume 523.109811
_symmetry_space_group_name_H-M "P -1"
_symmetry_group_IT_number 2
_symmetry_cell_setting 'triclinic'
loop_
_space_group_symop_operation_xyz
x,y,z
-x,-y,-z
loop_
_atom_site_type_symbol
_atom_site_label
_atom_site_fract_x
_atom_site_fract_y
_atom_site_fract_z
Si Si1 0.269820 0.160906 0.509478
Si Si2 0.420823 0.774012 0.072372
Si Si3 0.589323 0.434964 0.213690
Si Si4 0.139021 0.242972 0.077155
Si Si5 0.201999 0.698250 0.641220
Si Si6 0.070076 0.115251 0.221290
Si Si7 0.677284 0.426502 0.628114
O O1 0.273068 0.506439 0.446033
O O2 0.500000 0.000000 0.500000
O O3 0.288271 0.039260 0.589847
O O4 0.000000 0.000000 0.500000
O O5 0.624057 0.713395 0.139270
O O6 0.384311 0.448239 0.082145
O O7 0.181594 0.956571 0.072731
O O8 0.500000 0.000000 0.000000
O O9 0.694704 0.447710 0.279198
O O10 0.275431 0.381092 0.209118
O O11 0.772668 0.168567 0.226087
O O12 0.054337 0.119722 0.151211
O O13 0.000000 0.500000 0.000000
O O14 0.375597 0.508607 0.624249
O O15 0.885910 0.669099 0.631589
O O16 0.211345 0.860256 0.297741
#
# Coordination Sequence:
#
# PCOD9085194 Si02
#       7
#     2   2   2   2   2   2   2
#     4   8  16  30  52  82 114 152 208 264 321 382
#     4  11  24  43  68 100 135 175 220 272 328 391
#     4  11  24  41  60  91 128 167 213 269 326 388
#     4  11  24  43  68 100 135 175 220 272 328 391
#     4  10  19  35  59  85 116 162 213 268 324 388
#     4  11  24  41  60  91 128 167 213 269 326 388
#     4  10  19  35  59  85 116 162 213 268 324 388
#
# _framework density 26.763021999999999
#
# number of rings (size 3 to 8) (size 9 to 14) (size 15 to 20)
#    0.000    1.714    0.000    4.286    0.000    5.714 
#    0.000    1.429    0.000    0.000    0.000    0.000 
#    0.000    0.000    0.000    0.000    0.000    0.000 
#
# Total GULP energy -78074.772630 kJ/mol
# GULP energy per Si atom -5576.769474 kJ/mol
# Density = 2.670211 g / cm^3
# Si number density = 26.763022 Si / 1000 Ang^3
#
#
#
# Elastic Constant Matrix: (Units=GPa)
#
#
# Indices 1 2 3 4 5 6 
#
# 1 94.6381 17.8848 10.5352 -5.0592 4.1270 -0.4809
# 2 17.8848 53.8638 22.3256 -5.9798 -5.4364 -2.6442
# 3 10.5352 22.3256 233.7386 -21.8849 2.1446 -12.5114
# 4 -5.0592 -5.9798 -21.8849 41.8559 4.6652 2.9139
# 5 4.1270 -5.4364 2.1446 4.6652 47.9203 -2.8782
# 6 -0.4809 -2.6442 -12.5114 2.9139 -2.8782 33.1051
#
#
#
# Elastic Compliance Matrix: (Units=1/GPa)
#
#
# Indices 1 2 3 4 5 6 
#
# 1 0.011415 -0.003828 -0.000062 0.000998 -0.001535 -0.000385
# 2 -0.003828 0.021004 -0.001680 0.001278 0.002730 0.001112
# 3 -0.000062 -0.001680 0.004726 0.002184 -0.000524 0.001413
# 4 0.000998 0.001278 0.002184 0.025739 -0.002638 -0.001553
# 5 -0.001535 0.002730 -0.000524 -0.002638 0.021717 0.002118
# 6 -0.000385 0.001112 0.001413 -0.001553 0.002118 0.031145
#
#
# Mechanical properties :
#
#
# Convention : Reuss Voigt Hill
#
# Bulk Modulus (GPa) = 38.44980 53.74798 46.09889
# Shear Modulus (GPa) = 36.88551 46.67592 41.78072
#
# Velocity S-wave (km/s) = 3.71648 4.18071 3.95541
# Velocity P-wave (km/s) = 5.72837 6.59022 6.17435
#
# Compressibility (1/GPa) = 0.02600794
#
# Stress axis : x y z
#
# Youngs Moduli (GPa) = 87.60288 47.60902 211.57550
#
# Poissons Ratio (x) = 0.18222 0.01311
# Poissons Ratio (y) = 0.33530 0.35535
# Poissons Ratio (z) = 0.00543 0.07996
#
# Static dielectric constant tensor:
#      x y z
#    x 2.103380 0.026240 0.026300 
#    y 0.026240 2.229240 0.003740 
#    z 0.026300 0.003740 2.272270 
# 
# From -- ./inp_files/7881.got.cif
#   From: 2010.05.17/outbox.cif.g08.bks.cpg/sg2_4_cif.got.tgz:7881.got - 2010.06.03 11:33:40.
