data_PCOD9085711
_publ_section_title
;
Structure prediction by ZEFSAII (Michael W. Deem and Ramdas Pophale) SiO2 
 PCOD9085711
Probable space group: P -1
;
_chemical_formula_sum "Si O2"
_cell_formula_units_Z 15
_cell_length_a 9.487900
_cell_length_b 9.310907
_cell_length_c 18.967806
_cell_angle_alpha 121.145431
_cell_angle_beta 152.608235
_cell_angle_gamma 50.610481
_cell_volume 590.742684
_symmetry_space_group_name_H-M "P -1"
_symmetry_group_IT_number 2
_symmetry_cell_setting 'triclinic'
loop_
_space_group_symop_operation_xyz
x,y,z
-x,-y,-z
loop_
_atom_site_type_symbol
_atom_site_label
_atom_site_fract_x
_atom_site_fract_y
_atom_site_fract_z
Si Si1 0.654771 0.687518 0.906402
Si Si2 0.615315 0.881540 0.805492
Si Si3 0.827907 0.369206 0.213950
Si Si4 0.314211 0.120638 0.607909
Si Si5 0.150446 0.818223 0.214139
Si Si6 0.326266 0.753012 0.026779
Si Si7 0.210566 0.484589 0.517247
Si Si8 0.500000 0.000000 0.500000
O O1 0.495835 0.781809 0.785624
O O2 0.416482 0.632237 0.833429
O O3 0.000000 0.500000 0.000000
O O4 0.792939 0.822423 0.039633
O O5 0.011692 0.752576 0.931014
O O6 0.414333 0.945995 0.659496
O O7 0.608351 0.071055 0.881587
O O8 0.175668 0.968965 0.315890
O O9 0.163695 0.348472 0.401854
O O10 0.663967 0.566848 0.149604
O O11 0.989584 0.300792 0.539972
O O12 0.308848 0.068028 0.510820
O O13 0.636578 0.175250 0.759696
O O14 0.807874 0.236488 0.110002
O O15 0.000000 0.500000 0.500000
O O16 0.602256 0.378880 0.686969
#
# Coordination Sequence:
#
# PCOD9085711 Si02
#       8
#     2   2   2   2   2   2   2   1
#     4  12  23  40  63 100 132 167 202 280 338 371
#     4  11  21  37  66  92 131 165 220 266 319 376
#     4  11  23  40  63  98 131 159 219 264 330 376
#     4   9  18  36  58  94 115 167 218 258 298 384
#     4   9  20  36  63  91 122 166 216 251 315 383
#     4  10  22  38  63  92 124 174 212 266 304 402
#     4  10  19  35  62  91 120 167 217 253 300 397
#     4   8  20  34  58  96 120 166 222 252 304 394
#
# _framework density 25.391764999999999
#
# number of rings (size 3 to 8) (size 9 to 14) (size 15 to 20)
#    0.800    1.067    2.667    3.200    1.867    0.533 
#    0.000    0.000    0.000   17.600    0.000    0.000 
#    0.000    0.000    0.000    0.000    0.000    0.000 
#
# Total GULP energy -83679.067900 kJ/mol
# GULP energy per Si atom -5578.604527 kJ/mol
# Density = 2.533397 g / cm^3
# Si number density = 25.391765 Si / 1000 Ang^3
#
#
#
# Elastic Constant Matrix: (Units=GPa)
#
#
# Indices 1 2 3 4 5 6 
#
# 1 90.1777 23.6321 27.0678 -0.2891 -34.0137 6.0468
# 2 23.6321 49.6149 5.5286 1.4227 -13.0077 1.5085
# 3 27.0678 5.5286 107.7307 11.0145 -33.3797 8.2607
# 4 -0.2891 1.4227 11.0145 46.4747 -2.2677 -14.4583
# 5 -34.0137 -13.0077 -33.3797 -2.2677 45.9208 -2.1656
# 6 6.0468 1.5085 8.2607 -14.4583 -2.1656 36.6173
#
#
#
# Elastic Compliance Matrix: (Units=1/GPa)
#
#
# Indices 1 2 3 4 5 6 
#
# 1 0.016632 -0.005097 -0.000623 0.000408 0.010367 -0.001622
# 2 -0.005097 0.023479 0.001424 -0.001106 0.003825 -0.000657
# 3 -0.000623 0.001424 0.012804 -0.003842 0.008879 -0.003836
# 4 0.000408 -0.001106 -0.003842 0.025832 -0.001010 0.010985
# 5 0.010367 0.003825 0.008879 -0.001010 0.036844 -0.002092
# 6 -0.001622 -0.000657 -0.003836 0.010985 -0.002092 0.032684
#
#
# Mechanical properties :
#
#
# Convention : Reuss Voigt Hill
#
# Bulk Modulus (GPa) = 22.56123 39.99780 31.27951
# Shear Modulus (GPa) = 29.13074 38.55553 33.84314
#
# Velocity S-wave (km/s) = 3.39078 3.90093 3.65477
# Velocity P-wave (km/s) = 4.92285 6.00634 5.49138
#
# Compressibility (1/GPa) = 0.04432383
#
# Stress axis : x y z
#
# Youngs Moduli (GPa) = 60.12466 42.59148 78.10232
#
# Poissons Ratio (x) = 0.21710 0.04863
# Poissons Ratio (y) = 0.30647 -0.11125
# Poissons Ratio (z) = 0.03744 -0.06067
#
# Static dielectric constant tensor:
#      x y z
#    x 1.907470 -0.223020 0.115090 
#    y -0.223020 1.286150 0.569030 
#    z 0.115090 0.569030 1.725670 
# 
# From -- ./inp_files/353262.got.cif
#   From: 2010.05.17/outbox.cif.g08.bks.cpg/sg2_177_cif.got.tgz:353262.got - 2010.06.03 11:33:40.
