data_PCOD9085127
_publ_section_title
;
Structure prediction by ZEFSAII (Michael W. Deem and Ramdas Pophale) SiO2 
 PCOD9085127
Probable space group: P -1
;
_chemical_formula_sum "Si O2"
_cell_formula_units_Z 14
_cell_length_a 8.247939
_cell_length_b 20.367394
_cell_length_c 11.860671
_cell_angle_alpha 148.152581
_cell_angle_beta 54.445652
_cell_angle_gamma 144.802048
_cell_volume 562.879988
_symmetry_space_group_name_H-M "P -1"
_symmetry_group_IT_number 2
_symmetry_cell_setting 'triclinic'
loop_
_space_group_symop_operation_xyz
x,y,z
-x,-y,-z
loop_
_atom_site_type_symbol
_atom_site_label
_atom_site_fract_x
_atom_site_fract_y
_atom_site_fract_z
Si Si1 0.091582 0.421323 0.417414
Si Si2 0.200981 0.356689 0.052836
Si Si3 0.494683 0.145149 0.697894
Si Si4 0.486255 0.257444 0.106576
Si Si5 0.836729 0.952460 0.661772
Si Si6 0.659437 0.390625 0.803048
Si Si7 0.182583 0.947924 0.947411
O O1 0.265604 0.428686 0.259285
O O2 0.277124 0.548354 0.636963
O O3 0.000000 0.500000 0.500000
O O4 0.822651 0.200600 0.239114
O O5 0.118422 0.428120 0.103925
O O6 0.495087 0.420342 0.985755
O O7 0.931356 0.131373 0.837711
O O8 0.707423 0.299908 0.737729
O O9 0.500000 0.000000 0.500000
O O10 0.564356 0.252942 0.942031
O O11 0.146877 0.019169 0.626925
O O12 0.168049 0.183886 0.129261
O O13 0.400737 0.093760 0.973397
O O14 0.582289 0.771160 0.426378
O O15 0.749559 0.933969 0.799520
#
# Coordination Sequence:
#
# PCOD9085127 Si02
#       7
#     2   2   2   2   2   2   2
#     4  11  23  36  56  85 112 141 180 229 277 320
#     4   9  19  34  55  81 104 135 187 223 257 315
#     4  10  21  34  53  82 112 141 173 217 275 326
#     4  10  21  39  58  78 111 148 182 222 269 325
#     4   9  18  36  59  79 102 139 184 224 262 313
#     4  10  19  35  59  78 103 144 183 222 261 313
#     4   9  20  38  60  82 105 144 188 224 268 320
#
# _framework density 24.872087000000001
#
# number of rings (size 3 to 8) (size 9 to 14) (size 15 to 20)
#    0.000    2.286    0.000    3.857    0.000    5.143 
#    0.000    4.286    0.000   15.429    0.000    0.000 
#    0.000    0.000    0.000    0.000    0.000    0.000 
#
# Total GULP energy -78389.975711 kJ/mol
# GULP energy per Si atom -5599.283979 kJ/mol
# Density = 2.481548 g / cm^3
# Si number density = 24.872087 Si / 1000 Ang^3
#
#
#
# Elastic Constant Matrix: (Units=GPa)
#
#
# Indices 1 2 3 4 5 6 
#
# 1 88.1141 33.3572 37.2863 9.3496 -25.7856 -16.1421
# 2 33.3572 76.8102 24.2972 0.8399 -5.4489 -32.2797
# 3 37.2863 24.2972 132.4144 -10.7103 -2.5436 -4.1525
# 4 9.3496 0.8399 -10.7103 30.5813 -15.3245 -9.2046
# 5 -25.7856 -5.4489 -2.5436 -15.3245 38.4688 9.2937
# 6 -16.1421 -32.2797 -4.1525 -9.2046 9.2937 44.9115
#
#
#
# Elastic Compliance Matrix: (Units=1/GPa)
#
#
# Indices 1 2 3 4 5 6 
#
# 1 0.018699 -0.006419 -0.004051 -0.001782 0.010859 -0.000880
# 2 -0.006419 0.022360 -0.001598 0.003595 -0.003449 0.015067
# 3 -0.004051 -0.001598 0.009275 0.004020 -0.000530 -0.000813
# 4 -0.001782 0.003595 0.004020 0.044776 0.015411 0.008303
# 5 0.010859 -0.003449 -0.000530 0.015411 0.039783 -0.003699
# 6 -0.000880 0.015067 -0.000813 0.008303 -0.003699 0.035171
#
#
# Mechanical properties :
#
#
# Convention : Reuss Voigt Hill
#
# Bulk Modulus (GPa) = 38.17045 54.13557 46.15301
# Shear Modulus (GPa) = 24.63860 36.28552 30.46206
#
# Velocity S-wave (km/s) = 3.15081 3.82368 3.50344
# Velocity P-wave (km/s) = 5.34947 6.42704 5.91286
#
# Compressibility (1/GPa) = 0.02619828
#
# Stress axis : x y z
#
# Youngs Moduli (GPa) = 53.47926 44.72191 107.81160
#
# Poissons Ratio (x) = 0.28708 0.43671
# Poissons Ratio (y) = 0.34329 0.17233
# Poissons Ratio (z) = 0.21663 0.07148
#
# Static dielectric constant tensor:
#      x y z
#    x 2.028640 -0.002300 -0.030960 
#    y -0.002300 2.004310 0.002440 
#    z -0.030960 0.002440 1.931130 
# 
# From -- ./inp_files/405692.got.cif
#   From: 2010.05.17/outbox.cif.g08.bks.cpg/sg2_203_cif.got.tgz:405692.got - 2010.06.03 11:33:40.
