data_PCOD9085048
_publ_section_title
;
Structure prediction by ZEFSAII (Michael W. Deem and Ramdas Pophale) SiO2 
 PCOD9085048
Probable space group: P -1
;
_chemical_formula_sum "Si O2"
_cell_formula_units_Z 16
_cell_length_a 5.259586
_cell_length_b 21.001466
_cell_length_c 18.980822
_cell_angle_alpha 28.729857
_cell_angle_beta 54.876052
_cell_angle_gamma 62.229492
_cell_volume 820.305863
_symmetry_space_group_name_H-M "P -1"
_symmetry_group_IT_number 2
_symmetry_cell_setting 'triclinic'
loop_
_space_group_symop_operation_xyz
x,y,z
-x,-y,-z
loop_
_atom_site_type_symbol
_atom_site_label
_atom_site_fract_x
_atom_site_fract_y
_atom_site_fract_z
Si Si1 0.834858 0.693627 0.625034
Si Si2 0.093141 0.158902 0.023790
Si Si3 0.739528 0.908992 0.087358
Si Si4 0.185499 0.280286 0.100480
Si Si5 0.432429 0.013237 0.300411
Si Si6 0.154299 0.764664 0.654038
Si Si7 0.900404 0.394439 0.901968
Si Si8 0.333069 0.893349 0.288511
O O1 0.463363 0.686509 0.681461
O O2 0.954613 0.551216 0.729516
O O3 0.938404 0.733871 0.649543
O O4 0.007037 0.805284 0.437911
O O5 0.768628 0.093753 0.172059
O O6 0.315027 0.047528 0.119613
O O7 0.106531 0.162465 0.933116
O O8 0.125221 0.306375 0.906760
O O9 0.539602 0.830889 0.256797
O O10 0.500000 0.000000 0.000000
O O11 0.000000 0.000000 0.000000
O O12 0.206408 0.130159 0.213170
O O13 0.038408 0.266806 0.214231
O O14 0.539134 0.349774 0.983095
O O15 0.977282 0.358530 0.005113
O O16 0.299588 0.919233 0.475834
O O17 0.462167 0.913225 0.327305
#
# Coordination Sequence:
#
# PCOD9085048 Si02
#       8
#     2   2   2   2   2   2   2   2
#     4  11  24  39  58  83 117 155 190 232 286 340
#     4  10  19  37  58  85 115 147 187 232 283 336
#     4  10  20  32  59  90 113 140 185 234 277 332
#     4  11  23  38  59  83 114 151 196 241 283 333
#     4  10  19  35  58  86 116 144 190 235 297 326
#     4  11  23  38  59  83 114 151 196 241 283 333
#     4  11  24  39  58  83 117 155 190 232 286 340
#     4  10  19  37  58  85 115 147 187 232 283 336
#
# _framework density 19.504918
#
# number of rings (size 3 to 8) (size 9 to 14) (size 15 to 20)
#    0.000    1.500    3.750    1.875    0.000    3.000 
#    0.000    4.375    0.000    0.000    0.000    8.750 
#    0.000    0.000    0.000    0.000    0.000    0.000 
#
# Total GULP energy -89158.611843 kJ/mol
# GULP energy per Si atom -5572.413240 kJ/mol
# Density = 1.946052 g / cm^3
# Si number density = 19.504918 Si / 1000 Ang^3
#
#
#
# Elastic Constant Matrix: (Units=GPa)
#
#
# Indices 1 2 3 4 5 6 
#
# 1 68.1039 3.6361 6.2710 4.4354 7.7561 1.8725
# 2 3.6361 67.4871 43.7151 7.5782 3.6147 5.1755
# 3 6.2710 43.7151 46.1399 2.1875 9.7393 3.0113
# 4 4.4354 7.5782 2.1875 34.1371 -4.3161 11.7189
# 5 7.7561 3.6147 9.7393 -4.3161 20.6178 -0.3661
# 6 1.8725 5.1755 3.0113 11.7189 -0.3661 22.8389
#
#
#
# Elastic Compliance Matrix: (Units=1/GPa)
#
#
# Indices 1 2 3 4 5 6 
#
# 1 0.015637 0.000702 -0.001408 -0.002895 -0.005944 0.000135
# 2 0.000702 0.041962 -0.041881 -0.004842 0.011124 -0.001382
# 3 -0.001408 -0.041881 0.066313 0.002626 -0.022918 -0.000852
# 4 -0.002895 -0.004842 0.002626 0.037922 0.008311 -0.018337
# 5 -0.005944 0.011124 -0.022918 0.008311 0.061313 -0.002293
# 6 0.000135 -0.001382 -0.000852 -0.018337 -0.002293 0.053571
#
#
# Mechanical properties :
#
#
# Convention : Reuss Voigt Hill
#
# Bulk Modulus (GPa) = 25.81264 32.10838 28.96051
# Shear Modulus (GPa) = 13.34031 24.05932 18.69981
#
# Velocity S-wave (km/s) = 2.61807 3.51593 3.09968
# Velocity P-wave (km/s) = 4.73305 5.74280 5.26220
#
# Compressibility (1/GPa) = 0.03874071
#
# Stress axis : x y z
#
# Youngs Moduli (GPa) = 63.94927 23.83097 15.07999
#
# Poissons Ratio (x) = -0.01674 0.02123
# Poissons Ratio (y) = -0.04492 0.63156
# Poissons Ratio (z) = 0.09001 0.99806
#
# Static dielectric constant tensor:
#      x y z
#    x 1.719630 -0.006090 0.012160 
#    y -0.006090 1.750830 0.010900 
#    z 0.012160 0.010900 1.707880 
# 
# From -- ./inp_files/45772.got.cif
#   From: 2010.05.17/outbox.cif.g08.bks.cpg/sg2_23_cif.got.tgz:45772.got - 2010.06.03 11:33:40.
