data_PCOD9085405
_publ_section_title
;
Structure prediction by ZEFSAII (Michael W. Deem and Ramdas Pophale) SiO2 
 PCOD9085405
Probable space group: P -1
;
_chemical_formula_sum "Si O2"
_cell_formula_units_Z 12
_cell_length_a 9.420282
_cell_length_b 13.393468
_cell_length_c 7.475381
_cell_angle_alpha 69.111125
_cell_angle_beta 100.985025
_cell_angle_gamma 138.521045
_cell_volume 579.158388
_symmetry_space_group_name_H-M "P -1"
_symmetry_group_IT_number 2
_symmetry_cell_setting 'triclinic'
loop_
_space_group_symop_operation_xyz
x,y,z
-x,-y,-z
loop_
_atom_site_type_symbol
_atom_site_label
_atom_site_fract_x
_atom_site_fract_y
_atom_site_fract_z
Si Si1 0.324553 0.182974 0.678013
Si Si2 0.898150 0.011884 0.803860
Si Si3 0.262416 0.920573 0.995337
Si Si4 0.485842 0.329177 0.252190
Si Si5 0.914348 0.571364 0.963671
Si Si6 0.593849 0.495793 0.705551
O O1 0.479297 0.277055 0.484220
O O2 0.445818 0.308557 0.790559
O O3 0.274239 0.033339 0.804054
O O4 0.098624 0.123966 0.641036
O O5 0.703729 0.839385 0.782716
O O6 0.816488 0.076981 0.831829
O O7 0.000000 0.000000 0.000000
O O8 0.091018 0.743595 0.988543
O O9 0.500000 0.000000 0.000000
O O10 0.433833 0.425388 0.208778
O O11 0.708137 0.446637 0.124629
O O12 0.829725 0.578971 0.753253
O O13 0.000000 0.500000 0.000000
O O14 0.500000 0.500000 0.500000
#
# Coordination Sequence:
#
# PCOD9085405 Si02
#       6
#     2   2   2   2   2   2
#     4  10  21  39  61  92 123 159 207 261 309 365
#     4  10  19  35  60  88 118 157 202 251 301 361
#     4  11  23  42  63  88 124 168 210 257 314 377
#     4  11  22  39  63  93 126 163 208 260 312 372
#     4  12  24  42  65  93 126 168 211 259 317 378
#     4  10  21  39  64  94 125 161 208 258 306 367
#
# _framework density 20.719719999999999
#
# number of rings (size 3 to 8) (size 9 to 14) (size 15 to 20)
#    0.000    1.333    0.000    8.000    0.000    1.333 
#    0.000   14.167    0.000    0.000    0.000    0.000 
#    0.000    0.000    0.000    0.000    0.000    0.000 
#
# Total GULP energy -66920.232289 kJ/mol
# GULP energy per Si atom -5576.686024 kJ/mol
# Density = 2.067256 g / cm^3
# Si number density = 20.719720 Si / 1000 Ang^3
#
#
#
# Elastic Constant Matrix: (Units=GPa)
#
#
# Indices 1 2 3 4 5 6 
#
# 1 164.1581 74.9694 25.8661 5.8326 9.9751 -5.8381
# 2 74.9694 229.5398 12.0929 2.8227 2.9106 -11.7066
# 3 25.8661 12.0929 65.6619 -5.2806 4.9938 0.1110
# 4 5.8326 2.8227 -5.2806 23.3181 5.1868 -1.0500
# 5 9.9751 2.9106 4.9938 5.1868 16.5935 -5.2702
# 6 -5.8381 -11.7066 0.1110 -1.0500 -5.2702 44.8566
#
#
#
# Elastic Compliance Matrix: (Units=1/GPa)
#
#
# Indices 1 2 3 4 5 6 
#
# 1 0.007808 -0.002358 -0.002538 -0.001570 -0.003021 0.000015
# 2 -0.002358 0.005182 -0.000121 -0.000232 0.000985 0.001156
# 3 -0.002538 -0.000121 0.017151 0.005762 -0.005715 -0.000941
# 4 -0.001570 -0.000232 0.005762 0.048152 -0.016134 -0.001048
# 5 -0.003021 0.000985 -0.005715 -0.016134 0.071168 0.007862
# 6 0.000015 0.001156 -0.000941 -0.001048 0.007862 0.023499
#
#
# Mechanical properties :
#
#
# Convention : Reuss Voigt Hill
#
# Bulk Modulus (GPa) = 49.73269 76.13520 62.93395
# Shear Modulus (GPa) = 26.35765 40.04906 33.20336
#
# Velocity S-wave (km/s) = 3.57053 4.40124 4.00747
# Velocity P-wave (km/s) = 6.40725 7.91536 7.20090
#
# Compressibility (1/GPa) = 0.02010750
#
# Stress axis : x y z
#
# Youngs Moduli (GPa) = 128.06579 192.95897 58.30459
#
# Poissons Ratio (x) = 0.45503 0.14799
# Poissons Ratio (y) = 0.30200 0.00705
# Poissons Ratio (z) = 0.32506 0.02334
#
# Static dielectric constant tensor:
#      x y z
#    x 1.746210 0.009450 -0.020480 
#    y 0.009450 1.738390 -0.008040 
#    z -0.020480 -0.008040 1.869980 
# 
# From -- ./inp_files/160172.got.cif
#   From: 2010.05.17/outbox.cif.g08.bks.cpg/sg2_81_cif.got.tgz:160172.got - 2010.06.03 11:33:40.
