data_PCOD9085961
_publ_section_title
;
Structure prediction by ZEFSAII (Michael W. Deem and Ramdas Pophale) SiO2 
 PCOD9085961
Probable space group: P -1
;
_chemical_formula_sum "Si O2"
_cell_formula_units_Z 14
_cell_length_a 11.302334
_cell_length_b 9.527692
_cell_length_c 9.905058
_cell_angle_alpha 94.410909
_cell_angle_beta 106.254495
_cell_angle_gamma 142.200354
_cell_volume 541.115680
_symmetry_space_group_name_H-M "P -1"
_symmetry_group_IT_number 2
_symmetry_cell_setting 'triclinic'
loop_
_space_group_symop_operation_xyz
x,y,z
-x,-y,-z
loop_
_atom_site_type_symbol
_atom_site_label
_atom_site_fract_x
_atom_site_fract_y
_atom_site_fract_z
Si Si1 0.732810 0.464549 0.381885
Si Si2 0.808009 0.193769 0.561773
Si Si3 0.966905 0.856970 0.281614
Si Si4 0.888116 0.318225 0.117454
Si Si5 0.684033 0.572120 0.622044
Si Si6 0.114196 0.266441 0.046797
Si Si7 0.510752 0.985454 0.201624
O O1 0.791193 0.664479 0.335444
O O2 0.682386 0.435667 0.518424
O O3 0.541336 0.185186 0.229297
O O4 0.968935 0.607028 0.450865
O O5 0.902145 0.390846 0.722490
O O6 0.594765 0.022256 0.381631
O O7 0.820753 0.048078 0.617518
O O8 0.847059 0.682194 0.095444
O O9 0.070188 0.110365 0.308693
O O10 0.747839 0.279115 0.960340
O O11 0.695896 0.107734 0.159678
O O12 0.967203 0.248477 0.069447
O O13 0.500000 0.500000 0.500000
O O14 0.662841 0.525555 0.769746
O O15 0.000000 0.000000 0.000000
#
# Coordination Sequence:
#
# PCOD9085961 Si02
#       7
#     2   2   2   2   2   2   2
#     4   9  19  37  64  85 123 155 208 246 304 358
#     4   9  19  38  61  87 123 161 199 248 310 354
#     4   9  22  39  58  88 124 159 198 251 312 356
#     4  10  20  36  61  91 119 161 207 238 307 363
#     4  11  22  39  64  87 114 167 208 247 307 367
#     4  10  22  40  59  81 126 160 196 253 309 352
#     4  10  19  35  65  94 117 163 204 250 294 379
#
# _framework density 25.872468999999999
#
# number of rings (size 3 to 8) (size 9 to 14) (size 15 to 20)
#    0.857    1.429    0.000    3.857    4.000    0.571 
#    2.571    1.429    0.000    0.000    0.000    0.000 
#    0.000    0.000    0.000    0.000    0.000    0.000 
#
# Total GULP energy -78163.547784 kJ/mol
# GULP energy per Si atom -5583.110556 kJ/mol
# Density = 2.581358 g / cm^3
# Si number density = 25.872469 Si / 1000 Ang^3
#
#
#
# Elastic Constant Matrix: (Units=GPa)
#
#
# Indices 1 2 3 4 5 6 
#
# 1 83.7184 11.8778 40.2853 8.9470 -13.9192 0.0727
# 2 11.8778 68.2265 16.9302 5.9400 -2.7815 -7.5770
# 3 40.2853 16.9302 212.6892 -13.0944 6.0408 21.6728
# 4 8.9470 5.9400 -13.0944 33.4954 0.0485 -0.8400
# 5 -13.9192 -2.7815 6.0408 0.0485 53.8005 1.7868
# 6 0.0727 -7.5770 21.6728 -0.8400 1.7868 25.3196
#
#
#
# Elastic Compliance Matrix: (Units=1/GPa)
#
#
# Indices 1 2 3 4 5 6 
#
# 1 0.014947 -0.000904 -0.003410 -0.005118 0.004137 0.002144
# 2 -0.000904 0.016341 -0.002007 -0.003280 0.000625 0.006458
# 3 -0.003410 -0.002007 0.006365 0.003612 -0.001511 -0.005813
# 4 -0.005118 -0.003280 0.003612 0.033147 -0.001835 -0.002829
# 5 0.004137 0.000625 -0.001511 -0.001835 0.019861 0.000006
# 6 0.002144 0.006458 -0.005813 -0.002829 0.000006 0.046303
#
#
# Mechanical properties :
#
#
# Convention : Reuss Voigt Hill
#
# Bulk Modulus (GPa) = 39.98357 55.86897 47.92627
# Shear Modulus (GPa) = 31.65718 42.22581 36.94150
#
# Velocity S-wave (km/s) = 3.50177 4.04428 3.78276
# Velocity P-wave (km/s) = 5.64248 6.59159 6.13542
#
# Compressibility (1/GPa) = 0.02501027
#
# Stress axis : x y z
#
# Youngs Moduli (GPa) = 66.90402 61.19674 157.11018
#
# Poissons Ratio (x) = 0.05530 0.53577
# Poissons Ratio (y) = 0.06046 0.31537
# Poissons Ratio (z) = 0.22815 0.12284
#
# Static dielectric constant tensor:
#      x y z
#    x 2.016690 -0.042160 0.027890 
#    y -0.042160 2.098980 -0.005840 
#    z 0.027890 -0.005840 2.084120 
# 
# From -- ./inp_files/259069.got.cif
#   From: 2010.05.17/outbox.cif.g08.bks.cpg/sg2_130_cif.got.tgz:259069.got - 2010.06.03 11:33:40.
