data_PCOD9085704
_publ_section_title
;
Structure prediction by ZEFSAII (Michael W. Deem and Ramdas Pophale) SiO2 
 PCOD9085704
Probable space group: P -1
;
_chemical_formula_sum "Si O2"
_cell_formula_units_Z 16
_cell_length_a 9.183458
_cell_length_b 11.754647
_cell_length_c 8.838513
_cell_angle_alpha 101.501180
_cell_angle_beta 78.761017
_cell_angle_gamma 126.551031
_cell_volume 747.542897
_symmetry_space_group_name_H-M "P -1"
_symmetry_group_IT_number 2
_symmetry_cell_setting 'triclinic'
loop_
_space_group_symop_operation_xyz
x,y,z
-x,-y,-z
loop_
_atom_site_type_symbol
_atom_site_label
_atom_site_fract_x
_atom_site_fract_y
_atom_site_fract_z
Si Si1 0.384176 0.213246 0.106383
Si Si2 0.823546 0.057324 0.731218
Si Si3 0.605013 0.685250 0.372936
Si Si4 0.916675 0.216877 0.206617
Si Si5 0.853244 0.813813 0.099332
Si Si6 0.268472 0.374910 0.367281
Si Si7 0.334848 0.015060 0.569411
Si Si8 0.335738 0.829235 0.002107
O O1 0.362031 0.328955 0.214737
O O2 0.571266 0.252034 0.009116
O O3 0.332029 0.101045 0.220945
O O4 0.237284 0.135528 0.981531
O O5 0.006213 0.085785 0.771931
O O6 0.808538 0.059382 0.557899
O O7 0.785317 0.165975 0.841867
O O8 0.692865 0.683617 0.195499
O O9 0.403715 0.544276 0.399377
O O10 0.724270 0.689893 0.490834
O O11 0.602161 0.823209 0.399305
O O12 0.782971 0.239477 0.144364
O O13 0.070901 0.319172 0.325858
O O14 0.773201 0.069813 0.281987
O O15 0.032212 0.211134 0.046790
O O16 0.500000 0.000000 0.500000
O O17 0.500000 0.000000 0.000000
#
# Coordination Sequence:
#
# PCOD9085704 Si02
#       8
#     2   2   2   2   2   2   2   2
#     4  10  19  35  62  90 124 165 206 256 319 373
#     4  10  20  35  56  92 129 158 207 259 315 370
#     4  11  25  41  66  91 133 168 217 257 321 376
#     4  10  23  40  66  96 130 163 217 260 319 378
#     4  10  23  36  64  95 126 162 210 272 313 371
#     4  10  23  45  64  94 125 175 212 263 312 381
#     4  12  25  39  65  99 129 168 210 265 324 377
#     4   9  19  35  58  93 126 164 196 263 312 378
#
# _framework density 21.403454
#
# number of rings (size 3 to 8) (size 9 to 14) (size 15 to 20)
#    0.000    1.750    1.250    2.625   10.500    3.000 
#    0.000    0.625    2.750    2.250    0.000    0.000 
#    0.000    0.000    0.000    0.000    0.000    0.000 
#
# Total GULP energy -89203.894573 kJ/mol
# GULP energy per Si atom -5575.243411 kJ/mol
# Density = 2.135474 g / cm^3
# Si number density = 21.403454 Si / 1000 Ang^3
#
#
#
# Elastic Constant Matrix: (Units=GPa)
#
#
# Indices 1 2 3 4 5 6 
#
# 1 112.4094 8.9432 12.3261 3.9375 10.2510 5.8269
# 2 8.9432 46.2942 1.4661 -6.9625 -6.3209 8.4220
# 3 12.3261 1.4661 76.5457 -13.5525 4.0481 0.0204
# 4 3.9375 -6.9625 -13.5525 21.5899 9.4545 1.1942
# 5 10.2510 -6.3209 4.0481 9.4545 27.5146 5.6245
# 6 5.8269 8.4220 0.0204 1.1942 5.6245 18.3035
#
#
#
# Elastic Compliance Matrix: (Units=1/GPa)
#
#
# Indices 1 2 3 4 5 6 
#
# 1 0.009675 -0.002389 -0.001769 -0.002322 -0.002904 -0.000935
# 2 -0.002389 0.026707 0.000734 0.007053 0.007410 -0.014266
# 3 -0.001769 0.000734 0.016036 0.013349 -0.006384 0.001299
# 4 -0.002322 0.007053 0.013349 0.067295 -0.022610 0.000036
# 5 -0.002904 0.007410 -0.006384 -0.022610 0.051262 -0.016755
# 6 -0.000935 -0.014266 0.001299 0.000036 -0.016755 0.066641
#
#
# Mechanical properties :
#
#
# Convention : Reuss Voigt Hill
#
# Bulk Modulus (GPa) = 21.94470 31.19111 26.56790
# Shear Modulus (GPa) = 19.25639 27.64919 23.45279
#
# Velocity S-wave (km/s) = 3.00273 3.59807 3.31380
# Velocity P-wave (km/s) = 4.72197 5.64501 5.20399
#
# Compressibility (1/GPa) = 0.04556910
#
# Stress axis : x y z
#
# Youngs Moduli (GPa) = 103.36203 37.44322 62.36064
#
# Poissons Ratio (x) = 0.08944 0.11035
# Poissons Ratio (y) = 0.24689 -0.04576
# Poissons Ratio (z) = 0.18290 -0.02748
#
# Static dielectric constant tensor:
#      x y z
#    x 1.836060 0.009550 -0.024680 
#    y 0.009550 1.797070 0.010810 
#    z -0.024680 0.010810 1.825790 
# 
# From -- ./inp_files/180210.got.cif
#   From: 2010.05.17/outbox.cif.g08.bks.cpg/sg2_91_cif.got.tgz:180210.got - 2010.06.03 11:33:40.
