data_PCOD9085874
_publ_section_title
;
Structure prediction by ZEFSAII (Michael W. Deem and Ramdas Pophale) SiO2 
 PCOD9085874
Probable space group: P -1
;
_chemical_formula_sum "Si O2"
_cell_formula_units_Z 16
_cell_length_a 9.179526
_cell_length_b 15.210885
_cell_length_c 11.795373
_cell_angle_alpha 127.023826
_cell_angle_beta 123.507447
_cell_angle_gamma 32.838495
_cell_volume 708.987334
_symmetry_space_group_name_H-M "P -1"
_symmetry_group_IT_number 2
_symmetry_cell_setting 'triclinic'
loop_
_space_group_symop_operation_xyz
x,y,z
-x,-y,-z
loop_
_atom_site_type_symbol
_atom_site_label
_atom_site_fract_x
_atom_site_fract_y
_atom_site_fract_z
Si Si1 0.132942 0.173023 0.200950
Si Si2 0.644973 0.284849 0.983875
Si Si3 0.824165 0.481096 0.438332
Si Si4 0.672480 0.782084 0.144083
Si Si5 0.658352 0.347321 0.795262
Si Si6 0.454772 0.675704 0.649191
Si Si7 0.660538 0.808327 0.905792
Si Si8 0.143557 0.676015 0.358623
O O1 0.139686 0.257883 0.164249
O O2 0.017385 0.284738 0.349950
O O3 0.434812 0.986626 0.201066
O O4 0.923596 0.176657 0.084479
O O5 0.480505 0.256726 0.924227
O O6 0.727664 0.246295 0.857524
O O7 0.445959 0.483427 0.076664
O O8 0.592186 0.585096 0.325325
O O9 0.681687 0.559009 0.557611
O O10 0.000000 0.500000 0.500000
O O11 0.895700 0.711041 0.275986
O O12 0.784804 0.722015 0.015962
O O13 0.877885 0.253841 0.718055
O O14 0.466457 0.796909 0.786313
O O15 0.196568 0.741846 0.529956
O O16 0.582418 0.531081 0.684419
O O17 0.500000 0.000000 0.000000
#
# Coordination Sequence:
#
# PCOD9085874 Si02
#       8
#     2   2   2   2   2   2   2   2
#     4  10  21  39  59  89 122 158 201 244 304 362
#     4  10  20  35  59  88 124 154 198 257 300 354
#     4  10  19  35  64  84 114 155 201 245 292 352
#     4  11  23  37  61  91 123 162 201 243 305 362
#     4   9  20  35  57  90 116 154 204 252 299 348
#     4  10  21  39  65  90 122 157 204 252 303 351
#     4  10  21  38  63  91 121 158 196 244 306 364
#     4  10  22  39  60  92 122 160 203 252 299 360
#
# _framework density 22.567399000000002
#
# number of rings (size 3 to 8) (size 9 to 14) (size 15 to 20)
#    0.000    2.000    1.250    1.875    1.750    4.000 
#    0.000    3.125    5.500    0.000    0.000    0.000 
#    0.000    0.000    0.000    0.000    0.000    0.000 
#
# Total GULP energy -89335.972336 kJ/mol
# GULP energy per Si atom -5583.498271 kJ/mol
# Density = 2.251603 g / cm^3
# Si number density = 22.567399 Si / 1000 Ang^3
#
#
#
# Elastic Constant Matrix: (Units=GPa)
#
#
# Indices 1 2 3 4 5 6 
#
# 1 83.5837 4.9322 46.7143 -13.9106 17.9335 8.1239
# 2 4.9322 30.3991 29.6823 -11.2270 4.5165 -1.0256
# 3 46.7143 29.6823 133.5746 -8.9446 29.3826 8.7045
# 4 -13.9106 -11.2270 -8.9446 22.7485 -6.7564 1.5768
# 5 17.9335 4.5165 29.3826 -6.7564 51.3260 -1.7609
# 6 8.1239 -1.0256 8.7045 1.5768 -1.7609 27.8911
#
#
#
# Elastic Compliance Matrix: (Units=1/GPa)
#
#
# Indices 1 2 3 4 5 6 
#
# 1 0.017956 0.008237 -0.006686 0.012165 -0.001695 -0.003635
# 2 0.008237 0.055388 -0.014456 0.027760 0.004276 0.002850
# 3 -0.006686 -0.014456 0.013935 -0.007151 -0.005409 -0.002870
# 4 0.012165 0.027760 -0.007151 0.064236 0.005734 -0.003560
# 5 -0.001695 0.004276 -0.005409 0.005734 0.023671 0.003509
# 6 -0.003635 0.002850 -0.002870 -0.003560 0.003509 0.038336
#
#
# Mechanical properties :
#
#
# Convention : Reuss Voigt Hill
#
# Bulk Modulus (GPa) = 16.26841 45.57947 30.92394
# Shear Modulus (GPa) = 19.24395 31.47501 25.35948
#
# Velocity S-wave (km/s) = 2.92333 3.73864 3.35583
# Velocity P-wave (km/s) = 4.31496 6.23518 5.36173
#
# Compressibility (1/GPa) = 0.06146881
#
# Stress axis : x y z
#
# Youngs Moduli (GPa) = 55.69124 18.05455 71.76192
#
# Poissons Ratio (x) = -0.14871 0.47978
# Poissons Ratio (y) = -0.45870 1.03738
# Poissons Ratio (z) = 0.37233 0.26099
#
# Static dielectric constant tensor:
#      x y z
#    x 1.936950 0.051890 -0.054560 
#    y 0.051890 1.910560 -0.029350 
#    z -0.054560 -0.029350 1.874610 
# 
# From -- ./inp_files/399665.got.cif
#   From: 2010.05.17/outbox.cif.g08.bks.cpg/sg2_200_cif.got.tgz:399665.got - 2010.06.03 11:33:40.
