data_PCOD9085205
_publ_section_title
;
Structure prediction by ZEFSAII (Michael W. Deem and Ramdas Pophale) SiO2 
 PCOD9085205
Probable space group: P -1
;
_chemical_formula_sum "Si O2"
_cell_formula_units_Z 16
_cell_length_a 13.471996
_cell_length_b 9.142435
_cell_length_c 10.862581
_cell_angle_alpha 119.561941
_cell_angle_beta 148.303509
_cell_angle_gamma 62.950744
_cell_volume 609.660414
_symmetry_space_group_name_H-M "P -1"
_symmetry_group_IT_number 2
_symmetry_cell_setting 'triclinic'
loop_
_space_group_symop_operation_xyz
x,y,z
-x,-y,-z
loop_
_atom_site_type_symbol
_atom_site_label
_atom_site_fract_x
_atom_site_fract_y
_atom_site_fract_z
Si Si1 0.936314 0.052100 0.317555
Si Si2 0.964260 0.278599 0.836716
Si Si3 0.611590 0.638400 0.745441
Si Si4 0.572047 0.848422 0.419440
Si Si5 0.500458 0.991043 0.844462
Si Si6 0.921366 0.603682 0.766748
Si Si7 0.586717 0.502607 0.922343
Si Si8 0.181893 0.571454 0.634394
O O1 0.931377 0.251785 0.382364
O O2 0.051161 0.913032 0.297291
O O3 0.000000 0.000000 0.500000
O O4 0.718223 0.019223 0.058684
O O5 0.879961 0.426526 0.718942
O O6 0.191400 0.311068 0.083830
O O7 0.919822 0.320940 0.949205
O O8 0.500000 0.500000 0.500000
O O9 0.471552 0.803402 0.689137
O O10 0.661551 0.580661 0.911612
O O11 0.757415 0.752786 0.636234
O O12 0.432893 0.696326 0.201783
O O13 0.500000 0.000000 0.500000
O O14 0.602440 0.896017 0.326638
O O15 0.500000 0.000000 0.000000
O O16 0.947758 0.540559 0.629921
O O17 0.376292 0.590292 0.767360
O O18 0.719520 0.522947 0.186117
#
# Coordination Sequence:
#
# PCOD9085205 Si02
#       8
#     2   2   2   2   2   2   2   2
#     4  11  20  38  61  88 125 160 204 245 313 368
#     4  10  22  39  58  93 120 161 204 256 304 373
#     4  11  22  39  60  87 124 160 200 254 312 362
#     4  11  21  39  66  89 120 167 209 252 310 376
#     4  11  24  39  62  96 127 155 211 268 307 360
#     4  10  21  37  60  86 121 157 205 247 307 369
#     4  10  21  35  62  87 117 155 208 248 299 367
#     4  10  19  35  59  86 111 156 198 248 292 359
#
# _framework density 26.244118
#
# number of rings (size 3 to 8) (size 9 to 14) (size 15 to 20)
#    0.000    1.500    2.500    4.500    3.500    0.000 
#    0.000    1.875    0.000    1.500    0.000    0.000 
#    0.000    0.000    0.000    0.000    0.000    0.000 
#
# Total GULP energy -89409.436370 kJ/mol
# GULP energy per Si atom -5588.089773 kJ/mol
# Density = 2.618439 g / cm^3
# Si number density = 26.244118 Si / 1000 Ang^3
#
#
#
# Elastic Constant Matrix: (Units=GPa)
#
#
# Indices 1 2 3 4 5 6 
#
# 1 88.4350 43.3804 26.7749 -7.6189 -3.1433 -8.7564
# 2 43.3804 190.1901 57.6367 -0.5331 -27.5238 -35.5602
# 3 26.7749 57.6367 139.8424 -26.5158 -43.5233 -3.1023
# 4 -7.6189 -0.5331 -26.5158 60.3196 1.4145 -16.9349
# 5 -3.1433 -27.5238 -43.5233 1.4145 49.0404 -3.9317
# 6 -8.7564 -35.5602 -3.1023 -16.9349 -3.9317 47.8921
#
#
#
# Elastic Compliance Matrix: (Units=1/GPa)
#
#
# Indices 1 2 3 4 5 6 
#
# 1 0.013270 -0.002687 -0.001996 0.000956 -0.002421 0.000441
# 2 -0.002687 0.007879 -0.001409 0.000653 0.003444 0.005781
# 3 -0.001996 -0.001409 0.012337 0.005532 0.010045 0.002169
# 4 0.000956 0.000653 0.005532 0.021561 0.005444 0.009089
# 5 -0.002421 0.003444 0.010045 0.005444 0.031510 0.007277
# 6 0.000441 0.005781 0.002169 0.009089 0.007277 0.029206
#
#
# Mechanical properties :
#
#
# Convention : Reuss Voigt Hill
#
# Bulk Modulus (GPa) = 46.94280 74.89461 60.91870
# Shear Modulus (GPa) = 37.02411 50.82877 43.92644
#
# Velocity S-wave (km/s) = 3.76008 4.40565 4.09560
# Velocity P-wave (km/s) = 6.06438 7.38101 6.75485
#
# Compressibility (1/GPa) = 0.02130252
#
# Stress axis : x y z
#
# Youngs Moduli (GPa) = 75.35750 126.92002 81.05711
#
# Poissons Ratio (x) = 0.34106 0.16177
# Poissons Ratio (y) = 0.20250 0.11419
# Poissons Ratio (z) = 0.15039 0.17880
#
# Static dielectric constant tensor:
#      x y z
#    x 2.147280 -0.126860 0.079030 
#    y -0.126860 1.984530 0.114660 
#    z 0.079030 0.114660 1.982350 
# 
# From -- ./inp_files/399465.got.cif
#   From: 2010.05.17/outbox.cif.g08.bks.cpg/sg2_200_cif.got.tgz:399465.got - 2010.06.03 11:33:40.
