data_PCOD9085267
_publ_section_title
;
Structure prediction by ZEFSAII (Michael W. Deem and Ramdas Pophale) SiO2 
 PCOD9085267
Probable space group: P -1
;
_chemical_formula_sum "Si O2"
_cell_formula_units_Z 12
_cell_length_a 13.229399
_cell_length_b 11.940408
_cell_length_c 13.850629
_cell_angle_alpha 140.484785
_cell_angle_beta 158.775103
_cell_angle_gamma 38.834364
_cell_volume 486.691064
_symmetry_space_group_name_H-M "P -1"
_symmetry_group_IT_number 2
_symmetry_cell_setting 'triclinic'
loop_
_space_group_symop_operation_xyz
x,y,z
-x,-y,-z
loop_
_atom_site_type_symbol
_atom_site_label
_atom_site_fract_x
_atom_site_fract_y
_atom_site_fract_z
Si Si1 0.089748 0.380948 0.905404
Si Si2 0.183666 0.285410 0.227043
Si Si3 0.668746 0.830284 0.269300
Si Si4 0.007251 0.570406 0.663381
Si Si5 0.951966 0.090423 0.174489
Si Si6 0.396220 0.823631 0.657618
O O1 0.069211 0.542844 0.919789
O O2 0.837482 0.284113 0.600281
O O3 0.376907 0.230129 0.089446
O O4 0.000000 0.500000 0.000000
O O5 0.432066 0.245724 0.338317
O O6 0.252580 0.347003 0.437020
O O7 0.059130 0.107965 0.001864
O O8 0.811280 0.617490 0.253980
O O9 0.766858 0.899967 0.506733
O O10 0.746668 0.964259 0.349256
O O11 0.327542 0.857396 0.970579
O O12 0.117649 0.750862 0.862020
O O13 0.000000 0.500000 0.500000
#
# Coordination Sequence:
#
# PCOD9085267 Si02
#       6
#     2   2   2   2   2   2
#     4  10  19  35  59  90 117 147 193 247 290 341
#     4  10  20  37  63  91 117 156 199 242 293 350
#     4  10  20  39  61  85 120 159 192 241 298 346
#     4  10  22  41  60  88 123 158 196 244 295 350
#     4  10  21  39  60  86 116 157 202 243 287 346
#     4  10  20  37  60  88 117 151 194 243 290 347
#
# _framework density 24.656299000000001
#
# number of rings (size 3 to 8) (size 9 to 14) (size 15 to 20)
#    0.000    2.000    0.000    6.000    0.000    1.333 
#    0.000   49.167    0.000    0.000    0.000    4.667 
#    0.000    0.000    0.000    0.000    0.000    0.000 
#
# Total GULP energy -66872.483667 kJ/mol
# GULP energy per Si atom -5572.706972 kJ/mol
# Density = 2.460018 g / cm^3
# Si number density = 24.656299 Si / 1000 Ang^3
#
#
#
# Elastic Constant Matrix: (Units=GPa)
#
#
# Indices 1 2 3 4 5 6 
#
# 1 4650.0540-3060.5017 -397.9401-2818.2996 398.4952 6632.4925
# 2 -3060.5017 2347.8869 320.6300 1954.2085 -293.7555-4491.6865
# 3 -397.9401 320.6300 114.2189 264.7594 -37.2984 -616.8558
# 4 -2818.2996 1954.2085 264.7594 1789.5936 -255.5751-4136.0089
# 5 398.4952 -293.7555 -37.2984 -255.5751 62.4370 633.4725
# 6 6632.4925-4491.6865 -616.8558-4136.0089 633.4725 9754.1054
#
#
#
# Elastic Compliance Matrix: (Units=1/GPa)
#
#
# Indices 1 2 3 4 5 6 
#
# 1 0.015673 0.004218 -0.007151 -0.015089 0.034299 -0.017793
# 2 0.004218 0.006989 -0.004594 -0.014614 0.016599 -0.007215
# 3 -0.007151 -0.004594 0.017854 0.010973 -0.020302 0.009848
# 4 -0.015089 -0.014614 0.010973 0.069518 -0.068224 0.038133
# 5 0.034299 0.016599 -0.020302 -0.068224 0.144876 -0.055301
# 6 -0.017793 -0.007215 0.009848 0.038133 -0.055301 0.029262
#
#
# Mechanical properties :
#
#
# Convention : Reuss Voigt Hill
#
# Bulk Modulus (GPa) = 39.27280 92.94848 66.11064
# Shear Modulus (GPa) = 16.24889 3004.55864 1510.40376
#
# Velocity S-wave (km/s) = 2.56991 34.94599 24.77727
# Velocity P-wave (km/s) = 4.97681 40.81759 29.07614
#
# Compressibility (1/GPa) = 0.02546292
#
# Stress axis : x y z
#
# Youngs Moduli (GPa) = 63.80576 143.07564 56.00905
#
# Poissons Ratio (x) = -0.60349 0.40052
# Poissons Ratio (y) = -0.26913 0.25728
# Poissons Ratio (z) = 0.45627 0.65723
#
# Static dielectric constant tensor:
#      x y z
#    x 2.050130 -0.001700 -0.045050 
#    y -0.001700 1.981880 -0.012370 
#    z -0.045050 -0.012370 1.926440 
# 
# From -- ./inp_files/228329.got.cif
#   From: 2010.05.17/outbox.cif.g08.bks.cpg/sg2_115_cif.got.tgz:228329.got - 2010.06.03 11:33:40.
