data_PCOD9085498
_publ_section_title
;
Structure prediction by ZEFSAII (Michael W. Deem and Ramdas Pophale) SiO2 
 PCOD9085498
Probable space group: P -1
;
_chemical_formula_sum "Si O2"
_cell_formula_units_Z 16
_cell_length_a 9.110280
_cell_length_b 7.934915
_cell_length_c 12.592103
_cell_angle_alpha 115.802012
_cell_angle_beta 96.431025
_cell_angle_gamma 78.444608
_cell_volume 802.594743
_symmetry_space_group_name_H-M "P -1"
_symmetry_group_IT_number 2
_symmetry_cell_setting 'triclinic'
loop_
_space_group_symop_operation_xyz
x,y,z
-x,-y,-z
loop_
_atom_site_type_symbol
_atom_site_label
_atom_site_fract_x
_atom_site_fract_y
_atom_site_fract_z
Si Si1 0.075425 0.660488 0.611602
Si Si2 0.669532 0.505132 0.548060
Si Si3 0.272817 0.475729 0.762081
Si Si4 0.648644 0.958060 0.427510
Si Si5 0.484068 0.001791 0.219523
Si Si6 0.359173 0.391983 0.968325
Si Si7 0.221915 0.087182 0.366530
Si Si8 0.403942 0.395303 0.205434
O O1 0.780846 0.342874 0.452299
O O2 0.950566 0.847207 0.660686
O O3 0.000000 0.500000 0.500000
O O4 0.141907 0.592283 0.712855
O O5 0.500000 0.500000 0.500000
O O6 0.711784 0.711194 0.576353
O O7 0.678437 0.488778 0.671089
O O8 0.303762 0.262241 0.660761
O O9 0.247427 0.467734 0.884349
O O10 0.431028 0.549378 0.779179
O O11 0.768513 0.994584 0.535667
O O12 0.500000 0.000000 0.500000
O O13 0.594991 0.048799 0.335010
O O14 0.335296 0.960495 0.259468
O O15 0.432945 0.178356 0.187834
O O16 0.571175 0.824813 0.113945
O O17 0.500000 0.500000 0.000000
O O18 0.314490 0.414823 0.093508
#
# Coordination Sequence:
#
# PCOD9085498 Si02
#       8
#     2   2   2   2   2   2   2   2
#     4  10  17  28  49  76 106 131 169 204 247 313
#     4  10  16  26  46  76 102 128 160 208 250 291
#     4  10  17  30  49  75  97 131 170 207 250 295
#     4   9  15  27  44  72  97 127 166 204 241 296
#     4   9  18  29  50  75 100 129 166 216 249 295
#     4   9  19  32  51  76  97 130 171 215 245 295
#     4   9  17  28  46  75 102 134 166 199 257 301
#     4  10  18  30  48  76 104 126 167 210 260 286
#
# _framework density 19.935343
#
# number of rings (size 3 to 8) (size 9 to 14) (size 15 to 20)
#    0.000    2.500    3.750    0.375    0.000    0.000 
#    0.000    0.000    0.000   10.500    0.000    0.000 
#    0.000    0.000    0.000    0.000    0.000    0.000 
#
# Total GULP energy -89108.537859 kJ/mol
# GULP energy per Si atom -5569.283616 kJ/mol
# Density = 1.988997 g / cm^3
# Si number density = 19.935343 Si / 1000 Ang^3
#
#
#
# Elastic Constant Matrix: (Units=GPa)
#
#
# Indices 1 2 3 4 5 6 
#
# 1 59.1913 11.1869 25.0504 -6.3055 0.6329 -21.2713
# 2 11.1869 40.8239 35.0797 -20.9222 2.9109 -11.8926
# 3 25.0504 35.0797 151.9575 -48.6602 -5.4898 -11.7161
# 4 -6.3055 -20.9222 -48.6602 38.4452 -1.8014 8.7812
# 5 0.6329 2.9109 -5.4898 -1.8014 20.2529 -5.8561
# 6 -21.2713 -11.8926 -11.7161 8.7812 -5.8561 30.3867
#
#
#
# Elastic Compliance Matrix: (Units=1/GPa)
#
#
# Indices 1 2 3 4 5 6 
#
# 1 0.024425 -0.001250 -0.004143 -0.005716 0.002757 0.017194
# 2 -0.001250 0.037415 -0.003510 0.013779 -0.002781 0.007897
# 3 -0.004143 -0.003510 0.012554 0.014115 0.004529 -0.002640
# 4 -0.005716 0.013779 0.014115 0.052345 0.004535 -0.007419
# 5 0.002757 -0.002781 0.004529 0.004535 0.054740 0.011826
# 6 0.017194 0.007897 -0.002640 -0.007419 0.011826 0.051441
#
#
# Mechanical properties :
#
#
# Convention : Reuss Voigt Hill
#
# Bulk Modulus (GPa) = 17.67200 43.84522 30.75861
# Shear Modulus (GPa) = 18.54667 29.86067 24.20367
#
# Velocity S-wave (km/s) = 3.05346 3.87444 3.48819
# Velocity P-wave (km/s) = 4.61686 6.48510 5.62903
#
# Compressibility (1/GPa) = 0.05658669
#
# Stress axis : x y z
#
# Youngs Moduli (GPa) = 40.94240 26.72707 79.65411
#
# Poissons Ratio (x) = 0.03342 0.33001
# Poissons Ratio (y) = 0.05119 0.27962
# Poissons Ratio (z) = 0.16963 0.09382
#
# Static dielectric constant tensor:
#      x y z
#    x 1.787110 0.031630 0.031000 
#    y 0.031630 1.799420 -0.010960 
#    z 0.031000 -0.010960 1.776850 
# 
# From -- ./inp_files/413247.got.cif
#   From: 2010.05.17/outbox.cif.g08.bks.cpg/sg2_207_cif.got.tgz:413247.got - 2010.06.03 11:33:40.
