data_PCOD9085831
_publ_section_title
;
Structure prediction by ZEFSAII (Michael W. Deem and Ramdas Pophale) SiO2 
 PCOD9085831
Probable space group: P -1
;
_chemical_formula_sum "Si O2"
_cell_formula_units_Z 16
_cell_length_a 17.347418
_cell_length_b 11.856417
_cell_length_c 9.320865
_cell_angle_alpha 115.324390
_cell_angle_beta 26.470790
_cell_angle_gamma 125.814843
_cell_volume 668.021738
_symmetry_space_group_name_H-M "P -1"
_symmetry_group_IT_number 2
_symmetry_cell_setting 'triclinic'
loop_
_space_group_symop_operation_xyz
x,y,z
-x,-y,-z
loop_
_atom_site_type_symbol
_atom_site_label
_atom_site_fract_x
_atom_site_fract_y
_atom_site_fract_z
Si Si1 0.683320 0.730292 0.128378
Si Si2 0.767771 0.676078 0.520544
Si Si3 0.898515 0.373082 0.416988
Si Si4 0.282837 0.184203 0.580600
Si Si5 0.730654 0.073603 0.694264
Si Si6 0.302525 0.540769 0.963374
Si Si7 0.587768 0.340503 0.704491
Si Si8 0.963115 0.131861 0.602535
O O1 0.769540 0.835195 0.176411
O O2 0.518752 0.738343 0.308799
O O3 0.615212 0.569317 0.210449
O O4 0.863875 0.766971 0.741375
O O5 0.788123 0.726589 0.350795
O O6 0.686986 0.509467 0.593175
O O7 0.978908 0.773587 0.300393
O O8 0.593155 0.700167 0.900257
O O9 0.849936 0.230320 0.508790
O O10 0.811409 0.457087 0.701273
O O11 0.764088 0.323932 0.471752
O O12 0.136514 0.479656 0.081718
O O13 0.215731 0.038692 0.528254
O O14 0.522244 0.295433 0.254108
O O15 0.765842 0.082205 0.811502
O O16 0.500000 0.000000 0.000000
O O17 0.000000 0.000000 0.500000
#
# Coordination Sequence:
#
# PCOD9085831 Si02
#       8
#     2   2   2   2   2   2   2   2
#     4  11  24  40  67  92 131 164 217 265 317 375
#     4  10  19  35  63  93 120 155 219 267 303 357
#     4  11  22  38  64  93 130 164 218 266 312 371
#     4  12  23  41  65  98 128 173 208 262 325 378
#     4  12  24  41  64  94 130 170 210 257 320 388
#     4  11  21  39  64  96 122 167 214 266 309 374
#     4  10  19  36  63  92 119 163 213 265 306 361
#     4  11  23  41  63  95 121 165 221 266 306 373
#
# _framework density 23.951315999999998
#
# number of rings (size 3 to 8) (size 9 to 14) (size 15 to 20)
#    0.000    1.000    6.250    1.875    3.500    0.500 
#    0.000    1.250    2.750    0.000    0.000    0.000 
#    0.000    0.000    0.000    0.000    0.000    0.000 
#
# Total GULP energy -89466.299551 kJ/mol
# GULP energy per Si atom -5591.643722 kJ/mol
# Density = 2.389680 g / cm^3
# Si number density = 23.951316 Si / 1000 Ang^3
#
#
#
# Elastic Constant Matrix: (Units=GPa)
#
#
# Indices 1 2 3 4 5 6 
#
# 1 207.9369 18.9387 35.1397 -3.2616 -36.4757 12.5335
# 2 18.9387 69.6638 6.4966 -12.8014 2.4930 1.0269
# 3 35.1397 6.4966 33.7627 -15.2488 -19.9738 9.6879
# 4 -3.2616 -12.8014 -15.2488 24.5560 11.5710 0.3227
# 5 -36.4757 2.4930 -19.9738 11.5710 39.9575 -6.4154
# 6 12.5335 1.0269 9.6879 0.3227 -6.4154 38.7119
#
#
#
# Elastic Compliance Matrix: (Units=1/GPa)
#
#
# Indices 1 2 3 4 5 6 
#
# 1 0.007064 -0.002823 -0.007243 -0.007521 0.005268 0.000536
# 2 -0.002823 0.017630 0.001848 0.013169 -0.006767 -0.001247
# 3 -0.007243 0.001848 0.062832 0.032899 0.013308 -0.011497
# 4 -0.007521 0.013169 0.032899 0.073765 -0.014063 -0.009093
# 5 0.005268 -0.006767 0.013308 -0.014063 0.041321 0.002108
# 6 0.000536 -0.001247 -0.011497 -0.009093 0.002108 0.028994
#
#
# Mechanical properties :
#
#
# Convention : Reuss Voigt Hill
#
# Bulk Modulus (GPa) = 14.06666 48.05706 31.06186
# Shear Modulus (GPa) = 18.40003 37.36432 27.88217
#
# Velocity S-wave (km/s) = 2.77470 3.95398 3.41562
# Velocity P-wave (km/s) = 4.01883 6.39948 5.34342
#
# Compressibility (1/GPa) = 0.07109010
#
# Stress axis : x y z
#
# Youngs Moduli (GPa) = 141.55974 56.72051 15.91552
#
# Poissons Ratio (x) = 0.16015 0.11528
# Poissons Ratio (y) = 0.39969 -0.02942
# Poissons Ratio (z) = 1.02531 -0.10484
#
# Static dielectric constant tensor:
#      x y z
#    x 1.973210 0.038060 -0.007050 
#    y 0.038060 1.921140 0.037730 
#    z -0.007050 0.037730 2.004210 
# 
# From -- ./inp_files/262414.got.cif
#   From: 2010.05.17/outbox.cif.g08.bks.cpg/sg2_132_cif.got.tgz:262414.got - 2010.06.03 11:33:40.
