data_PCOD9085422
_publ_section_title
;
Structure prediction by ZEFSAII (Michael W. Deem and Ramdas Pophale) SiO2 
 PCOD9085422
Probable space group: P -1
;
_chemical_formula_sum "Si O2"
_cell_formula_units_Z 16
_cell_length_a 16.811852
_cell_length_b 9.842867
_cell_length_c 16.638967
_cell_angle_alpha 29.679056
_cell_angle_beta 30.689549
_cell_angle_gamma 38.434986
_cell_volume 688.642216
_symmetry_space_group_name_H-M "P -1"
_symmetry_group_IT_number 2
_symmetry_cell_setting 'triclinic'
loop_
_space_group_symop_operation_xyz
x,y,z
-x,-y,-z
loop_
_atom_site_type_symbol
_atom_site_label
_atom_site_fract_x
_atom_site_fract_y
_atom_site_fract_z
Si Si1 0.336517 0.763406 0.558196
Si Si2 0.601723 0.372941 0.170902
Si Si3 0.817451 0.703566 0.152860
Si Si4 0.624216 0.244066 0.049712
Si Si5 0.281616 0.095572 0.282516
Si Si6 0.374364 0.499332 0.449558
Si Si7 0.051905 0.499227 0.361013
Si Si8 0.865477 0.050087 0.215976
O O1 0.216371 0.566328 0.727475
O O2 0.486030 0.577003 0.564972
O O3 0.246127 0.944798 0.612848
O O4 0.367678 0.974348 0.352239
O O5 0.569971 0.192024 0.214494
O O6 0.458448 0.410566 0.338608
O O7 0.759909 0.222859 0.152309
O O8 0.638033 0.669716 0.953588
O O9 0.763867 0.651343 0.317228
O O10 0.693662 0.956817 0.095437
O O11 0.988589 0.793671 0.963870
O O12 0.500000 0.500000 0.000000
O O13 0.785182 0.377367 0.845213
O O14 0.106379 0.220724 0.404352
O O15 0.304520 0.824479 0.345802
O O16 0.000000 0.500000 0.500000
O O17 0.929409 0.732044 0.304354
#
# Coordination Sequence:
#
# PCOD9085422 Si02
#       8
#     2   2   2   2   2   2   2   2
#     4  10  20  36  65  87 120 162 203 244 293 361
#     4  10  23  40  62  86 121 161 201 247 304 361
#     4  10  21  36  60  89 124 154 202 246 297 352
#     4  10  24  38  60  90 120 156 199 255 301 352
#     4  10  19  35  60  89 117 151 205 242 288 355
#     4  10  22  38  62  90 119 165 199 247 300 353
#     4  10  20  36  63  88 120 156 203 243 290 361
#     4  10  21  40  60  92 120 162 199 246 304 350
#
# _framework density 23.234124999999999
#
# number of rings (size 3 to 8) (size 9 to 14) (size 15 to 20)
#    0.000    2.000    1.250    2.250    7.000    5.000 
#    0.000    5.000    0.000    0.000    0.000    0.000 
#    0.000    0.000    0.000    0.000    0.000    0.000 
#
# Total GULP energy -89282.031113 kJ/mol
# GULP energy per Si atom -5580.126945 kJ/mol
# Density = 2.318124 g / cm^3
# Si number density = 23.234125 Si / 1000 Ang^3
#
#
#
# Elastic Constant Matrix: (Units=GPa)
#
#
# Indices 1 2 3 4 5 6 
#
# 1 51.2074 20.3328 8.4506 9.5837 12.3228 -11.9365
# 2 20.3328 159.3016 22.9654 1.8843 1.6986 -3.5103
# 3 8.4506 22.9654 81.6237 15.6682 13.9662 -5.1648
# 4 9.5837 1.8843 15.6682 43.9549 3.3603 4.8603
# 5 12.3228 1.6986 13.9662 3.3603 31.5621 2.4803
# 6 -11.9365 -3.5103 -5.1648 4.8603 2.4803 29.0294
#
#
#
# Elastic Compliance Matrix: (Units=1/GPa)
#
#
# Indices 1 2 3 4 5 6 
#
# 1 0.028007 -0.003404 0.002433 -0.007429 -0.012123 0.013817
# 2 -0.003404 0.006973 -0.002264 0.001250 0.001927 -0.001333
# 3 0.002433 -0.002264 0.015356 -0.005904 -0.007394 0.005079
# 4 -0.007429 0.001250 -0.005904 0.027143 0.003245 -0.008776
# 5 -0.012123 0.001927 -0.007394 0.003245 0.040027 -0.010030
# 6 0.013817 -0.001333 0.005079 -0.008776 -0.010030 0.043198
#
#
# Mechanical properties :
#
#
# Convention : Reuss Voigt Hill
#
# Bulk Modulus (GPa) = 22.79639 43.95892 33.37765
# Shear Modulus (GPa) = 27.50324 36.93487 32.21906
#
# Velocity S-wave (km/s) = 3.44429 3.99141 3.72790
# Velocity P-wave (km/s) = 5.06462 6.34057 5.73817
#
# Compressibility (1/GPa) = 0.04386660
#
# Stress axis : x y z
#
# Youngs Moduli (GPa) = 35.70561 143.40035 65.12093
#
# Poissons Ratio (x) = 0.48811 -0.15841
# Poissons Ratio (y) = 0.12154 0.14741
# Poissons Ratio (z) = -0.08686 0.32461
#
# Static dielectric constant tensor:
#      x y z
#    x 1.952230 0.024040 -0.011500 
#    y 0.024040 1.954110 -0.038880 
#    z -0.011500 -0.038880 1.886480 
# 
# From -- ./inp_files/575917.got.cif
#   From: 2010.05.17/outbox.cif.g08.bks.cpg/sg2_288_cif.got.tgz:575917.got - 2010.06.03 11:33:40.
