data_PCOD9085506
_publ_section_title
;
Structure prediction by ZEFSAII (Michael W. Deem and Ramdas Pophale) SiO2 
 PCOD9085506
Probable space group: P -1
;
_chemical_formula_sum "Si O2"
_cell_formula_units_Z 16
_cell_length_a 11.109614
_cell_length_b 11.525402
_cell_length_c 14.936116
_cell_angle_alpha 28.386656
_cell_angle_beta 103.266503
_cell_angle_gamma 90.920990
_cell_volume 810.472941
_symmetry_space_group_name_H-M "P -1"
_symmetry_group_IT_number 2
_symmetry_cell_setting 'triclinic'
loop_
_space_group_symop_operation_xyz
x,y,z
-x,-y,-z
loop_
_atom_site_type_symbol
_atom_site_label
_atom_site_fract_x
_atom_site_fract_y
_atom_site_fract_z
Si Si1 0.138926 0.425828 0.954760
Si Si2 0.939189 0.294976 0.748217
Si Si3 0.889909 0.356123 0.496602
Si Si4 0.113071 0.914663 0.723088
Si Si5 0.319729 0.564247 0.746856
Si Si6 0.120279 0.412309 0.290716
Si Si7 0.426033 0.532670 0.060882
Si Si8 0.702497 0.849080 0.664235
O O1 0.069659 0.697019 0.817177
O O2 0.241262 0.476066 0.869853
O O3 0.025158 0.383531 0.907234
O O4 0.216532 0.209607 0.188269
O O5 0.869636 0.325284 0.619136
O O6 0.844539 0.479396 0.685291
O O7 0.052634 0.415469 0.667552
O O8 0.000000 0.000000 0.000000
O O9 0.758059 0.425661 0.365458
O O10 0.011008 0.082394 0.668705
O O11 0.102897 0.142891 0.496171
O O12 0.271769 0.752501 0.883088
O O13 0.480243 0.400663 0.896961
O O14 0.309933 0.861425 0.561512
O O15 0.220318 0.347471 0.269749
O O16 0.415936 0.249762 0.268811
O O17 0.500000 0.500000 0.000000
#
# Coordination Sequence:
#
# PCOD9085506 Si02
#       8
#     2   2   2   2   2   2   2   2
#     4  11  20  34  57  92 123 151 187 243 296 360
#     4  10  23  38  61  86 119 148 206 253 297 342
#     4  10  23  40  61  89 114 161 194 253 299 334
#     4  10  19  35  61  83 126 153 191 232 297 357
#     4  12  21  39  62  88 130 154 198 237 296 362
#     4  11  20  37  59  92 115 156 197 250 298 347
#     4  11  22  38  55  88 129 166 189 232 296 365
#     4  11  23  33  60  90 125 158 194 234 300 365
#
# _framework density 19.741561999999998
#
# number of rings (size 3 to 8) (size 9 to 14) (size 15 to 20)
#    0.000    1.250    6.250    1.875    5.250    0.000 
#    0.000    0.000    0.000    7.500    0.000    0.000 
#    0.000    0.000    0.000    0.000    0.000    0.000 
#
# Total GULP energy -89279.338347 kJ/mol
# GULP energy per Si atom -5579.958647 kJ/mol
# Density = 1.969663 g / cm^3
# Si number density = 19.741562 Si / 1000 Ang^3
#
#
#
# Elastic Constant Matrix: (Units=GPa)
#
#
# Indices 1 2 3 4 5 6 
#
# 1 74.1525 37.1481 26.9244 23.5886 -4.2164 6.5593
# 2 37.1481 90.7714 20.5345 38.6628 12.9829 2.2984
# 3 26.9244 20.5345 79.8043 18.3469 -8.5274 -4.5837
# 4 23.5886 38.6628 18.3469 37.0922 6.3552 -3.4835
# 5 -4.2164 12.9829 -8.5274 6.3552 37.1527 12.5009
# 6 6.5593 2.2984 -4.5837 -3.4835 12.5009 21.2019
#
#
#
# Elastic Compliance Matrix: (Units=1/GPa)
#
#
# Indices 1 2 3 4 5 6 
#
# 1 0.022608 -0.005058 -0.003677 -0.010474 0.010349 -0.015064
# 2 -0.005058 0.021798 -0.000154 -0.018748 -0.004620 -0.001188
# 3 -0.003677 -0.000154 0.015607 -0.005729 0.003732 0.001387
# 4 -0.010474 -0.018748 -0.005729 0.060414 -0.013702 0.022039
# 5 0.010349 -0.004620 0.003732 -0.013702 0.042789 -0.029374
# 6 -0.015064 -0.001188 0.001387 0.022039 -0.029374 0.073195
#
#
# Mechanical properties :
#
#
# Convention : Reuss Voigt Hill
#
# Bulk Modulus (GPa) = 23.67775 45.99358 34.83567
# Shear Modulus (GPa) = 18.63824 29.76412 24.20118
#
# Velocity S-wave (km/s) = 3.07597 3.88711 3.50508
# Velocity P-wave (km/s) = 4.96340 6.59504 5.83652
#
# Compressibility (1/GPa) = 0.04223374
#
# Stress axis : x y z
#
# Youngs Moduli (GPa) = 44.23284 45.87637 64.07549
#
# Poissons Ratio (x) = 0.23203 0.23562
# Poissons Ratio (y) = 0.22371 0.00988
# Poissons Ratio (z) = 0.16266 0.00707
#
# Static dielectric constant tensor:
#      x y z
#    x 1.716570 0.015800 0.018310 
#    y 0.015800 1.714800 0.012100 
#    z 0.018310 0.012100 1.752470 
# 
# From -- ./inp_files/517504.got.cif
#   From: 2010.05.17/outbox.cif.g08.bks.cpg/sg2_259_cif.got.tgz:517504.got - 2010.06.03 11:33:40.
