data_PCOD9085895
_publ_section_title
;
Structure prediction by ZEFSAII (Michael W. Deem and Ramdas Pophale) SiO2 
 PCOD9085895
Probable space group: P -1
;
_chemical_formula_sum "Si O2"
_cell_formula_units_Z 14
_cell_length_a 12.210167
_cell_length_b 9.062735
_cell_length_c 10.989005
_cell_angle_alpha 91.350661
_cell_angle_beta 75.443493
_cell_angle_gamma 38.526166
_cell_volume 682.460521
_symmetry_space_group_name_H-M "P -1"
_symmetry_group_IT_number 2
_symmetry_cell_setting 'triclinic'
loop_
_space_group_symop_operation_xyz
x,y,z
-x,-y,-z
loop_
_atom_site_type_symbol
_atom_site_label
_atom_site_fract_x
_atom_site_fract_y
_atom_site_fract_z
Si Si1 0.981212 0.302519 0.728167
Si Si2 0.846596 0.030540 0.549108
Si Si3 0.727347 0.125274 0.955646
Si Si4 0.496773 0.894751 0.116410
Si Si5 0.881508 0.691307 0.649143
Si Si6 0.054222 0.615528 0.987429
Si Si7 0.361220 0.552385 0.213749
O O1 0.966775 0.496429 0.727112
O O2 0.001503 0.254645 0.863900
O O3 0.776411 0.446616 0.740636
O O4 0.142560 0.062243 0.586865
O O5 0.662969 0.311938 0.662435
O O6 0.904335 0.841931 0.626551
O O7 0.000000 0.000000 0.500000
O O8 0.607183 0.138202 0.908079
O O9 0.728025 0.271113 0.877710
O O10 0.586965 0.288364 0.115381
O O11 0.932757 0.836607 0.927364
O O12 0.350104 0.094886 0.269890
O O13 0.712923 0.630122 0.093611
O O14 0.500000 0.000000 0.000000
O O15 0.000000 0.500000 0.500000
O O16 0.000000 0.500000 0.000000
#
# Coordination Sequence:
#
# PCOD9085895 Si02
#       7
#     2   2   2   2   2   2   2
#     4  10  20  37  59  91 125 160 214 258 315 372
#     4   9  19  35  63  91 121 169 217 254 317 384
#     4  11  22  37  62  93 127 164 210 260 327 375
#     4  12  20  39  63  95 126 165 210 264 319 376
#     4  10  19  35  64  90 121 171 211 257 316 378
#     4  12  24  37  63  97 131 163 214 272 317 377
#     4  10  20  39  61  91 125 166 210 259 316 384
#
# _framework density 20.514005999999998
#
# number of rings (size 3 to 8) (size 9 to 14) (size 15 to 20)
#    0.000    1.429    5.714    0.000    0.000    0.571 
#    0.000    0.714    0.000   16.286    0.000    0.000 
#    0.000    0.000    0.000    0.000    0.000    0.000 
#
# Total GULP energy -77954.185894 kJ/mol
# GULP energy per Si atom -5568.156135 kJ/mol
# Density = 2.046732 g / cm^3
# Si number density = 20.514006 Si / 1000 Ang^3
#
#
#
# Elastic Constant Matrix: (Units=GPa)
#
#
# Indices 1 2 3 4 5 6 
#
# 1 70.3551 36.9647 26.2516 -1.7604 -2.4546 13.3994
# 2 36.9647 107.0436 29.9046 17.4589 -15.3803 -10.3921
# 3 26.2516 29.9046 128.6999 34.6380 -1.8638 -6.2018
# 4 -1.7604 17.4589 34.6380 31.6517 11.6780 -8.2123
# 5 -2.4546 -15.3803 -1.8638 11.6780 31.9842 -0.9269
# 6 13.3994 -10.3921 -6.2018 -8.2123 -0.9269 36.7377
#
#
#
# Elastic Compliance Matrix: (Units=1/GPa)
#
#
# Indices 1 2 3 4 5 6 
#
# 1 0.025743 -0.012337 -0.008063 0.018624 -0.011527 -0.010368
# 2 -0.012337 0.018461 0.003906 -0.019112 0.015325 0.006496
# 3 -0.008063 0.003906 0.014632 -0.021872 0.010152 0.001883
# 4 0.018624 -0.019112 -0.021872 0.081815 -0.038867 0.001417
# 5 -0.011527 0.015325 0.010152 -0.038867 0.052616 0.002892
# 6 -0.010368 0.006496 0.001883 0.001417 0.002892 0.033546
#
#
# Mechanical properties :
#
#
# Convention : Reuss Voigt Hill
#
# Bulk Modulus (GPa) = 38.69154 54.70450 46.69802
# Shear Modulus (GPa) = 18.62760 34.27321 26.45041
#
# Velocity S-wave (km/s) = 3.01664 4.09188 3.59469
# Velocity P-wave (km/s) = 5.57095 7.00353 6.32791
#
# Compressibility (1/GPa) = 0.02584544
#
# Stress axis : x y z
#
# Youngs Moduli (GPa) = 38.84573 54.16833 68.34539
#
# Poissons Ratio (x) = 0.66830 0.55108
# Poissons Ratio (y) = 0.47926 -0.26694
# Poissons Ratio (z) = 0.31322 -0.21156
#
# Static dielectric constant tensor:
#      x y z
#    x 1.781240 0.058230 0.028280 
#    y 0.058230 1.748620 0.026210 
#    z 0.028280 0.026210 1.866750 
# 
# From -- ./inp_files/266613.got.cif
#   From: 2010.05.17/outbox.cif.g08.bks.cpg/sg2_134_cif.got.tgz:266613.got - 2010.06.03 11:33:40.
