data_PCOD9085988
_publ_section_title
;
Structure prediction by ZEFSAII (Michael W. Deem and Ramdas Pophale) SiO2 
 PCOD9085988
Probable space group: P -1
;
_chemical_formula_sum "Si O2"
_cell_formula_units_Z 16
_cell_length_a 11.988935
_cell_length_b 15.225404
_cell_length_c 8.474840
_cell_angle_alpha 54.508292
_cell_angle_beta 107.392130
_cell_angle_gamma 143.192771
_cell_volume 709.617499
_symmetry_space_group_name_H-M "P -1"
_symmetry_group_IT_number 2
_symmetry_cell_setting 'triclinic'
loop_
_space_group_symop_operation_xyz
x,y,z
-x,-y,-z
loop_
_atom_site_type_symbol
_atom_site_label
_atom_site_fract_x
_atom_site_fract_y
_atom_site_fract_z
Si Si1 0.836660 0.456500 0.645191
Si Si2 0.762248 0.817379 0.113194
Si Si3 0.471409 0.267201 0.200897
Si Si4 0.280462 0.442091 0.739602
Si Si5 0.829087 0.069682 0.052747
Si Si6 0.776149 0.218573 0.661818
Si Si7 0.642086 0.010307 0.358004
Si Si8 0.232939 0.654636 0.931799
O O1 0.738306 0.465052 0.471676
O O2 0.865879 0.356244 0.699494
O O3 0.061312 0.668562 0.523289
O O4 0.723172 0.359815 0.860485
O O5 0.696695 0.644307 0.274740
O O6 0.743497 0.886140 0.179170
O O7 0.647886 0.773886 0.954117
O O8 0.000000 0.000000 0.000000
O O9 0.544346 0.406653 0.218533
O O10 0.674600 0.361861 0.130445
O O11 0.342017 0.073427 0.422394
O O12 0.066724 0.260324 0.925477
O O13 0.763818 0.067667 0.194658
O O14 0.732795 0.071035 0.871742
O O15 0.588869 0.149104 0.612573
O O16 0.684911 0.165819 0.255350
O O17 0.000000 0.500000 0.000000
#
# Coordination Sequence:
#
# PCOD9085988 Si02
#       8
#     2   2   2   2   2   2   2   2
#     4  10  21  39  65  92 128 174 208 257 324 388
#     4  10  24  45  67  91 123 170 226 276 316 371
#     4  12  25  41  65  96 131 170 218 265 326 379
#     4  10  22  45  66  90 127 170 218 271 320 375
#     4  10  21  39  67  93 127 172 215 258 323 386
#     4  10  19  35  66  92 129 163 210 250 325 383
#     4  12  23  38  62  96 133 169 207 263 321 396
#     4  12  26  40  61 102 140 170 206 260 325 398
#
# _framework density 22.547359
#
# number of rings (size 3 to 8) (size 9 to 14) (size 15 to 20)
#    0.000    1.250    2.500    3.375    3.500    3.000 
#    0.000    6.250    0.000    0.000    0.000    0.000 
#    0.000    0.000    0.000    0.000    0.000    0.000 
#
# Total GULP energy -89361.235484 kJ/mol
# GULP energy per Si atom -5585.077218 kJ/mol
# Density = 2.249604 g / cm^3
# Si number density = 22.547359 Si / 1000 Ang^3
#
#
#
# Elastic Constant Matrix: (Units=GPa)
#
#
# Indices 1 2 3 4 5 6 
#
# 1 51.4284 9.5459 4.4394 -7.8061 14.6878 -8.6010
# 2 9.5459 69.8834 10.5215 -8.3255 15.5585 -0.8428
# 3 4.4394 10.5215 60.3379 -10.6870 1.3574 2.7196
# 4 -7.8061 -8.3255 -10.6870 27.7333 -8.1007 9.1985
# 5 14.6878 15.5585 1.3574 -8.1007 31.4035 -4.3715
# 6 -8.6010 -0.8428 2.7196 9.1985 -4.3715 42.2331
#
#
#
# Elastic Compliance Matrix: (Units=1/GPa)
#
#
# Indices 1 2 3 4 5 6 
#
# 1 0.023251 -0.000593 -0.001191 0.002000 -0.009544 0.003377
# 2 -0.000593 0.016628 -0.002286 0.002052 -0.007452 -0.000860
# 3 -0.001191 -0.002286 0.018519 0.007814 0.002498 -0.002924
# 4 0.002000 0.002052 0.007814 0.045685 0.008220 -0.009154
# 5 -0.009544 -0.007452 0.002498 0.008220 0.042055 0.000309
# 6 0.003377 -0.000860 -0.002924 -0.009154 0.000309 0.026563
#
#
# Mechanical properties :
#
#
# Convention : Reuss Voigt Hill
#
# Bulk Modulus (GPa) = 19.89676 25.62925 22.76301
# Shear Modulus (GPa) = 25.30439 30.75017 28.02728
#
# Velocity S-wave (km/s) = 3.35368 3.69698 3.52950
# Velocity P-wave (km/s) = 4.88260 5.44197 5.16986
#
# Compressibility (1/GPa) = 0.05025944
#
# Stress axis : x y z
#
# Youngs Moduli (GPa) = 43.00829 60.13951 53.99788
#
# Poissons Ratio (x) = 0.03567 0.06429
# Poissons Ratio (y) = 0.02551 0.12344
# Poissons Ratio (z) = 0.05120 0.13748
#
# Static dielectric constant tensor:
#      x y z
#    x 1.846570 0.032000 -0.017050 
#    y 0.032000 1.967260 -0.003520 
#    z -0.017050 -0.003520 1.835000 
# 
# From -- ./inp_files/271867.got.cif
#   From: 2010.05.17/outbox.cif.g08.bks.cpg/sg2_136_cif.got.tgz:271867.got - 2010.06.03 11:33:40.
