data_PCOD9085165
_publ_section_title
;
Structure prediction by ZEFSAII (Michael W. Deem and Ramdas Pophale) SiO2 
 PCOD9085165
Probable space group: P -1
;
_chemical_formula_sum "Si O2"
_cell_formula_units_Z 16
_cell_length_a 14.073120
_cell_length_b 10.427767
_cell_length_c 11.519881
_cell_angle_alpha 27.011999
_cell_angle_beta 124.048236
_cell_angle_gamma 119.207459
_cell_volume 635.919366
_symmetry_space_group_name_H-M "P -1"
_symmetry_group_IT_number 2
_symmetry_cell_setting 'triclinic'
loop_
_space_group_symop_operation_xyz
x,y,z
-x,-y,-z
loop_
_atom_site_type_symbol
_atom_site_label
_atom_site_fract_x
_atom_site_fract_y
_atom_site_fract_z
Si Si1 0.225784 0.345621 0.279375
Si Si2 0.416093 0.138430 0.927016
Si Si3 0.937849 0.687460 0.016501
Si Si4 0.028371 0.716760 0.447755
Si Si5 0.741286 0.293785 0.504711
Si Si6 0.694190 0.714913 0.962795
Si Si7 0.364079 0.748165 0.881060
Si Si8 0.734855 0.369821 0.688555
O O1 0.113436 0.340417 0.124749
O O2 0.207707 0.465633 0.299344
O O3 0.287411 0.034204 0.577250
O O4 0.308331 0.564184 0.094234
O O5 0.364627 0.419156 0.602597
O O6 0.507703 0.177602 0.060582
O O7 0.500000 0.000000 0.000000
O O8 0.320250 0.910882 0.072974
O O9 0.016183 0.961738 0.854596
O O10 0.993113 0.411872 0.337568
O O11 0.824897 0.725043 0.993333
O O12 0.163838 0.760626 0.485328
O O13 0.000000 0.500000 0.500000
O O14 0.697480 0.602577 0.186809
O O15 0.796698 0.298128 0.666240
O O16 0.653781 0.038282 0.654985
O O17 0.634941 0.470777 0.048318
#
# Coordination Sequence:
#
# PCOD9085165 Si02
#       8
#     2   2   2   2   2   2   2   2
#     4  11  19  33  54  79 106 139 183 228 267 308
#     4  12  22  37  52  80 109 140 192 234 272 310
#     4   9  18  31  54  83 104 132 177 222 258 312
#     4  10  19  35  59  84 108 136 172 219 264 315
#     4  10  21  37  54  78 111 142 179 212 270 339
#     4   9  18  35  53  74 104 141 178 226 264 316
#     4  11  20  33  56  77 102 139 191 239 268 299
#     4  12  23  36  54  78 110 148 178 227 278 321
#
# _framework density 25.160423000000002
#
# number of rings (size 3 to 8) (size 9 to 14) (size 15 to 20)
#    0.000    1.500    2.500    6.000    0.000    0.000 
#    0.000    3.750    0.000    1.500    0.000    0.000 
#    0.000    3.000    0.000    0.000    0.000    0.000 
#
# Total GULP energy -89391.426999 kJ/mol
# GULP energy per Si atom -5586.964187 kJ/mol
# Density = 2.510316 g / cm^3
# Si number density = 25.160423 Si / 1000 Ang^3
#
#
#
# Elastic Constant Matrix: (Units=GPa)
#
#
# Indices 1 2 3 4 5 6 
#
# 1 53.6823 14.2937 22.8413 1.6240 -12.1308 -2.9818
# 2 14.2937 186.0777 83.2842 0.2821 -13.2511 -6.4185
# 3 22.8413 83.2842 204.3309 -18.5549 -16.4105 -3.0764
# 4 1.6240 0.2821 -18.5549 42.1483 -2.8124 -5.5415
# 5 -12.1308 -13.2511 -16.4105 -2.8124 24.0670 3.2133
# 6 -2.9818 -6.4185 -3.0764 -5.5415 3.2133 27.9014
#
#
#
# Elastic Compliance Matrix: (Units=1/GPa)
#
#
# Indices 1 2 3 4 5 6 
#
# 1 0.021583 -0.000230 -0.001621 -0.000805 0.009442 0.000828
# 2 -0.000230 0.006727 -0.002671 -0.000997 0.001537 0.000854
# 3 -0.001621 -0.002671 0.006670 0.003228 0.002599 0.000290
# 4 -0.000805 -0.000997 0.003228 0.026059 0.003651 0.004796
# 5 0.009442 0.001537 0.002599 0.003651 0.049804 -0.003361
# 6 0.000828 0.000854 0.000290 0.004796 -0.003361 0.037497
#
#
# Mechanical properties :
#
#
# Convention : Reuss Voigt Hill
#
# Bulk Modulus (GPa) = 38.55538 76.10326 57.32932
# Shear Modulus (GPa) = 30.11517 40.40145 35.25831
#
# Velocity S-wave (km/s) = 3.46342 4.01153 3.74751
# Velocity P-wave (km/s) = 5.59917 7.19510 6.44671
#
# Compressibility (1/GPa) = 0.02593672
#
# Stress axis : x y z
#
# Youngs Moduli (GPa) = 46.33238 148.64414 149.92420
#
# Poissons Ratio (x) = 0.03421 0.24306
# Poissons Ratio (y) = 0.01066 0.40039
# Poissons Ratio (z) = 0.07511 0.39698
#
# Static dielectric constant tensor:
#      x y z
#    x 2.083870 -0.067470 0.081940 
#    y -0.067470 2.044240 -0.034110 
#    z 0.081940 -0.034110 2.055080 
# 
# From -- ./inp_files/452704.got.cif
#   From: 2010.05.17/outbox.cif.g08.bks.cpg/sg2_227_cif.got.tgz:452704.got - 2010.06.03 11:33:40.
