data_PCOD9085293
_publ_section_title
;
Structure prediction by ZEFSAII (Michael W. Deem and Ramdas Pophale) SiO2 
 PCOD9085293
Probable space group: P -1
;
_chemical_formula_sum "Si O2"
_cell_formula_units_Z 16
_cell_length_a 6.390454
_cell_length_b 17.197851
_cell_length_c 13.375639
_cell_angle_alpha 46.672777
_cell_angle_beta 125.367634
_cell_angle_gamma 136.657947
_cell_volume 724.520059
_symmetry_space_group_name_H-M "P -1"
_symmetry_group_IT_number 2
_symmetry_cell_setting 'triclinic'
loop_
_space_group_symop_operation_xyz
x,y,z
-x,-y,-z
loop_
_atom_site_type_symbol
_atom_site_label
_atom_site_fract_x
_atom_site_fract_y
_atom_site_fract_z
Si Si1 0.696415 0.142393 0.971717
Si Si2 0.530013 0.313717 0.876690
Si Si3 0.665817 0.739308 0.503291
Si Si4 0.652045 0.793741 0.861757
Si Si5 0.553846 0.230841 0.390613
Si Si6 0.760577 0.541337 0.622233
Si Si7 0.890552 0.253475 0.710705
Si Si8 0.223390 0.927526 0.345512
O O1 0.998962 0.169019 0.087213
O O2 0.511220 0.188603 0.940816
O O3 0.818378 0.220760 0.834914
O O4 0.500000 0.000000 0.000000
O O5 0.798083 0.437091 0.781849
O O6 0.257116 0.326814 0.748072
O O7 0.505573 0.296926 0.004369
O O8 0.696683 0.788053 0.581817
O O9 0.696847 0.620185 0.614747
O O10 0.322401 0.694838 0.416512
O O11 0.903242 0.843856 0.394873
O O12 0.486883 0.738489 0.759546
O O13 0.678741 0.927934 0.766849
O O14 0.551846 0.101337 0.507436
O O15 0.896823 0.346062 0.419885
O O16 0.500000 0.500000 0.500000
O O17 0.793860 0.134708 0.713130
#
# Coordination Sequence:
#
# PCOD9085293 Si02
#       8
#     2   2   2   2   2   2   2   2
#     4  11  22  37  60  89 124 162 200 243 300 363
#     4  11  24  39  60  91 126 165 203 248 306 358
#     4  10  21  38  64  91 118 156 203 254 309 358
#     4  11  24  40  60  90 127 164 203 248 302 367
#     4  10  24  41  62  92 121 159 208 253 301 360
#     4  11  23  42  66  90 120 156 204 259 304 358
#     4  10  19  35  59  92 121 151 201 252 302 358
#     4  10  20  38  63  90 124 158 199 254 307 360
#
# _framework density 22.083583999999998
#
# number of rings (size 3 to 8) (size 9 to 14) (size 15 to 20)
#    0.000    1.500    0.000    6.375    0.000   10.000 
#    0.000    1.250    0.000    0.000    0.000    0.000 
#    0.000    0.000    0.000    0.000    0.000    0.000 
#
# Total GULP energy -89177.733726 kJ/mol
# GULP energy per Si atom -5573.608358 kJ/mol
# Density = 2.203332 g / cm^3
# Si number density = 22.083584 Si / 1000 Ang^3
#
#
#
# Elastic Constant Matrix: (Units=GPa)
#
#
# Indices 1 2 3 4 5 6 
#
# 1 97.7425 6.5802 21.4959 6.1251 -2.9801 -12.6785
# 2 6.5802 37.6646 18.9563 -0.6699 0.0035 -2.1061
# 3 21.4959 18.9563 102.7500 2.7515 -5.2396 -5.2926
# 4 6.1251 -0.6699 2.7515 36.2423 -8.7956 3.4041
# 5 -2.9801 0.0035 -5.2396 -8.7956 21.8523 2.1777
# 6 -12.6785 -2.1061 -5.2926 3.4041 2.1777 14.6394
#
#
#
# Elastic Compliance Matrix: (Units=1/GPa)
#
#
# Indices 1 2 3 4 5 6 
#
# 1 0.012247 -0.000660 -0.001858 -0.003230 -0.001148 0.010762
# 2 -0.000660 0.029435 -0.005281 0.000567 -0.001314 0.001817
# 3 -0.001858 -0.005281 0.011289 -0.000238 0.002215 0.001438
# 4 -0.003230 0.000567 -0.000238 0.032716 0.013914 -0.012479
# 5 -0.001148 -0.001314 0.002215 0.013914 0.052881 -0.011484
# 6 0.010762 0.001817 0.001438 -0.012479 -0.011484 0.083021
#
#
# Mechanical properties :
#
#
# Convention : Reuss Voigt Hill
#
# Bulk Modulus (GPa) = 26.75724 36.91355 31.83540
# Shear Modulus (GPa) = 20.02845 27.28845 23.65845
#
# Velocity S-wave (km/s) = 3.01481 3.51905 3.27664
# Velocity P-wave (km/s) = 4.92559 5.76743 5.36305
#
# Compressibility (1/GPa) = 0.03737306
#
# Stress axis : x y z
#
# Youngs Moduli (GPa) = 81.64937 33.97303 88.58350
#
# Poissons Ratio (x) = 0.02242 0.16460
# Poissons Ratio (y) = 0.05389 0.46781
# Poissons Ratio (z) = 0.15172 0.17941
#
# Static dielectric constant tensor:
#      x y z
#    x 1.803460 -0.007520 0.051710 
#    y -0.007520 1.802430 0.083300 
#    z 0.051710 0.083300 1.780200 
# 
# From -- ./inp_files/70713.got.cif
#   From: 2010.05.17/outbox.cif.g08.bks.cpg/sg2_36_cif.got.tgz:70713.got - 2010.06.03 11:33:40.
