data_PCOD9085982
_publ_section_title
;
Structure prediction by ZEFSAII (Michael W. Deem and Ramdas Pophale) SiO2 
 PCOD9085982
Probable space group: P -1
;
_chemical_formula_sum "Si O2"
_cell_formula_units_Z 16
_cell_length_a 21.140094
_cell_length_b 9.310800
_cell_length_c 17.266893
_cell_angle_alpha 134.226934
_cell_angle_beta 18.788737
_cell_angle_gamma 134.476792
_cell_volume 772.357887
_symmetry_space_group_name_H-M "P -1"
_symmetry_group_IT_number 2
_symmetry_cell_setting 'triclinic'
loop_
_space_group_symop_operation_xyz
x,y,z
-x,-y,-z
loop_
_atom_site_type_symbol
_atom_site_label
_atom_site_fract_x
_atom_site_fract_y
_atom_site_fract_z
Si Si1 0.001301 0.170969 0.239056
Si Si2 0.356345 0.337428 0.768963
Si Si3 0.148392 0.691538 0.117236
Si Si4 0.786334 0.034748 0.294158
Si Si5 0.717191 0.486948 0.513528
Si Si6 0.083568 0.627585 0.350492
Si Si7 0.821750 0.908682 0.848626
Si Si8 0.554960 0.508592 0.029936
O O1 0.967368 0.393395 0.391133
O O2 0.045907 0.034684 0.207292
O O3 0.822915 0.055585 0.350995
O O4 0.198820 0.239509 0.981802
O O5 0.549257 0.465556 0.634431
O O6 0.376058 0.147549 0.619730
O O7 0.254484 0.501754 0.903255
O O8 0.142775 0.694000 0.218779
O O9 0.925261 0.636762 0.321085
O O10 0.239858 0.907555 0.057271
O O11 0.756568 0.256725 0.386679
O O12 0.000000 0.000000 0.000000
O O13 0.628456 0.547914 0.720849
O O14 0.947385 0.777414 0.599818
O O15 0.273182 0.608542 0.178730
O O16 0.639630 0.747658 0.032470
O O17 0.500000 0.500000 0.000000
#
# Coordination Sequence:
#
# PCOD9085982 Si02
#       8
#     2   2   2   2   2   2   2   2
#     4   9  17  36  60  86 114 152 202 246 290 352
#     4  10  20  40  61  89 117 156 207 251 292 363
#     4  11  22  40  60  88 127 161 198 244 308 362
#     4  10  19  35  66  92 113 155 211 254 296 353
#     4  12  20  38  67  89 119 158 208 248 295 364
#     4  10  19  39  60  81 124 164 201 237 295 368
#     4  11  22  38  60  87 127 164 192 253 309 349
#     4  11  23  37  62  95 119 158 210 253 290 356
#
# _framework density 20.715785
#
# number of rings (size 3 to 8) (size 9 to 14) (size 15 to 20)
#    0.000    1.500    7.500    3.000    1.750    0.000 
#    2.250    1.875    0.000    1.500    0.000    0.000 
#    0.000    0.000    0.000    0.000    0.000    0.000 
#
# Total GULP energy -89251.084465 kJ/mol
# GULP energy per Si atom -5578.192779 kJ/mol
# Density = 2.066863 g / cm^3
# Si number density = 20.715785 Si / 1000 Ang^3
#
#
#
# Elastic Constant Matrix: (Units=GPa)
#
#
# Indices 1 2 3 4 5 6 
#
# 1 80.0800 27.6945 0.9463 2.3370 -23.3135 0.9952
# 2 27.6945 34.5614 -6.5994 8.2772 1.6429 -16.4586
# 3 0.9463 -6.5994 31.1155 4.0702 -8.9908 7.4075
# 4 2.3370 8.2772 4.0702 19.5482 12.0178 -2.1937
# 5 -23.3135 1.6429 -8.9908 12.0178 16.0915 -3.0335
# 6 0.9952 -16.4586 7.4075 -2.1937 -3.0335 34.5010
#
#
#
# Elastic Compliance Matrix: (Units=1/GPa)
#
#
# Indices 1 2 3 4 5 6 
#
# 1 -0.015255 -0.007857 -0.039751 0.074274 -0.098742 0.001267
# 2 -0.007857 0.064274 0.028672 -0.057602 0.045826 0.025099
# 3 -0.039751 0.028672 0.002424 0.052595 -0.096721 0.009144
# 4 0.074274 -0.057602 0.052595 -0.059194 0.181673 -0.028704
# 5 -0.098742 0.045826 -0.096721 0.181673 -0.269022 0.033374
# 6 0.001267 0.025099 0.009144 -0.028704 0.033374 0.040067
#
#
# Mechanical properties :
#
#
# Convention : Reuss Voigt Hill
#
# Bulk Modulus (GPa) = 73.68752 21.09330 47.39041
# Shear Modulus (GPa) = -25.73194 22.27586 -1.72804
#
# Velocity S-wave (km/s) = -3.52823 3.28275 -0.91432
# Velocity P-wave (km/s) = 4.36464 4.95711 4.67028
#
# Compressibility (1/GPa) = 0.01357082
#
# Stress axis : x y z
#
# Youngs Moduli (GPa) = -65.55096 15.55839 412.55083
#
# Poissons Ratio (x) = 0.12224 16.39942
# Poissons Ratio (y) = -0.51502 -11.82873
# Poissons Ratio (z) = -2.60573 -0.44609
#
# Static dielectric constant tensor:
#      x y z
#    x 1.819190 0.047730 -0.029450 
#    y 0.047730 1.707220 0.012330 
#    z -0.029450 0.012330 1.822200 
# 
# From -- ./inp_files/577596.got.cif
#   From: 2010.05.17/outbox.cif.g08.bks.cpg/sg2_289_cif.got.tgz:577596.got - 2010.06.03 11:33:40.
