data_PCOD9085908
_publ_section_title
;
Structure prediction by ZEFSAII (Michael W. Deem and Ramdas Pophale) SiO2 
 PCOD9085908
Probable space group: P -1
;
_chemical_formula_sum "Si O2"
_cell_formula_units_Z 16
_cell_length_a 12.322729
_cell_length_b 7.624051
_cell_length_c 8.653173
_cell_angle_alpha 117.625327
_cell_angle_beta 72.295932
_cell_angle_gamma 93.384821
_cell_volume 682.923983
_symmetry_space_group_name_H-M "P -1"
_symmetry_group_IT_number 2
_symmetry_cell_setting 'triclinic'
loop_
_space_group_symop_operation_xyz
x,y,z
-x,-y,-z
loop_
_atom_site_type_symbol
_atom_site_label
_atom_site_fract_x
_atom_site_fract_y
_atom_site_fract_z
Si Si1 0.159161 0.975716 0.734389
Si Si2 0.260896 0.761079 0.894225
Si Si3 0.376072 0.539415 0.498382
Si Si4 0.666209 0.598435 0.859060
Si Si5 0.375105 0.958507 0.489296
Si Si6 0.430184 0.787082 0.092430
Si Si7 0.035461 0.705044 0.135984
Si Si8 0.090193 0.607899 0.405038
O O1 0.044274 0.118729 0.836204
O O2 0.204087 0.924290 0.866047
O O3 0.261695 0.080981 0.650874
O O4 0.137001 0.778188 0.563053
O O5 0.291069 0.571413 0.692133
O O6 0.374867 0.806208 0.954714
O O7 0.166208 0.724959 0.044669
O O8 0.500000 0.500000 0.500000
O O9 0.355774 0.389409 0.310752
O O10 0.368053 0.746830 0.492084
O O11 0.616810 0.411549 0.892751
O O12 0.804379 0.543810 0.773134
O O13 0.569016 0.769066 0.031696
O O14 0.376348 0.950737 0.301397
O O15 0.500000 0.000000 0.500000
O O16 0.026292 0.708425 0.325667
O O17 0.000000 0.500000 0.000000
O O18 0.000000 0.500000 0.500000
#
# Coordination Sequence:
#
# PCOD9085908 Si02
#       8
#     2   2   2   2   2   2   2   2
#     4  11  24  47  65  95 139 184 222 287 344 398
#     4  11  20  39  68  94 131 173 225 277 338 400
#     4  10  19  35  64  92 126 168 208 261 340 388
#     4  10  19  37  64  96 133 166 218 270 328 397
#     4  10  22  41  63  92 135 176 216 269 341 405
#     4  10  19  36  67 100 127 175 217 274 330 399
#     4  12  27  43  67  98 128 179 238 286 340 399
#     4  12  24  45  69  99 135 184 232 276 340 414
#
# _framework density 23.428667999999998
#
# number of rings (size 3 to 8) (size 9 to 14) (size 15 to 20)
#    0.000    1.250    6.250    1.500    0.000    2.000 
#    0.000    3.750    0.000    0.000    0.000    0.000 
#    0.000    0.000    0.000    0.000    0.000    0.000 
#
# Total GULP energy -89262.401124 kJ/mol
# GULP energy per Si atom -5578.900070 kJ/mol
# Density = 2.337534 g / cm^3
# Si number density = 23.428668 Si / 1000 Ang^3
#
#
#
# Elastic Constant Matrix: (Units=GPa)
#
#
# Indices 1 2 3 4 5 6 
#
# 1 104.0830 27.0878 18.1077 -3.4275 -10.2361 -14.1379
# 2 27.0878 61.8590 27.0407 -14.4812 -2.1865 -6.4650
# 3 18.1077 27.0407 85.9708 -29.0966 -7.9660 -5.1140
# 4 -3.4275 -14.4812 -29.0966 18.9810 -7.5616 3.6891
# 5 -10.2361 -2.1865 -7.9660 -7.5616 61.5942 -10.4782
# 6 -14.1379 -6.4650 -5.1140 3.6891 -10.4782 38.3147
#
#
#
# Elastic Compliance Matrix: (Units=1/GPa)
#
#
# Indices 1 2 3 4 5 6 
#
# 1 0.011847 -0.004940 -0.002450 -0.005596 0.001497 0.004159
# 2 -0.004940 0.022478 -0.000071 0.016841 0.002195 0.000940
# 3 -0.002450 -0.000071 0.029408 0.048170 0.009471 0.000961
# 4 -0.005596 0.016841 0.048170 0.148012 0.023986 -0.000486
# 5 0.001497 0.002195 0.009471 0.023986 0.021721 0.005818
# 6 0.004159 0.000940 0.000961 -0.000486 0.005818 0.029559
#
#
# Mechanical properties :
#
#
# Convention : Reuss Voigt Hill
#
# Bulk Modulus (GPa) = 20.48622 44.04278 32.26450
# Shear Modulus (GPa) = 16.99434 35.75644 26.37539
#
# Velocity S-wave (km/s) = 2.69618 3.91088 3.35890
# Velocity P-wave (km/s) = 4.29600 6.26361 5.37068
#
# Compressibility (1/GPa) = 0.04881330
#
# Stress axis : x y z
#
# Youngs Moduli (GPa) = 84.40701 44.48819 34.00478
#
# Poissons Ratio (x) = 0.21975 0.08329
# Poissons Ratio (y) = 0.41693 0.00241
# Poissons Ratio (z) = 0.20676 0.00315
#
# Static dielectric constant tensor:
#      x y z
#    x 3.124130 -0.196090 1.191680 
#    y -0.196090 1.972390 -0.180730 
#    z 1.191680 -0.180730 3.167900 
# 
# From -- ./inp_files/240245.got.cif
#   From: 2010.05.17/outbox.cif.g08.bks.cpg/sg2_121_cif.got.tgz:240245.got - 2010.06.03 11:33:40.
