data_PCOD9085341
_publ_section_title
;
Structure prediction by ZEFSAII (Michael W. Deem and Ramdas Pophale) SiO2 
 PCOD9085341
Probable space group: P -1
;
_chemical_formula_sum "Si O2"
_cell_formula_units_Z 14
_cell_length_a 11.637146
_cell_length_b 10.940265
_cell_length_c 8.090930
_cell_angle_alpha 68.451371
_cell_angle_beta 80.134937
_cell_angle_gamma 40.581590
_cell_volume 613.326577
_symmetry_space_group_name_H-M "P -1"
_symmetry_group_IT_number 2
_symmetry_cell_setting 'triclinic'
loop_
_space_group_symop_operation_xyz
x,y,z
-x,-y,-z
loop_
_atom_site_type_symbol
_atom_site_label
_atom_site_fract_x
_atom_site_fract_y
_atom_site_fract_z
Si Si1 0.405370 0.289718 0.900647
Si Si2 0.174392 0.939110 0.451958
Si Si3 0.411404 0.073950 0.758277
Si Si4 0.229267 0.177460 0.417041
Si Si5 0.983253 0.901004 0.918320
Si Si6 0.919710 0.469583 0.898990
Si Si7 0.376580 0.597582 0.815655
O O1 0.334847 0.267641 0.772985
O O2 0.437729 0.413670 0.797577
O O3 0.268234 0.407399 0.029906
O O4 0.562621 0.062587 0.044844
O O5 0.343744 0.742694 0.617021
O O6 0.133874 0.124098 0.420182
O O7 0.000000 0.000000 0.500000
O O8 0.176644 0.937255 0.253045
O O9 0.299073 0.113743 0.616358
O O10 0.601118 0.954794 0.686068
O O11 0.116930 0.406328 0.308190
O O12 0.174314 0.750462 0.853917
O O13 0.978002 0.753312 0.050017
O O14 0.000000 0.000000 0.000000
O O15 0.000000 0.500000 0.000000
O O16 0.500000 0.500000 0.000000
#
# Coordination Sequence:
#
# PCOD9085341 Si02
#       7
#     2   2   2   2   2   2   2
#     4   9  19  36  56  82 115 145 186 239 290 348
#     4  10  21  38  57  81 121 159 193 239 298 354
#     4   9  19  35  57  88 112 143 190 246 295 347
#     4  10  19  35  60  84 114 150 193 242 293 346
#     4  10  22  40  60  86 119 154 198 243 298 358
#     4  10  19  37  59  79 112 150 189 236 288 340
#     4  10  21  38  60  82 118 158 194 237 297 355
#
# _framework density 22.826339000000001
#
# number of rings (size 3 to 8) (size 9 to 14) (size 15 to 20)
#    0.000    2.286    1.429    0.857    0.000    3.429 
#    7.714    2.143    0.000    0.000    0.000    0.000 
#    0.000    0.000    0.000    0.000    0.000    0.000 
#
# Total GULP energy -78069.235971 kJ/mol
# GULP energy per Si atom -5576.373998 kJ/mol
# Density = 2.277439 g / cm^3
# Si number density = 22.826339 Si / 1000 Ang^3
#
#
#
# Elastic Constant Matrix: (Units=GPa)
#
#
# Indices 1 2 3 4 5 6 
#
# 1 65.4708 34.3242 25.7178 -7.3178 4.9585 10.8181
# 2 34.3242 125.9386 48.5817 -6.4840 -5.2936 39.3753
# 3 25.7178 48.5817 122.5322 -17.2290 15.9803 25.9850
# 4 -7.3178 -6.4840 -17.2290 30.4886 9.0631 -0.8608
# 5 4.9585 -5.2936 15.9803 9.0631 30.3591 0.8854
# 6 10.8181 39.3753 25.9850 -0.8608 0.8854 48.5785
#
#
#
# Elastic Compliance Matrix: (Units=1/GPa)
#
#
# Indices 1 2 3 4 5 6 
#
# 1 0.019008 -0.004955 -0.000842 0.004494 -0.004879 0.000402
# 2 -0.004955 0.013301 -0.003705 -0.002473 0.006046 -0.007850
# 3 -0.000842 -0.003705 0.013197 0.009387 -0.010155 -0.003517
# 4 0.004494 -0.002473 0.009387 0.044296 -0.019246 -0.002881
# 5 -0.004879 0.006046 -0.010155 -0.019246 0.045868 0.000440
# 6 0.000402 -0.007850 -0.003517 -0.002881 0.000440 0.028681
#
#
# Mechanical properties :
#
#
# Convention : Reuss Voigt Hill
#
# Bulk Modulus (GPa) = 37.73424 59.02100 48.37762
# Shear Modulus (GPa) = 26.01596 35.57311 30.79453
#
# Velocity S-wave (km/s) = 3.37966 3.95197 3.67697
# Velocity P-wave (km/s) = 5.63882 6.83643 6.26630
#
# Compressibility (1/GPa) = 0.02650113
#
# Stress axis : x y z
#
# Youngs Moduli (GPa) = 52.60959 75.17993 75.77504
#
# Poissons Ratio (x) = 0.37254 0.06380
# Poissons Ratio (y) = 0.26070 0.28077
# Poissons Ratio (z) = 0.04430 0.27857
#
# Static dielectric constant tensor:
#      x y z
#    x 1.925670 -0.001110 -0.001320 
#    y -0.001110 1.919980 0.009190 
#    z -0.001320 0.009190 1.961320 
# 
# From -- ./inp_files/202661.got.cif
#   From: 2010.05.17/outbox.cif.g08.bks.cpg/sg2_102_cif.got.tgz:202661.got - 2010.06.03 11:33:40.
