data_PCOD9085873
_publ_section_title
;
Structure prediction by ZEFSAII (Michael W. Deem and Ramdas Pophale) SiO2 
 PCOD9085873
Probable space group: P -1
;
_chemical_formula_sum "Si O2"
_cell_formula_units_Z 16
_cell_length_a 8.413226
_cell_length_b 11.177061
_cell_length_c 21.428132
_cell_angle_alpha 144.007048
_cell_angle_beta 138.362028
_cell_angle_gamma 64.579546
_cell_volume 702.927816
_symmetry_space_group_name_H-M "P -1"
_symmetry_group_IT_number 2
_symmetry_cell_setting 'triclinic'
loop_
_space_group_symop_operation_xyz
x,y,z
-x,-y,-z
loop_
_atom_site_type_symbol
_atom_site_label
_atom_site_fract_x
_atom_site_fract_y
_atom_site_fract_z
Si Si1 0.253344 0.258342 0.752775
Si Si2 0.160749 0.156351 0.239245
Si Si3 0.450936 0.221946 0.921305
Si Si4 0.146951 0.989317 0.304558
Si Si5 0.587808 0.918497 0.926686
Si Si6 0.249247 0.664309 0.501298
Si Si7 0.175007 0.421724 0.563436
Si Si8 0.673889 0.004785 0.449257
O O1 0.433274 0.210299 0.836352
O O2 0.939048 0.113220 0.614123
O O3 0.308021 0.182761 0.669616
O O4 0.337740 0.524786 0.891527
O O5 0.131539 0.029287 0.242795
O O6 0.155510 0.396471 0.352405
O O7 0.462049 0.230610 0.335760
O O8 0.905957 0.006665 0.059827
O O9 0.509268 0.039447 0.898535
O O10 0.153120 0.181098 0.835995
O O11 0.229912 0.233986 0.464726
O O12 0.382154 0.918178 0.356177
O O13 0.427008 0.647772 0.756097
O O14 0.500000 0.000000 0.000000
O O15 0.289449 0.788623 0.499612
O O16 0.023541 0.692471 0.485470
O O17 0.000000 0.500000 0.500000
#
# Coordination Sequence:
#
# PCOD9085873 Si02
#       8
#     2   2   2   2   2   2   2   2
#     4  10  24  43  65  90 119 171 208 261 310 354
#     4  10  20  36  59  94 122 164 202 244 316 382
#     4  11  22  41  66  90 130 158 209 262 306 361
#     4  11  22  40  64  91 127 161 205 260 304 375
#     4  12  21  38  65  98 126 163 206 250 312 383
#     4  10  19  35  64  83 129 158 201 253 307 374
#     4  12  21  37  61  96 127 167 197 250 326 367
#     4  10  23  42  65  90 118 167 219 247 312 364
#
# _framework density 22.761939000000002
#
# number of rings (size 3 to 8) (size 9 to 14) (size 15 to 20)
#    0.000    1.250    5.000    1.500    0.000    1.000 
#    0.000    6.875    0.000    0.000    0.000    0.000 
#    0.000    0.000    0.000    0.000    0.000    0.000 
#
# Total GULP energy -89559.151191 kJ/mol
# GULP energy per Si atom -5597.446949 kJ/mol
# Density = 2.271013 g / cm^3
# Si number density = 22.761939 Si / 1000 Ang^3
#
#
#
# Elastic Constant Matrix: (Units=GPa)
#
#
# Indices 1 2 3 4 5 6 
#
# 1 61.6991 8.7996 44.7558 -9.5609 9.4968 -8.1054
# 2 8.7996 47.3093 9.9147 -11.4330 6.0798 -0.6105
# 3 44.7558 9.9147 162.3042 -8.3206 26.8341 -13.6577
# 4 -9.5609 -11.4330 -8.3206 29.1460 -1.7264 3.7974
# 5 9.4968 6.0798 26.8341 -1.7264 28.7531 -4.1177
# 6 -8.1054 -0.6105 -13.6577 3.7974 -4.1177 29.3695
#
#
#
# Elastic Compliance Matrix: (Units=1/GPa)
#
#
# Indices 1 2 3 4 5 6 
#
# 1 0.021415 -0.001622 -0.005135 0.004491 -0.001277 0.002729
# 2 -0.001622 0.024117 -0.000008 0.008894 -0.004266 -0.001698
# 3 -0.005135 -0.000008 0.008765 0.000217 -0.006217 0.001759
# 4 0.004491 0.008894 0.000217 0.039734 -0.001733 -0.003855
# 5 -0.001277 -0.004266 -0.006217 -0.001733 0.042203 0.002809
# 6 0.002729 -0.001698 0.001759 -0.003855 0.002809 0.036477
#
#
# Mechanical properties :
#
#
# Convention : Reuss Voigt Hill
#
# Bulk Modulus (GPa) = 24.52991 44.25032 34.39012
# Shear Modulus (GPa) = 25.02138 31.30988 28.16563
#
# Velocity S-wave (km/s) = 3.31911 3.71285 3.52149
# Velocity P-wave (km/s) = 5.04864 6.15329 5.62813
#
# Compressibility (1/GPa) = 0.04076655
#
# Stress axis : x y z
#
# Youngs Moduli (GPa) = 46.69608 41.46529 114.09260
#
# Poissons Ratio (x) = 0.06727 0.58588
# Poissons Ratio (y) = 0.07576 0.00086
# Poissons Ratio (z) = 0.23979 0.00031
#
# Static dielectric constant tensor:
#      x y z
#    x 1.871030 0.009410 -0.003220 
#    y 0.009410 1.840850 -0.026190 
#    z -0.003220 -0.026190 1.830860 
# 
# From -- ./inp_files/589657.got.cif
#   From: 2010.05.17/outbox.cif.g08.bks.cpg/sg2_295_cif.got.tgz:589657.got - 2010.06.03 11:33:40.
