data_PCOD9085833
_publ_section_title
;
Structure prediction by ZEFSAII (Michael W. Deem and Ramdas Pophale) SiO2 
 PCOD9085833
Probable space group: P -1
;
_chemical_formula_sum "Si O2"
_cell_formula_units_Z 12
_cell_length_a 12.763143
_cell_length_b 25.134253
_cell_length_c 9.072914
_cell_angle_alpha 30.073015
_cell_angle_beta 144.565703
_cell_angle_gamma 159.383639
_cell_volume 513.349284
_symmetry_space_group_name_H-M "P -1"
_symmetry_group_IT_number 2
_symmetry_cell_setting 'triclinic'
loop_
_space_group_symop_operation_xyz
x,y,z
-x,-y,-z
loop_
_atom_site_type_symbol
_atom_site_label
_atom_site_fract_x
_atom_site_fract_y
_atom_site_fract_z
Si Si1 0.126835 0.630080 0.461526
Si Si2 0.223366 0.352408 0.867830
Si Si3 0.247266 0.325581 0.487121
Si Si4 0.777298 0.468108 0.920525
Si Si5 0.883187 0.855341 0.510484
Si Si6 0.682757 0.959570 0.176356
O O1 0.345648 0.817922 0.181958
O O2 0.000000 0.500000 0.500000
O O3 0.863703 0.569624 0.381561
O O4 0.263704 0.618087 0.770589
O O5 0.505247 0.489636 0.759956
O O6 0.276277 0.308146 0.180082
O O7 0.914415 0.157650 0.918359
O O8 0.454843 0.342839 0.778160
O O9 0.090452 0.350072 0.334375
O O10 0.073723 0.174260 0.529839
O O11 0.000000 0.500000 0.000000
O O12 0.696658 0.875756 0.268113
O O13 0.171971 0.011945 0.568834
#
# Coordination Sequence:
#
# PCOD9085833 Si02
#       6
#     2   2   2   2   2   2
#     4  12  22  38  64  91 125 164 213 258 305 370
#     4  10  19  35  63  93 124 155 205 259 307 358
#     4  11  21  41  67  85 128 169 205 254 309 372
#     4  11  25  41  61  95 126 162 215 254 306 371
#     4   9  19  37  60  94 122 158 209 248 315 362
#     4   9  21  35  60  97 125 154 211 260 306 361
#
# _framework density 23.375896000000001
#
# number of rings (size 3 to 8) (size 9 to 14) (size 15 to 20)
#    1.000    0.667    1.667    4.000    0.000    0.000 
#    0.000    0.833    0.000    3.000    0.000    0.000 
#    0.000    0.000    0.000    0.000    0.000    0.000 
#
# Total GULP energy -66880.079432 kJ/mol
# GULP energy per Si atom -5573.339953 kJ/mol
# Density = 2.332269 g / cm^3
# Si number density = 23.375896 Si / 1000 Ang^3
#
#
#
# Elastic Constant Matrix: (Units=GPa)
#
#
# Indices 1 2 3 4 5 6 
#
# 1 122.6442 30.2720 33.2276 -1.0589 37.8128 -22.3705
# 2 30.2720 55.6458 13.1019 -10.1379 2.7362 -13.8606
# 3 33.2276 13.1019 86.7630 9.4259 11.5697 -11.8290
# 4 -1.0589 -10.1379 9.4259 20.9954 0.1320 0.8927
# 5 37.8128 2.7362 11.5697 0.1320 41.4372 -2.7173
# 6 -22.3705 -13.8606 -11.8290 0.8927 -2.7173 40.5638
#
#
#
# Elastic Compliance Matrix: (Units=1/GPa)
#
#
# Indices 1 2 3 4 5 6 
#
# 1 0.014889 -0.005984 -0.002405 -0.001181 -0.012210 0.004673
# 2 -0.005984 0.025156 -0.002954 0.012951 0.004877 0.004476
# 3 -0.002405 -0.002954 0.014210 -0.007998 -0.001429 0.001888
# 4 -0.001181 0.012951 -0.007998 0.057386 0.002295 0.000332
# 5 -0.012210 0.004877 -0.001429 0.002295 0.035136 -0.003181
# 6 0.004673 0.004476 0.001888 0.000332 -0.003181 0.029089
#
#
# Mechanical properties :
#
#
# Convention : Reuss Voigt Hill
#
# Bulk Modulus (GPa) = 31.67702 46.47290 39.07496
# Shear Modulus (GPa) = 23.91490 33.16271 28.53881
#
# Velocity S-wave (km/s) = 3.20200 3.77061 3.49788
# Velocity P-wave (km/s) = 5.22024 6.23543 5.75028
#
# Compressibility (1/GPa) = 0.03156862
#
# Stress axis : x y z
#
# Youngs Moduli (GPa) = 67.16411 39.75140 70.37500
#
# Poissons Ratio (x) = 0.23789 0.16923
# Poissons Ratio (y) = 0.40193 0.20789
# Poissons Ratio (z) = 0.16151 0.11743
#
# Static dielectric constant tensor:
#      x y z
#    x 1.954180 -0.027150 -0.000530 
#    y -0.027150 1.963830 0.005080 
#    z -0.000530 0.005080 1.893310 
# 
# From -- ./inp_files/285117.got.cif
#   From: 2010.05.17/outbox.cif.g08.bks.cpg/sg2_143_cif.got.tgz:285117.got - 2010.06.03 11:33:40.
