data_PCOD9085930
_publ_section_title
;
Structure prediction by ZEFSAII (Michael W. Deem and Ramdas Pophale) SiO2 
 PCOD9085930
Probable space group: P -1
;
_chemical_formula_sum "Si O2"
_cell_formula_units_Z 16
_cell_length_a 11.242457
_cell_length_b 9.837731
_cell_length_c 11.638710
_cell_angle_alpha 53.183230
_cell_angle_beta 48.117503
_cell_angle_gamma 58.978786
_cell_volume 752.742184
_symmetry_space_group_name_H-M "P -1"
_symmetry_group_IT_number 2
_symmetry_cell_setting 'triclinic'
loop_
_space_group_symop_operation_xyz
x,y,z
-x,-y,-z
loop_
_atom_site_type_symbol
_atom_site_label
_atom_site_fract_x
_atom_site_fract_y
_atom_site_fract_z
Si Si1 0.487912 0.329225 0.250702
Si Si2 0.233128 0.603568 0.127719
Si Si3 0.454218 0.849916 0.179686
Si Si4 0.923331 0.702692 0.653126
Si Si5 0.368917 0.031731 0.361923
Si Si6 0.116397 0.867256 0.262449
Si Si7 0.110099 0.799885 0.703871
Si Si8 0.585607 0.475048 0.331079
O O1 0.348901 0.472493 0.207040
O O2 0.456966 0.139569 0.336682
O O3 0.491318 0.363396 0.365954
O O4 0.655629 0.355435 0.069555
O O5 0.096832 0.495555 0.232016
O O6 0.168062 0.775669 0.155146
O O7 0.270418 0.845442 0.260691
O O8 0.559695 0.660903 0.192862
O O9 0.475587 0.904046 0.269573
O O10 0.500000 0.000000 0.000000
O O11 0.743078 0.819821 0.718775
O O12 0.995826 0.758039 0.458540
O O13 0.029462 0.764174 0.653386
O O14 0.245239 0.920271 0.548269
O O15 0.033103 0.070358 0.202637
O O16 0.224816 0.616271 0.750921
O O17 0.500000 0.500000 0.500000
#
# Coordination Sequence:
#
# PCOD9085930 Si02
#       8
#     2   2   2   2   2   2   2   2
#     4  10  23  39  63  96 134 171 217 278 328 378
#     4  10  21  38  63  98 129 169 228 278 317 379
#     4  12  23  39  69  96 129 175 226 268 318 394
#     4  10  19  35  64  95 129 171 223 272 321 383
#     4  10  19  39  63  94 126 168 225 269 316 378
#     4  11  19  39  63  95 129 169 232 263 319 393
#     4  11  22  40  62  96 133 171 211 273 328 389
#     4  12  25  45  65  98 140 171 219 268 335 400
#
# _framework density 21.255618999999999
#
# number of rings (size 3 to 8) (size 9 to 14) (size 15 to 20)
#    0.000    1.250    5.000    1.875    3.500    0.500 
#    0.000    3.125    0.000    0.000    0.000    0.000 
#    0.000    0.000    0.000    0.000    0.000    0.000 
#
# Total GULP energy -89263.217305 kJ/mol
# GULP energy per Si atom -5578.951082 kJ/mol
# Density = 2.120724 g / cm^3
# Si number density = 21.255619 Si / 1000 Ang^3
#
#
#
# Elastic Constant Matrix: (Units=GPa)
#
#
# Indices 1 2 3 4 5 6 
#
# 1 55.1220 49.4125 25.2898 -9.6610 -5.9387 13.0361
# 2 49.4125 160.7072 31.2418 5.7699 -2.4448 -0.6315
# 3 25.2898 31.2418 55.0035 3.0424 -6.3166 15.3248
# 4 -9.6610 5.7699 3.0424 25.1924 4.0597 1.8101
# 5 -5.9387 -2.4448 -6.3166 4.0597 13.6138 -2.0987
# 6 13.0361 -0.6315 15.3248 1.8101 -2.0987 49.0562
#
#
#
# Elastic Compliance Matrix: (Units=1/GPa)
#
#
# Indices 1 2 3 4 5 6 
#
# 1 0.036781 -0.010021 -0.009756 0.017568 0.003345 -0.007361
# 2 -0.010021 0.009859 -0.001768 -0.005962 -0.001102 0.003515
# 3 -0.009756 -0.001768 0.026566 -0.007675 0.009263 -0.005050
# 4 0.017568 -0.005962 -0.007675 0.051157 -0.012962 -0.004790
# 5 0.003345 -0.001102 0.009263 -0.012962 0.082915 0.000229
# 6 -0.007361 0.003515 -0.005050 -0.004790 0.000229 0.024150
#
#
# Mechanical properties :
#
#
# Convention : Reuss Voigt Hill
#
# Bulk Modulus (GPa) = 33.20667 53.63565 43.42116
# Shear Modulus (GPa) = 17.57118 28.56507 23.06812
#
# Velocity S-wave (km/s) = 2.87829 3.66988 3.29792
# Velocity P-wave (km/s) = 5.16745 6.57615 5.91389
#
# Compressibility (1/GPa) = 0.03011443
#
# Stress axis : x y z
#
# Youngs Moduli (GPa) = 27.18778 101.43461 37.64224
#
# Poissons Ratio (x) = 1.01650 0.36725
# Poissons Ratio (y) = 0.27246 0.06656
# Poissons Ratio (z) = 0.26525 0.17935
#
# Static dielectric constant tensor:
#      x y z
#    x 1.793190 -0.030620 -0.014350 
#    y -0.030620 1.907640 -0.059920 
#    z -0.014350 -0.059920 1.884170 
# 
# From -- ./inp_files/261999.got.cif
#   From: 2010.05.17/outbox.cif.g08.bks.cpg/sg2_131_cif.got.tgz:261999.got - 2010.06.03 11:33:40.
