data_PCOD9085771
_publ_section_title
;
Structure prediction by ZEFSAII (Michael W. Deem and Ramdas Pophale) SiO2 
 PCOD9085771
Probable space group: P -1
;
_chemical_formula_sum "Si O2"
_cell_formula_units_Z 16
_cell_length_a 9.188492
_cell_length_b 11.443907
_cell_length_c 12.203254
_cell_angle_alpha 52.787896
_cell_angle_beta 60.765356
_cell_angle_gamma 42.905566
_cell_volume 693.286217
_symmetry_space_group_name_H-M "P -1"
_symmetry_group_IT_number 2
_symmetry_cell_setting 'triclinic'
loop_
_space_group_symop_operation_xyz
x,y,z
-x,-y,-z
loop_
_atom_site_type_symbol
_atom_site_label
_atom_site_fract_x
_atom_site_fract_y
_atom_site_fract_z
Si Si1 0.044032 0.175884 0.486941
Si Si2 0.455522 0.569987 0.192515
Si Si3 0.269127 0.876602 0.398684
Si Si4 0.864890 0.329380 0.917282
Si Si5 0.555138 0.811030 0.140680
Si Si6 0.052238 0.771770 0.828069
Si Si7 0.961343 0.563864 0.825331
Si Si8 0.951820 0.360559 0.632580
O O1 0.801568 0.253849 0.499025
O O2 0.065020 0.318714 0.336249
O O3 0.063062 0.193144 0.598538
O O4 0.224184 0.977422 0.473711
O O5 0.337061 0.638232 0.080095
O O6 0.303872 0.621824 0.795873
O O7 0.455564 0.730632 0.154150
O O8 0.302165 0.542649 0.332209
O O9 0.468090 0.829618 0.285568
O O10 0.070570 0.039539 0.302239
O O11 0.002560 0.295742 0.777703
O O12 0.801676 0.516472 0.896208
O O13 0.977158 0.183417 0.057784
O O14 0.806184 0.638834 0.146902
O O15 0.500000 0.000000 0.000000
O O16 0.951065 0.676922 0.869308
O O17 0.000000 0.500000 0.500000
#
# Coordination Sequence:
#
# PCOD9085771 Si02
#       8
#     2   2   2   2   2   2   2   2
#     4  10  19  39  58  86 113 160 198 243 300 344
#     4   9  21  37  62  86 119 160 200 248 291 368
#     4  10  21  37  60  85 127 150 195 257 300 350
#     4  10  19  35  63  85 117 156 197 255 287 353
#     4  11  22  40  58  90 124 157 198 251 302 353
#     4  10  20  37  58  94 115 157 202 244 308 346
#     4  10  21  36  63  89 117 157 206 245 292 365
#     4  10  19  37  62  84 120 155 206 240 294 356
#
# _framework density 23.078491
#
# number of rings (size 3 to 8) (size 9 to 14) (size 15 to 20)
#    0.750    1.250    2.500    1.500    0.000    3.500 
#    4.500    5.625    0.000    3.750    0.000    0.000 
#    0.000    0.000    0.000    0.000    0.000    0.000 
#
# Total GULP energy -89242.205353 kJ/mol
# GULP energy per Si atom -5577.637835 kJ/mol
# Density = 2.302596 g / cm^3
# Si number density = 23.078491 Si / 1000 Ang^3
#
#
#
# Elastic Constant Matrix: (Units=GPa)
#
#
# Indices 1 2 3 4 5 6 
#
# 1 93.3905 18.8990 24.2875 12.1200 2.9048 29.3298
# 2 18.8990 44.7044 20.2541 15.2159 2.9583 10.2648
# 3 24.2875 20.2541 113.1649 30.6397 4.5070 7.4189
# 4 12.1200 15.2159 30.6397 38.7266 14.3511 4.3114
# 5 2.9048 2.9583 4.5070 14.3511 50.8416 4.7556
# 6 29.3298 10.2648 7.4189 4.3114 4.7556 28.3849
#
#
#
# Elastic Compliance Matrix: (Units=1/GPa)
#
#
# Indices 1 2 3 4 5 6 
#
# 1 0.016847 -0.002113 -0.001761 -0.001741 0.001318 -0.016140
# 2 -0.002113 0.028570 -0.001856 -0.009024 0.001787 -0.006592
# 3 -0.001761 -0.001856 0.011808 -0.008697 0.001574 0.000461
# 4 -0.001741 -0.009024 -0.008697 0.040263 -0.010244 0.002936
# 5 0.001318 0.001787 0.001574 -0.010244 0.022678 -0.004662
# 6 -0.016140 -0.006592 0.000461 0.002936 -0.004662 0.054505
#
#
# Mechanical properties :
#
#
# Convention : Reuss Voigt Hill
#
# Bulk Modulus (GPa) = 21.84996 42.01567 31.93282
# Shear Modulus (GPa) = 24.82795 36.11189 30.46992
#
# Velocity S-wave (km/s) = 3.28350 3.95997 3.63750
# Velocity P-wave (km/s) = 4.88502 6.25728 5.61324
#
# Compressibility (1/GPa) = 0.04576668
#
# Stress axis : x y z
#
# Youngs Moduli (GPa) = 59.35800 35.00166 84.68508
#
# Poissons Ratio (x) = 0.07397 0.14909
# Poissons Ratio (y) = 0.12544 0.15714
# Poissons Ratio (z) = 0.10450 0.06495
#
# Static dielectric constant tensor:
#      x y z
#    x 1.918790 0.031470 -0.065790 
#    y 0.031470 1.863900 -0.007070 
#    z -0.065790 -0.007070 2.011020 
# 
# From -- ./inp_files/389714.got.cif
#   From: 2010.05.17/outbox.cif.g08.bks.cpg/sg2_195_cif.got.tgz:389714.got - 2010.06.03 11:33:40.
