data_PCOD9085887
_publ_section_title
;
Structure prediction by ZEFSAII (Michael W. Deem and Ramdas Pophale) SiO2 
 PCOD9085887
Probable space group: P -1
;
_chemical_formula_sum "Si O2"
_cell_formula_units_Z 16
_cell_length_a 23.261539
_cell_length_b 18.691785
_cell_length_c 13.244084
_cell_angle_alpha 29.720618
_cell_angle_beta 26.362980
_cell_angle_gamma 17.798196
_cell_volume 776.613320
_symmetry_space_group_name_H-M "P -1"
_symmetry_group_IT_number 2
_symmetry_cell_setting 'triclinic'
loop_
_space_group_symop_operation_xyz
x,y,z
-x,-y,-z
loop_
_atom_site_type_symbol
_atom_site_label
_atom_site_fract_x
_atom_site_fract_y
_atom_site_fract_z
Si Si1 0.836818 0.028571 0.344711
Si Si2 0.751576 0.881277 0.828308
Si Si3 0.786156 0.605583 0.671158
Si Si4 0.663014 0.054647 0.966463
Si Si5 0.151861 0.215822 0.784247
Si Si6 0.261181 0.394279 0.927148
Si Si7 0.429758 0.540815 0.443950
Si Si8 0.921025 0.904308 0.147346
O O1 0.634157 0.301117 0.359138
O O2 0.864574 0.885518 0.563634
O O3 0.028557 0.973047 0.102613
O O4 0.800028 0.994431 0.333335
O O5 0.501806 0.142869 0.887834
O O6 0.793144 0.681359 0.974993
O O7 0.790959 0.877899 0.887306
O O8 0.576126 0.797585 0.832486
O O9 0.745432 0.722979 0.485764
O O10 0.861316 0.374791 0.831196
O O11 0.000000 0.500000 0.500000
O O12 0.759374 0.929025 0.076027
O O13 0.648107 0.239200 0.745696
O O14 0.174463 0.086614 0.812617
O O15 0.904834 0.461768 0.896799
O O16 0.264793 0.554560 0.684701
O O17 0.500000 0.500000 0.500000
#
# Coordination Sequence:
#
# PCOD9085887 Si02
#       8
#     2   2   2   2   2   2   2   2
#     4  10  19  35  64  89 118 155 215 259 290 348
#     4  10  21  38  64  92 119 158 211 256 303 355
#     4  10  21  38  63  84 114 161 209 248 291 366
#     4  12  23  39  63  92 126 163 194 260 320 367
#     4  11  24  38  59  91 130 158 206 248 320 369
#     4  10  21  38  61  90 121 161 206 253 294 367
#     4  11  20  38  64  90 123 156 208 252 300 368
#     4  10  20  37  62  89 116 162 211 252 298 364
#
# _framework density 20.602273
#
# number of rings (size 3 to 8) (size 9 to 14) (size 15 to 20)
#    0.000    1.500    3.750    3.375    0.000    6.000 
#    0.000    0.625    2.750    0.000    0.000    0.000 
#    0.000    0.000    0.000    0.000    0.000    0.000 
#
# Total GULP energy -89276.136606 kJ/mol
# GULP energy per Si atom -5579.758538 kJ/mol
# Density = 2.055538 g / cm^3
# Si number density = 20.602273 Si / 1000 Ang^3
#
#
#
# Elastic Constant Matrix: (Units=GPa)
#
#
# Indices 1 2 3 4 5 6 
#
# 1 118.6746 36.0282 59.5696 -13.0624 30.6534 27.4777
# 2 36.0282 43.1668 24.5074 6.0608 9.8477 13.5769
# 3 59.5696 24.5074 171.2838 -12.3417 13.2349 10.1564
# 4 -13.0624 6.0608 -12.3417 38.0577 3.8982 8.6239
# 5 30.6534 9.8477 13.2349 3.8982 39.9333 1.7465
# 6 27.4777 13.5769 10.1564 8.6239 1.7465 33.6484
#
#
#
# Elastic Compliance Matrix: (Units=1/GPa)
#
#
# Indices 1 2 3 4 5 6 
#
# 1 0.021458 -0.010079 -0.003164 0.012743 -0.013522 -0.015065
# 2 -0.010079 0.034705 -0.002009 -0.009072 0.000856 -0.002886
# 3 -0.003164 -0.002009 0.007247 0.001357 0.000353 0.000841
# 4 0.012743 -0.009072 0.001357 0.037314 -0.010930 -0.016151
# 5 -0.013522 0.000856 0.000353 -0.010930 0.035656 0.011541
# 6 -0.015065 -0.002886 0.000841 -0.016151 0.011541 0.046472
#
#
# Mechanical properties :
#
#
# Convention : Reuss Voigt Hill
#
# Bulk Modulus (GPa) = 30.39046 63.70397 47.04721
# Shear Modulus (GPa) = 22.28910 36.52920 29.40915
#
# Velocity S-wave (km/s) = 3.29276 4.21535 3.78229
# Velocity P-wave (km/s) = 5.40734 7.39460 6.47764
#
# Compressibility (1/GPa) = 0.03290507
#
# Stress axis : x y z
#
# Youngs Moduli (GPa) = 46.60212 28.81457 137.99155
#
# Poissons Ratio (x) = 0.29042 0.43666
# Poissons Ratio (y) = 0.46970 0.27722
# Poissons Ratio (z) = 0.14747 0.05789
#
# Static dielectric constant tensor:
#      x y z
#    x 1.792210 -0.026890 0.001310 
#    y -0.026890 1.746020 -0.004490 
#    z 0.001310 -0.004490 1.791740 
# 
# From -- ./inp_files/277844.got.cif
#   From: 2010.05.17/outbox.cif.g08.bks.cpg/sg2_139_cif.got.tgz:277844.got - 2010.06.03 11:33:40.
