data_PCOD9085288
_publ_section_title
;
Structure prediction by ZEFSAII (Michael W. Deem and Ramdas Pophale) SiO2 
 PCOD9085288
Probable space group: P -1
;
_chemical_formula_sum "Si O2"
_cell_formula_units_Z 14
_cell_length_a 9.015695
_cell_length_b 13.274551
_cell_length_c 7.743278
_cell_angle_alpha 40.029592
_cell_angle_beta 108.068350
_cell_angle_gamma 110.911602
_cell_volume 555.736129
_symmetry_space_group_name_H-M "P -1"
_symmetry_group_IT_number 2
_symmetry_cell_setting 'triclinic'
loop_
_space_group_symop_operation_xyz
x,y,z
-x,-y,-z
loop_
_atom_site_type_symbol
_atom_site_label
_atom_site_fract_x
_atom_site_fract_y
_atom_site_fract_z
Si Si1 0.467032 0.773619 0.129829
Si Si2 0.920194 0.379080 0.982369
Si Si3 0.503222 0.814660 0.703076
Si Si4 0.748698 0.647067 0.464134
Si Si5 0.842464 0.765019 0.958270
Si Si6 0.040117 0.874607 0.417258
Si Si7 0.692778 0.127898 0.749907
O O1 0.565285 0.655124 0.413742
O O2 0.320154 0.803163 0.154521
O O3 0.447569 0.735719 0.970014
O O4 0.592823 0.946021 0.955360
O O5 0.874582 0.212011 0.289471
O O6 0.057047 0.351987 0.936913
O O7 0.799588 0.477769 0.723947
O O8 0.000000 0.500000 0.000000
O O9 0.680513 0.784754 0.777247
O O10 0.397073 0.776314 0.545205
O O11 0.500000 0.000000 0.500000
O O12 0.863569 0.774424 0.459499
O O13 0.790060 0.706531 0.206833
O O14 0.948340 0.942587 0.771567
O O15 0.137747 0.868869 0.281537
#
# Coordination Sequence:
#
# PCOD9085288 Si02
#       7
#     2   2   2   2   2   2   2
#     4   9  19  35  60  86 118 162 197 239 311 356
#     4  10  24  39  56  85 125 163 192 244 313 361
#     4   9  17  34  57  88 119 152 196 249 301 354
#     4  10  21  40  62  85 127 156 197 246 309 366
#     4  11  20  38  64  89 114 158 209 249 291 353
#     4  11  21  38  59  97 117 149 207 254 294 351
#     4  10  19  35  59  91 121 153 198 256 294 355
#
# _framework density 25.191813
#
# number of rings (size 3 to 8) (size 9 to 14) (size 15 to 20)
#    0.000    2.000    4.286    1.286    4.000    0.000 
#    2.571    0.714    0.000    1.714    0.000    0.000 
#    0.000    0.000    0.000    0.000    0.000    0.000 
#
# Total GULP energy -78356.537370 kJ/mol
# GULP energy per Si atom -5596.895526 kJ/mol
# Density = 2.513448 g / cm^3
# Si number density = 25.191813 Si / 1000 Ang^3
#
#
#
# Elastic Constant Matrix: (Units=GPa)
#
#
# Indices 1 2 3 4 5 6 
#
# 1 80.6031 19.6721 14.1532 -4.2977 16.0383 -24.5157
# 2 19.6721 66.7109 18.6977 -8.4169 0.9107 -16.0299
# 3 14.1532 18.6977 123.6309 -2.3085 23.0786 -6.0128
# 4 -4.2977 -8.4169 -2.3085 30.1900 -1.2518 0.3820
# 5 16.0383 0.9107 23.0786 -1.2518 43.3876 -0.6770
# 6 -24.5157 -16.0299 -6.0128 0.3820 -0.6770 44.1030
#
#
#
# Elastic Compliance Matrix: (Units=1/GPa)
#
#
# Indices 1 2 3 4 5 6 
#
# 1 0.016854 -0.002749 0.000037 0.001281 -0.006026 0.008271
# 2 -0.002749 0.018187 -0.002529 0.004516 0.002184 0.004732
# 3 0.000037 -0.002529 0.009405 -0.000190 -0.004964 0.000309
# 4 0.001281 0.004516 -0.000190 0.034548 0.000561 0.002037
# 5 -0.006026 0.002184 -0.004964 0.000561 0.027843 -0.002810
# 6 0.008271 0.004732 0.000309 0.002037 -0.002810 0.028973
#
#
# Mechanical properties :
#
#
# Convention : Reuss Voigt Hill
#
# Bulk Modulus (GPa) = 29.44291 41.77677 35.60984
# Shear Modulus (GPa) = 31.72353 38.09757 34.91055
#
# Velocity S-wave (km/s) = 3.55248 3.89305 3.72666
# Velocity P-wave (km/s) = 5.34226 6.06855 5.71695
#
# Compressibility (1/GPa) = 0.03396404
#
# Stress axis : x y z
#
# Youngs Moduli (GPa) = 59.33343 54.98580 106.32724
#
# Poissons Ratio (x) = 0.15116 -0.00398
# Poissons Ratio (y) = 0.16312 0.26890
# Poissons Ratio (z) = -0.00222 0.13906
#
# Static dielectric constant tensor:
#      x y z
#    x 2.027410 0.070140 0.032220 
#    y 0.070140 2.000110 0.015600 
#    z 0.032220 0.015600 2.037930 
# 
# From -- ./inp_files/199044.got.cif
#   From: 2010.05.17/outbox.cif.g08.bks.cpg/sg2_100_cif.got.tgz:199044.got - 2010.06.03 11:33:40.
