data_PCOD9085680
_publ_section_title
;
Structure prediction by ZEFSAII (Michael W. Deem and Ramdas Pophale) SiO2 
 PCOD9085680
Probable space group: P -1
;
_chemical_formula_sum "Si O2"
_cell_formula_units_Z 14
_cell_length_a 10.150488
_cell_length_b 8.571059
_cell_length_c 20.186029
_cell_angle_alpha 43.316470
_cell_angle_beta 142.854803
_cell_angle_gamma 108.606218
_cell_volume 565.091429
_symmetry_space_group_name_H-M "P -1"
_symmetry_group_IT_number 2
_symmetry_cell_setting 'triclinic'
loop_
_space_group_symop_operation_xyz
x,y,z
-x,-y,-z
loop_
_atom_site_type_symbol
_atom_site_label
_atom_site_fract_x
_atom_site_fract_y
_atom_site_fract_z
Si Si1 0.665754 0.140913 0.106961
Si Si2 0.887426 0.822308 0.908837
Si Si3 0.736744 0.588905 0.015153
Si Si4 0.470414 0.697931 0.641349
Si Si5 0.507984 0.807015 0.473007
Si Si6 0.014401 0.768636 0.162209
Si Si7 0.596870 0.698007 0.187671
O O1 0.831380 0.270037 0.137881
O O2 0.771759 0.814875 0.235599
O O3 0.520637 0.235170 0.091716
O O4 0.444464 0.323294 0.900592
O O5 0.783573 0.971449 0.750076
O O6 0.863327 0.072422 0.862265
O O7 0.688984 0.753462 0.877105
O O8 0.207681 0.533887 0.131537
O O9 0.949374 0.621754 0.126424
O O10 0.467695 0.704862 0.558276
O O11 0.320754 0.579899 0.651991
O O12 0.378681 0.011460 0.526883
O O13 0.735603 0.519831 0.609441
O O14 0.721056 0.023018 0.001329
#
# Coordination Sequence:
#
# PCOD9085680 Si02
#       7
#     2   2   2   2   2   2   2
#     4   9  19  34  61  91 108 167 209 238 286 354
#     4  11  21  37  63  91 120 161 192 241 310 361
#     4  10  19  35  62  88 121 154 207 241 294 356
#     4  10  22  38  61  93 123 155 192 251 302 361
#     4  11  22  36  57  99 125 151 193 244 313 357
#     4  10  21  37  58  90 123 152 191 256 296 352
#     4   9  19  38  63  86 121 156 208 241 295 355
#
# _framework density 24.774750000000001
#
# number of rings (size 3 to 8) (size 9 to 14) (size 15 to 20)
#    0.000    2.000    1.429    2.143    4.000    1.143 
#    0.000    0.000    0.000   32.571    0.000    0.000 
#    0.000    0.000    0.000    0.000    0.000    0.000 
#
# Total GULP energy -78094.050094 kJ/mol
# GULP energy per Si atom -5578.146435 kJ/mol
# Density = 2.471836 g / cm^3
# Si number density = 24.774750 Si / 1000 Ang^3
#
#
#
# Elastic Constant Matrix: (Units=GPa)
#
#
# Indices 1 2 3 4 5 6 
#
# 1 86.6667 35.7326 29.3759 -12.0911 -35.8570 4.1871
# 2 35.7326 154.5441 31.8363 -28.1288 -21.0385 28.1880
# 3 29.3759 31.8363 100.8230 -14.4926 -23.7841 -2.1683
# 4 -12.0911 -28.1288 -14.4926 49.7015 1.6222 -16.6744
# 5 -35.8570 -21.0385 -23.7841 1.6222 43.1786 -12.2523
# 6 4.1871 28.1880 -2.1683 -16.6744 -12.2523 42.4406
#
#
#
# Elastic Compliance Matrix: (Units=1/GPa)
#
#
# Indices 1 2 3 4 5 6 
#
# 1 0.020083 -0.002585 -0.000151 0.005046 0.017026 0.006625
# 2 -0.002585 0.008676 -0.001892 0.002098 -0.000432 -0.004904
# 3 -0.000151 -0.001892 0.013146 0.004460 0.007706 0.005920
# 4 0.005046 0.002098 0.004460 0.027556 0.010058 0.012066
# 5 0.017026 -0.000432 0.007706 0.010058 0.045522 0.016094
# 6 0.006625 -0.004904 0.005920 0.012066 0.016094 0.035855
#
#
# Mechanical properties :
#
#
# Convention : Reuss Voigt Hill
#
# Bulk Modulus (GPa) = 30.62856 59.54703 45.08780
# Shear Modulus (GPa) = 29.24368 43.40341 36.32355
#
# Velocity S-wave (km/s) = 3.43940 4.19014 3.83319
# Velocity P-wave (km/s) = 5.30681 6.89182 6.15059
#
# Compressibility (1/GPa) = 0.03264926
#
# Stress axis : x y z
#
# Youngs Moduli (GPa) = 49.79258 115.26542 76.06715
#
# Poissons Ratio (x) = 0.29792 0.01150
# Poissons Ratio (y) = 0.12869 0.14393
# Poissons Ratio (z) = 0.00753 0.21810
#
# Static dielectric constant tensor:
#      x y z
#    x 2.005940 0.018090 -0.022260 
#    y 0.018090 2.070110 0.055340 
#    z -0.022260 0.055340 2.040230 
# 
# From -- ./inp_files/201832.got.cif
#   From: 2010.05.17/outbox.cif.g08.bks.cpg/sg2_101_cif.got.tgz:201832.got - 2010.06.03 11:33:40.
