data_PCOD9085365
_publ_section_title
;
Structure prediction by ZEFSAII (Michael W. Deem and Ramdas Pophale) SiO2 
 PCOD9085365
Probable space group: P -1
;
_chemical_formula_sum "Si O2"
_cell_formula_units_Z 10
_cell_length_a 16.520314
_cell_length_b 10.997948
_cell_length_c 5.569601
_cell_angle_alpha 143.886734
_cell_angle_beta 39.525823
_cell_angle_gamma 140.329645
_cell_volume 349.385565
_symmetry_space_group_name_H-M "P -1"
_symmetry_group_IT_number 2
_symmetry_cell_setting 'triclinic'
loop_
_space_group_symop_operation_xyz
x,y,z
-x,-y,-z
loop_
_atom_site_type_symbol
_atom_site_label
_atom_site_fract_x
_atom_site_fract_y
_atom_site_fract_z
Si Si1 0.956331 0.224758 0.771440
Si Si2 0.332503 0.110954 0.110686
Si Si3 0.263810 0.255175 0.037148
Si Si4 0.840222 0.262251 0.607939
Si Si5 0.368830 0.674706 0.113032
O O1 0.917379 0.335219 0.799321
O O2 0.106293 0.225819 0.398296
O O3 0.834485 0.972775 0.621461
O O4 0.932974 0.289591 0.200891
O O5 0.358161 0.278797 0.092281
O O6 0.468379 0.229774 0.150104
O O7 0.342500 0.874359 0.633918
O O8 0.317418 0.454541 0.041679
O O9 0.245679 0.005315 0.595334
O O10 0.728125 0.363273 0.958565
#
# Coordination Sequence:
#
# PCOD9085365 Si02
#       5
#     2   2   2   2   2
#     4  10  21  39  62  84 118 153 189 238 289 336
#     4   9  19  36  58  86 119 152 190 239 288 338
#     4  10  19  35  60  86 115 153 194 236 285 343
#     4  10  22  39  59  87 118 151 190 239 287 337
#     4   9  19  36  59  86 117 153 193 236 286 342
#
# _framework density 28.621679
#
# number of rings (size 3 to 8) (size 9 to 14) (size 15 to 20)
#    0.000    2.800    0.000    3.600    0.000    4.800 
#    0.000    9.000    0.000    0.000    0.000    0.000 
#    0.000    0.000    0.000    0.000    0.000    0.000 
#
# Total GULP energy -55969.549253 kJ/mol
# GULP energy per Si atom -5596.954925 kJ/mol
# Density = 2.855653 g / cm^3
# Si number density = 28.621679 Si / 1000 Ang^3
#
#
#
# Elastic Constant Matrix: (Units=GPa)
#
#
# Indices 1 2 3 4 5 6 
#
# 1 210.3392 61.1438 42.2387 -20.5122 -17.7062 -12.1124
# 2 61.1438 212.6634 65.6611 -8.4663 -21.4512 -16.3159
# 3 42.2387 65.6611 109.2495 -0.3182 -27.3162 15.8396
# 4 -20.5122 -8.4663 -0.3182 56.4295 1.8130 -10.9447
# 5 -17.7062 -21.4512 -27.3162 1.8130 43.0577 1.9513
# 6 -12.1124 -16.3159 15.8396 -10.9447 1.9513 53.7377
#
#
#
# Elastic Compliance Matrix: (Units=1/GPa)
#
#
# Indices 1 2 3 4 5 6 
#
# 1 0.005759 -0.000746 -0.001932 0.002359 0.000576 0.002100
# 2 -0.000746 0.006479 -0.004032 0.001303 0.000161 0.003247
# 3 -0.001932 -0.004032 0.015131 -0.002803 0.007229 -0.006953
# 4 0.002359 0.001303 -0.002803 0.019936 -0.001264 0.005860
# 5 0.000576 0.000161 0.007229 -0.001264 0.028328 -0.003238
# 6 0.002100 0.003247 -0.006953 0.005860 -0.003238 0.023429
#
#
# Mechanical properties :
#
#
# Convention : Reuss Voigt Hill
#
# Bulk Modulus (GPa) = 71.69044 96.70435 84.19740
# Shear Modulus (GPa) = 42.68749 54.85889 48.77319
#
# Velocity S-wave (km/s) = 3.86611 4.38275 4.13251
# Velocity P-wave (km/s) = 6.71051 7.71180 7.22851
#
# Compressibility (1/GPa) = 0.01394886
#
# Stress axis : x y z
#
# Youngs Moduli (GPa) = 173.65576 154.34535 66.08895
#
# Poissons Ratio (x) = 0.11515 0.12765
# Poissons Ratio (y) = 0.12956 0.26649
# Poissons Ratio (z) = 0.33542 0.62237
#
# Static dielectric constant tensor:
#      x y z
#    x 2.280990 -0.104370 0.234730 
#    y -0.104370 2.399680 -0.091110 
#    z 0.234730 -0.091110 2.324070 
# 
# From -- ./inp_files/88057.got.cif
#   From: 2010.05.17/outbox.cif.g08.bks.cpg/sg2_45_cif.got.tgz:88057.got - 2010.06.03 11:33:40.
