data_PCOD9085099
_publ_section_title
;
Structure prediction by ZEFSAII (Michael W. Deem and Ramdas Pophale) SiO2 
 PCOD9085099
Probable space group: P -1
;
_chemical_formula_sum "Si O2"
_cell_formula_units_Z 16
_cell_length_a 16.641030
_cell_length_b 8.633780
_cell_length_c 11.257317
_cell_angle_alpha 121.473511
_cell_angle_beta 51.248033
_cell_angle_gamma 85.011259
_cell_volume 842.276669
_symmetry_space_group_name_H-M "P -1"
_symmetry_group_IT_number 2
_symmetry_cell_setting 'triclinic'
loop_
_space_group_symop_operation_xyz
x,y,z
-x,-y,-z
loop_
_atom_site_type_symbol
_atom_site_label
_atom_site_fract_x
_atom_site_fract_y
_atom_site_fract_z
Si Si1 0.967339 0.990475 0.889905
Si Si2 0.019017 0.894085 0.568837
Si Si3 0.491636 0.560505 0.672599
Si Si4 0.233166 0.081101 0.142513
Si Si5 0.269322 0.507342 0.648122
Si Si6 0.398509 0.273143 0.681321
Si Si7 0.830520 0.577265 0.867648
Si Si8 0.096420 0.472094 0.619253
O O1 0.036132 0.000171 0.712360
O O2 0.818130 0.227575 0.117833
O O3 0.025040 0.723266 0.725486
O O4 0.000000 0.000000 0.000000
O O5 0.883240 0.938302 0.742643
O O6 0.134498 0.623320 0.334932
O O7 0.000000 0.000000 0.500000
O O8 0.500000 0.500000 0.500000
O O9 0.627371 0.519280 0.551055
O O10 0.465625 0.395624 0.692374
O O11 0.371149 0.826767 0.918072
O O12 0.222017 0.199571 0.075123
O O13 0.197422 0.262188 0.352803
O O14 0.346586 0.337304 0.619453
O O15 0.174327 0.465286 0.657009
O O16 0.500000 0.000000 0.500000
O O17 0.274031 0.374034 0.920984
O O18 0.970506 0.479181 0.758348
#
# Coordination Sequence:
#
# PCOD9085099 Si02
#       8
#     2   2   2   2   2   2   2   2
#     4  10  19  35  58  90 124 158 198 249 306 363
#     4  11  19  33  57  88 121 156 206 252 299 360
#     4  10  21  38  61  83 114 160 207 249 295 358
#     4  11  20  37  62  88 119 160 206 247 300 371
#     4  10  22  39  61  87 122 159 206 249 303 367
#     4  11  24  39  61  89 119 160 207 256 300 363
#     4  11  20  34  61  88 121 155 201 249 301 367
#     4  10  21  36  61  92 119 159 196 248 317 357
#
# _framework density 18.996134000000001
#
# number of rings (size 3 to 8) (size 9 to 14) (size 15 to 20)
#    0.000    1.500    2.500    5.250    1.750    1.000 
#    0.000    1.250    0.000    1.500    0.000    0.000 
#    0.000    0.000    0.000    0.000    0.000    0.000 
#
# Total GULP energy -89086.322408 kJ/mol
# GULP energy per Si atom -5567.895150 kJ/mol
# Density = 1.895290 g / cm^3
# Si number density = 18.996134 Si / 1000 Ang^3
#
#
#
# Elastic Constant Matrix: (Units=GPa)
#
#
# Indices 1 2 3 4 5 6 
#
# 1 67.3147 33.2015 45.7175 -6.5455 4.7226 -6.2834
# 2 33.2015 121.8893 57.2281 -3.1483 -4.3129 -3.4396
# 3 45.7175 57.2281 160.5617 9.0007 3.6644 9.0847
# 4 -6.5455 -3.1483 9.0007 48.9873 1.1614 -4.0564
# 5 4.7226 -4.3129 3.6644 1.1614 26.4465 -0.5359
# 6 -6.2834 -3.4396 9.0847 -4.0564 -0.5359 23.5648
#
#
#
# Elastic Compliance Matrix: (Units=1/GPa)
#
#
# Indices 1 2 3 4 5 6 
#
# 1 0.021702 -0.002986 -0.005755 0.004535 -0.003597 0.008268
# 2 -0.002986 0.010711 -0.003213 0.001000 0.002727 0.002240
# 3 -0.005755 -0.003213 0.009566 -0.003233 -0.000807 -0.006266
# 4 0.004535 0.001000 -0.003233 0.022233 -0.001045 0.006405
# 5 -0.003597 0.002727 -0.000807 -0.001045 0.039066 0.000459
# 6 0.008268 0.002240 -0.006266 0.006405 0.000459 0.048497
#
#
# Mechanical properties :
#
#
# Convention : Reuss Voigt Hill
#
# Bulk Modulus (GPa) = 55.33423 69.11777 62.22600
# Shear Modulus (GPa) = 27.51687 34.04096 30.77892
#
# Velocity S-wave (km/s) = 3.81011 4.23779 4.02963
# Velocity P-wave (km/s) = 6.96767 7.77234 7.38098
#
# Compressibility (1/GPa) = 0.01807200
#
# Stress axis : x y z
#
# Youngs Moduli (GPa) = 46.07833 93.35794 104.53688
#
# Poissons Ratio (x) = 0.27879 0.60161
# Poissons Ratio (y) = 0.13760 0.33583
# Poissons Ratio (z) = 0.26518 0.29992
#
# Static dielectric constant tensor:
#      x y z
#    x 1.788390 0.008630 0.045250 
#    y 0.008630 1.723880 0.008190 
#    z 0.045250 0.008190 1.676900 
# 
# From -- ./inp_files/461528.got.cif
#   From: 2010.05.17/outbox.cif.g08.bks.cpg/sg2_231_cif.got.tgz:461528.got - 2010.06.03 11:33:40.
