data_PCOD9085995
_publ_section_title
;
Structure prediction by ZEFSAII (Michael W. Deem and Ramdas Pophale) SiO2 
 PCOD9085995
Probable space group: P -1
;
_chemical_formula_sum "Si O2"
_cell_formula_units_Z 16
_cell_length_a 11.656183
_cell_length_b 8.339259
_cell_length_c 14.624833
_cell_angle_alpha 95.188197
_cell_angle_beta 145.521337
_cell_angle_gamma 103.768541
_cell_volume 667.035153
_symmetry_space_group_name_H-M "P -1"
_symmetry_group_IT_number 2
_symmetry_cell_setting 'triclinic'
loop_
_space_group_symop_operation_xyz
x,y,z
-x,-y,-z
loop_
_atom_site_type_symbol
_atom_site_label
_atom_site_fract_x
_atom_site_fract_y
_atom_site_fract_z
Si Si1 0.680196 0.829726 0.154414
Si Si2 0.069278 0.609032 0.904395
Si Si3 0.331606 0.763823 0.490020
Si Si4 0.841188 0.977824 0.620478
Si Si5 0.549828 0.652055 0.260381
Si Si6 0.788790 0.440267 0.430706
Si Si7 0.222244 0.771746 0.827014
Si Si8 0.851799 0.837656 0.817782
O O1 0.658999 0.757576 0.239463
O O2 0.904563 0.851090 0.249479
O O3 0.724332 0.042664 0.183942
O O4 0.411181 0.710036 0.925505
O O5 0.226767 0.778001 0.939958
O O6 0.882349 0.407391 0.720739
O O7 0.920452 0.680227 0.862986
O O8 0.275070 0.594078 0.087401
O O9 0.337543 0.951961 0.475970
O O10 0.290157 0.747686 0.572586
O O11 0.568021 0.757110 0.635370
O O12 0.707480 0.803621 0.451531
O O13 0.908586 0.921744 0.756299
O O14 0.577306 0.470863 0.268292
O O15 0.000000 0.500000 0.500000
O O16 0.947664 0.607442 0.617586
O O17 0.000000 0.000000 0.000000
#
# Coordination Sequence:
#
# PCOD9085995 Si02
#       8
#     2   2   2   2   2   2   2   2
#     4  10  19  35  66  94 128 169 213 258 319 372
#     4  10  22  45  64  94 131 171 212 270 326 382
#     4  11  26  43  67  95 132 171 214 270 331 380
#     4  12  23  43  66  99 131 168 221 273 313 389
#     4  11  23  39  69 100 132 173 218 260 322 394
#     4  11  23  40  60  96 136 170 211 265 324 387
#     4   9  19  36  59  93 128 168 212 258 313 384
#     4  12  26  47  69  94 125 171 223 272 322 385
#
# _framework density 23.986740999999999
#
# number of rings (size 3 to 8) (size 9 to 14) (size 15 to 20)
#    0.000    1.250    2.500    3.375    1.750    3.000 
#    0.000    5.625    0.000    0.000    0.000    0.000 
#    0.000    0.000    0.000    0.000    0.000    0.000 
#
# Total GULP energy -89329.013423 kJ/mol
# GULP energy per Si atom -5583.063339 kJ/mol
# Density = 2.393215 g / cm^3
# Si number density = 23.986741 Si / 1000 Ang^3
#
#
#
# Elastic Constant Matrix: (Units=GPa)
#
#
# Indices 1 2 3 4 5 6 
#
# 1 87.9767 17.5161 38.7880 -20.1193 12.9664 -10.3539
# 2 17.5161 45.8516 22.0307 -26.0472 -11.1249 -9.7569
# 3 38.7880 22.0307 135.2162 -24.8097 18.5443 -11.5688
# 4 -20.1193 -26.0472 -24.8097 36.3244 -7.4171 9.7608
# 5 12.9664 -11.1249 18.5443 -7.4171 46.7676 -11.9084
# 6 -10.3539 -9.7569 -11.5688 9.7608 -11.9084 34.7230
#
#
#
# Elastic Compliance Matrix: (Units=1/GPa)
#
#
# Indices 1 2 3 4 5 6 
#
# 1 0.014357 -0.002972 -0.002567 0.003285 -0.002985 0.000643
# 2 -0.002972 0.052753 -0.003454 0.035671 0.023121 0.010688
# 3 -0.002567 -0.003454 0.009526 0.001958 -0.003671 -0.000372
# 4 0.003285 0.035671 0.001958 0.059459 0.016370 0.000555
# 5 -0.002985 0.023121 -0.003671 0.016370 0.034740 0.011696
# 6 0.000643 0.010688 -0.000372 0.000555 0.011696 0.035726
#
#
# Mechanical properties :
#
#
# Convention : Reuss Voigt Hill
#
# Bulk Modulus (GPa) = 17.05059 47.30157 32.17608
# Shear Modulus (GPa) = 20.48370 36.27697 28.38034
#
# Velocity S-wave (km/s) = 2.92543 3.89315 3.44345
# Velocity P-wave (km/s) = 4.30518 6.32230 5.40861
#
# Compressibility (1/GPa) = 0.05864901
#
# Stress axis : x y z
#
# Youngs Moduli (GPa) = 69.65185 18.95632 104.98069
#
# Poissons Ratio (x) = 0.05635 0.26949
# Poissons Ratio (y) = 0.20704 0.36258
# Poissons Ratio (z) = 0.17880 0.06547
#
# Static dielectric constant tensor:
#      x y z
#    x 2.043390 0.074880 -0.010520 
#    y 0.074880 1.945790 -0.009640 
#    z -0.010520 -0.009640 1.958220 
# 
# From -- ./inp_files/515722.got.cif
#   From: 2010.05.17/outbox.cif.g08.bks.cpg/sg2_258_cif.got.tgz:515722.got - 2010.06.03 11:33:40.
