data_PCOD9085458
_publ_section_title
;
Structure prediction by ZEFSAII (Michael W. Deem and Ramdas Pophale) SiO2 
 PCOD9085458
Probable space group: P -1
;
_chemical_formula_sum "Si O2"
_cell_formula_units_Z 16
_cell_length_a 15.406224
_cell_length_b 11.012242
_cell_length_c 7.379657
_cell_angle_alpha 99.670543
_cell_angle_beta 87.251974
_cell_angle_gamma 149.729383
_cell_volume 610.149476
_symmetry_space_group_name_H-M "P -1"
_symmetry_group_IT_number 2
_symmetry_cell_setting 'triclinic'
loop_
_space_group_symop_operation_xyz
x,y,z
-x,-y,-z
loop_
_atom_site_type_symbol
_atom_site_label
_atom_site_fract_x
_atom_site_fract_y
_atom_site_fract_z
Si Si1 0.334728 0.544552 0.005838
Si Si2 0.690540 0.275748 0.718571
Si Si3 0.141847 0.909589 0.591556
Si Si4 0.519868 0.475886 0.786228
Si Si5 0.270138 0.796103 0.644901
Si Si6 0.163943 0.988061 0.205541
Si Si7 0.292115 0.904046 0.042124
Si Si8 0.046809 0.045044 0.719704
O O1 0.513614 0.811672 0.962029
O O2 0.235045 0.335202 0.822337
O O3 0.234932 0.540144 0.092550
O O4 0.375924 0.520934 0.179912
O O5 0.781195 0.370814 0.537960
O O6 0.483879 0.059391 0.665961
O O7 0.699653 0.152888 0.781050
O O8 0.337285 0.210440 0.656642
O O9 0.089584 0.853791 0.372426
O O10 0.041621 0.892053 0.713028
O O11 0.176916 0.811521 0.616444
O O12 0.633902 0.715687 0.728876
O O13 0.500000 0.500000 0.000000
O O14 0.238696 0.744015 0.848329
O O15 0.172927 0.879031 0.052264
O O16 0.070597 0.001609 0.169498
O O17 0.000000 0.000000 0.500000
#
# Coordination Sequence:
#
# PCOD9085458 Si02
#       8
#     2   2   2   2   2   2   2   2
#     4  11  21  38  63  88 128 158 202 265 306 360
#     4  10  21  37  62  97 120 158 206 256 317 360
#     4  11  19  39  61  89 127 157 203 258 309 364
#     4  12  20  36  59  94 120 153 206 264 313 359
#     4  10  19  35  60  92 126 150 197 264 309 353
#     4  11  23  37  59  89 126 167 206 245 312 375
#     4  11  20  39  65  95 120 159 209 257 311 365
#     4  10  24  41  57  88 127 169 204 248 309 377
#
# _framework density 26.223085999999999
#
# number of rings (size 3 to 8) (size 9 to 14) (size 15 to 20)
#    0.000    1.250    6.250    1.875    0.000    1.500 
#    0.000    3.125    0.000    0.750    0.000    0.000 
#    0.000    0.000    0.000    0.000    0.000    0.000 
#
# Total GULP energy -89387.567740 kJ/mol
# GULP energy per Si atom -5586.722984 kJ/mol
# Density = 2.616340 g / cm^3
# Si number density = 26.223086 Si / 1000 Ang^3
#
#
#
# Elastic Constant Matrix: (Units=GPa)
#
#
# Indices 1 2 3 4 5 6 
#
# 1 160.1710 16.4510 43.7005 5.9120 -30.6548 3.0756
# 2 16.4510 53.1186 23.3754 -0.3249 -4.1964 -2.9587
# 3 43.7005 23.3754 136.7947 9.3553 -32.8861 -6.7740
# 4 5.9120 -0.3249 9.3553 33.2123 -8.1348 -4.0120
# 5 -30.6548 -4.1964 -32.8861 -8.1348 44.8562 -1.5085
# 6 3.0756 -2.9587 -6.7740 -4.0120 -1.5085 29.7575
#
#
#
# Elastic Compliance Matrix: (Units=1/GPa)
#
#
# Indices 1 2 3 4 5 6 
#
# 1 0.007533 -0.001538 -0.001209 -0.000145 0.004057 -0.001021
# 2 -0.001538 0.020784 -0.003384 0.001301 -0.001299 0.001565
# 3 -0.001209 -0.003384 0.009893 -0.000858 0.006030 0.002231
# 4 -0.000145 0.001301 -0.000858 0.032264 0.005398 0.004573
# 5 0.004057 -0.001299 0.006030 0.005398 0.030448 0.003096
# 6 -0.001021 0.001565 0.002231 0.004573 0.003096 0.035147
#
#
# Mechanical properties :
#
#
# Convention : Reuss Voigt Hill
#
# Bulk Modulus (GPa) = 38.53869 57.45979 47.99924
# Shear Modulus (GPa) = 31.85102 39.33569 35.59335
#
# Velocity S-wave (km/s) = 3.48892 3.87724 3.68819
# Velocity P-wave (km/s) = 5.56403 6.48101 6.03995
#
# Compressibility (1/GPa) = 0.02594795
#
# Stress axis : x y z
#
# Youngs Moduli (GPa) = 132.75765 48.11445 101.07709
#
# Poissons Ratio (x) = 0.07401 0.12218
# Poissons Ratio (y) = 0.20420 0.34204
# Poissons Ratio (z) = 0.16048 0.16282
#
# Static dielectric constant tensor:
#      x y z
#    x 2.181070 0.073750 -0.012210 
#    y 0.073750 2.084110 0.053830 
#    z -0.012210 0.053830 2.040210 
# 
# From -- ./inp_files/305550.got.cif
#   From: 2010.05.17/outbox.cif.g08.bks.cpg/sg2_153_cif.got.tgz:305550.got - 2010.06.03 11:33:40.
