data_PCOD9085865
_publ_section_title
;
Structure prediction by ZEFSAII (Michael W. Deem and Ramdas Pophale) SiO2 
 PCOD9085865
Probable space group: P -1
;
_chemical_formula_sum "Si O2"
_cell_formula_units_Z 16
_cell_length_a 10.427596
_cell_length_b 8.068883
_cell_length_c 20.175480
_cell_angle_alpha 141.630023
_cell_angle_beta 131.522018
_cell_angle_gamma 74.601191
_cell_volume 660.460060
_symmetry_space_group_name_H-M "P -1"
_symmetry_group_IT_number 2
_symmetry_cell_setting 'triclinic'
loop_
_space_group_symop_operation_xyz
x,y,z
-x,-y,-z
loop_
_atom_site_type_symbol
_atom_site_label
_atom_site_fract_x
_atom_site_fract_y
_atom_site_fract_z
Si Si1 0.347583 0.800262 0.600579
Si Si2 0.725651 0.706311 0.311064
Si Si3 0.675972 0.111176 0.696445
Si Si4 0.337893 0.092238 0.958379
Si Si5 0.703748 0.433594 0.682557
Si Si6 0.965958 0.142617 0.636278
Si Si7 0.189952 0.857975 0.688170
Si Si8 0.896995 0.872460 0.768735
O O1 0.540007 0.998560 0.680945
O O2 0.366016 0.867701 0.706031
O O3 0.227429 0.442320 0.419892
O O4 0.212543 0.946138 0.584096
O O5 0.867901 0.638060 0.294545
O O6 0.492156 0.470089 0.138805
O O7 0.793917 0.793880 0.437477
O O8 0.526403 0.812601 0.501696
O O9 0.873025 0.123829 0.796329
O O10 0.707326 0.404228 0.754593
O O11 0.266451 0.953312 0.817697
O O12 0.130054 0.982315 0.890485
O O13 0.500000 0.000000 0.000000
O O14 0.790379 0.751162 0.766994
O O15 0.846359 0.300315 0.669046
O O16 0.103918 0.082777 0.713282
O O17 0.000000 0.500000 0.500000
#
# Coordination Sequence:
#
# PCOD9085865 Si02
#       8
#     2   2   2   2   2   2   2   2
#     4  10  20  39  65  92 128 168 222 269 323 388
#     4  10  21  37  62  92 127 170 205 269 329 392
#     4  10  21  37  63 101 125 169 228 278 313 382
#     4  12  25  40  61  96 134 169 217 270 341 394
#     4  10  19  35  63  99 126 166 224 273 320 379
#     4  10  19  36  64  91 128 165 215 261 328 391
#     4  11  22  37  62  97 129 171 212 269 334 393
#     4  11  21  41  64  94 131 173 216 276 321 390
#
# _framework density 24.225538
#
# number of rings (size 3 to 8) (size 9 to 14) (size 15 to 20)
#    0.000    1.500    3.750    3.750    1.750    2.000 
#    0.000    3.125    0.000    1.500    0.000    0.000 
#    0.000    0.000    0.000    0.000    0.000    0.000 
#
# Total GULP energy -89151.857581 kJ/mol
# GULP energy per Si atom -5571.991099 kJ/mol
# Density = 2.417040 g / cm^3
# Si number density = 24.225538 Si / 1000 Ang^3
#
#
#
# Elastic Constant Matrix: (Units=GPa)
#
#
# Indices 1 2 3 4 5 6 
#
# 1 87.4402 2.6435 19.9305 -5.0583 7.4472 21.2117
# 2 2.6435 100.6791 29.7883 -28.6023 4.5614 8.3949
# 3 19.9305 29.7883 78.5533 -10.9622 7.9021 8.6156
# 4 -5.0583 -28.6023 -10.9622 30.6971 -3.8551 -0.0577
# 5 7.4472 4.5614 7.9021 -3.8551 26.8526 -4.5031
# 6 21.2117 8.3949 8.6156 -0.0577 -4.5031 37.4978
#
#
#
# Elastic Compliance Matrix: (Units=1/GPa)
#
#
# Indices 1 2 3 4 5 6 
#
# 1 0.014671 0.002173 -0.002718 0.002866 -0.004689 -0.008719
# 2 0.002173 0.015054 -0.003975 0.012861 -0.000774 -0.003759
# 3 -0.002718 -0.003975 0.015563 0.000993 -0.003266 -0.001539
# 4 0.002866 0.012861 0.000993 0.045700 0.002560 -0.004351
# 5 -0.004689 -0.000774 -0.003266 0.002560 0.041436 0.008556
# 6 -0.008719 -0.003759 -0.001539 -0.004351 0.008556 0.033817
#
#
# Mechanical properties :
#
#
# Convention : Reuss Voigt Hill
#
# Bulk Modulus (GPa) = 27.58872 41.26636 34.42754
# Shear Modulus (GPa) = 26.68624 33.29685 29.99154
#
# Velocity S-wave (km/s) = 3.32260 3.71138 3.52236
# Velocity P-wave (km/s) = 5.11200 5.95290 5.54840
#
# Compressibility (1/GPa) = 0.03624670
#
# Stress axis : x y z
#
# Youngs Moduli (GPa) = 68.16361 66.42860 64.25432
#
# Poissons Ratio (x) = -0.14433 0.17466
# Poissons Ratio (y) = -0.14810 0.25541
# Poissons Ratio (z) = 0.18528 0.26405
#
# Static dielectric constant tensor:
#      x y z
#    x 2.123520 0.056120 -0.026260 
#    y 0.056120 2.140920 0.056370 
#    z -0.026260 0.056370 2.106090 
# 
# From -- ./inp_files/594265.got.cif
#   From: 2010.05.17/outbox.cif.g08.bks.cpg/sg2_298_cif.got.tgz:594265.got - 2010.06.03 11:33:40.
