data_PCOD9085668
_publ_section_title
;
Structure prediction by ZEFSAII (Michael W. Deem and Ramdas Pophale) SiO2 
 PCOD9085668
Probable space group: P -1
;
_chemical_formula_sum "Si O2"
_cell_formula_units_Z 16
_cell_length_a 10.109416
_cell_length_b 14.702045
_cell_length_c 14.577938
_cell_angle_alpha 30.737725
_cell_angle_beta 144.462906
_cell_angle_gamma 126.099747
_cell_volume 597.717029
_symmetry_space_group_name_H-M "P -1"
_symmetry_group_IT_number 2
_symmetry_cell_setting 'triclinic'
loop_
_space_group_symop_operation_xyz
x,y,z
-x,-y,-z
loop_
_atom_site_type_symbol
_atom_site_label
_atom_site_fract_x
_atom_site_fract_y
_atom_site_fract_z
Si Si1 0.666440 0.479100 0.262641
Si Si2 0.374850 0.349142 0.544990
Si Si3 0.212583 0.903621 0.431024
Si Si4 0.012323 0.285953 0.177652
Si Si5 0.896809 0.313928 0.286279
Si Si6 0.482611 0.732107 0.110246
Si Si7 0.494393 0.940380 0.292791
Si Si8 0.750664 0.793655 0.924272
O O1 0.776268 0.253395 0.504500
O O2 0.637499 0.550366 0.289966
O O3 0.386987 0.553906 0.000407
O O4 0.800642 0.588298 0.179351
O O5 0.500000 0.500000 0.500000
O O6 0.408914 0.241165 0.755155
O O7 0.493703 0.223648 0.630830
O O8 0.079280 0.427248 0.301438
O O9 0.066818 0.847890 0.477867
O O10 0.486930 0.841613 0.682862
O O11 0.114849 0.118233 0.149999
O O12 0.973680 0.214217 0.318871
O O13 0.290005 0.157149 0.425952
O O14 0.774617 0.285649 0.994210
O O15 0.000000 0.500000 0.000000
O O16 0.455685 0.905027 0.877422
O O17 0.274211 0.067659 0.121943
#
# Coordination Sequence:
#
# PCOD9085668 Si02
#       8
#     2   2   2   2   2   2   2   2
#     4   9  19  36  62  88 121 146 192 248 291 349
#     4  11  23  38  58  81 117 157 199 238 286 360
#     4  10  19  35  62  87 123 147 189 249 293 345
#     4  10  20  34  58  89 112 144 194 245 289 348
#     4   9  19  35  56  84 116 148 192 238 290 342
#     4  10  20  36  58  82 115 159 187 236 303 339
#     4  10  21  37  58  82 120 145 193 247 289 352
#     4   9  19  33  57  94 112 149 188 235 304 341
#
# _framework density 26.768519000000001
#
# number of rings (size 3 to 8) (size 9 to 14) (size 15 to 20)
#    0.000    2.250    0.000    4.500    5.250    2.000 
#    0.000    0.625   11.000    1.500    0.000    0.000 
#    0.000    0.000    0.000    0.000    0.000    0.000 
#
# Total GULP energy -89422.680524 kJ/mol
# GULP energy per Si atom -5588.917533 kJ/mol
# Density = 2.670759 g / cm^3
# Si number density = 26.768519 Si / 1000 Ang^3
#
#
#
# Elastic Constant Matrix: (Units=GPa)
#
#
# Indices 1 2 3 4 5 6 
#
# 1 84.8929 36.8407 20.5693 -12.1602 -27.7127 -4.7156
# 2 36.8407 111.6312 27.1012 -16.2770 -4.3657 -3.0756
# 3 20.5693 27.1012 66.7431 -8.5425 -23.7839 6.1022
# 4 -12.1602 -16.2770 -8.5425 49.8932 1.2613 -4.1019
# 5 -27.7127 -4.3657 -23.7839 1.2613 33.4708 -12.7150
# 6 -4.7156 -3.0756 6.1022 -4.1019 -12.7150 51.8628
#
#
#
# Elastic Compliance Matrix: (Units=1/GPa)
#
#
# Indices 1 2 3 4 5 6 
#
# 1 0.022019 -0.006540 0.003770 0.003885 0.022575 0.007012
# 2 -0.006540 0.012367 -0.005661 0.001591 -0.008304 -0.001105
# 3 0.003770 -0.005661 0.023281 0.002750 0.019702 0.002316
# 4 0.003885 0.001591 0.002750 0.022104 0.005796 0.003293
# 5 0.022575 -0.008304 0.019702 0.005796 0.067433 0.016233
# 6 0.007012 -0.001105 0.002316 0.003293 0.016233 0.023821
#
#
# Mechanical properties :
#
#
# Convention : Reuss Voigt Hill
#
# Bulk Modulus (GPa) = 24.50597 48.03221 36.26909
# Shear Modulus (GPa) = 24.81533 38.96244 31.88889
#
# Velocity S-wave (km/s) = 3.04803 3.81928 3.45524
# Velocity P-wave (km/s) = 4.64348 6.11815 5.43110
#
# Compressibility (1/GPa) = 0.04080638
#
# Stress axis : x y z
#
# Youngs Moduli (GPa) = 45.41437 80.85830 42.95422
#
# Poissons Ratio (x) = 0.52879 -0.16193
# Poissons Ratio (y) = 0.29699 0.24315
# Poissons Ratio (z) = -0.17121 0.45772
#
# Static dielectric constant tensor:
#      x y z
#    x 2.149280 -0.011350 0.043060 
#    y -0.011350 2.138860 0.043440 
#    z 0.043060 0.043440 2.174710 
# 
# From -- ./inp_files/475406.got.cif
#   From: 2010.05.17/outbox.cif.g08.bks.cpg/sg2_238_cif.got.tgz:475406.got - 2010.06.03 11:33:40.
