data_PCOD9085316
_publ_section_title
;
Structure prediction by ZEFSAII (Michael W. Deem and Ramdas Pophale) SiO2 
 PCOD9085316
Probable space group: P -1
;
_chemical_formula_sum "Si O2"
_cell_formula_units_Z 16
_cell_length_a 18.484210
_cell_length_b 7.739637
_cell_length_c 7.194904
_cell_angle_alpha 59.575654
_cell_angle_beta 99.348558
_cell_angle_gamma 60.328712
_cell_volume 643.366942
_symmetry_space_group_name_H-M "P -1"
_symmetry_group_IT_number 2
_symmetry_cell_setting 'triclinic'
loop_
_space_group_symop_operation_xyz
x,y,z
-x,-y,-z
loop_
_atom_site_type_symbol
_atom_site_label
_atom_site_fract_x
_atom_site_fract_y
_atom_site_fract_z
Si Si1 0.770354 0.740173 0.457069
Si Si2 0.978301 0.268391 0.789582
Si Si3 0.819387 0.854033 0.029368
Si Si4 0.470819 0.897404 0.376981
Si Si5 0.597128 0.298691 0.279705
Si Si6 0.302007 0.501170 0.934610
Si Si7 0.311335 0.538052 0.370791
Si Si8 0.099024 0.694352 0.663570
O O1 0.881860 0.544399 0.698081
O O2 0.772428 0.862502 0.200040
O O3 0.746487 0.548265 0.529206
O O4 0.680074 0.990095 0.405733
O O5 0.933835 0.335836 0.529334
O O6 0.078946 0.207083 0.869370
O O7 0.000000 0.000000 0.000000
O O8 0.852673 0.596197 0.068250
O O9 0.740274 0.160389 0.752527
O O10 0.444716 0.729032 0.538799
O O11 0.571267 0.697539 0.408888
O O12 0.500000 0.000000 0.500000
O O13 0.371025 0.179371 0.100166
O O14 0.500000 0.500000 0.000000
O O15 0.649236 0.413885 0.209796
O O16 0.302140 0.545014 0.134413
O O17 0.189142 0.680689 0.727152
O O18 0.000000 0.000000 0.500000
#
# Coordination Sequence:
#
# PCOD9085316 Si02
#       8
#     2   2   2   2   2   2   2   2
#     4  11  20  33  65  93 120 159 223 257 306 370
#     4  11  24  45  70  93 123 173 226 257 314 407
#     4  11  23  43  66  89 126 172 218 261 320 392
#     4  10  19  35  59  98 130 166 219 266 308 385
#     4  12  19  33  62  97 129 173 218 262 315 379
#     4  11  22  38  60  97 137 164 208 278 324 364
#     4  11  19  37  69  95 123 171 225 258 306 393
#     4  11  26  43  64  95 138 164 208 282 334 367
#
# _framework density 24.869167000000001
#
# number of rings (size 3 to 8) (size 9 to 14) (size 15 to 20)
#    0.000    1.000    7.500    2.250    1.750    0.000 
#    2.250    1.250    0.000   15.750    0.000    0.000 
#    0.000    0.000    0.000    0.000    0.000    0.000 
#
# Total GULP energy -89477.143336 kJ/mol
# GULP energy per Si atom -5592.321458 kJ/mol
# Density = 2.481256 g / cm^3
# Si number density = 24.869167 Si / 1000 Ang^3
#
#
#
# Elastic Constant Matrix: (Units=GPa)
#
#
# Indices 1 2 3 4 5 6 
#
# 1 201.4386 16.4097 51.2944 -16.8788 -4.5922 -18.3082
# 2 16.4097 83.3847 32.6423 -20.9456 8.2218 -19.1874
# 3 51.2944 32.6423 101.2479 -37.8254 -6.2655 -14.0183
# 4 -16.8788 -20.9456 -37.8254 55.8823 -8.5526 4.9076
# 5 -4.5922 8.2218 -6.2655 -8.5526 63.6821 -16.2644
# 6 -18.3082 -19.1874 -14.0183 4.9076 -16.2644 31.9141
#
#
#
# Elastic Compliance Matrix: (Units=1/GPa)
#
#
# Indices 1 2 3 4 5 6 
#
# 1 0.005893 0.000483 -0.002675 0.000024 0.000850 0.002926
# 2 0.000483 0.015720 -0.002918 0.003391 0.000227 0.008040
# 3 -0.002675 -0.002918 0.016710 0.009654 0.004346 0.004781
# 4 0.000024 0.003391 0.009654 0.026080 0.005287 0.004977
# 5 0.000850 0.000227 0.004346 0.005287 0.019902 0.011863
# 6 0.002926 0.008040 0.004781 0.004977 0.011863 0.045227
#
#
# Mechanical properties :
#
#
# Convention : Reuss Voigt Hill
#
# Bulk Modulus (GPa) = 35.58445 65.19600 50.39022
# Shear Modulus (GPa) = 33.52982 49.34400 41.43691
#
# Velocity S-wave (km/s) = 3.67583 4.45921 4.08633
# Velocity P-wave (km/s) = 5.68818 7.26534 6.52459
#
# Compressibility (1/GPa) = 0.02810216
#
# Stress axis : x y z
#
# Youngs Moduli (GPa) = 169.68294 63.61491 59.84266
#
# Poissons Ratio (x) = -0.03070 0.16007
# Poissons Ratio (y) = -0.08190 0.17465
# Poissons Ratio (z) = 0.45388 0.18565
#
# Static dielectric constant tensor:
#      x y z
#    x 1.949930 0.016510 0.038520 
#    y 0.016510 2.293670 0.067420 
#    z 0.038520 0.067420 2.077240 
# 
# From -- ./inp_files/327119.got.cif
#   From: 2010.05.17/outbox.cif.g08.bks.cpg/sg2_164_cif.got.tgz:327119.got - 2010.06.03 11:33:40.
