data_PCOD9085757
_publ_section_title
;
Structure prediction by ZEFSAII (Michael W. Deem and Ramdas Pophale) SiO2 
 PCOD9085757
Probable space group: P -1
;
_chemical_formula_sum "Si O2"
_cell_formula_units_Z 16
_cell_length_a 11.565198
_cell_length_b 17.339031
_cell_length_c 21.129112
_cell_angle_alpha 30.770994
_cell_angle_beta 22.199745
_cell_angle_gamma 30.377375
_cell_volume 767.968653
_symmetry_space_group_name_H-M "P -1"
_symmetry_group_IT_number 2
_symmetry_cell_setting 'triclinic'
loop_
_space_group_symop_operation_xyz
x,y,z
-x,-y,-z
loop_
_atom_site_type_symbol
_atom_site_label
_atom_site_fract_x
_atom_site_fract_y
_atom_site_fract_z
Si Si1 0.976880 0.916114 0.220882
Si Si2 0.853642 0.481135 0.020143
Si Si3 0.222777 0.152946 0.000387
Si Si4 0.413805 0.782913 0.343971
Si Si5 0.701709 0.016753 0.556696
Si Si6 0.336492 0.970287 0.886784
Si Si7 0.274553 0.650469 0.631303
Si Si8 0.733855 0.432212 0.658691
O O1 0.623140 0.938756 0.353618
O O2 0.100618 0.753928 0.312382
O O3 0.987429 0.073256 0.140611
O O4 0.270647 0.882726 0.043676
O O5 0.482614 0.537980 0.188416
O O6 0.009952 0.294850 0.053409
O O7 0.000000 0.500000 0.000000
O O8 0.963103 0.594426 0.837452
O O9 0.396267 0.239877 0.802274
O O10 0.500000 0.000000 0.000000
O O11 0.377067 0.653182 0.504200
O O12 0.612420 0.872513 0.221456
O O13 0.044635 0.905740 0.432504
O O14 0.757444 0.176209 0.443474
O O15 0.616242 0.920604 0.726924
O O16 0.000000 0.000000 0.000000
O O17 0.542053 0.526773 0.628435
O O18 0.000000 0.500000 0.500000
#
# Coordination Sequence:
#
# PCOD9085757 Si02
#       8
#     2   2   2   2   2   2   2   2
#     4  10  21  38  63  92 128 166 213 263 317 376
#     4  10  24  41  65  86 124 169 210 265 317 385
#     4  11  24  43  64  94 128 170 216 265 326 382
#     4  10  22  35  64  95 130 168 209 267 317 377
#     4  10  19  35  62  99 127 161 212 265 308 380
#     4   8  16  31  56  93 127 159 207 257 311 362
#     4  10  20  38  62  94 132 163 216 253 321 376
#     4  11  22  38  64  95 128 168 213 265 314 375
#
# _framework density 20.834182999999999
#
# number of rings (size 3 to 8) (size 9 to 14) (size 15 to 20)
#    0.000    2.000    1.250    3.000    8.750    0.500 
#    0.000    5.000    0.000    1.500    0.000    0.000 
#    0.000    0.000    0.000    0.000    0.000    0.000 
#
# Total GULP energy -89113.230839 kJ/mol
# GULP energy per Si atom -5569.576927 kJ/mol
# Density = 2.078676 g / cm^3
# Si number density = 20.834183 Si / 1000 Ang^3
#
#
#
# Elastic Constant Matrix: (Units=GPa)
#
#
# Indices 1 2 3 4 5 6 
#
# 1 60.5101 44.7723 35.2765 0.5906 1.1313 -1.7645
# 2 44.7723 110.3483 39.9487 -11.5873 0.9748 9.6698
# 3 35.2765 39.9487 122.9336 -8.6258 -18.0447 2.2514
# 4 0.5906 -11.5873 -8.6258 20.9665 -8.3661 15.3232
# 5 1.1313 0.9748 -18.0447 -8.3661 33.0300 -3.5099
# 6 -1.7645 9.6698 2.2514 15.3232 -3.5099 29.9925
#
#
#
# Elastic Compliance Matrix: (Units=1/GPa)
#
#
# Indices 1 2 3 4 5 6 
#
# 1 0.037664 -0.018339 -0.010388 -0.042097 -0.014029 0.028774
# 2 -0.018339 0.021409 0.002235 0.034316 0.007271 -0.024830
# 3 -0.010388 0.002235 0.013712 0.020028 0.011660 -0.011229
# 4 -0.042097 0.034316 0.020028 0.160057 0.042147 -0.091885
# 5 -0.014029 0.007271 0.011660 0.042147 0.045434 -0.020261
# 6 0.028774 -0.024830 -0.011229 -0.091885 -0.020261 0.088456
#
#
# Mechanical properties :
#
#
# Convention : Reuss Voigt Hill
#
# Bulk Modulus (GPa) = 50.50438 59.30966 54.90702
# Shear Modulus (GPa) = 11.72842 28.38411 20.05626
#
# Velocity S-wave (km/s) = 2.37521 3.69505 3.10604
# Velocity P-wave (km/s) = 5.64056 6.83621 6.26697
#
# Compressibility (1/GPa) = 0.01980026
#
# Stress axis : x y z
#
# Youngs Moduli (GPa) = 26.55079 46.70992 72.93053
#
# Poissons Ratio (x) = 0.85659 0.75763
# Poissons Ratio (y) = 0.48690 -0.16301
# Poissons Ratio (z) = 0.27582 -0.10440
#
# Static dielectric constant tensor:
#      x y z
#    x 3.151850 -0.206590 -0.410810 
#    y -0.206590 1.788410 0.047480 
#    z -0.410810 0.047480 2.023930 
# 
# From -- ./inp_files/595991.got.cif
#   From: 2010.05.17/outbox.cif.g08.bks.cpg/sg2_298_cif.got.tgz:595991.got - 2010.06.03 11:33:40.
