data_PCOD9085300
_publ_section_title
;
Structure prediction by ZEFSAII (Michael W. Deem and Ramdas Pophale) SiO2 
 PCOD9085300
Probable space group: P -1
;
_chemical_formula_sum "Si O2"
_cell_formula_units_Z 12
_cell_length_a 8.785828
_cell_length_b 7.777708
_cell_length_c 11.110688
_cell_angle_alpha 65.593124
_cell_angle_beta 45.880414
_cell_angle_gamma 53.598821
_cell_volume 438.696515
_symmetry_space_group_name_H-M "P -1"
_symmetry_group_IT_number 2
_symmetry_cell_setting 'triclinic'
loop_
_space_group_symop_operation_xyz
x,y,z
-x,-y,-z
loop_
_atom_site_type_symbol
_atom_site_label
_atom_site_fract_x
_atom_site_fract_y
_atom_site_fract_z
Si Si1 0.169398 0.833695 0.550443
Si Si2 0.562876 0.186629 0.987987
Si Si3 0.751270 0.323005 0.197481
Si Si4 0.421400 0.187365 0.798436
Si Si5 0.780680 0.577423 0.500408
Si Si6 0.128119 0.618182 0.146200
O O1 0.114350 0.832470 0.720964
O O2 0.411140 0.854448 0.396153
O O3 0.211501 0.612886 0.531486
O O4 0.000000 0.000000 0.500000
O O5 0.285777 0.359386 0.121561
O O6 0.660491 0.991908 0.083869
O O7 0.571967 0.130817 0.858740
O O8 0.712914 0.314516 0.878017
O O9 0.725984 0.556071 0.184166
O O10 0.489344 0.330307 0.327253
O O11 0.868633 0.291474 0.012657
O O12 0.000000 0.500000 0.500000
O O13 0.868982 0.699990 0.322781
#
# Coordination Sequence:
#
# PCOD9085300 Si02
#       6
#     2   2   2   2   2   2
#     4  11  23  41  62  87 120 164 213 257 307 362
#     4   9  17  32  58  91 126 162 196 248 304 367
#     4  10  23  41  62  89 126 164 203 256 305 360
#     4   9  17  34  60  87 120 159 202 247 305 364
#     4  11  21  38  67  95 124 162 200 247 309 370
#     4  10  19  35  59  92 129 160 202 247 303 365
#
# _framework density 27.353760000000001
#
# number of rings (size 3 to 8) (size 9 to 14) (size 15 to 20)
#    0.000    2.000    0.000    7.000    0.000    0.667 
#    0.000    8.333    0.000    6.000    0.000    0.000 
#    0.000    0.000    0.000    0.000    0.000    0.000 
#
# Total GULP energy -67133.842496 kJ/mol
# GULP energy per Si atom -5594.486875 kJ/mol
# Density = 2.729150 g / cm^3
# Si number density = 27.353760 Si / 1000 Ang^3
#
#
#
# Elastic Constant Matrix: (Units=GPa)
#
#
# Indices 1 2 3 4 5 6 
#
# 1 100.8567 29.2142 46.0593 0.2864 0.2438 -35.9242
# 2 29.2142 51.9394 38.1627 -13.8869 -5.1479 -15.0562
# 3 46.0593 38.1627 201.4063 -16.1185 12.5310 -19.8081
# 4 0.2864 -13.8869 -16.1185 28.3260 -4.5044 1.9114
# 5 0.2438 -5.1479 12.5310 -4.5044 52.3146 -4.8748
# 6 -35.9242 -15.0562 -19.8081 1.9114 -4.8748 41.0228
#
#
#
# Elastic Compliance Matrix: (Units=1/GPa)
#
#
# Indices 1 2 3 4 5 6 
#
# 1 0.016727 -0.005750 -0.001989 -0.004837 0.000522 0.011865
# 2 -0.005750 0.030369 -0.003234 0.013656 0.005390 0.004554
# 3 -0.001989 -0.003234 0.006258 0.001742 -0.001675 -0.000187
# 4 -0.004837 0.013656 0.001742 0.043781 0.004732 0.000139
# 5 0.000522 0.005390 -0.001675 0.004732 0.020813 0.003879
# 6 0.011865 0.004554 -0.000187 0.000139 0.003879 0.036803
#
#
# Mechanical properties :
#
#
# Convention : Reuss Voigt Hill
#
# Bulk Modulus (GPa) = 31.83732 64.56387 48.20059
# Shear Modulus (GPa) = 26.71433 40.38376 33.54905
#
# Velocity S-wave (km/s) = 3.12849 3.84650 3.50592
# Velocity P-wave (km/s) = 4.97135 6.58650 5.83508
#
# Compressibility (1/GPa) = 0.03140968
#
# Stress axis : x y z
#
# Youngs Moduli (GPa) = 59.78206 32.92861 159.79835
#
# Poissons Ratio (x) = 0.18932 0.31777
# Poissons Ratio (y) = 0.34372 0.51680
# Poissons Ratio (z) = 0.11888 0.10649
#
# Static dielectric constant tensor:
#      x y z
#    x 2.243610 0.003570 0.007570 
#    y 0.003570 2.527240 0.484350 
#    z 0.007570 0.484350 2.819830 
# 
# From -- ./inp_files/157443.got.cif
#   From: 2010.05.17/outbox.cif.g08.bks.cpg/sg2_79_cif.got.tgz:157443.got - 2010.06.03 11:33:40.
