data_PCOD9085782
_publ_section_title
;
Structure prediction by ZEFSAII (Michael W. Deem and Ramdas Pophale) SiO2 
 PCOD9085782
Probable space group: P -1
;
_chemical_formula_sum "Si O2"
_cell_formula_units_Z 14
_cell_length_a 7.410255
_cell_length_b 18.998917
_cell_length_c 8.392232
_cell_angle_alpha 147.126937
_cell_angle_beta 87.773690
_cell_angle_gamma 100.137484
_cell_volume 618.019738
_symmetry_space_group_name_H-M "P -1"
_symmetry_group_IT_number 2
_symmetry_cell_setting 'triclinic'
loop_
_space_group_symop_operation_xyz
x,y,z
-x,-y,-z
loop_
_atom_site_type_symbol
_atom_site_label
_atom_site_fract_x
_atom_site_fract_y
_atom_site_fract_z
Si Si1 0.891532 0.135849 0.130268
Si Si2 0.904097 0.575435 0.274382
Si Si3 0.156413 0.077580 0.525424
Si Si4 0.685092 0.707537 0.288547
Si Si5 0.695780 0.914923 0.925424
Si Si6 0.504437 0.857084 0.153047
Si Si7 0.600496 0.415634 0.216169
O O1 0.936750 0.294345 0.423935
O O2 0.100751 0.111310 0.091064
O O3 0.802488 0.045078 0.810271
O O4 0.760022 0.067174 0.150170
O O5 0.753650 0.621905 0.256230
O O6 0.792813 0.499069 0.284854
O O7 0.000000 0.500000 0.000000
O O8 0.137102 0.191346 0.616895
O O9 0.311431 0.160372 0.795992
O O10 0.000000 0.000000 0.500000
O O11 0.608652 0.816195 0.596120
O O12 0.538444 0.628142 0.015058
O O13 0.559349 0.879295 0.010258
O O14 0.500000 0.000000 0.500000
O O15 0.365442 0.715950 0.943361
O O16 0.500000 0.500000 0.500000
#
# Coordination Sequence:
#
# PCOD9085782 Si02
#       7
#     2   2   2   2   2   2   2
#     4   9  18  35  59  87 112 157 198 241 295 364
#     4  11  24  39  61  91 127 157 203 258 304 362
#     4  10  19  35  63  87 115 156 207 247 293 365
#     4   9  21  40  63  87 114 169 210 243 298 379
#     4   9  17  36  64  85 113 154 203 245 297 363
#     4  11  24  38  60  93 126 153 199 267 309 339
#     4  11  24  44  65  87 124 173 208 241 307 387
#
# _framework density 22.652998
#
# number of rings (size 3 to 8) (size 9 to 14) (size 15 to 20)
#    0.000    2.000    1.429    3.000    4.000    0.000 
#    5.143    2.857    0.000    0.000    0.000    0.000 
#    0.000    0.000    0.000    0.000    0.000    0.000 
#
# Total GULP energy -78023.351125 kJ/mol
# GULP energy per Si atom -5573.096509 kJ/mol
# Density = 2.260144 g / cm^3
# Si number density = 22.652998 Si / 1000 Ang^3
#
#
#
# Elastic Constant Matrix: (Units=GPa)
#
#
# Indices 1 2 3 4 5 6 
#
# 1 27.5423 18.6536 13.9804 -0.2415 -1.8103 6.2788
# 2 18.6536 219.9040 76.7791 20.0448 -13.5566 32.6548
# 3 13.9804 76.7791 135.7047 0.3522 8.2826 16.1093
# 4 -0.2415 20.0448 0.3522 44.5865 -8.2522 7.5634
# 5 -1.8103 -13.5566 8.2826 -8.2522 34.3523 -8.0250
# 6 6.2788 32.6548 16.1093 7.5634 -8.0250 18.4106
#
#
#
# Elastic Compliance Matrix: (Units=1/GPa)
#
#
# Indices 1 2 3 4 5 6 
#
# 1 0.040794 -0.001345 -0.002217 0.002695 0.000337 -0.010547
# 2 -0.001345 0.007179 -0.002971 -0.001556 0.001107 -0.008554
# 3 -0.002217 -0.002971 0.010218 0.001303 -0.004727 -0.005510
# 4 0.002695 -0.001556 0.001303 0.025137 0.003344 -0.008169
# 5 0.000337 0.001107 -0.004727 0.003344 0.035258 0.016053
# 6 -0.010547 -0.008554 -0.005510 -0.008169 0.016053 0.088259
#
#
# Mechanical properties :
#
#
# Convention : Reuss Voigt Hill
#
# Bulk Modulus (GPa) = 22.16114 66.88634 44.52374
# Shear Modulus (GPa) = 21.28078 37.71906 29.49992
#
# Velocity S-wave (km/s) = 3.06833 4.08497 3.61259
# Velocity P-wave (km/s) = 4.72832 7.19999 6.09085
#
# Compressibility (1/GPa) = 0.04512404
#
# Stress axis : x y z
#
# Youngs Moduli (GPa) = 24.51323 139.29164 97.86899
#
# Poissons Ratio (x) = 0.18733 0.21700
# Poissons Ratio (y) = 0.03297 0.29081
# Poissons Ratio (z) = 0.05435 0.41390
#
# Static dielectric constant tensor:
#      x y z
#    x 1.984470 -0.139600 -0.148800 
#    y -0.139600 2.235350 0.400110 
#    z -0.148800 0.400110 2.266410 
# 
# From -- ./inp_files/167719.got.cif
#   From: 2010.05.17/outbox.cif.g08.bks.cpg/sg2_84_cif.got.tgz:167719.got - 2010.06.03 11:33:40.
