data_PCOD9085388
_publ_section_title
;
Structure prediction by ZEFSAII (Michael W. Deem and Ramdas Pophale) SiO2 
 PCOD9085388
Probable space group: P -1
;
_chemical_formula_sum "Si O2"
_cell_formula_units_Z 16
_cell_length_a 10.778610
_cell_length_b 13.952518
_cell_length_c 20.279543
_cell_angle_alpha 30.409694
_cell_angle_beta 27.249470
_cell_angle_gamma 33.942561
_cell_volume 680.319195
_symmetry_space_group_name_H-M "P -1"
_symmetry_group_IT_number 2
_symmetry_cell_setting 'triclinic'
loop_
_space_group_symop_operation_xyz
x,y,z
-x,-y,-z
loop_
_atom_site_type_symbol
_atom_site_label
_atom_site_fract_x
_atom_site_fract_y
_atom_site_fract_z
Si Si1 0.403325 0.316184 0.050852
Si Si2 0.788760 0.050755 0.657062
Si Si3 0.282794 0.380297 0.692049
Si Si4 0.052992 0.955867 0.716480
Si Si5 0.223910 0.285621 0.294922
Si Si6 0.991488 0.069490 0.887497
Si Si7 0.973548 0.711835 0.010778
Si Si8 0.421258 0.063766 0.589979
O O1 0.422823 0.297042 0.132625
O O2 0.257962 0.539844 0.970307
O O3 0.198853 0.177524 0.214153
O O4 0.694868 0.231777 0.926208
O O5 0.474036 0.160949 0.717232
O O6 0.019792 0.142768 0.459398
O O7 0.835184 0.089843 0.689409
O O8 0.500000 0.500000 0.500000
O O9 0.988879 0.495704 0.727668
O O10 0.220935 0.389864 0.793929
O O11 0.327688 0.849469 0.605328
O O12 0.196381 0.067583 0.636273
O O13 0.909122 0.816130 0.909051
O O14 0.408031 0.164326 0.338618
O O15 0.249538 0.140232 0.692356
O O16 0.994002 0.882650 0.950985
O O17 0.000000 0.000000 0.000000
#
# Coordination Sequence:
#
# PCOD9085388 Si02
#       8
#     2   2   2   2   2   2   2   2
#     4  11  21  36  58  91 121 155 199 250 306 351
#     4  10  19  35  60  87 121 163 199 241 301 359
#     4   9  18  34  56  89 120 147 196 245 298 347
#     4   9  20  37  61  85 121 166 202 238 291 366
#     4   9  18  34  60  88 119 155 197 252 301 350
#     4  11  21  38  61  90 119 155 202 251 303 357
#     4  10  22  39  57  89 119 159 198 245 298 351
#     4   9  18  38  61  89 117 159 205 242 301 352
#
# _framework density 23.518370999999998
#
# number of rings (size 3 to 8) (size 9 to 14) (size 15 to 20)
#    0.000    2.250    2.500    0.375    0.000    1.500 
#    2.250    0.625    0.000    0.000    0.000    0.000 
#    0.000    0.000    0.000    0.000    0.000    0.000 
#
# Total GULP energy -89175.068401 kJ/mol
# GULP energy per Si atom -5573.441775 kJ/mol
# Density = 2.346484 g / cm^3
# Si number density = 23.518371 Si / 1000 Ang^3
#
#
#
# Elastic Constant Matrix: (Units=GPa)
#
#
# Indices 1 2 3 4 5 6 
#
# 1 82.0783 19.4029 14.0057 3.0267 10.5953 -7.6756
# 2 19.4029 120.3896 20.5083 15.4705 -6.4956 -3.2076
# 3 14.0057 20.5083 127.4376 28.6694 12.6597 3.4263
# 4 3.0267 15.4705 28.6694 35.7825 4.6436 1.0506
# 5 10.5953 -6.4956 12.6597 4.6436 37.0656 -2.2706
# 6 -7.6756 -3.2076 3.4263 1.0506 -2.2706 18.2578
#
#
#
# Elastic Compliance Matrix: (Units=1/GPa)
#
#
# Indices 1 2 3 4 5 6 
#
# 1 0.013836 -0.002236 -0.001164 0.001068 -0.003770 0.005112
# 2 -0.002236 0.009489 -0.000794 -0.003727 0.003131 0.001480
# 3 -0.001164 -0.000794 0.010035 -0.007206 -0.002478 -0.002405
# 4 0.001068 -0.003727 -0.007206 0.035674 -0.003045 -0.001285
# 5 -0.003770 0.003131 -0.002478 -0.003045 0.030038 0.003341
# 6 0.005112 0.001480 -0.002405 -0.001285 0.003341 0.058121
#
#
# Mechanical properties :
#
#
# Convention : Reuss Voigt Hill
#
# Bulk Modulus (GPa) = 40.04399 48.63768 44.34084
# Shear Modulus (GPa) = 28.75133 36.62042 32.68587
#
# Velocity S-wave (km/s) = 3.50023 3.95029 3.73205
# Velocity P-wave (km/s) = 5.77920 6.44453 6.12091
#
# Compressibility (1/GPa) = 0.02497254
#
# Stress axis : x y z
#
# Youngs Moduli (GPa) = 72.27502 105.38204 99.65513
#
# Poissons Ratio (x) = 0.23565 0.11600
# Poissons Ratio (y) = 0.16162 0.07909
# Poissons Ratio (z) = 0.08413 0.08363
#
# Static dielectric constant tensor:
#      x y z
#    x 1.912380 0.005030 -0.020710 
#    y 0.005030 1.934130 0.020150 
#    z -0.020710 0.020150 1.991710 
# 
# From -- ./inp_files/595609.got.cif
#   From: 2010.05.17/outbox.cif.g08.bks.cpg/sg2_298_cif.got.tgz:595609.got - 2010.06.03 11:33:40.
