data_PCOD9085117
_publ_section_title
;
Structure prediction by ZEFSAII (Michael W. Deem and Ramdas Pophale) SiO2 
 PCOD9085117
Probable space group: P -1
;
_chemical_formula_sum "Si O2"
_cell_formula_units_Z 16
_cell_length_a 19.187608
_cell_length_b 7.893902
_cell_length_c 11.576108
_cell_angle_alpha 100.201777
_cell_angle_beta 38.304876
_cell_angle_gamma 75.135353
_cell_volume 814.363242
_symmetry_space_group_name_H-M "P -1"
_symmetry_group_IT_number 2
_symmetry_cell_setting 'triclinic'
loop_
_space_group_symop_operation_xyz
x,y,z
-x,-y,-z
loop_
_atom_site_type_symbol
_atom_site_label
_atom_site_fract_x
_atom_site_fract_y
_atom_site_fract_z
Si Si1 0.588648 0.811964 0.961603
Si Si2 0.864499 0.761457 0.681302
Si Si3 0.117619 0.447942 0.939127
Si Si4 0.885629 0.856718 0.914500
Si Si5 0.698643 0.913135 0.498228
Si Si6 0.825451 0.126124 0.229481
Si Si7 0.217288 0.651539 0.471833
Si Si8 0.102216 0.130641 0.594207
O O1 0.721179 0.794973 0.836665
O O2 0.657299 0.573738 0.785854
O O3 0.469793 0.892902 0.226246
O O4 0.500000 0.000000 0.000000
O O5 0.836421 0.892095 0.851454
O O6 0.911178 0.829525 0.519178
O O7 0.000000 0.500000 0.500000
O O8 0.266318 0.286737 0.650801
O O9 0.136512 0.296909 0.002620
O O10 0.000000 0.500000 0.000000
O O11 0.048575 0.686448 0.115357
O O12 0.062541 0.705398 0.670183
O O13 0.810866 0.087487 0.110503
O O14 0.771219 0.002929 0.346815
O O15 0.790838 0.826018 0.487606
O O16 0.749868 0.344969 0.434763
O O17 0.000000 0.000000 0.000000
O O18 0.178393 0.874540 0.492656
#
# Coordination Sequence:
#
# PCOD9085117 Si02
#       8
#     2   2   2   2   2   2   2   2
#     4  12  24  41  60  92 127 169 207 251 317 378
#     4  12  22  39  64  87 127 169 209 255 308 372
#     4   9  17  32  59  85 119 153 206 256 293 362
#     4  10  19  37  59  89 119 159 206 260 299 364
#     4   9  19  35  58  90 120 160 207 254 301 366
#     4   8  17  35  60  90 117 156 201 259 303 354
#     4  10  21  36  62  91 123 157 209 262 309 361
#     4  10  19  35  58  94 120 156 207 260 309 356
#
# _framework density 19.647252999999999
#
# number of rings (size 3 to 8) (size 9 to 14) (size 15 to 20)
#    0.000    2.000    3.750    0.750    1.750    2.500 
#    0.000    2.500    0.000    0.750    0.000    0.000 
#    0.000    0.000    0.000    0.000    0.000    0.000 
#
# Total GULP energy -89121.956856 kJ/mol
# GULP energy per Si atom -5570.122303 kJ/mol
# Density = 1.960254 g / cm^3
# Si number density = 19.647253 Si / 1000 Ang^3
#
#
#
# Elastic Constant Matrix: (Units=GPa)
#
#
# Indices 1 2 3 4 5 6 
#
# 1 115.7929 32.3430 54.4751 4.4022 38.3679 -7.2676
# 2 32.3430 88.1854 47.6242 4.4849 18.6401 -3.5101
# 3 54.4751 47.6242 161.6294 13.7244 38.0800 6.7319
# 4 4.4022 4.4849 13.7244 27.0982 4.9841 5.3478
# 5 38.3679 18.6401 38.0800 4.9841 46.5914 -3.1501
# 6 -7.2676 -3.5101 6.7319 5.3478 -3.1501 18.0276
#
#
#
# Elastic Compliance Matrix: (Units=1/GPa)
#
#
# Indices 1 2 3 4 5 6 
#
# 1 0.013074 -0.001749 -0.002185 -0.000128 -0.007970 0.004392
# 2 -0.001749 0.014241 -0.003406 -0.000800 -0.001160 0.003374
# 3 -0.002185 -0.003406 0.009417 -0.001942 -0.004685 -0.005303
# 4 -0.000128 -0.000800 -0.001942 0.041040 -0.003203 -0.012216
# 5 -0.007970 -0.001160 -0.004685 -0.003203 0.033002 0.005027
# 6 0.004392 0.003374 -0.005303 -0.012216 0.005027 0.064381
#
#
# Mechanical properties :
#
#
# Convention : Reuss Voigt Hill
#
# Bulk Modulus (GPa) = 45.34946 70.49912 57.92429
# Shear Modulus (GPa) = 25.35692 33.75446 29.55569
#
# Velocity S-wave (km/s) = 3.59640 4.14940 3.88276
# Velocity P-wave (km/s) = 6.35432 7.67574 7.04608
#
# Compressibility (1/GPa) = 0.02205098
#
# Stress axis : x y z
#
# Youngs Moduli (GPa) = 76.48702 70.22135 106.19438
#
# Poissons Ratio (x) = 0.12281 0.23208
# Poissons Ratio (y) = 0.13376 0.36169
# Poissons Ratio (z) = 0.16716 0.23917
#
# Static dielectric constant tensor:
#      x y z
#    x 1.710170 0.024990 0.045200 
#    y 0.024990 1.751720 -0.008170 
#    z 0.045200 -0.008170 1.750000 
# 
# From -- ./inp_files/254562.got.cif
#   From: 2010.05.17/outbox.cif.g08.bks.cpg/sg2_128_cif.got.tgz:254562.got - 2010.06.03 11:33:40.
