data_PCOD9085383
_publ_section_title
;
Structure prediction by ZEFSAII (Michael W. Deem and Ramdas Pophale) SiO2 
 PCOD9085383
Probable space group: P -1
;
_chemical_formula_sum "Si O2"
_cell_formula_units_Z 10
_cell_length_a 12.505056
_cell_length_b 9.848685
_cell_length_c 11.542203
_cell_angle_alpha 144.992352
_cell_angle_beta 32.990912
_cell_angle_gamma 145.581057
_cell_volume 398.421150
_symmetry_space_group_name_H-M "P -1"
_symmetry_group_IT_number 2
_symmetry_cell_setting 'triclinic'
loop_
_space_group_symop_operation_xyz
x,y,z
-x,-y,-z
loop_
_atom_site_type_symbol
_atom_site_label
_atom_site_fract_x
_atom_site_fract_y
_atom_site_fract_z
Si Si1 0.377547 0.291047 0.864979
Si Si2 0.110472 0.851670 0.524951
Si Si3 0.653486 0.294057 0.964930
Si Si4 0.794541 0.260974 0.378336
Si Si5 0.149028 0.954463 0.234029
O O1 0.558589 0.257160 0.599912
O O2 0.231882 0.002239 0.846689
O O3 0.500000 0.500000 0.000000
O O4 0.271853 0.429013 0.974644
O O5 0.324193 0.906361 0.291775
O O6 0.141725 0.797062 0.590977
O O7 0.945886 0.562636 0.422157
O O8 0.997222 0.042734 0.739887
O O9 0.796287 0.280458 0.934528
O O10 0.397655 0.184143 0.153499
O O11 0.000000 0.000000 0.500000
#
# Coordination Sequence:
#
# PCOD9085383 Si02
#       5
#     2   2   2   2   2
#     4  11  21  39  61  89 123 161 200 242 300 361
#     4  10  19  38  59  91 124 153 200 248 295 355
#     4  10  19  35  60  87 118 164 197 241 302 354
#     4  10  22  36  61  92 125 157 193 252 298 351
#     4   9  19  35  61  86 120 159 199 250 293 354
#
# _framework density 25.099069
#
# number of rings (size 3 to 8) (size 9 to 14) (size 15 to 20)
#    0.000    2.000    4.000    0.000    0.000    0.800 
#    0.000    1.000    0.000   24.000    0.000    0.000 
#    0.000    0.000    0.000    0.000    0.000    0.000 
#
# Total GULP energy -55780.480685 kJ/mol
# GULP energy per Si atom -5578.048068 kJ/mol
# Density = 2.504194 g / cm^3
# Si number density = 25.099069 Si / 1000 Ang^3
#
#
#
# Elastic Constant Matrix: (Units=GPa)
#
#
# Indices 1 2 3 4 5 6 
#
# 1 109.2771 13.8947 40.4051 20.8976 -36.6480 -20.3060
# 2 13.8947 86.9527 33.3959 16.1250 10.1273 1.4881
# 3 40.4051 33.3959 112.8406 -5.7580 -31.1358 0.8596
# 4 20.8976 16.1250 -5.7580 55.5633 -7.6342 -4.2865
# 5 -36.6480 10.1273 -31.1358 -7.6342 58.5288 6.2304
# 6 -20.3060 1.4881 0.8596 -4.2865 6.2304 31.9581
#
#
#
# Elastic Compliance Matrix: (Units=1/GPa)
#
#
# Indices 1 2 3 4 5 6 
#
# 1 0.014997 -0.001104 -0.003584 -0.004219 0.006285 0.007885
# 2 -0.001104 0.016468 -0.007006 -0.006235 -0.008022 -0.000552
# 3 -0.003584 -0.007006 0.014708 0.005747 0.007873 -0.003111
# 4 -0.004219 -0.006235 0.005747 0.022575 0.004480 -0.000391
# 5 0.006285 -0.008022 0.007873 0.004480 0.027241 -0.000555
# 6 0.007885 -0.000552 -0.003111 -0.000391 -0.000555 0.036466
#
#
# Mechanical properties :
#
#
# Convention : Reuss Voigt Hill
#
# Bulk Modulus (GPa) = 43.89067 53.82908 48.85988
# Shear Modulus (GPa) = 30.59278 43.96838 37.28058
#
# Velocity S-wave (km/s) = 3.49504 4.18998 3.85819
# Velocity P-wave (km/s) = 5.81481 6.70083 6.27348
#
# Compressibility (1/GPa) = 0.02278388
#
# Stress axis : x y z
#
# Youngs Moduli (GPa) = 66.68175 60.72532 67.98916
#
# Poissons Ratio (x) = 0.06706 0.24369
# Poissons Ratio (y) = 0.07363 0.47631
# Poissons Ratio (z) = 0.23901 0.42543
#
# Static dielectric constant tensor:
#      x y z
#    x 2.043710 -0.013010 0.027520 
#    y -0.013010 2.056460 -0.026540 
#    z 0.027520 -0.026540 2.044980 
# 
# From -- ./inp_files/454267.got.cif
#   From: 2010.05.17/outbox.cif.g08.bks.cpg/sg2_228_cif.got.tgz:454267.got - 2010.06.03 11:33:40.
