data_PCOD9085803
_publ_section_title
;
Structure prediction by ZEFSAII (Michael W. Deem and Ramdas Pophale) SiO2 
 PCOD9085803
Probable space group: P -1
;
_chemical_formula_sum "Si O2"
_cell_formula_units_Z 16
_cell_length_a 7.272143
_cell_length_b 11.936388
_cell_length_c 10.953831
_cell_angle_alpha 52.595673
_cell_angle_beta 102.690086
_cell_angle_gamma 117.844937
_cell_volume 665.071770
_symmetry_space_group_name_H-M "P -1"
_symmetry_group_IT_number 2
_symmetry_cell_setting 'triclinic'
loop_
_space_group_symop_operation_xyz
x,y,z
-x,-y,-z
loop_
_atom_site_type_symbol
_atom_site_label
_atom_site_fract_x
_atom_site_fract_y
_atom_site_fract_z
Si Si1 0.532471 0.648951 0.982895
Si Si2 0.163385 0.630978 0.350258
Si Si3 0.854440 0.781470 0.133500
Si Si4 0.588586 0.204003 0.502145
Si Si5 0.132414 0.714882 0.912548
Si Si6 0.740956 0.938775 0.640083
Si Si7 0.106184 0.006158 0.802871
Si Si8 0.036946 0.559975 0.762559
O O1 0.324669 0.669886 0.968094
O O2 0.654060 0.791124 0.814468
O O3 0.500000 0.500000 0.000000
O O4 0.653740 0.653514 0.122095
O O5 0.364039 0.731204 0.395781
O O6 0.000000 0.500000 0.500000
O O7 0.041984 0.735677 0.225770
O O8 0.157056 0.527538 0.299396
O O9 0.946365 0.909359 0.953512
O O10 0.778632 0.836173 0.208938
O O11 0.358206 0.132254 0.457957
O O12 0.753362 0.342261 0.348441
O O13 0.654104 0.061855 0.589327
O O14 0.033669 0.680559 0.785293
O O15 0.204792 0.890097 0.853166
O O16 0.967297 0.587334 0.063112
O O17 0.983315 0.021373 0.656465
#
# Coordination Sequence:
#
# PCOD9085803 Si02
#       8
#     2   2   2   2   2   2   2   2
#     4  11  24  38  65  94 124 154 212 262 305 367
#     4  10  19  35  63  89 121 164 204 248 298 374
#     4  10  20  38  59  93 120 158 212 250 302 366
#     4  10  20  38  63  87 128 164 209 247 300 377
#     4  11  22  39  62  91 129 160 201 264 313 359
#     4  10  21  37  61  94 116 160 210 253 301 363
#     4  10  21  37  62  89 123 160 208 257 305 362
#     4  10  21  36  60  94 117 166 205 246 314 362
#
# _framework density 24.057554
#
# number of rings (size 3 to 8) (size 9 to 14) (size 15 to 20)
#    0.000    1.750    3.750    0.750    7.000    0.500 
#    0.000    0.625    0.000    3.750    0.000    0.000 
#    0.000    0.000    0.000    0.000    0.000    0.000 
#
# Total GULP energy -89260.640166 kJ/mol
# GULP energy per Si atom -5578.790010 kJ/mol
# Density = 2.400280 g / cm^3
# Si number density = 24.057554 Si / 1000 Ang^3
#
#
#
# Elastic Constant Matrix: (Units=GPa)
#
#
# Indices 1 2 3 4 5 6 
#
# 1 60.9108 59.0478 16.2747 22.5298 8.4021 -14.8680
# 2 59.0478 214.4298 50.5426 49.7790 11.8394 -3.4570
# 3 16.2747 50.5426 68.6162 24.4470 9.7012 4.2937
# 4 22.5298 49.7790 24.4470 45.5858 3.9372 12.1296
# 5 8.4021 11.8394 9.7012 3.9372 28.3431 3.9689
# 6 -14.8680 -3.4570 4.2937 12.1296 3.9689 24.2897
#
#
#
# Elastic Compliance Matrix: (Units=1/GPa)
#
#
# Indices 1 2 3 4 5 6 
#
# 1 0.041108 -0.004466 0.002146 -0.025903 -0.012946 0.039199
# 2 -0.004466 0.007822 -0.002900 -0.005149 -0.000451 0.001537
# 3 0.002146 -0.002900 0.019945 -0.008833 -0.005398 0.002668
# 4 -0.025903 -0.005149 -0.008833 0.056059 0.011350 -0.044876
# 5 -0.012946 -0.000451 -0.005398 0.011350 0.042326 -0.019618
# 6 0.039199 0.001537 0.002668 -0.044876 -0.019618 0.090526
#
#
# Mechanical properties :
#
#
# Convention : Reuss Voigt Hill
#
# Bulk Modulus (GPa) = 17.11332 66.18743 41.65038
# Shear Modulus (GPa) = 17.37892 34.18317 25.78104
#
# Velocity S-wave (km/s) = 2.69065 3.77356 3.27714
# Velocity P-wave (km/s) = 4.09655 6.82336 5.62761
#
# Compressibility (1/GPa) = 0.05843401
#
# Stress axis : x y z
#
# Youngs Moduli (GPa) = 24.32589 127.84619 50.13899
#
# Poissons Ratio (x) = 0.57093 -0.10758
# Poissons Ratio (y) = 0.10863 0.14542
# Poissons Ratio (z) = -0.05219 0.37080
#
# Static dielectric constant tensor:
#      x y z
#    x 1.956870 0.050040 0.013590 
#    y 0.050040 2.061460 0.011850 
#    z 0.013590 0.011850 1.918270 
# 
# From -- ./inp_files/389147.got.cif
#   From: 2010.05.17/outbox.cif.g08.bks.cpg/sg2_195_cif.got.tgz:389147.got - 2010.06.03 11:33:40.
