data_PCOD9085507
_publ_section_title
;
Structure prediction by ZEFSAII (Michael W. Deem and Ramdas Pophale) SiO2 
 PCOD9085507
Probable space group: P -1
;
_chemical_formula_sum "Si O2"
_cell_formula_units_Z 16
_cell_length_a 9.428171
_cell_length_b 16.414645
_cell_length_c 18.902708
_cell_angle_alpha 21.736586
_cell_angle_beta 122.910574
_cell_angle_gamma 134.344947
_cell_volume 710.085012
_symmetry_space_group_name_H-M "P -1"
_symmetry_group_IT_number 2
_symmetry_cell_setting 'triclinic'
loop_
_space_group_symop_operation_xyz
x,y,z
-x,-y,-z
loop_
_atom_site_type_symbol
_atom_site_label
_atom_site_fract_x
_atom_site_fract_y
_atom_site_fract_z
Si Si1 0.780963 0.956521 0.992133
Si Si2 0.121222 0.845964 0.487396
Si Si3 0.030655 0.257687 0.075245
Si Si4 0.232833 0.574741 0.373891
Si Si5 0.322096 0.160794 0.782924
Si Si6 0.065177 0.749129 0.718424
Si Si7 0.454903 0.627393 0.819819
Si Si8 0.380649 0.371323 0.290343
O O1 0.768078 0.983997 0.050208
O O2 0.569119 0.644733 0.164088
O O3 0.764406 0.195428 0.767203
O O4 0.000000 0.000000 0.000000
O O5 0.986801 0.611366 0.580963
O O6 0.062345 0.759250 0.622913
O O7 0.379491 0.037200 0.391440
O O8 0.068406 0.059512 0.284515
O O9 0.796058 0.054054 0.141171
O O10 0.073778 0.501006 0.939457
O O11 0.198378 0.432185 0.915000
O O12 0.266361 0.376166 0.587508
O O13 0.428321 0.699626 0.270112
O O14 0.837193 0.663045 0.749122
O O15 0.275091 0.062466 0.543918
O O16 0.521687 0.596876 0.785976
O O17 0.500000 0.500000 0.000000
#
# Coordination Sequence:
#
# PCOD9085507 Si02
#       8
#     2   2   2   2   2   2   2   2
#     4  12  24  37  56  85 122 155 182 228 288 341
#     4   9  19  35  58  85 109 141 190 233 274 326
#     4  10  19  35  61  84 106 144 191 229 274 329
#     4  10  21  38  61  84 112 151 195 235 272 331
#     4  10  21  38  60  85 111 150 197 234 274 330
#     4  10  20  37  59  81 112 145 180 238 280 320
#     4   9  19  37  57  79 109 142 180 230 274 325
#     4  10  22  38  54  82 117 146 184 226 281 339
#
# _framework density 22.532516000000001
#
# number of rings (size 3 to 8) (size 9 to 14) (size 15 to 20)
#    0.000    2.000    0.000    3.375    0.000    3.500 
#    0.000   13.750    0.000    0.000    0.000    0.000 
#    0.000    0.000    0.000    0.000    0.000    0.000 
#
# Total GULP energy -89318.207202 kJ/mol
# GULP energy per Si atom -5582.387950 kJ/mol
# Density = 2.248123 g / cm^3
# Si number density = 22.532516 Si / 1000 Ang^3
#
#
#
# Elastic Constant Matrix: (Units=GPa)
#
#
# Indices 1 2 3 4 5 6 
#
# 1 55.5100 0.8587 41.8293 1.9438 5.3002 8.4054
# 2 0.8587 79.6520 38.4662 -21.9904 12.3297 9.7015
# 3 41.8293 38.4662 105.9547 -25.0281 28.5518 9.3146
# 4 1.9438 -21.9904 -25.0281 33.4428 -11.3004 -3.1674
# 5 5.3002 12.3297 28.5518 -11.3004 34.8442 -5.1938
# 6 8.4054 9.7015 9.3146 -3.1674 -5.1938 20.2262
#
#
#
# Elastic Compliance Matrix: (Units=1/GPa)
#
#
# Indices 1 2 3 4 5 6 
#
# 1 0.032678 0.005758 -0.017408 -0.011313 0.002165 -0.009540
# 2 0.005758 0.018360 -0.006592 0.005655 -0.001270 -0.007604
# 3 -0.017408 -0.006592 0.024756 0.010873 -0.012139 -0.002419
# 4 -0.011313 0.005655 0.010873 0.045068 0.006268 0.005649
# 5 0.002165 -0.001270 -0.012139 0.006268 0.043396 0.017425
# 6 -0.009540 -0.007604 -0.002419 0.005649 0.017425 0.063526
#
#
# Mechanical properties :
#
#
# Convention : Reuss Voigt Hill
#
# Bulk Modulus (GPa) = 25.43930 44.82503 35.13217
# Shear Modulus (GPa) = 18.02641 28.36680 23.19660
#
# Velocity S-wave (km/s) = 2.83153 3.55199 3.21202
# Velocity P-wave (km/s) = 4.69091 6.06290 5.42049
#
# Compressibility (1/GPa) = 0.03930925
#
# Stress axis : x y z
#
# Youngs Moduli (GPa) = 30.60209 54.46585 40.39458
#
# Poissons Ratio (x) = -0.31362 0.70319
# Poissons Ratio (y) = -0.17621 0.26628
# Poissons Ratio (z) = 0.53272 0.35904
#
# Static dielectric constant tensor:
#      x y z
#    x 1.848380 0.022900 0.049780 
#    y 0.022900 1.815780 -0.019210 
#    z 0.049780 -0.019210 1.925380 
# 
# From -- ./inp_files/490823.got.cif
#   From: 2010.05.17/outbox.cif.g08.bks.cpg/sg2_246_cif.got.tgz:490823.got - 2010.06.03 11:33:40.
