data_PCOD9085647
_publ_section_title
;
Structure prediction by ZEFSAII (Michael W. Deem and Ramdas Pophale) SiO2 
 PCOD9085647
Probable space group: P -1
;
_chemical_formula_sum "Si O2"
_cell_formula_units_Z 16
_cell_length_a 12.049354
_cell_length_b 22.825844
_cell_length_c 7.339017
_cell_angle_alpha 67.833227
_cell_angle_beta 100.385311
_cell_angle_gamma 155.069601
_cell_volume 717.001327
_symmetry_space_group_name_H-M "P -1"
_symmetry_group_IT_number 2
_symmetry_cell_setting 'triclinic'
loop_
_space_group_symop_operation_xyz
x,y,z
-x,-y,-z
loop_
_atom_site_type_symbol
_atom_site_label
_atom_site_fract_x
_atom_site_fract_y
_atom_site_fract_z
Si Si1 0.886188 0.201890 0.760869
Si Si2 0.717791 0.093428 0.231765
Si Si3 0.260401 0.034278 0.607864
Si Si4 0.230573 0.374820 0.303326
Si Si5 0.856847 0.441985 0.789139
Si Si6 0.379851 0.333598 0.146542
Si Si7 0.182852 0.686174 0.313952
Si Si8 0.544238 0.287772 0.208847
O O1 0.864525 0.264280 0.738655
O O2 0.141993 0.324532 0.547554
O O3 0.584681 0.031177 0.766531
O O4 0.878063 0.165011 0.999373
O O5 0.937250 0.240490 0.260007
O O6 0.660524 0.994340 0.414899
O O7 0.504083 0.168746 0.676096
O O8 0.291229 0.109381 0.394219
O O9 0.929847 0.855536 0.777918
O O10 0.334592 0.361881 0.260739
O O11 0.459150 0.545639 0.108545
O O12 0.807827 0.343501 0.840760
O O13 0.920799 0.517115 0.543612
O O14 0.168776 0.604769 0.787561
O O15 0.593569 0.329658 0.963702
O O16 0.545570 0.355672 0.230579
#
# Coordination Sequence:
#
# PCOD9085647 Si02
#       8
#     2   2   2   2   2   2   2   2
#     4  10  19  36  61  88 114 151 184 241 296 338
#     4   9  20  37  58  89 115 143 194 241 289 339
#     4   9  19  38  54  76 119 147 182 240 272 330
#     4  10  21  38  59  82 118 154 192 237 279 336
#     4   9  19  34  57  90 107 141 187 241 294 332
#     4  10  21  37  57  82 114 157 197 225 272 349
#     4   9  18  35  56  82 121 136 181 246 288 335
#     4  10  19  35  62  82 108 150 189 231 289 339
#
# _framework density 22.315163999999999
#
# number of rings (size 3 to 8) (size 9 to 14) (size 15 to 20)
#    0.000    2.500    0.000    1.500    1.750    1.000 
#   13.500    6.250   16.500    0.000    0.000    0.000 
#    0.000    0.000    0.000    0.000    0.000    0.000 
#
# Total GULP energy -89172.270587 kJ/mol
# GULP energy per Si atom -5573.266912 kJ/mol
# Density = 2.226437 g / cm^3
# Si number density = 22.315164 Si / 1000 Ang^3
#
#
#
# Elastic Constant Matrix: (Units=GPa)
#
#
# Indices 1 2 3 4 5 6 
#
# 1 85.4297 5.5543 56.0747 -4.8695 9.7943 -10.6655
# 2 5.5543 57.2292 30.0244 -20.2111 -1.6360 -12.1118
# 3 56.0747 30.0244 140.9493 -19.4162 -1.3114 -20.2257
# 4 -4.8695 -20.2111 -19.4162 29.1020 -6.5348 3.2779
# 5 9.7943 -1.6360 -1.3114 -6.5348 26.7257 -0.7855
# 6 -10.6655 -12.1118 -20.2257 3.2779 -0.7855 22.9846
#
#
#
# Elastic Compliance Matrix: (Units=1/GPa)
#
#
# Indices 1 2 3 4 5 6 
#
# 1 0.017419 0.001478 -0.007342 -0.002881 -0.007283 0.002563
# 2 0.001478 0.027210 -0.002382 0.017624 0.005628 0.010607
# 3 -0.007342 -0.002382 0.012112 0.005646 0.004677 0.005351
# 4 -0.002881 0.017624 0.005646 0.052692 0.015470 0.005932
# 5 -0.007283 0.005628 0.004677 0.015470 0.044531 0.003017
# 6 0.002563 0.010607 0.005351 0.005932 0.003017 0.054252
#
#
# Mechanical properties :
#
#
# Convention : Reuss Voigt Hill
#
# Bulk Modulus (GPa) = 24.84500 51.87942 38.36221
# Shear Modulus (GPa) = 20.99754 28.55944 24.77849
#
# Velocity S-wave (km/s) = 3.07082 3.58134 3.33586
# Velocity P-wave (km/s) = 4.87146 6.35612 5.66266
#
# Compressibility (1/GPa) = 0.04024956
#
# Stress axis : x y z
#
# Youngs Moduli (GPa) = 57.40842 36.75179 82.56333
#
# Poissons Ratio (x) = -0.05431 0.60614
# Poissons Ratio (y) = -0.08484 0.19665
# Poissons Ratio (z) = 0.42147 0.08754
#
# Static dielectric constant tensor:
#      x y z
#    x 1.895890 0.044900 -0.001960 
#    y 0.044900 1.870980 0.004900 
#    z -0.001960 0.004900 1.912760 
# 
# From -- ./inp_files/284801.got.cif
#   From: 2010.05.17/outbox.cif.g08.bks.cpg/sg2_143_cif.got.tgz:284801.got - 2010.06.03 11:33:40.
