data_PCOD9085158
_publ_section_title
;
Structure prediction by ZEFSAII (Michael W. Deem and Ramdas Pophale) SiO2 
 PCOD9085158
Probable space group: P -1
;
_chemical_formula_sum "Si O2"
_cell_formula_units_Z 16
_cell_length_a 9.426998
_cell_length_b 13.373044
_cell_length_c 7.234511
_cell_angle_alpha 59.793824
_cell_angle_beta 96.715007
_cell_angle_gamma 104.930012
_cell_volume 761.505230
_symmetry_space_group_name_H-M "P -1"
_symmetry_group_IT_number 2
_symmetry_cell_setting 'triclinic'
loop_
_space_group_symop_operation_xyz
x,y,z
-x,-y,-z
loop_
_atom_site_type_symbol
_atom_site_label
_atom_site_fract_x
_atom_site_fract_y
_atom_site_fract_z
Si Si1 0.183782 0.119228 0.315669
Si Si2 0.720773 0.595714 0.442156
Si Si3 0.512864 0.825631 0.584292
Si Si4 0.347218 0.000621 0.881497
Si Si5 0.039362 0.257308 0.456897
Si Si6 0.224300 0.868255 0.662972
Si Si7 0.852717 0.854271 0.110862
Si Si8 0.466490 0.553580 0.746701
O O1 0.357916 0.158740 0.258707
O O2 0.148702 0.209363 0.379193
O O3 0.156375 0.982699 0.503890
O O4 0.098432 0.133377 0.103650
O O5 0.878473 0.618954 0.550602
O O6 0.732684 0.730340 0.245863
O O7 0.600516 0.556869 0.620376
O O8 0.674908 0.515113 0.329388
O O9 0.601667 0.899116 0.361536
O O10 0.376603 0.878573 0.569734
O O11 0.458071 0.688379 0.655986
O O12 0.226764 0.041892 0.947261
O O13 0.271786 0.880389 0.872405
O O14 0.500000 0.000000 0.000000
O O15 0.021811 0.163077 0.711626
O O16 0.892053 0.244036 0.330596
O O17 0.500000 0.500000 0.000000
#
# Coordination Sequence:
#
# PCOD9085158 Si02
#       8
#     2   2   2   2   2   2   2   2
#     4  11  19  36  61  83 119 160 193 233 280 343
#     4   9  20  36  56  86 111 140 190 247 281 333
#     4  11  20  38  55  90 116 147 198 243 282 343
#     4  11  20  36  56  87 123 153 192 235 282 340
#     4  10  21  39  55  84 124 153 192 240 281 351
#     4  11  22  36  56  83 127 158 186 239 288 342
#     4  10  19  35  59  83 115 151 191 236 282 340
#     4  11  20  36  65  86 107 146 197 247 297 331
#
# _framework density 21.011018
#
# number of rings (size 3 to 8) (size 9 to 14) (size 15 to 20)
#    0.750    0.750    5.000    4.125    0.000    0.500 
#    2.250    0.625    0.000    0.750    0.000    0.000 
#    0.000    0.000    0.000    0.000    0.000    0.000 
#
# Total GULP energy -89146.345149 kJ/mol
# GULP energy per Si atom -5571.646572 kJ/mol
# Density = 2.096320 g / cm^3
# Si number density = 21.011018 Si / 1000 Ang^3
#
#
#
# Elastic Constant Matrix: (Units=GPa)
#
#
# Indices 1 2 3 4 5 6 
#
# 1 49.8007 13.8806 -5.1363 2.7837 4.5874 19.1854
# 2 13.8806 124.1642 22.1745 21.2761 6.4087 32.7576
# 3 -5.1363 22.1745 78.2462 20.9044 -1.1445 3.7389
# 4 2.7837 21.2761 20.9044 28.4043 7.6745 6.4620
# 5 4.5874 6.4087 -1.1445 7.6745 20.7679 9.8488
# 6 19.1854 32.7576 3.7389 6.4620 9.8488 38.8606
#
#
#
# Elastic Compliance Matrix: (Units=1/GPa)
#
#
# Indices 1 2 3 4 5 6 
#
# 1 0.025293 0.000455 0.002794 -0.002293 0.001505 -0.013140
# 2 0.000455 0.011742 -0.000959 -0.006827 0.003369 -0.009749
# 3 0.002794 -0.000959 0.016984 -0.013402 0.006315 -0.001577
# 4 -0.002293 -0.006827 -0.013402 0.054971 -0.020438 0.004215
# 5 0.001505 0.003369 0.006315 -0.020438 0.062576 -0.016652
# 6 -0.013140 -0.009749 -0.001577 0.004215 -0.016652 0.044109
#
#
# Mechanical properties :
#
#
# Convention : Reuss Voigt Hill
#
# Bulk Modulus (GPa) = 17.06494 34.89430 25.97962
# Shear Modulus (GPa) = 21.67996 32.35939 27.01968
#
# Velocity S-wave (km/s) = 3.21571 3.92869 3.58994
# Velocity P-wave (km/s) = 4.68265 6.10108 5.43831
#
# Compressibility (1/GPa) = 0.05859968
#
# Stress axis : x y z
#
# Youngs Moduli (GPa) = 39.53694 85.16279 58.88023
#
# Poissons Ratio (x) = -0.03879 -0.16450
# Poissons Ratio (y) = -0.01801 0.05645
# Poissons Ratio (z) = -0.11046 0.08165
#
# Static dielectric constant tensor:
#      x y z
#    x 1.809840 0.087450 0.049070 
#    y 0.087450 1.843670 0.064280 
#    z 0.049070 0.064280 1.813830 
# 
# From -- ./inp_files/192040.got.cif
#   From: 2010.05.17/outbox.cif.g08.bks.cpg/sg2_97_cif.got.tgz:192040.got - 2010.06.03 11:33:40.
