data_PCOD9085552
_publ_section_title
;
Structure prediction by ZEFSAII (Michael W. Deem and Ramdas Pophale) SiO2 
 PCOD9085552
Probable space group: P -1
;
_chemical_formula_sum "Si O2"
_cell_formula_units_Z 16
_cell_length_a 9.211631
_cell_length_b 13.621636
_cell_length_c 18.868224
_cell_angle_alpha 145.097547
_cell_angle_beta 139.251885
_cell_angle_gamma 42.018973
_cell_volume 836.049703
_symmetry_space_group_name_H-M "P -1"
_symmetry_group_IT_number 2
_symmetry_cell_setting 'triclinic'
loop_
_space_group_symop_operation_xyz
x,y,z
-x,-y,-z
loop_
_atom_site_type_symbol
_atom_site_label
_atom_site_fract_x
_atom_site_fract_y
_atom_site_fract_z
Si Si1 0.420280 0.655718 0.001959
Si Si2 0.431295 0.018251 0.703647
Si Si3 0.391877 0.399764 0.458263
Si Si4 0.315235 0.087123 0.544287
Si Si5 0.004456 0.127820 0.709325
Si Si6 0.841748 0.497415 0.288929
Si Si7 0.241812 0.338206 0.000138
Si Si8 0.462327 0.528066 0.287878
O O1 0.414423 0.850844 0.145681
O O2 0.500000 0.500000 0.000000
O O3 0.196882 0.635776 0.865293
O O4 0.606765 0.629028 0.990674
O O5 0.417405 0.995353 0.601417
O O6 0.167133 0.115208 0.693108
O O7 0.519001 0.817623 0.649255
O O8 0.500000 0.500000 0.500000
O O9 0.472233 0.448407 0.593768
O O10 0.110839 0.460117 0.385125
O O11 0.267029 0.299148 0.660458
O O12 0.500000 0.000000 0.500000
O O13 0.074025 0.047542 0.415731
O O14 0.758013 0.293131 0.709291
O O15 0.165867 0.162612 0.852615
O O16 0.686150 0.499952 0.302897
O O17 0.367954 0.362186 0.133208
O O18 0.000000 0.500000 0.000000
#
# Coordination Sequence:
#
# PCOD9085552 Si02
#       8
#     2   2   2   2   2   2   2   2
#     4  10  20  37  63  91 120 153 199 258 301 357
#     4  11  23  39  61  90 126 156 203 252 307 352
#     4  12  26  40  59  86 125 171 203 243 301 370
#     4  12  21  35  61  93 120 153 204 255 297 357
#     4  10  19  35  61  87 120 150 198 256 302 344
#     4  11  23  39  62  89 124 159 202 244 313 364
#     4   8  18  32  56  85 116 152 189 241 311 347
#     4  10  20  39  59  86 118 159 199 253 300 357
#
# _framework density 19.137616999999999
#
# number of rings (size 3 to 8) (size 9 to 14) (size 15 to 20)
#    0.000    1.500    3.750    1.500    1.750    1.500 
#    0.000    0.000    0.000   13.500    0.000    0.000 
#    0.000    0.000    0.000    0.000    0.000    0.000 
#
# Total GULP energy -89197.802016 kJ/mol
# GULP energy per Si atom -5574.862626 kJ/mol
# Density = 1.909406 g / cm^3
# Si number density = 19.137617 Si / 1000 Ang^3
#
#
#
# Elastic Constant Matrix: (Units=GPa)
#
#
# Indices 1 2 3 4 5 6 
#
# 1 69.4481 24.1797 56.5445 -5.4927 6.1154 -6.4317
# 2 24.1797 56.8910 38.2378 1.0788 6.6509 0.8317
# 3 56.5445 38.2378 177.7474 -1.1623 5.9589 16.5797
# 4 -5.4927 1.0788 -1.1623 30.9419 -1.7456 9.1853
# 5 6.1154 6.6509 5.9589 -1.7456 25.4707 1.6562
# 6 -6.4317 0.8317 16.5797 9.1853 1.6562 24.7389
#
#
#
# Elastic Compliance Matrix: (Units=1/GPa)
#
#
# Indices 1 2 3 4 5 6 
#
# 1 0.023430 -0.004801 -0.007350 0.000536 -0.003344 0.011203
# 2 -0.004801 0.022336 -0.003281 -0.002395 -0.004165 0.001368
# 3 -0.007350 -0.003281 0.009477 0.001878 0.001113 -0.008924
# 4 0.000536 -0.002395 0.001878 0.037257 0.003594 -0.015112
# 5 -0.003344 -0.004165 0.001113 0.003594 0.041500 -0.005588
# 6 0.011203 0.001368 -0.008924 -0.015112 -0.005588 0.055255
#
#
# Mechanical properties :
#
#
# Convention : Reuss Voigt Hill
#
# Bulk Modulus (GPa) = 41.02030 60.22339 50.62184
# Shear Modulus (GPa) = 21.90630 28.57193 25.23912
#
# Velocity S-wave (km/s) = 3.38697 3.86809 3.63550
# Velocity P-wave (km/s) = 6.06435 7.17540 6.64315
#
# Compressibility (1/GPa) = 0.02437818
#
# Stress axis : x y z
#
# Youngs Moduli (GPa) = 42.68123 44.77122 105.51459
#
# Poissons Ratio (x) = 0.21494 0.77553
# Poissons Ratio (y) = 0.20491 0.34624
# Poissons Ratio (z) = 0.31370 0.14691
#
# Static dielectric constant tensor:
#      x y z
#    x 1.655480 -0.004840 0.004710 
#    y -0.004840 1.656790 0.035480 
#    z 0.004710 0.035480 1.753600 
# 
# From -- ./inp_files/199591.got.cif
#   From: 2010.05.17/outbox.cif.g08.bks.cpg/sg2_100_cif.got.tgz:199591.got - 2010.06.03 11:33:40.
