data_PCOD9085909
_publ_section_title
;
Structure prediction by ZEFSAII (Michael W. Deem and Ramdas Pophale) SiO2 
 PCOD9085909
Probable space group: P -1
;
_chemical_formula_sum "Si O2"
_cell_formula_units_Z 16
_cell_length_a 9.095503
_cell_length_b 21.787825
_cell_length_c 9.186560
_cell_angle_alpha 58.357819
_cell_angle_beta 47.344018
_cell_angle_gamma 35.373794
_cell_volume 773.417059
_symmetry_space_group_name_H-M "P -1"
_symmetry_group_IT_number 2
_symmetry_cell_setting 'triclinic'
loop_
_space_group_symop_operation_xyz
x,y,z
-x,-y,-z
loop_
_atom_site_type_symbol
_atom_site_label
_atom_site_fract_x
_atom_site_fract_y
_atom_site_fract_z
Si Si1 0.688866 0.819454 0.747059
Si Si2 0.354754 0.115893 0.980255
Si Si3 0.308092 0.456239 0.810308
Si Si4 0.701303 0.266674 0.247727
Si Si5 0.878635 0.963609 0.219650
Si Si6 0.641512 0.389417 0.382108
Si Si7 0.185731 0.894723 0.411985
Si Si8 0.358232 0.757455 0.999008
O O1 0.043106 0.720203 0.623317
O O2 0.468756 0.925835 0.662301
O O3 0.635825 0.872479 0.869420
O O4 0.556297 0.773523 0.897315
O O5 0.519258 0.139527 0.772528
O O6 0.018526 0.205355 0.049797
O O7 0.500000 0.000000 0.000000
O O8 0.387332 0.440091 0.606225
O O9 0.325659 0.533684 0.757232
O O10 0.546170 0.341405 0.867156
O O11 0.000000 0.500000 0.000000
O O12 0.581656 0.364503 0.301435
O O13 0.756649 0.190295 0.425029
O O14 0.562776 0.270988 0.189774
O O15 0.028235 0.919964 0.332467
O O16 0.022759 0.863358 0.146071
O O17 0.000000 0.000000 0.000000
O O18 0.000000 0.000000 0.500000
#
# Coordination Sequence:
#
# PCOD9085909 Si02
#       8
#     2   2   2   2   2   2   2   2
#     4  10  20  39  66  92 133 170 213 264 315 392
#     4  11  21  38  58  89 131 176 216 261 312 376
#     4  11  23  46  74  93 127 171 213 275 334 381
#     4  11  25  40  62  96 129 166 221 270 318 388
#     4  10  19  35  64  92 130 174 213 250 319 392
#     4  10  24  43  69 102 122 163 232 263 321 399
#     4  12  21  37  59  87 134 183 214 259 318 376
#     4  11  21  42  67  93 133 176 211 265 334 380
#
# _framework density 20.687415000000001
#
# number of rings (size 3 to 8) (size 9 to 14) (size 15 to 20)
#    0.000    1.250    5.000    3.000    0.000    0.500 
#    4.500    3.750    0.000    0.000    0.000    0.000 
#    0.000    0.000    0.000    0.000    0.000    0.000 
#
# Total GULP energy -89249.600023 kJ/mol
# GULP energy per Si atom -5578.100001 kJ/mol
# Density = 2.064033 g / cm^3
# Si number density = 20.687415 Si / 1000 Ang^3
#
#
#
# Elastic Constant Matrix: (Units=GPa)
#
#
# Indices 1 2 3 4 5 6 
#
# 1 82.2705 33.2682 26.6153 0.5144 15.3509 34.4970
# 2 33.2682 120.0965 35.7493 -9.3963 3.8945 31.2936
# 3 26.6153 35.7493 84.0623 -3.4300 -1.3768 13.8119
# 4 0.5144 -9.3963 -3.4300 34.3853 -3.5494 4.5718
# 5 15.3509 3.8945 -1.3768 -3.5494 35.9655 13.4926
# 6 34.4970 31.2936 13.8119 4.5718 13.4926 36.7626
#
#
#
# Elastic Compliance Matrix: (Units=1/GPa)
#
#
# Indices 1 2 3 4 5 6 
#
# 1 0.021317 0.000108 -0.003820 0.001475 -0.002368 -0.017974
# 2 0.000108 0.012485 -0.003234 0.004921 0.003204 -0.011302
# 3 -0.003820 -0.003234 0.014609 0.000950 0.002736 -0.000274
# 4 0.001475 0.004921 0.000950 0.032867 0.006814 -0.012518
# 5 -0.002368 0.003204 0.002736 0.006814 0.034951 -0.015209
# 6 -0.017974 -0.011302 -0.000274 -0.012518 -0.015209 0.060930
#
#
# Mechanical properties :
#
#
# Convention : Reuss Voigt Hill
#
# Bulk Modulus (GPa) = 28.96954 53.07723 41.02339
# Shear Modulus (GPa) = 24.68429 34.14245 29.41337
#
# Velocity S-wave (km/s) = 3.45803 4.06692 3.77477
# Velocity P-wave (km/s) = 5.47520 6.91126 6.23471
#
# Compressibility (1/GPa) = 0.03451901
#
# Stress axis : x y z
#
# Youngs Moduli (GPa) = 46.91195 80.09313 68.44996
#
# Poissons Ratio (x) = -0.00864 0.26151
# Poissons Ratio (y) = -0.00506 0.22134
# Poissons Ratio (z) = 0.17922 0.25898
#
# Static dielectric constant tensor:
#      x y z
#    x 1.833130 -0.040640 0.014550 
#    y -0.040640 1.775550 0.017760 
#    z 0.014550 0.017760 1.698200 
# 
# From -- ./inp_files/221925.got.cif
#   From: 2010.05.17/outbox.cif.g08.bks.cpg/sg2_111_cif.got.tgz:221925.got - 2010.06.03 11:33:40.
