data_PCOD9085484
_publ_section_title
;
Structure prediction by ZEFSAII (Michael W. Deem and Ramdas Pophale) SiO2 
 PCOD9085484
Probable space group: P -1
;
_chemical_formula_sum "Si O2"
_cell_formula_units_Z 16
_cell_length_a 15.079506
_cell_length_b 12.147226
_cell_length_c 18.003184
_cell_angle_alpha 27.187010
_cell_angle_beta 31.184939
_cell_angle_gamma 49.236525
_cell_volume 694.064870
_symmetry_space_group_name_H-M "P -1"
_symmetry_group_IT_number 2
_symmetry_cell_setting 'triclinic'
loop_
_space_group_symop_operation_xyz
x,y,z
-x,-y,-z
loop_
_atom_site_type_symbol
_atom_site_label
_atom_site_fract_x
_atom_site_fract_y
_atom_site_fract_z
Si Si1 0.327856 0.731758 0.849392
Si Si2 0.194449 0.156008 0.218681
Si Si3 0.342263 0.859755 0.389020
Si Si4 0.938895 0.690063 0.317505
Si Si5 0.913003 0.693794 0.164726
Si Si6 0.710079 0.782300 0.549846
Si Si7 0.696295 0.314101 0.927793
Si Si8 0.959217 0.199909 0.232944
O O1 0.559847 0.902538 0.571863
O O2 0.295847 0.456894 0.997128
O O3 0.311678 0.709819 0.963559
O O4 0.134602 0.755205 0.952205
O O5 0.129227 0.174161 0.171090
O O6 0.314585 0.000431 0.249618
O O7 0.000000 0.000000 0.500000
O O8 0.240099 0.539768 0.637060
O O9 0.217555 0.897897 0.522773
O O10 0.559758 0.027961 0.159191
O O11 0.077474 0.573294 0.319415
O O12 0.874257 0.594651 0.337449
O O13 0.766479 0.666113 0.506984
O O14 0.079905 0.014360 0.017068
O O15 0.630689 0.531297 0.814665
O O16 0.895012 0.012205 0.319724
O O17 0.000000 0.500000 0.000000
#
# Coordination Sequence:
#
# PCOD9085484 Si02
#       8
#     2   2   2   2   2   2   2   2
#     4  11  20  36  66  92 121 157 209 259 306 375
#     4  10  19  35  60  96 120 159 202 262 310 367
#     4  11  20  39  69  92 120 166 217 256 305 380
#     4  10  25  43  58  87 128 173 209 250 316 376
#     4  10  22  43  65  85 124 171 212 250 313 381
#     4  12  23  38  63  95 127 157 207 268 312 364
#     4  11  22  40  64  94 122 169 216 248 312 379
#     4  11  23  38  60  97 133 158 198 269 327 361
#
# _framework density 23.052600000000002
#
# number of rings (size 3 to 8) (size 9 to 14) (size 15 to 20)
#    0.000    1.250    5.000    3.000    1.750    1.000 
#    0.000    1.875    0.000    0.000    0.000    0.000 
#    0.000    0.000    0.000    0.000    0.000    0.000 
#
# Total GULP energy -89336.221920 kJ/mol
# GULP energy per Si atom -5583.513870 kJ/mol
# Density = 2.300013 g / cm^3
# Si number density = 23.052600 Si / 1000 Ang^3
#
#
#
# Elastic Constant Matrix: (Units=GPa)
#
#
# Indices 1 2 3 4 5 6 
#
# 1 114.0212 11.9275 18.8661 2.6500 -10.4822 -2.4856
# 2 11.9275 55.7177 1.9676 5.7357 -2.2080 6.5215
# 3 18.8661 1.9676 41.4267 -1.8450 -12.3132 10.2067
# 4 2.6500 5.7357 -1.8450 42.1273 12.5759 0.6835
# 5 -10.4822 -2.2080 -12.3132 12.5759 19.9211 -7.3787
# 6 -2.4856 6.5215 10.2067 0.6835 -7.3787 41.3523
#
#
#
# Elastic Compliance Matrix: (Units=1/GPa)
#
#
# Indices 1 2 3 4 5 6 
#
# 1 0.010191 -0.001952 -0.003794 -0.002138 0.005195 0.002819
# 2 -0.001952 0.019106 0.001429 -0.003250 0.002950 -0.002903
# 3 -0.003794 0.001429 0.032496 -0.004120 0.018990 -0.005018
# 4 -0.002138 -0.003250 -0.004120 0.031794 -0.025462 -0.003668
# 5 0.005195 0.002950 0.018990 -0.025462 0.085054 0.010757
# 6 0.002819 -0.002903 -0.005018 -0.003668 0.010757 0.028028
#
#
# Mechanical properties :
#
#
# Convention : Reuss Voigt Hill
#
# Bulk Modulus (GPa) = 18.81145 30.74312 24.77728
# Shear Modulus (GPa) = 21.45700 32.57378 27.01539
#
# Velocity S-wave (km/s) = 3.05419 3.76309 3.42702
# Velocity P-wave (km/s) = 4.54041 5.67857 5.14109
#
# Compressibility (1/GPa) = 0.05315912
#
# Stress axis : x y z
#
# Youngs Moduli (GPa) = 98.12645 52.33913 30.77284
#
# Poissons Ratio (x) = 0.10214 0.11676
# Poissons Ratio (y) = 0.19150 -0.04396
# Poissons Ratio (z) = 0.37230 -0.07477
#
# Static dielectric constant tensor:
#      x y z
#    x 1.877040 -0.012440 0.051360 
#    y -0.012440 1.813660 0.018670 
#    z 0.051360 0.018670 1.889260 
# 
# From -- ./inp_files/262785.got.cif
#   From: 2010.05.17/outbox.cif.g08.bks.cpg/sg2_132_cif.got.tgz:262785.got - 2010.06.03 11:33:40.
