data_PCOD9085080
_publ_section_title
;
Structure prediction by ZEFSAII (Michael W. Deem and Ramdas Pophale) SiO2 
 PCOD9085080
Probable space group: P -1
;
_chemical_formula_sum "Si O2"
_cell_formula_units_Z 16
_cell_length_a 11.435587
_cell_length_b 7.502098
_cell_length_c 14.264776
_cell_angle_alpha 112.188979
_cell_angle_beta 36.962611
_cell_angle_gamma 97.709019
_cell_volume 649.748676
_symmetry_space_group_name_H-M "P -1"
_symmetry_group_IT_number 2
_symmetry_cell_setting 'triclinic'
loop_
_space_group_symop_operation_xyz
x,y,z
-x,-y,-z
loop_
_atom_site_type_symbol
_atom_site_label
_atom_site_fract_x
_atom_site_fract_y
_atom_site_fract_z
Si Si1 0.339303 0.704747 0.326753
Si Si2 0.608114 0.724918 0.981850
Si Si3 0.316791 0.897171 0.045838
Si Si4 0.912384 0.841120 0.581588
Si Si5 0.320001 0.683576 0.692705
Si Si6 0.673227 0.841815 0.555484
Si Si7 0.000423 0.446432 0.198774
Si Si8 0.259235 0.555008 0.905145
O O1 0.499385 0.553357 0.260545
O O2 0.118587 0.676510 0.450429
O O3 0.316749 0.932094 0.422585
O O4 0.449343 0.688432 0.151134
O O5 0.832826 0.581514 0.830734
O O6 0.625309 0.949657 0.030821
O O7 0.509144 0.745185 0.946764
O O8 0.194585 0.038045 0.234920
O O9 0.203778 0.763014 0.039223
O O10 0.758830 0.787324 0.596407
O O11 0.000000 0.000000 0.500000
O O12 0.500000 0.500000 0.500000
O O13 0.444975 0.834561 0.675578
O O14 0.229120 0.605948 0.826893
O O15 0.128819 0.714724 0.750408
O O16 0.835525 0.666978 0.357441
O O17 0.141578 0.425836 0.011614
#
# Coordination Sequence:
#
# PCOD9085080 Si02
#       8
#     2   2   2   2   2   2   2   2
#     4  10  21  38  61  93 127 156 201 241 306 371
#     4  10  22  38  59  92 127 157 201 243 303 360
#     4  11  22  38  62  91 134 154 196 248 305 367
#     4  10  19  35  58  88 126 158 192 238 302 361
#     4  10  23  44  63  84 121 162 207 257 297 350
#     4  10  20  40  62  85 124 164 198 248 299 350
#     4  10  23  41  64  87 122 160 212 246 297 357
#     4  11  23  38  66  93 120 158 203 252 306 353
#
# _framework density 24.624904999999998
#
# number of rings (size 3 to 8) (size 9 to 14) (size 15 to 20)
#    0.000    1.750    2.500    2.625    3.500    3.000 
#    0.000   10.625    0.000    0.000    0.000    0.000 
#    0.000    0.000    0.000    0.000    0.000    0.000 
#
# Total GULP energy -89375.547744 kJ/mol
# GULP energy per Si atom -5585.971734 kJ/mol
# Density = 2.456886 g / cm^3
# Si number density = 24.624905 Si / 1000 Ang^3
#
#
#
# Elastic Constant Matrix: (Units=GPa)
#
#
# Indices 1 2 3 4 5 6 
#
# 1 67.7345 6.6506 39.2110 -0.2337 -5.5348 33.3120
# 2 6.6506 61.6882 9.8005 -3.0179 -5.1356 16.4059
# 3 39.2110 9.8005 94.3824 -5.6659 -11.7364 14.0679
# 4 -0.2337 -3.0179 -5.6659 17.1974 -0.9251 -1.4934
# 5 -5.5348 -5.1356 -11.7364 -0.9251 35.0441 -2.3469
# 6 33.3120 16.4059 14.0679 -1.4934 -2.3469 36.0865
#
#
#
# Elastic Compliance Matrix: (Units=1/GPa)
#
#
# Indices 1 2 3 4 5 6 
#
# 1 0.036680 0.006289 -0.011264 -0.004896 0.000638 -0.032489
# 2 0.006289 0.019812 -0.002237 0.001756 0.002275 -0.013720
# 3 -0.011264 -0.002237 0.015392 0.005227 0.003579 0.005863
# 4 -0.004896 0.001756 0.005227 0.060662 0.003131 0.004397
# 5 0.000638 0.002275 0.003579 0.003131 0.030189 -0.000925
# 6 -0.032489 -0.013720 0.005863 0.004397 -0.000925 0.061776
#
#
# Mechanical properties :
#
#
# Convention : Reuss Voigt Hill
#
# Bulk Modulus (GPa) = 17.40313 37.23660 27.31986
# Shear Modulus (GPa) = 19.37330 28.87514 24.12422
#
# Velocity S-wave (km/s) = 2.80792 3.42804 3.13336
# Velocity P-wave (km/s) = 4.19467 5.55184 4.92027
#
# Compressibility (1/GPa) = 0.05746094
#
# Stress axis : x y z
#
# Youngs Moduli (GPa) = 27.26288 50.47439 64.96969
#
# Poissons Ratio (x) = -0.31743 0.73180
# Poissons Ratio (y) = -0.17146 0.14531
# Poissons Ratio (z) = 0.30708 0.11289
#
# Static dielectric constant tensor:
#      x y z
#    x 2.019770 0.030820 -0.027180 
#    y 0.030820 2.027820 0.013620 
#    z -0.027180 0.013620 1.971410 
# 
# From -- ./inp_files/516060.got.cif
#   From: 2010.05.17/outbox.cif.g08.bks.cpg/sg2_259_cif.got.tgz:516060.got - 2010.06.03 11:33:40.
