data_PCOD9085617
_publ_section_title
;
Structure prediction by ZEFSAII (Michael W. Deem and Ramdas Pophale) SiO2 
 PCOD9085617
Probable space group: P -1
;
_chemical_formula_sum "Si O2"
_cell_formula_units_Z 14
_cell_length_a 8.475688
_cell_length_b 14.227790
_cell_length_c 9.218102
_cell_angle_alpha 78.172580
_cell_angle_beta 132.664062
_cell_angle_gamma 72.919790
_cell_volume 639.398675
_symmetry_space_group_name_H-M "P -1"
_symmetry_group_IT_number 2
_symmetry_cell_setting 'triclinic'
loop_
_space_group_symop_operation_xyz
x,y,z
-x,-y,-z
loop_
_atom_site_type_symbol
_atom_site_label
_atom_site_fract_x
_atom_site_fract_y
_atom_site_fract_z
Si Si1 0.971603 0.163917 0.402246
Si Si2 0.196801 0.210493 0.802059
Si Si3 0.227593 0.329450 0.161274
Si Si4 0.408862 0.588546 0.549535
Si Si5 0.613291 0.087912 0.335033
Si Si6 0.180051 0.422498 0.775938
Si Si7 0.735132 0.414071 0.040957
O O1 0.143042 0.171934 0.630433
O O2 0.788190 0.132391 0.374406
O O3 0.788958 0.294389 0.174746
O O4 0.174058 0.052997 0.457310
O O5 0.303355 0.291236 0.826689
O O6 0.899883 0.296950 0.663126
O O7 0.414749 0.105813 0.077518
O O8 0.407697 0.366753 0.327346
O O9 0.417676 0.185977 0.301302
O O10 0.987896 0.368910 0.106719
O O11 0.125764 0.391469 0.917726
O O12 0.500000 0.500000 0.500000
O O13 0.482275 0.497378 0.754255
O O14 0.273105 0.500029 0.872096
O O15 0.000000 0.500000 0.500000
#
# Coordination Sequence:
#
# PCOD9085617 Si02
#       7
#     2   2   2   2   2   2   2
#     4  11  23  42  65  90 126 168 214 266 310 370
#     4  11  21  38  65  92 124 166 208 258 317 374
#     4  10  21  40  62  91 131 165 207 262 314 377
#     4  11  21  37  63  92 128 168 203 253 323 385
#     4  10  23  43  65  90 122 168 222 260 306 372
#     4  10  19  35  61  93 126 157 204 252 307 382
#     4  11  23  40  62  97 133 164 204 261 328 371
#
# _framework density 21.895572999999999
#
# number of rings (size 3 to 8) (size 9 to 14) (size 15 to 20)
#    0.000    1.429    2.857    4.714    0.000    3.429 
#    2.571    0.000    0.000    1.714    0.000    0.000 
#    0.000    0.000    0.000    0.000    0.000    0.000 
#
# Total GULP energy -78026.633786 kJ/mol
# GULP energy per Si atom -5573.330985 kJ/mol
# Density = 2.184574 g / cm^3
# Si number density = 21.895573 Si / 1000 Ang^3
#
#
#
# Elastic Constant Matrix: (Units=GPa)
#
#
# Indices 1 2 3 4 5 6 
#
# 1 76.4058 46.5785 16.4714 2.9917 6.3016 -0.7476
# 2 46.5785 77.1083 17.4616 2.8697 -0.9012 -7.4743
# 3 16.4714 17.4616 65.7978 11.2490 -1.1263 6.0222
# 4 2.9917 2.8697 11.2490 55.5532 -4.6547 4.8670
# 5 6.3016 -0.9012 -1.1263 -4.6547 26.8228 4.6869
# 6 -0.7476 -7.4743 6.0222 4.8670 4.6869 34.0629
#
#
#
# Elastic Compliance Matrix: (Units=1/GPa)
#
#
# Indices 1 2 3 4 5 6 
#
# 1 0.021844 -0.012916 -0.001946 -0.000474 -0.005523 -0.001183
# 2 -0.012916 0.021927 -0.002963 -0.000009 0.002830 0.004664
# 3 -0.001946 -0.002963 0.017298 -0.002836 0.001205 -0.003512
# 4 -0.000474 -0.000009 -0.002836 0.019162 0.003802 -0.002772
# 5 -0.005523 0.002830 0.001205 0.003802 0.040401 -0.005816
# 6 -0.001183 0.004664 -0.003512 -0.002772 -0.005816 0.032172
#
#
# Mechanical properties :
#
#
# Convention : Reuss Voigt Hill
#
# Bulk Modulus (GPa) = 39.33835 42.25944 40.79890
# Shear Modulus (GPa) = 25.39005 32.54113 28.96559
#
# Velocity S-wave (km/s) = 3.40898 3.85930 3.64111
# Velocity P-wave (km/s) = 5.78794 6.26110 6.02916
#
# Compressibility (1/GPa) = 0.02542048
#
# Stress axis : x y z
#
# Youngs Moduli (GPa) = 45.77941 45.60519 57.80892
#
# Poissons Ratio (x) = 0.58904 0.11248
# Poissons Ratio (y) = 0.59129 0.17127
# Poissons Ratio (z) = 0.08907 0.13512
#
# Static dielectric constant tensor:
#      x y z
#    x 1.673480 0.208950 -0.070480 
#    y 0.208950 1.649510 0.092790 
#    z -0.070480 0.092790 1.771450 
# 
# From -- ./inp_files/186338.got.cif
#   From: 2010.05.17/outbox.cif.g08.bks.cpg/sg2_94_cif.got.tgz:186338.got - 2010.06.03 11:33:40.
