data_PCOD9085354
_publ_section_title
;
Structure prediction by ZEFSAII (Michael W. Deem and Ramdas Pophale) SiO2 
 PCOD9085354
Probable space group: P -1
;
_chemical_formula_sum "Si O2"
_cell_formula_units_Z 16
_cell_length_a 13.440403
_cell_length_b 19.446180
_cell_length_c 6.479360
_cell_angle_alpha 105.671463
_cell_angle_beta 53.343432
_cell_angle_gamma 146.610595
_cell_volume 639.863709
_symmetry_space_group_name_H-M "P -1"
_symmetry_group_IT_number 2
_symmetry_cell_setting 'triclinic'
loop_
_space_group_symop_operation_xyz
x,y,z
-x,-y,-z
loop_
_atom_site_type_symbol
_atom_site_label
_atom_site_fract_x
_atom_site_fract_y
_atom_site_fract_z
Si Si1 0.122452 0.016746 0.176931
Si Si2 0.927694 0.351620 0.384784
Si Si3 0.137219 0.270084 0.321056
Si Si4 0.681408 0.796272 0.291858
Si Si5 0.653042 0.928696 0.679998
Si Si6 0.842014 0.448235 0.348092
Si Si7 0.615100 0.514536 0.176168
Si Si8 0.735678 0.170432 0.813652
O O1 0.905008 0.868021 0.191991
O O2 0.308570 0.060296 0.110841
O O3 0.000000 0.000000 0.500000
O O4 0.236610 0.131996 0.972825
O O5 0.027533 0.439993 0.543763
O O6 0.780037 0.340758 0.446117
O O7 0.765085 0.206036 0.565593
O O8 0.165482 0.435941 0.037076
O O9 0.370347 0.357111 0.235093
O O10 0.999465 0.265084 0.614626
O O11 0.260323 0.365595 0.041138
O O12 0.898329 0.097436 0.441290
O O13 0.652446 0.852966 0.510018
O O14 0.400420 0.627022 0.481302
O O15 0.373080 0.819994 0.908095
O O16 0.000000 0.500000 0.000000
O O17 0.500000 0.500000 0.500000
O O18 0.500000 0.000000 0.000000
#
# Coordination Sequence:
#
# PCOD9085354 Si02
#       8
#     2   2   2   2   2   2   2   2
#     4   9  20  36  54  80 115 150 190 242 291 346
#     4  10  23  41  62  93 127 161 208 256 307 372
#     4   9  21  38  57  87 116 149 200 251 305 363
#     4  10  21  36  57  86 116 154 203 240 294 372
#     4  10  19  35  60  85 116 152 192 249 307 361
#     4  11  24  40  62  92 128 168 204 250 309 371
#     4  10  22  40  61  85 121 162 204 254 307 361
#     4   9  18  38  64  84 113 154 195 251 310 355
#
# _framework density 25.005326
#
# number of rings (size 3 to 8) (size 9 to 14) (size 15 to 20)
#    0.000    2.250    0.000    1.500    0.000   12.000 
#    0.000    0.000    0.000   10.500    0.000    0.000 
#    0.000    0.000    0.000    0.000    0.000    0.000 
#
# Total GULP energy -89285.816254 kJ/mol
# GULP energy per Si atom -5580.363516 kJ/mol
# Density = 2.494841 g / cm^3
# Si number density = 25.005326 Si / 1000 Ang^3
#
#
#
# Elastic Constant Matrix: (Units=GPa)
#
#
# Indices 1 2 3 4 5 6 
#
# 1 52.6481 13.1346 31.4959 -0.3698 -6.2356 1.4696
# 2 13.1346 66.7603 31.9478 3.6229 3.2573 11.1526
# 3 31.4959 31.9478 147.2421 2.4192 -6.7906 9.8519
# 4 -0.3698 3.6229 2.4192 38.3242 -6.0997 -0.7438
# 5 -6.2356 3.2573 -6.7906 -6.0997 53.1924 -3.6827
# 6 1.4696 11.1526 9.8519 -0.7438 -3.6827 27.6488
#
#
#
# Elastic Compliance Matrix: (Units=1/GPa)
#
#
# Indices 1 2 3 4 5 6 
#
# 1 0.022495 -0.002911 -0.004206 0.001198 0.002544 0.001848
# 2 -0.002911 0.018320 -0.002996 -0.002103 -0.002541 -0.006562
# 3 -0.004206 -0.002996 0.008475 -0.000219 0.000643 -0.001508
# 4 0.001198 -0.002103 -0.000219 0.026909 0.003469 0.002048
# 5 0.002544 -0.002541 0.000643 0.003469 0.019970 0.003414
# 6 0.001848 -0.006562 -0.001508 0.002048 0.003414 0.039764
#
#
# Mechanical properties :
#
#
# Convention : Reuss Voigt Hill
#
# Bulk Modulus (GPa) = 34.40664 46.64523 40.52594
# Shear Modulus (GPa) = 30.14846 36.50457 33.32652
#
# Velocity S-wave (km/s) = 3.47606 3.82497 3.65468
# Velocity P-wave (km/s) = 5.46811 6.18076 5.83533
#
# Compressibility (1/GPa) = 0.02906416
#
# Stress axis : x y z
#
# Youngs Moduli (GPa) = 44.45507 54.58644 117.98779
#
# Poissons Ratio (x) = 0.15888 0.49628
# Poissons Ratio (y) = 0.12940 0.35347
# Poissons Ratio (z) = 0.18699 0.16353
#
# Static dielectric constant tensor:
#      x y z
#    x 2.159970 -0.037900 -0.060050 
#    y -0.037900 2.034240 -0.037540 
#    z -0.060050 -0.037540 2.004620 
# 
# From -- ./inp_files/101183.got.cif
#   From: 2010.05.17/outbox.cif.g08.bks.cpg/sg2_51_cif.got.tgz:101183.got - 2010.06.03 11:33:40.
