data_PCOD9085482
_publ_section_title
;
Structure prediction by ZEFSAII (Michael W. Deem and Ramdas Pophale) SiO2 
 PCOD9085482
Probable space group: P -1
;
_chemical_formula_sum "Si O2"
_cell_formula_units_Z 16
_cell_length_a 11.810037
_cell_length_b 14.616363
_cell_length_c 8.372561
_cell_angle_alpha 98.995141
_cell_angle_beta 137.243794
_cell_angle_gamma 52.191343
_cell_volume 648.574783
_symmetry_space_group_name_H-M "P -1"
_symmetry_group_IT_number 2
_symmetry_cell_setting 'triclinic'
loop_
_space_group_symop_operation_xyz
x,y,z
-x,-y,-z
loop_
_atom_site_type_symbol
_atom_site_label
_atom_site_fract_x
_atom_site_fract_y
_atom_site_fract_z
Si Si1 0.536742 0.569662 0.744226
Si Si2 0.449307 0.814687 0.392408
Si Si3 0.170340 0.092105 0.314883
Si Si4 0.012899 0.385630 0.992456
Si Si5 0.284768 0.364853 0.807118
Si Si6 0.962973 0.801791 0.167447
Si Si7 0.613099 0.336252 0.879141
Si Si8 0.530521 0.087472 0.865700
O O1 0.248856 0.710950 0.457340
O O2 0.541128 0.472687 0.823556
O O3 0.747874 0.458566 0.801500
O O4 0.658779 0.609854 0.960941
O O5 0.437405 0.708992 0.341206
O O6 0.360176 0.887576 0.148402
O O7 0.736687 0.727024 0.674506
O O8 0.287298 0.940414 0.383333
O O9 0.362516 0.080379 0.599474
O O10 0.118331 0.144312 0.088952
O O11 0.909797 0.206085 0.167398
O O12 0.058645 0.300639 0.866010
O O13 0.000000 0.500000 0.000000
O O14 0.451922 0.356300 0.855517
O O15 0.372516 0.222129 0.847388
O O16 0.000000 0.500000 0.500000
O O17 0.775551 0.930477 0.128964
#
# Coordination Sequence:
#
# PCOD9085482 Si02
#       8
#     2   2   2   2   2   2   2   2
#     4  12  25  42  62  95 136 170 209 266 315 378
#     4  10  19  35  60  95 127 160 210 263 317 378
#     4  11  19  38  65  96 129 160 212 269 323 374
#     4  12  23  39  62  94 134 170 206 256 330 384
#     4  11  25  45  68  91 124 173 224 258 307 384
#     4  11  22  39  64  95 134 166 204 267 334 375
#     4  11  22  38  66  95 123 167 217 263 314 373
#     4  10  20  41  67  90 127 173 214 261 313 380
#
# _framework density 24.669477000000001
#
# number of rings (size 3 to 8) (size 9 to 14) (size 15 to 20)
#    0.000    1.000    3.750    4.875    1.750    0.500 
#    0.000    0.000    0.000    2.250    0.000    0.000 
#    0.000    0.000    0.000    0.000    0.000    0.000 
#
# Total GULP energy -89388.216025 kJ/mol
# GULP energy per Si atom -5586.763502 kJ/mol
# Density = 2.461333 g / cm^3
# Si number density = 24.669477 Si / 1000 Ang^3
#
#
#
# Elastic Constant Matrix: (Units=GPa)
#
#
# Indices 1 2 3 4 5 6 
#
# 1 50.6309 5.1379 4.8081 -15.5511 24.3946 -9.0108
# 2 5.1379 179.3489 55.4590 -14.5669 -0.8886 -20.3948
# 3 4.8081 55.4590 138.4057 -16.6107 25.0517 -7.4898
# 4 -15.5511 -14.5669 -16.6107 43.3630 -7.2155 8.4626
# 5 24.3946 -0.8886 25.0517 -7.2155 27.5781 -2.7046
# 6 -9.0108 -20.3948 -7.4898 8.4626 -2.7046 21.7681
#
#
#
# Elastic Compliance Matrix: (Units=1/GPa)
#
#
# Indices 1 2 3 4 5 6 
#
# 1 0.045956 -0.002470 0.009389 0.009585 -0.045719 0.010533
# 2 -0.002470 0.007469 -0.003752 0.000199 0.006416 0.005404
# 3 0.009389 -0.003752 0.012228 0.003532 -0.018520 0.000904
# 4 0.009585 0.000199 0.003532 0.028326 -0.004883 -0.006249
# 5 -0.045719 0.006416 -0.018520 -0.004883 0.091869 -0.005974
# 6 0.010533 0.005404 0.000904 -0.006249 -0.005974 0.057360
#
#
# Mechanical properties :
#
#
# Convention : Reuss Voigt Hill
#
# Bulk Modulus (GPa) = 13.89154 55.46616 34.67885
# Shear Modulus (GPa) = 19.16660 38.74053 28.95357
#
# Velocity S-wave (km/s) = 2.79038 3.96711 3.42959
# Velocity P-wave (km/s) = 4.00311 6.59670 5.45625
#
# Compressibility (1/GPa) = 0.07198627
#
# Stress axis : x y z
#
# Youngs Moduli (GPa) = 21.75983 133.88265 81.78276
#
# Poissons Ratio (x) = 0.33070 -0.76784
# Poissons Ratio (y) = 0.05375 0.30686
# Poissons Ratio (z) = -0.20430 0.50234
#
# Static dielectric constant tensor:
#      x y z
#    x 2.052440 -0.031180 -0.061370 
#    y -0.031180 2.054050 -0.038360 
#    z -0.061370 -0.038360 1.986030 
# 
# From -- ./inp_files/454885.got.cif
#   From: 2010.05.17/outbox.cif.g08.bks.cpg/sg2_228_cif.got.tgz:454885.got - 2010.06.03 11:33:40.
