data_PCOD9085466
_publ_section_title
;
Structure prediction by ZEFSAII (Michael W. Deem and Ramdas Pophale) SiO2 
 PCOD9085466
Probable space group: P -1
;
_chemical_formula_sum "Si O2"
_cell_formula_units_Z 16
_cell_length_a 11.772280
_cell_length_b 17.203443
_cell_length_c 8.265449
_cell_angle_alpha 49.924946
_cell_angle_beta 86.357043
_cell_angle_gamma 128.808990
_cell_volume 620.576555
_symmetry_space_group_name_H-M "P -1"
_symmetry_group_IT_number 2
_symmetry_cell_setting 'triclinic'
loop_
_space_group_symop_operation_xyz
x,y,z
-x,-y,-z
loop_
_atom_site_type_symbol
_atom_site_label
_atom_site_fract_x
_atom_site_fract_y
_atom_site_fract_z
Si Si1 0.410941 0.186481 0.084086
Si Si2 0.789460 0.769018 0.914956
Si Si3 0.889052 0.802159 0.238198
Si Si4 0.650604 0.254067 0.713654
Si Si5 0.873889 0.714781 0.675727
Si Si6 0.897555 0.525514 0.042376
Si Si7 0.320400 0.943772 0.648955
Si Si8 0.807393 0.167793 0.822572
O O1 0.418341 0.311666 0.940414
O O2 0.397900 0.112708 0.348270
O O3 0.620928 0.307639 0.792831
O O4 0.152112 0.963640 0.326411
O O5 0.768086 0.662503 0.930312
O O6 0.000000 0.000000 0.500000
O O7 0.826757 0.761144 0.107082
O O8 0.756896 0.685225 0.580531
O O9 0.030437 0.804991 0.232904
O O10 0.000000 0.000000 0.000000
O O11 0.680688 0.335070 0.433811
O O12 0.394309 0.002052 0.067692
O O13 0.851979 0.324856 0.602657
O O14 0.855247 0.578474 0.841834
O O15 0.000000 0.500000 0.000000
O O16 0.082519 0.723923 0.878978
O O17 0.298753 0.922904 0.867738
O O18 0.500000 0.000000 0.500000
#
# Coordination Sequence:
#
# PCOD9085466 Si02
#       8
#     2   2   2   2   2   2   2   2
#     4  10  19  38  60  89 121 162 208 258 316 369
#     4  10  19  35  60  93 121 159 214 265 302 364
#     4  12  19  32  61  94 115 160 216 262 298 366
#     4  11  22  39  63  89 129 165 201 261 322 379
#     4  10  21  38  59  90 123 162 211 256 311 372
#     4  11  24  40  61  89 130 170 200 255 330 375
#     4  11  22  39  62  93 126 159 208 262 311 383
#     4  11  22  37  62  93 123 162 215 259 309 374
#
# _framework density 25.782477
#
# number of rings (size 3 to 8) (size 9 to 14) (size 15 to 20)
#    0.000    1.250    5.000    3.750    3.500    0.500 
#    0.000    1.875    0.000    3.000    0.000    0.000 
#    0.000    0.000    0.000    0.000    0.000    0.000 
#
# Total GULP energy -89313.910771 kJ/mol
# GULP energy per Si atom -5582.119423 kJ/mol
# Density = 2.572379 g / cm^3
# Si number density = 25.782477 Si / 1000 Ang^3
#
#
#
# Elastic Constant Matrix: (Units=GPa)
#
#
# Indices 1 2 3 4 5 6 
#
# 1 147.4740 41.0682 26.2882 2.5198 32.6724 -31.7423
# 2 41.0682 117.1986 41.2411 21.9264 11.9465 -14.6904
# 3 26.2882 41.2411 87.0794 30.0435 38.8379 4.5845
# 4 2.5198 21.9264 30.0435 53.4065 7.9920 -3.4858
# 5 32.6724 11.9465 38.8379 7.9920 53.7200 6.0023
# 6 -31.7423 -14.6904 4.5845 -3.4858 6.0023 48.8869
#
#
#
# Elastic Compliance Matrix: (Units=1/GPa)
#
#
# Indices 1 2 3 4 5 6 
#
# 1 0.010484 -0.002469 0.000041 0.001996 -0.006942 0.007056
# 2 -0.002469 0.011637 -0.005564 -0.001855 0.002999 0.001915
# 3 0.000041 -0.005564 0.023792 -0.009140 -0.014319 -0.002770
# 4 0.001996 -0.001855 -0.009140 0.024464 0.001819 0.003117
# 5 -0.006942 0.002999 -0.014319 0.001819 0.032942 -0.006178
# 6 0.007056 0.001915 -0.002770 0.003117 -0.006178 0.026853
#
#
# Mechanical properties :
#
#
# Convention : Reuss Voigt Hill
#
# Bulk Modulus (GPa) = 33.41417 63.21632 48.31525
# Shear Modulus (GPa) = 32.02366 47.41298 39.71832
#
# Velocity S-wave (km/s) = 3.52813 4.29296 3.92920
# Velocity P-wave (km/s) = 5.43922 7.01035 6.27416
#
# Compressibility (1/GPa) = 0.02992742
#
# Stress axis : x y z
#
# Youngs Moduli (GPa) = 95.38537 85.93129 42.03026
#
# Poissons Ratio (x) = 0.21219 -0.00171
# Poissons Ratio (y) = 0.23553 0.23387
# Poissons Ratio (z) = -0.00387 0.47814
#
# Static dielectric constant tensor:
#      x y z
#    x 2.091550 0.020800 -0.082430 
#    y 0.020800 1.992470 -0.048840 
#    z -0.082430 -0.048840 2.350210 
# 
# From -- ./inp_files/277340.got.cif
#   From: 2010.05.17/outbox.cif.g08.bks.cpg/sg2_139_cif.got.tgz:277340.got - 2010.06.03 11:33:40.
