data_PCOD9085515
_publ_section_title
;
Structure prediction by ZEFSAII (Michael W. Deem and Ramdas Pophale) SiO2 
 PCOD9085515
Probable space group: P -1
;
_chemical_formula_sum "Si O2"
_cell_formula_units_Z 16
_cell_length_a 11.669760
_cell_length_b 20.775885
_cell_length_c 7.870978
_cell_angle_alpha 53.768861
_cell_angle_beta 101.655055
_cell_angle_gamma 144.088797
_cell_volume 732.374389
_symmetry_space_group_name_H-M "P -1"
_symmetry_group_IT_number 2
_symmetry_cell_setting 'triclinic'
loop_
_space_group_symop_operation_xyz
x,y,z
-x,-y,-z
loop_
_atom_site_type_symbol
_atom_site_label
_atom_site_fract_x
_atom_site_fract_y
_atom_site_fract_z
Si Si1 0.379345 0.036884 0.344112
Si Si2 0.627040 0.645189 0.414018
Si Si3 0.240387 0.848762 0.872978
Si Si4 0.302541 0.486725 0.890186
Si Si5 0.251916 0.115057 0.975218
Si Si6 0.321180 0.655091 0.497634
Si Si7 0.041919 0.644049 0.420824
Si Si8 0.080434 0.303783 0.432334
O O1 0.365192 0.001508 0.592638
O O2 0.180699 0.859784 0.475138
O O3 0.632547 0.154762 0.164106
O O4 0.293776 0.073856 0.200586
O O5 0.500000 0.500000 0.500000
O O6 0.492268 0.581001 0.652142
O O7 0.636537 0.732538 0.177834
O O8 0.880656 0.755892 0.363884
O O9 0.216408 0.812746 0.118634
O O10 0.960735 0.689829 0.986842
O O11 0.326236 0.595993 0.745424
O O12 0.289118 0.436675 0.145488
O O13 0.419953 0.182650 0.766866
O O14 0.000000 0.000000 0.000000
O O15 0.203759 0.667701 0.492778
O O16 0.146450 0.508090 0.532343
O O17 0.911718 0.615437 0.571704
#
# Coordination Sequence:
#
# PCOD9085515 Si02
#       8
#     2   2   2   2   2   2   2   2
#     4  10  20  35  58  86 117 157 190 238 306 350
#     4  11  22  39  62  88 117 159 202 238 293 361
#     4   9  18  36  57  83 115 151 196 235 295 352
#     4   9  20  36  58  85 116 150 198 252 292 350
#     4  11  20  37  60  88 123 154 194 243 297 361
#     4   9  19  36  57  85 114 156 195 246 304 342
#     4  10  19  35  61  84 114 152 205 250 287 356
#     4  11  21  35  58  87 113 156 201 244 298 349
#
# _framework density 21.846751000000001
#
# number of rings (size 3 to 8) (size 9 to 14) (size 15 to 20)
#    0.000    2.000    2.500    2.625    0.000    1.000 
#    0.000    0.000    2.750    8.250    0.000    0.000 
#    0.000    0.000    0.000    0.000    0.000    0.000 
#
# Total GULP energy -89071.735189 kJ/mol
# GULP energy per Si atom -5566.983449 kJ/mol
# Density = 2.179703 g / cm^3
# Si number density = 21.846751 Si / 1000 Ang^3
#
#
#
# Elastic Constant Matrix: (Units=GPa)
#
#
# Indices 1 2 3 4 5 6 
#
# 1 129.5356 20.3033 34.7610 7.6183 32.0083 11.5852
# 2 20.3033 25.7015 6.9588 -1.1998 10.4539 0.1840
# 3 34.7610 6.9588 82.7321 15.7891 28.1148 -1.9530
# 4 7.6183 -1.1998 15.7891 20.1255 15.3373 -3.1027
# 5 32.0083 10.4539 28.1148 15.3373 44.4961 3.7435
# 6 11.5852 0.1840 -1.9530 -3.1027 3.7435 29.7031
#
#
#
# Elastic Compliance Matrix: (Units=1/GPa)
#
#
# Indices 1 2 3 4 5 6 
#
# 1 0.010790 -0.005883 -0.002684 0.000583 -0.004572 -0.003711
# 2 -0.005883 0.049811 -0.000138 0.016423 -0.013498 0.005394
# 3 -0.002684 -0.000138 0.016790 -0.006898 -0.006457 0.002245
# 4 0.000583 0.016423 -0.006898 0.078930 -0.028051 0.010998
# 5 -0.004572 -0.013498 -0.006457 -0.028051 0.043267 -0.006941
# 6 -0.003711 0.005394 0.002245 0.010998 -0.006941 0.037252
#
#
# Mechanical properties :
#
#
# Convention : Reuss Voigt Hill
#
# Bulk Modulus (GPa) = 16.67168 40.22394 28.44781
# Shear Modulus (GPa) = 18.23201 30.59470 24.41335
#
# Velocity S-wave (km/s) = 2.89198 3.74628 3.34650
# Velocity P-wave (km/s) = 4.33580 6.09628 5.28979
#
# Compressibility (1/GPa) = 0.05998197
#
# Stress axis : x y z
#
# Youngs Moduli (GPa) = 92.68152 20.07577 59.55893
#
# Poissons Ratio (x) = 0.11811 0.15983
# Poissons Ratio (y) = 0.54528 0.00820
# Poissons Ratio (z) = 0.24871 0.00276
#
# Static dielectric constant tensor:
#      x y z
#    x 1.793860 0.061960 0.014040 
#    y 0.061960 1.908110 -0.022330 
#    z 0.014040 -0.022330 1.895570 
# 
# From -- ./inp_files/282907.got.cif
#   From: 2010.05.17/outbox.cif.g08.bks.cpg/sg2_142_cif.got.tgz:282907.got - 2010.06.03 11:33:40.
