data_PCOD9085344
_publ_section_title
;
Structure prediction by ZEFSAII (Michael W. Deem and Ramdas Pophale) SiO2 
 PCOD9085344
Probable space group: P -1
;
_chemical_formula_sum "Si O2"
_cell_formula_units_Z 14
_cell_length_a 28.985012
_cell_length_b 9.438258
_cell_length_c 31.354009
_cell_angle_alpha 28.270921
_cell_angle_beta 8.878781
_cell_angle_gamma 29.499483
_cell_volume 627.043310
_symmetry_space_group_name_H-M "P -1"
_symmetry_group_IT_number 2
_symmetry_cell_setting 'triclinic'
loop_
_space_group_symop_operation_xyz
x,y,z
-x,-y,-z
loop_
_atom_site_type_symbol
_atom_site_label
_atom_site_fract_x
_atom_site_fract_y
_atom_site_fract_z
Si Si1 0.129698 0.960760 0.697381
Si Si2 0.475946 0.736915 0.809518
Si Si3 0.413258 0.021271 0.645282
Si Si4 0.797588 0.349977 0.136863
Si Si5 0.145926 0.220102 0.466397
Si Si6 0.538549 0.140467 0.059550
Si Si7 0.656441 0.103181 0.786618
O O1 0.353905 0.962596 0.532569
O O2 0.345131 0.009109 0.446908
O O3 0.929144 0.669794 0.946061
O O4 0.872900 0.202972 0.880429
O O5 0.608329 0.684775 0.749577
O O6 0.578924 0.451359 0.763934
O O7 0.554308 0.240645 0.422491
O O8 0.350292 0.712289 0.758351
O O9 0.091388 0.135835 0.925290
O O10 0.302925 0.019196 0.340659
O O11 0.000000 0.500000 0.500000
O O12 0.881198 0.072690 0.774038
O O13 0.481715 0.038825 0.091170
O O14 0.500000 0.500000 0.000000
O O15 0.000000 0.000000 0.500000
O O16 0.500000 0.000000 0.000000
#
# Coordination Sequence:
#
# PCOD9085344 Si02
#       7
#     2   2   2   2   2   2   2
#     4  12  24  43  64 102 148 170 214 277 351 395
#     4  12  26  42  62  96 134 176 217 285 355 395
#     4  10  21  41  72 101 137 173 234 253 313 408
#     4  10  21  41  72 103 129 188 217 263 311 405
#     4  10  20  39  60  82 113 161 224 267 313 393
#     4  10  19  35  60  85 105 147 210 274 321 370
#     4  12  23  41  65  87 121 166 230 283 328 398
#
# _framework density 22.327005
#
# number of rings (size 3 to 8) (size 9 to 14) (size 15 to 20)
#    0.000    1.143    0.000    8.571    0.000    0.000 
#    7.714    0.000    0.000    0.000    0.000    0.000 
#    0.000    0.000    0.000    0.000    0.000    0.000 
#
# Total GULP energy -78111.932097 kJ/mol
# GULP energy per Si atom -5579.423721 kJ/mol
# Density = 2.227619 g / cm^3
# Si number density = 22.327005 Si / 1000 Ang^3
#
#
#
# Elastic Constant Matrix: (Units=GPa)
#
#
# Indices 1 2 3 4 5 6 
#
# 1 112.1273 22.6205 14.5474 0.5405 -13.0247 25.0739
# 2 22.6205 48.7890 11.6737 4.3520 -12.0057 22.3226
# 3 14.5474 11.6737 104.8283 20.5811 16.2927 10.3308
# 4 0.5405 4.3520 20.5811 32.7862 14.9721 3.4141
# 5 -13.0247 -12.0057 16.2927 14.9721 56.6942 -3.6407
# 6 25.0739 22.3226 10.3308 3.4141 -3.6407 27.2442
#
#
#
# Elastic Compliance Matrix: (Units=1/GPa)
#
#
# Indices 1 2 3 4 5 6 
#
# 1 0.011541 -0.000062 -0.001054 0.000528 0.002163 -0.009948
# 2 -0.000062 0.035345 -0.001593 -0.004249 0.007330 -0.026787
# 3 -0.001054 -0.001593 0.011539 -0.005693 -0.002503 -0.001722
# 4 0.000528 -0.004249 -0.005693 0.039087 -0.009530 -0.001018
# 5 0.002163 0.007330 -0.002503 -0.009530 0.022743 -0.002814
# 6 -0.009948 -0.026787 -0.001722 -0.001018 -0.002814 0.068213
#
#
# Mechanical properties :
#
#
# Convention : Reuss Voigt Hill
#
# Bulk Modulus (GPa) = 18.86500 40.38085 29.62292
# Shear Modulus (GPa) = 23.63447 37.80513 30.71980
#
# Velocity S-wave (km/s) = 3.25708 4.11937 3.71334
# Velocity P-wave (km/s) = 4.75526 6.38365 5.62866
#
# Compressibility (1/GPa) = 0.05300823
#
# Stress axis : x y z
#
# Youngs Moduli (GPa) = 86.64742 28.29266 86.65995
#
# Poissons Ratio (x) = 0.00175 0.09135
# Poissons Ratio (y) = 0.00535 0.13802
# Poissons Ratio (z) = 0.09133 0.04506
#
# Static dielectric constant tensor:
#      x y z
#    x 1.837030 -0.019160 -0.004150 
#    y -0.019160 1.880950 -0.033310 
#    z -0.004150 -0.033310 1.881330 
# 
# From -- ./inp_files/553776.got.cif
#   From: 2010.05.17/outbox.cif.g08.bks.cpg/sg2_277_cif.got.tgz:553776.got - 2010.06.03 11:33:40.
