data_PCOD9085548
_publ_section_title
;
Structure prediction by ZEFSAII (Michael W. Deem and Ramdas Pophale) SiO2 
 PCOD9085548
Probable space group: P -1
;
_chemical_formula_sum "Si O2"
_cell_formula_units_Z 14
_cell_length_a 11.657986
_cell_length_b 8.259073
_cell_length_c 17.726630
_cell_angle_alpha 87.500461
_cell_angle_beta 33.429255
_cell_angle_gamma 111.331077
_cell_volume 644.975411
_symmetry_space_group_name_H-M "P -1"
_symmetry_group_IT_number 2
_symmetry_cell_setting 'triclinic'
loop_
_space_group_symop_operation_xyz
x,y,z
-x,-y,-z
loop_
_atom_site_type_symbol
_atom_site_label
_atom_site_fract_x
_atom_site_fract_y
_atom_site_fract_z
Si Si1 0.647029 0.795097 0.676575
Si Si2 0.596864 0.450270 0.615173
Si Si3 0.216693 0.767283 0.846417
Si Si4 0.941390 0.032485 0.165863
Si Si5 0.508389 0.832913 0.202603
Si Si6 0.035508 0.845863 0.242262
Si Si7 0.468326 0.874616 0.915569
O O1 0.558087 0.578543 0.690315
O O2 0.549709 0.874440 0.666275
O O3 0.473360 0.742166 0.850777
O O4 0.000000 0.000000 0.500000
O O5 0.292013 0.205440 0.751342
O O6 0.701562 0.364248 0.614762
O O7 0.802203 0.629958 0.431097
O O8 0.133216 0.823085 0.816995
O O9 0.245351 0.917020 0.893292
O O10 0.000000 0.500000 0.000000
O O11 0.909863 0.933546 0.267499
O O12 0.287127 0.185719 0.950262
O O13 0.367465 0.878123 0.220054
O O14 0.330588 0.061058 0.125028
O O15 0.155967 0.778089 0.117934
#
# Coordination Sequence:
#
# PCOD9085548 Si02
#       7
#     2   2   2   2   2   2   2
#     4  11  21  37  60  91 120 156 203 256 297 349
#     4  11  20  35  64  90 120 158 199 255 301 352
#     4  10  19  35  61  87 117 158 201 252 303 352
#     4  10  20  37  59  92 121 157 204 248 304 370
#     4   9  19  35  61  92 116 153 215 251 290 361
#     4  10  20  37  61  86 128 159 199 243 307 369
#     4   9  20  39  60  85 119 168 198 246 301 364
#
# _framework density 21.706256
#
# number of rings (size 3 to 8) (size 9 to 14) (size 15 to 20)
#    0.000    2.000    1.429    3.857    0.000    0.571 
#    2.571    0.714    0.000   43.714    0.000    7.000 
#    0.000    0.000    0.000    0.000    0.000    0.000 
#
# Total GULP energy -77988.866449 kJ/mol
# GULP energy per Si atom -5570.633318 kJ/mol
# Density = 2.165685 g / cm^3
# Si number density = 21.706256 Si / 1000 Ang^3
#
#
#
# Elastic Constant Matrix: (Units=GPa)
#
#
# Indices 1 2 3 4 5 6 
#
# 1 166.3179 44.7340 30.8803 -13.2585 11.5566 -28.7266
# 2 44.7340 91.0200 39.4201 3.0551 19.8809 -11.5922
# 3 30.8803 39.4201 85.1781 -8.1049 25.4304 -9.5685
# 4 -13.2585 3.0551 -8.1049 21.3382 0.3004 10.6054
# 5 11.5566 19.8809 25.4304 0.3004 38.0226 -0.7883
# 6 -28.7266 -11.5922 -9.5685 10.6054 -0.7883 32.2839
#
#
#
# Elastic Compliance Matrix: (Units=1/GPa)
#
#
# Indices 1 2 3 4 5 6 
#
# 1 0.008054 -0.003097 -0.000551 0.002773 -0.000379 0.004971
# 2 -0.003097 0.016669 -0.005820 -0.008571 -0.003727 0.004230
# 3 -0.000551 -0.005820 0.018003 0.007400 -0.008886 0.000108
# 4 0.002773 -0.008571 0.007400 0.062022 -0.002192 -0.018845
# 5 -0.000379 -0.003727 -0.008886 -0.002192 0.034268 -0.002752
# 6 0.004971 0.004230 0.000108 -0.018845 -0.002752 0.043072
#
#
# Mechanical properties :
#
#
# Convention : Reuss Voigt Hill
#
# Bulk Modulus (GPa) = 42.03337 63.62055 52.82696
# Shear Modulus (GPa) = 23.92880 33.49439 28.71159
#
# Velocity S-wave (km/s) = 3.32383 3.93246 3.64089
# Velocity P-wave (km/s) = 5.84270 7.07053 6.48574
#
# Compressibility (1/GPa) = 0.02379062
#
# Stress axis : x y z
#
# Youngs Moduli (GPa) = 124.16485 59.99016 55.54778
#
# Poissons Ratio (x) = 0.18577 0.03062
# Poissons Ratio (y) = 0.38450 0.32326
# Poissons Ratio (z) = 0.06845 0.34911
#
# Static dielectric constant tensor:
#      x y z
#    x 1.884670 -0.025430 -0.020580 
#    y -0.025430 1.814460 0.020000 
#    z -0.020580 0.020000 1.846470 
# 
# From -- ./inp_files/565910.got.cif
#   From: 2010.05.17/outbox.cif.g08.bks.cpg/sg2_283_cif.got.tgz:565910.got - 2010.06.03 11:33:40.
