data_PCOD9085869
_publ_section_title
;
Structure prediction by ZEFSAII (Michael W. Deem and Ramdas Pophale) SiO2 
 PCOD9085869
Probable space group: P -1
;
_chemical_formula_sum "Si O2"
_cell_formula_units_Z 16
_cell_length_a 9.397867
_cell_length_b 9.637239
_cell_length_c 13.595020
_cell_angle_alpha 53.070978
_cell_angle_beta 63.801840
_cell_angle_gamma 51.888004
_cell_volume 769.530275
_symmetry_space_group_name_H-M "P -1"
_symmetry_group_IT_number 2
_symmetry_cell_setting 'triclinic'
loop_
_space_group_symop_operation_xyz
x,y,z
-x,-y,-z
loop_
_atom_site_type_symbol
_atom_site_label
_atom_site_fract_x
_atom_site_fract_y
_atom_site_fract_z
Si Si1 0.414138 0.467418 0.137983
Si Si2 0.831717 0.044582 0.463696
Si Si3 0.024296 0.786732 0.110534
Si Si4 0.569580 0.077126 0.855642
Si Si5 0.164084 0.068418 0.702344
Si Si6 0.316907 0.545024 0.776368
Si Si7 0.993786 0.782147 0.902962
Si Si8 0.440866 0.061939 0.296803
O O1 0.232248 0.666325 0.129334
O O2 0.554575 0.423088 0.200017
O O3 0.358618 0.298315 0.213741
O O4 0.500000 0.500000 0.000000
O O5 0.744551 0.275600 0.358938
O O6 0.890013 0.904342 0.407627
O O7 0.688241 0.005511 0.582713
O O8 0.000000 0.000000 0.500000
O O9 0.918791 0.784120 0.241643
O O10 0.984509 0.719488 0.045381
O O11 0.000000 0.000000 0.000000
O O12 0.449916 0.318908 0.795897
O O13 0.792487 0.944170 0.855238
O O14 0.521131 0.019318 0.790686
O O15 0.500000 0.000000 0.000000
O O16 0.374582 0.005663 0.670322
O O17 0.107532 0.902109 0.818775
O O18 0.128949 0.595836 0.871070
#
# Coordination Sequence:
#
# PCOD9085869 Si02
#       8
#     2   2   2   2   2   2   2   2
#     4  12  21  40  72 108 139 184 232 289 371 431
#     4  11  25  48  75  96 142 194 246 298 355 424
#     4  10  19  35  64 100 141 178 224 285 347 424
#     4  12  27  44  69 108 148 185 241 295 363 442
#     4  10  20  41  68  98 131 176 233 294 350 406
#     4  11  23  45  74  99 142 196 236 290 371 425
#     4  10  20  42  68  98 146 187 224 287 362 424
#     4  12  24  44  70 104 139 183 240 300 348 425
#
# _framework density 20.791903999999999
#
# number of rings (size 3 to 8) (size 9 to 14) (size 15 to 20)
#    0.000    1.000    3.750    5.625    0.000    1.000 
#    6.750    0.625    0.000    0.000    0.000    0.000 
#    0.000    0.000    0.000    0.000    0.000    0.000 
#
# Total GULP energy -89170.671046 kJ/mol
# GULP energy per Si atom -5573.166940 kJ/mol
# Density = 2.074458 g / cm^3
# Si number density = 20.791904 Si / 1000 Ang^3
#
#
#
# Elastic Constant Matrix: (Units=GPa)
#
#
# Indices 1 2 3 4 5 6 
#
# 1 148.7952 54.7645 51.9560 -2.3636 18.5494 -13.8158
# 2 54.7645 108.2324 38.5298 -4.3760 10.1625 -16.9108
# 3 51.9560 38.5298 119.5690 8.6217 15.8077 1.9636
# 4 -2.3636 -4.3760 8.6217 31.7293 -2.8904 8.2060
# 5 18.5494 10.1625 15.8077 -2.8904 37.6027 4.2439
# 6 -13.8158 -16.9108 1.9636 8.2060 4.2439 40.7818
#
#
#
# Elastic Compliance Matrix: (Units=1/GPa)
#
#
# Indices 1 2 3 4 5 6 
#
# 1 0.009412 -0.003153 -0.002742 0.000159 -0.002884 0.002281
# 2 -0.003153 0.012591 -0.002685 0.001047 -0.001111 0.004187
# 3 -0.002742 -0.002685 0.011041 -0.003398 -0.002642 -0.001615
# 4 0.000159 0.001047 -0.003398 0.034769 0.004509 -0.006814
# 5 -0.002884 -0.001111 -0.002642 0.004509 0.030381 -0.005379
# 6 0.002281 0.004187 -0.001615 -0.006814 -0.005379 0.029039
#
#
# Mechanical properties :
#
#
# Convention : Reuss Voigt Hill
#
# Bulk Modulus (GPa) = 62.94933 74.12188 68.53561
# Shear Modulus (GPa) = 33.40311 37.44583 35.42447
#
# Velocity S-wave (km/s) = 4.01252 4.24840 4.13214
# Velocity P-wave (km/s) = 7.19783 7.73253 7.46996
#
# Compressibility (1/GPa) = 0.01588579
#
# Stress axis : x y z
#
# Youngs Moduli (GPa) = 106.24502 79.41942 90.57459
#
# Poissons Ratio (x) = 0.25040 0.24831
# Poissons Ratio (y) = 0.33498 0.24317
# Poissons Ratio (z) = 0.29127 0.21323
#
# Static dielectric constant tensor:
#      x y z
#    x 1.745880 -0.007380 0.018670 
#    y -0.007380 1.884580 0.025630 
#    z 0.018670 0.025630 1.730250 
# 
# From -- ./inp_files/381300.got.cif
#   From: 2010.05.17/outbox.cif.g08.bks.cpg/sg2_191_cif.got.tgz:381300.got - 2010.06.03 11:33:40.
