data_PCOD9085487
_publ_section_title
;
Structure prediction by ZEFSAII (Michael W. Deem and Ramdas Pophale) SiO2 
 PCOD9085487
Probable space group: P -1
;
_chemical_formula_sum "Si O2"
_cell_formula_units_Z 12
_cell_length_a 17.945719
_cell_length_b 9.262822
_cell_length_c 4.917945
_cell_angle_alpha 109.456185
_cell_angle_beta 66.822400
_cell_angle_gamma 143.968010
_cell_volume 441.905656
_symmetry_space_group_name_H-M "P -1"
_symmetry_group_IT_number 2
_symmetry_cell_setting 'triclinic'
loop_
_space_group_symop_operation_xyz
x,y,z
-x,-y,-z
loop_
_atom_site_type_symbol
_atom_site_label
_atom_site_fract_x
_atom_site_fract_y
_atom_site_fract_z
Si Si1 0.818472 0.460810 0.090001
Si Si2 0.116473 0.109623 0.585867
Si Si3 0.345696 0.839857 0.377285
Si Si4 0.110061 0.898915 0.973409
Si Si5 0.383824 0.287833 0.745653
Si Si6 0.482309 0.726205 0.004147
O O1 0.804387 0.618814 0.296742
O O2 0.715168 0.225337 0.282879
O O3 0.964637 0.616764 0.031933
O O4 0.772542 0.369401 0.791692
O O5 0.157418 0.028097 0.282344
O O6 0.000000 0.000000 0.500000
O O7 0.079438 0.984257 0.847930
O O8 0.433609 0.100492 0.272859
O O9 0.432284 0.813382 0.243730
O O10 0.238127 0.012443 0.726949
O O11 0.500000 0.500000 0.500000
O O12 0.360053 0.435105 0.939467
O O13 0.440317 0.268188 0.894729
#
# Coordination Sequence:
#
# PCOD9085487 Si02
#       6
#     2   2   2   2   2   2
#     4  11  21  39  65 102 131 171 213 281 341 387
#     4  10  19  35  60  97 134 167 210 272 327 385
#     4  11  25  43  73  97 139 168 225 275 337 393
#     4  11  23  39  64  98 133 171 222 274 332 390
#     4  11  26  45  70  92 136 181 229 270 324 398
#     4  10  26  46  65 101 128 185 223 274 322 399
#
# _framework density 27.15512
#
# number of rings (size 3 to 8) (size 9 to 14) (size 15 to 20)
#    0.000    1.333    0.000    7.000   11.667    1.333 
#    0.000    1.667    0.000    0.000    0.000    0.000 
#    0.000    0.000    0.000    0.000    0.000    0.000 
#
# Total GULP energy -67060.240287 kJ/mol
# GULP energy per Si atom -5588.353357 kJ/mol
# Density = 2.709331 g / cm^3
# Si number density = 27.155120 Si / 1000 Ang^3
#
#
#
# Elastic Constant Matrix: (Units=GPa)
#
#
# Indices 1 2 3 4 5 6 
#
# 1 140.2461 36.5036 29.0180 -32.6401 3.1649 -8.6304
# 2 36.5036 115.8643 5.3523 -18.7600 -9.7022 -5.5616
# 3 29.0180 5.3523 100.0248 -23.7071 13.5784 4.8477
# 4 -32.6401 -18.7600 -23.7071 57.6979 10.7203 -2.4558
# 5 3.1649 -9.7022 13.5784 10.7203 36.7221 -18.3214
# 6 -8.6304 -5.5616 4.8477 -2.4558 -18.3214 53.3745
#
#
#
# Elastic Compliance Matrix: (Units=1/GPa)
#
#
# Indices 1 2 3 4 5 6 
#
# 1 0.009054 -0.002196 -0.001350 0.004190 -0.001582 0.001008
# 2 -0.002196 0.009931 -0.000124 0.001383 0.003417 0.001927
# 3 -0.001350 -0.000124 0.013196 0.006042 -0.008608 -0.004107
# 4 0.004190 0.001383 0.006042 0.024487 -0.010474 -0.002196
# 5 -0.001582 0.003417 -0.008608 -0.010474 0.041884 0.014777
# 6 0.001008 0.001927 -0.004107 -0.002196 0.014777 0.024444
#
#
# Mechanical properties :
#
#
# Convention : Reuss Voigt Hill
#
# Bulk Modulus (GPa) = 40.25614 55.32031 47.78823
# Shear Modulus (GPa) = 36.07104 48.57631 42.32368
#
# Velocity S-wave (km/s) = 3.64858 4.23406 3.95218
# Velocity P-wave (km/s) = 5.71019 6.65727 6.20183
#
# Compressibility (1/GPa) = 0.02484093
#
# Stress axis : x y z
#
# Youngs Moduli (GPa) = 110.44734 100.69604 75.78281
#
# Poissons Ratio (x) = 0.22111 0.10232
# Poissons Ratio (y) = 0.24252 0.00938
# Poissons Ratio (z) = 0.14913 0.01246
#
# Static dielectric constant tensor:
#      x y z
#    x 2.139850 -0.021710 -0.185970 
#    y -0.021710 2.151770 0.137430 
#    z -0.185970 0.137430 2.331340 
# 
# From -- ./inp_files/105336.got.cif
#   From: 2010.05.17/outbox.cif.g08.bks.cpg/sg2_53_cif.got.tgz:105336.got - 2010.06.03 11:33:40.
