data_PCOD9085390
_publ_section_title
;
Structure prediction by ZEFSAII (Michael W. Deem and Ramdas Pophale) SiO2 
 PCOD9085390
Probable space group: P -1
;
_chemical_formula_sum "Si O2"
_cell_formula_units_Z 14
_cell_length_a 12.732061
_cell_length_b 11.762912
_cell_length_c 9.329855
_cell_angle_alpha 55.296966
_cell_angle_beta 34.553061
_cell_angle_gamma 63.397455
_cell_volume 650.860807
_symmetry_space_group_name_H-M "P -1"
_symmetry_group_IT_number 2
_symmetry_cell_setting 'triclinic'
loop_
_space_group_symop_operation_xyz
x,y,z
-x,-y,-z
loop_
_atom_site_type_symbol
_atom_site_label
_atom_site_fract_x
_atom_site_fract_y
_atom_site_fract_z
Si Si1 0.655162 0.573895 0.670924
Si Si2 0.006204 0.420790 0.898348
Si Si3 0.023416 0.884351 0.841018
Si Si4 0.593023 0.075792 0.708560
Si Si5 0.421487 0.148866 0.365197
Si Si6 0.207200 0.913682 0.927406
Si Si7 0.433577 0.619594 0.595314
O O1 0.695899 0.716707 0.609919
O O2 0.544015 0.604919 0.628247
O O3 0.849604 0.518943 0.428766
O O4 0.500000 0.500000 0.000000
O O5 0.075170 0.265131 0.961177
O O6 0.788745 0.402705 0.112560
O O7 0.000000 0.500000 0.000000
O O8 0.189328 0.892432 0.536443
O O9 0.107297 0.877744 0.915549
O O10 0.929996 0.031827 0.839083
O O11 0.526767 0.225520 0.625156
O O12 0.579800 0.958458 0.685385
O O13 0.500000 0.000000 0.000000
O O14 0.636670 0.188299 0.129274
O O15 0.325744 0.058119 0.663354
O O16 0.500000 0.500000 0.500000
#
# Coordination Sequence:
#
# PCOD9085390 Si02
#       7
#     2   2   2   2   2   2   2
#     4  12  26  42  67 101 132 176 228 280 328 398
#     4  11  22  40  66  91 133 182 219 263 335 409
#     4   9  18  33  59  89 118 153 212 255 323 376
#     4  10  23  39  64  93 128 171 214 268 329 392
#     4  10  19  35  60  87 123 155 213 263 319 370
#     4   9  16  33  61  87 110 153 199 263 315 377
#     4  11  24  45  69  96 136 180 222 272 339 398
#
# _framework density 21.509976999999999
#
# number of rings (size 3 to 8) (size 9 to 14) (size 15 to 20)
#    0.000    1.714    2.857    3.429    2.000    0.571 
#    0.000    2.143    0.000    0.000    0.000    0.000 
#    0.000    0.000    0.000    0.000    0.000    0.000 
#
# Total GULP energy -77939.958240 kJ/mol
# GULP energy per Si atom -5567.139874 kJ/mol
# Density = 2.146102 g / cm^3
# Si number density = 21.509977 Si / 1000 Ang^3
#
#
#
# Elastic Constant Matrix: (Units=GPa)
#
#
# Indices 1 2 3 4 5 6 
#
# 1 45.0395 18.4088 26.0594 2.6512 -6.8263 5.5140
# 2 18.4088 133.2634 39.8979 22.4714 9.2968 22.9179
# 3 26.0594 39.8979 150.0486 10.4551 12.8485 -4.1230
# 4 2.6512 22.4714 10.4551 29.8301 -1.2088 -5.4965
# 5 -6.8263 9.2968 12.8485 -1.2088 29.6401 3.8203
# 6 5.5140 22.9179 -4.1230 -5.4965 3.8203 25.4847
#
#
#
# Elastic Compliance Matrix: (Units=1/GPa)
#
#
# Indices 1 2 3 4 5 6 
#
# 1 0.028622 -0.001767 -0.005584 -0.000141 0.010477 -0.007108
# 2 -0.001767 0.012935 -0.002548 -0.011319 -0.002043 -0.013797
# 3 -0.005584 -0.002548 0.008893 0.000149 -0.005074 0.005731
# 4 -0.000141 -0.011319 0.000149 0.045750 0.002782 0.019684
# 5 0.010477 -0.002043 -0.005074 0.002782 0.039961 -0.006641
# 6 -0.007108 -0.013797 0.005731 0.019684 -0.006641 0.059353
#
#
# Mechanical properties :
#
#
# Convention : Reuss Voigt Hill
#
# Bulk Modulus (GPa) = 32.62306 55.23151 43.92728
# Shear Modulus (GPa) = 22.17024 33.25669 27.71346
#
# Velocity S-wave (km/s) = 3.21393 3.93632 3.59332
# Velocity P-wave (km/s) = 5.38255 6.81120 6.13858
#
# Compressibility (1/GPa) = 0.03065317
#
# Stress axis : x y z
#
# Youngs Moduli (GPa) = 34.93823 77.31155 112.44342
#
# Poissons Ratio (x) = 0.13659 0.62785
# Poissons Ratio (y) = 0.06173 0.28651
# Poissons Ratio (z) = 0.19508 0.19699
#
# Static dielectric constant tensor:
#      x y z
#    x 1.850620 -0.020410 -0.071310 
#    y -0.020410 1.957170 0.114540 
#    z -0.071310 0.114540 1.971130 
# 
# From -- ./inp_files/256584.got.cif
#   From: 2010.05.17/outbox.cif.g08.bks.cpg/sg2_129_cif.got.tgz:256584.got - 2010.06.03 11:33:40.
