data_PCOD9085266
_publ_section_title
;
Structure prediction by ZEFSAII (Michael W. Deem and Ramdas Pophale) SiO2 
 PCOD9085266
Probable space group: P -1
;
_chemical_formula_sum "Si O2"
_cell_formula_units_Z 12
_cell_length_a 16.974070
_cell_length_b 5.189379
_cell_length_c 7.765394
_cell_angle_alpha 114.202510
_cell_angle_beta 48.177085
_cell_angle_gamma 113.403989
_cell_volume 457.147658
_symmetry_space_group_name_H-M "P -1"
_symmetry_group_IT_number 2
_symmetry_cell_setting 'triclinic'
loop_
_space_group_symop_operation_xyz
x,y,z
-x,-y,-z
loop_
_atom_site_type_symbol
_atom_site_label
_atom_site_fract_x
_atom_site_fract_y
_atom_site_fract_z
Si Si1 0.747183 0.867588 0.641604
Si Si2 0.537817 0.817880 0.738647
Si Si3 0.201005 0.023042 0.893213
Si Si4 0.410075 0.184561 0.813019
Si Si5 0.916892 0.449039 0.267348
Si Si6 0.119877 0.613034 0.219179
O O1 0.664509 0.856774 0.601914
O O2 0.825463 0.640683 0.443999
O O3 0.820758 0.176016 0.662767
O O4 0.669092 0.784136 0.899838
O O5 0.485886 0.486743 0.750828
O O6 0.478523 0.944838 0.701903
O O7 0.500000 0.000000 0.000000
O O8 0.155153 0.306775 0.083436
O O9 0.168795 0.786655 0.024955
O O10 0.328545 0.101610 0.751578
O O11 0.141563 0.878465 0.770371
O O12 0.991837 0.553094 0.351583
O O13 0.000000 0.500000 0.000000
#
# Coordination Sequence:
#
# PCOD9085266 Si02
#       6
#     2   2   2   2   2   2
#     4  10  20  37  63  91 117 156 199 242 293 350
#     4  10  19  35  59  90 117 147 193 247 290 341
#     4  10  20  39  61  85 119 157 191 241 298 346
#     4  10  20  37  60  88 117 151 194 243 290 347
#     4  10  22  41  60  88 123 158 196 244 295 350
#     4  10  21  39  60  86 115 155 201 243 287 346
#
# _framework density 26.249724000000001
#
# number of rings (size 3 to 8) (size 9 to 14) (size 15 to 20)
#    0.000    2.000    0.000    6.000    0.000    1.333 
#    0.000   41.667    0.000    0.000    0.000    1.167 
#    0.000    0.000    0.000    0.000    0.000    0.000 
#
# Total GULP energy -67256.459385 kJ/mol
# GULP energy per Si atom -5604.704949 kJ/mol
# Density = 2.618998 g / cm^3
# Si number density = 26.249724 Si / 1000 Ang^3
#
#
#
# Elastic Constant Matrix: (Units=GPa)
#
#
# Indices 1 2 3 4 5 6 
#
# 1 235.9104 45.5314 70.6239 -3.0546 -10.7412 44.9187
# 2 45.5314 196.5244 33.1347 23.2466 -12.0965 21.9975
# 3 70.6239 33.1347 176.5186 2.3996 -39.1903 24.6706
# 4 -3.0546 23.2466 2.3996 47.6209 1.9215 -18.8053
# 5 -10.7412 -12.0965 -39.1903 1.9215 67.2264 -4.5871
# 6 44.9187 21.9975 24.6706 -18.8053 -4.5871 84.8390
#
#
#
# Elastic Compliance Matrix: (Units=1/GPa)
#
#
# Indices 1 2 3 4 5 6 
#
# 1 0.005297 -0.000709 -0.001791 -0.000048 -0.000470 -0.002136
# 2 -0.000709 0.006009 -0.000371 -0.003724 0.000731 -0.001861
# 3 -0.001791 -0.000371 0.007503 -0.000916 0.003970 -0.001126
# 4 -0.000048 -0.003724 -0.000916 0.025628 -0.001477 0.006859
# 5 -0.000470 0.000731 0.003970 -0.001477 0.017255 -0.000490
# 6 -0.002136 -0.001861 -0.001126 0.006859 -0.000490 0.015221
#
#
# Mechanical properties :
#
#
# Convention : Reuss Voigt Hill
#
# Bulk Modulus (GPa) = 76.54028 100.83706 88.68867
# Shear Modulus (GPa) = 57.46363 70.58149 64.02256
#
# Velocity S-wave (km/s) = 4.68387 5.19103 4.94396
# Velocity P-wave (km/s) = 7.64679 8.62711 8.15170
#
# Compressibility (1/GPa) = 0.01306502
#
# Stress axis : x y z
#
# Youngs Moduli (GPa) = 188.79870 166.41210 133.28586
#
# Poissons Ratio (x) = 0.11804 0.23874
# Poissons Ratio (y) = 0.13392 0.04948
# Poissons Ratio (z) = 0.33817 0.06178
#
# Static dielectric constant tensor:
#      x y z
#    x 2.195940 -0.085840 0.170180 
#    y -0.085840 2.053500 -0.158970 
#    z 0.170180 -0.158970 2.098020 
# 
# From -- ./inp_files/32027.got.cif
#   From: 2010.05.17/outbox.cif.g08.bks.cpg/sg2_17_cif.got.tgz:32027.got - 2010.06.03 11:33:40.
