data_PCOD9085112
_publ_section_title
;
Structure prediction by ZEFSAII (Michael W. Deem and Ramdas Pophale) SiO2 
 PCOD9085112
Probable space group: P -1
;
_chemical_formula_sum "Si O2"
_cell_formula_units_Z 14
_cell_length_a 15.415732
_cell_length_b 15.414906
_cell_length_c 7.521109
_cell_angle_alpha 92.722670
_cell_angle_beta 77.771065
_cell_angle_gamma 160.228119
_cell_volume 524.870800
_symmetry_space_group_name_H-M "P -1"
_symmetry_group_IT_number 2
_symmetry_cell_setting 'triclinic'
loop_
_space_group_symop_operation_xyz
x,y,z
-x,-y,-z
loop_
_atom_site_type_symbol
_atom_site_label
_atom_site_fract_x
_atom_site_fract_y
_atom_site_fract_z
Si Si1 0.148784 0.664335 0.640224
Si Si2 0.846478 0.122560 0.804258
Si Si3 0.319009 0.666473 0.784404
Si Si4 0.551526 0.584561 0.270668
Si Si5 0.198603 0.905734 0.703551
Si Si6 0.845618 0.916925 0.803055
Si Si7 0.707348 0.480452 0.651650
O O1 0.128173 0.569652 0.786500
O O2 0.075523 0.692601 0.740442
O O3 0.000000 0.500000 0.500000
O O4 0.500000 0.000000 0.500000
O O5 0.074874 0.363380 0.882948
O O6 0.058791 0.345419 0.565179
O O7 0.537860 0.882840 0.877052
O O8 0.802155 0.978354 0.797627
O O9 0.560548 0.868569 0.544325
O O10 0.320721 0.295265 0.290922
O O11 0.408584 0.540887 0.392371
O O12 0.696826 0.752506 0.038530
O O13 0.814687 0.793053 0.293965
O O14 0.914532 0.697431 0.750624
O O15 0.422498 0.154167 0.777206
#
# Coordination Sequence:
#
# PCOD9085112 Si02
#       7
#     2   2   2   2   2   2   2
#     4  10  16  26  44  68 101 134 159 188 233 280
#     4  10  19  31  48  72  99 124 156 198 241 282
#     4   9  17  28  44  70 100 128 156 192 234 280
#     4  10  21  36  52  70  93 124 163 201 238 287
#     4   9  17  28  44  70 100 128 156 192 234 280
#     4  10  21  36  52  70  93 124 163 201 238 287
#     4  10  19  31  48  72  99 124 156 198 241 282
#
# _framework density 26.67323
#
# number of rings (size 3 to 8) (size 9 to 14) (size 15 to 20)
#    0.000    2.286    0.000    6.000    0.000    1.143 
#    0.000    0.000    0.000    0.000    0.000    6.000 
#    0.000    0.000    0.000    0.000    0.000    0.000 
#
# Total GULP energy -78304.489811 kJ/mol
# GULP energy per Si atom -5593.177844 kJ/mol
# Density = 2.661252 g / cm^3
# Si number density = 26.673230 Si / 1000 Ang^3
#
#
#
# Elastic Constant Matrix: (Units=GPa)
#
#
# Indices 1 2 3 4 5 6 
#
# 1 141.8225 74.0301 17.9496 -18.9408 10.5559 2.3022
# 2 74.0301 242.3642 37.5621 -35.2947 1.4692 12.7828
# 3 17.9496 37.5621 59.1085 -5.6471 -1.4617 5.9897
# 4 -18.9408 -35.2947 -5.6471 45.5352 0.4578 2.0565
# 5 10.5559 1.4692 -1.4617 0.4578 37.8715 -2.0409
# 6 2.3022 12.7828 5.9897 2.0565 -2.0409 50.3623
#
#
#
# Elastic Compliance Matrix: (Units=1/GPa)
#
#
# Indices 1 2 3 4 5 6 
#
# 1 0.008781 -0.002235 -0.001148 0.001796 -0.002420 0.000131
# 2 -0.002235 0.005736 -0.002531 0.003253 0.000200 -0.001177
# 3 -0.001148 -0.002531 0.019055 -0.000018 0.001071 -0.001527
# 4 0.001796 0.003253 -0.000018 0.025328 -0.001041 -0.001982
# 5 -0.002420 0.000200 0.001071 -0.001041 0.027184 0.001077
# 6 0.000131 -0.001177 -0.001527 -0.001982 0.001077 0.020455
#
#
# Mechanical properties :
#
#
# Convention : Reuss Voigt Hill
#
# Bulk Modulus (GPa) = 45.99081 78.04211 62.01646
# Shear Modulus (GPa) = 39.80485 47.67068 43.73777
#
# Velocity S-wave (km/s) = 3.86724 4.23213 4.05379
# Velocity P-wave (km/s) = 6.10086 7.29406 6.72398
#
# Compressibility (1/GPa) = 0.02174347
#
# Stress axis : x y z
#
# Youngs Moduli (GPa) = 113.88509 174.34982 52.48086
#
# Poissons Ratio (x) = 0.38965 0.06024
# Poissons Ratio (y) = 0.25452 0.13283
# Poissons Ratio (z) = 0.13071 0.44130
#
# Static dielectric constant tensor:
#      x y z
#    x 2.048370 -0.014730 0.046770 
#    y -0.014730 2.102620 0.122010 
#    z 0.046770 0.122010 2.246210 
# 
# From -- ./inp_files/87650.got.cif
#   From: 2010.05.17/outbox.cif.g08.bks.cpg/sg2_44_cif.got.tgz:87650.got - 2010.06.03 11:33:40.
