data_PCOD9085818
_publ_section_title
;
Structure prediction by ZEFSAII (Michael W. Deem and Ramdas Pophale) SiO2 
 PCOD9085818
Probable space group: P -1
;
_chemical_formula_sum "Si O2"
_cell_formula_units_Z 16
_cell_length_a 9.201019
_cell_length_b 13.472291
_cell_length_c 12.232467
_cell_angle_alpha 101.726476
_cell_angle_beta 140.060794
_cell_angle_gamma 54.893536
_cell_volume 710.120619
_symmetry_space_group_name_H-M "P -1"
_symmetry_group_IT_number 2
_symmetry_cell_setting 'triclinic'
loop_
_space_group_symop_operation_xyz
x,y,z
-x,-y,-z
loop_
_atom_site_type_symbol
_atom_site_label
_atom_site_fract_x
_atom_site_fract_y
_atom_site_fract_z
Si Si1 0.733597 0.313244 0.910123
Si Si2 0.986639 0.609819 0.231667
Si Si3 0.765446 0.369035 0.276180
Si Si4 0.273027 0.285101 0.124799
Si Si5 0.201532 0.397380 0.490178
Si Si6 0.686217 0.190428 0.054354
Si Si7 0.731480 0.008954 0.192358
Si Si8 0.748248 0.288496 0.489622
O O1 0.501301 0.468273 0.859370
O O2 0.545159 0.320048 0.702937
O O3 0.787753 0.205936 0.001837
O O4 0.034094 0.283473 0.045135
O O5 0.107099 0.482582 0.345486
O O6 0.207139 0.640627 0.375466
O O7 0.899850 0.615863 0.057772
O O8 0.668361 0.735590 0.135827
O O9 0.693034 0.285341 0.158985
O O10 0.787736 0.339422 0.411211
O O11 0.080599 0.319222 0.400159
O O12 0.538167 0.137057 0.191159
O O13 0.438755 0.318922 0.301778
O O14 0.000000 0.500000 0.500000
O O15 0.855768 0.046786 0.177499
O O16 0.990759 0.871317 0.373673
O O17 0.500000 0.000000 0.000000
#
# Coordination Sequence:
#
# PCOD9085818 Si02
#       8
#     2   2   2   2   2   2   2   2
#     4  11  23  42  61  98 138 157 205 269 326 374
#     4  11  20  41  63  94 125 165 220 248 308 385
#     4  11  21  37  68  98 120 173 212 257 310 388
#     4  11  26  41  63  98 129 169 204 268 327 361
#     4  10  19  35  63  91 124 168 207 250 309 387
#     4  11  21  40  66  95 123 168 219 257 305 380
#     4  11  23  43  71  89 121 172 223 261 296 380
#     4  12  21  42  68  91 126 168 224 251 309 381
#
# _framework density 22.531383999999999
#
# number of rings (size 3 to 8) (size 9 to 14) (size 15 to 20)
#    0.000    1.000   10.000    0.750    0.000    1.000 
#    2.250    1.250    0.000    0.000    0.000    0.000 
#    0.000    0.000    0.000    0.000    0.000    0.000 
#
# Total GULP energy -89493.014546 kJ/mol
# GULP energy per Si atom -5593.313409 kJ/mol
# Density = 2.248010 g / cm^3
# Si number density = 22.531384 Si / 1000 Ang^3
#
#
#
# Elastic Constant Matrix: (Units=GPa)
#
#
# Indices 1 2 3 4 5 6 
#
# 1 126.0789 24.2467 52.0839 -3.8996 12.1844 37.9076
# 2 24.2467 68.7173 36.7784 -5.3170 8.0248 26.0308
# 3 52.0839 36.7784 125.4879 14.2666 19.8984 9.0733
# 4 -3.8996 -5.3170 14.2666 32.5896 13.8569 2.9625
# 5 12.1844 8.0248 19.8984 13.8569 38.1456 6.6838
# 6 37.9076 26.0308 9.0733 2.9625 6.6838 33.6353
#
#
#
# Elastic Compliance Matrix: (Units=1/GPa)
#
#
# Indices 1 2 3 4 5 6 
#
# 1 0.018508 0.009716 -0.009526 0.011438 -0.002531 -0.026313
# 2 0.009716 0.031876 -0.012274 0.016234 -0.003515 -0.033040
# 3 -0.009526 -0.012274 0.015776 -0.010910 -0.001668 0.017272
# 4 0.011438 0.016234 -0.010910 0.047844 -0.014583 -0.023828
# 5 -0.002531 -0.003515 -0.001668 -0.014583 0.033828 0.000585
# 6 -0.026313 -0.033040 0.017272 -0.023828 0.000585 0.082279
#
#
# Mechanical properties :
#
#
# Convention : Reuss Voigt Hill
#
# Bulk Modulus (GPa) = 23.81431 60.72246 42.26839
# Shear Modulus (GPa) = 18.63742 34.68577 26.66159
#
# Velocity S-wave (km/s) = 2.87919 3.92783 3.44366
# Velocity P-wave (km/s) = 4.65245 6.89776 5.88321
#
# Compressibility (1/GPa) = 0.04199155
#
# Stress axis : x y z
#
# Youngs Moduli (GPa) = 54.03050 31.37173 63.38741
#
# Poissons Ratio (x) = -0.30481 0.60382
# Poissons Ratio (y) = -0.52497 0.77804
# Poissons Ratio (z) = 0.51469 0.38507
#
# Static dielectric constant tensor:
#      x y z
#    x 1.871460 -0.019910 0.011360 
#    y -0.019910 1.857240 0.028150 
#    z 0.011360 0.028150 1.875460 
# 
# From -- ./inp_files/399146.got.cif
#   From: 2010.05.17/outbox.cif.g08.bks.cpg/sg2_200_cif.got.tgz:399146.got - 2010.06.03 11:33:40.
