data_PCOD9085500
_publ_section_title
;
Structure prediction by ZEFSAII (Michael W. Deem and Ramdas Pophale) SiO2 
 PCOD9085500
Probable space group: P -1
;
_chemical_formula_sum "Si O2"
_cell_formula_units_Z 14
_cell_length_a 9.913296
_cell_length_b 16.529104
_cell_length_c 7.977007
_cell_angle_alpha 148.985523
_cell_angle_beta 108.932516
_cell_angle_gamma 54.956156
_cell_volume 505.972897
_symmetry_space_group_name_H-M "P -1"
_symmetry_group_IT_number 2
_symmetry_cell_setting 'triclinic'
loop_
_space_group_symop_operation_xyz
x,y,z
-x,-y,-z
loop_
_atom_site_type_symbol
_atom_site_label
_atom_site_fract_x
_atom_site_fract_y
_atom_site_fract_z
Si Si1 0.726827 0.917361 0.922269
Si Si2 0.458852 0.649821 0.908658
Si Si3 0.068631 0.650902 0.128279
Si Si4 0.708719 0.262918 0.493717
Si Si5 0.793198 0.593812 0.571098
Si Si6 0.729131 0.723757 0.232073
Si Si7 0.858950 0.252679 0.181487
O O1 0.688291 0.822380 0.888872
O O2 0.707805 0.843596 0.604365
O O3 0.933101 0.839301 0.888629
O O4 0.627352 0.149198 0.298145
O O5 0.500000 0.500000 0.500000
O O6 0.549533 0.495515 0.824271
O O7 0.243213 0.788649 0.068747
O O8 0.547703 0.764386 0.159236
O O9 0.125854 0.791026 0.422350
O O10 0.860954 0.738067 0.190359
O O11 0.194622 0.510007 0.780137
O O12 0.146180 0.507498 0.068716
O O13 0.802930 0.205000 0.245874
O O14 0.771093 0.485251 0.517995
O O15 0.000000 0.500000 0.500000
#
# Coordination Sequence:
#
# PCOD9085500 Si02
#       7
#     2   2   2   2   2   2   2
#     4  10  19  35  61  83 107 141 191 229 264 319
#     4   9  20  33  54  81 113 143 180 224 277 322
#     4   9  17  31  55  81 104 145 189 217 259 336
#     4  10  19  35  61  83 107 141 191 229 264 319
#     4   9  20  33  54  81 113 143 180 224 277 322
#     4   9  17  31  55  81 104 145 189 217 259 336
#     4  10  19  36  55  84 110 144 178 228 274 324
#
# _framework density 27.669468999999999
#
# number of rings (size 3 to 8) (size 9 to 14) (size 15 to 20)
#    0.000    2.571    1.429    0.429   12.000    0.000 
#    0.000   12.857    0.000    0.000    0.000    0.000 
#    0.000    0.000    0.000    0.000    0.000    0.000 
#
# Total GULP energy -78074.705603 kJ/mol
# GULP energy per Si atom -5576.764686 kJ/mol
# Density = 2.760649 g / cm^3
# Si number density = 27.669469 Si / 1000 Ang^3
#
#
#
# Elastic Constant Matrix: (Units=GPa)
#
#
# Indices 1 2 3 4 5 6 
#
# 1 152.7582 65.2296 46.3873 -10.6315 43.5349 -52.9019
# 2 65.2296 76.9486 43.2285 -12.9363 13.3328 -3.8380
# 3 46.3873 43.2285 106.0877 -0.9657 42.0839 -7.7001
# 4 -10.6315 -12.9363 -0.9657 29.8684 -6.4301 21.0465
# 5 43.5349 13.3328 42.0839 -6.4301 51.4848 -9.2433
# 6 -52.9019 -3.8380 -7.7001 21.0465 -9.2433 63.5775
#
#
#
# Elastic Compliance Matrix: (Units=1/GPa)
#
#
# Indices 1 2 3 4 5 6 
#
# 1 0.042084 -0.043213 0.015678 -0.040837 -0.034628 0.042792
# 2 -0.043213 0.063747 -0.025502 0.052965 0.039045 -0.047055
# 3 0.015678 -0.025502 0.024518 -0.023267 -0.026305 0.018353
# 4 -0.040837 0.052965 -0.023267 0.090528 0.040792 -0.057638
# 5 -0.034628 0.039045 -0.026305 0.040792 0.058982 -0.034571
# 6 0.042792 -0.047055 0.018353 -0.057638 -0.034571 0.064772
#
#
# Mechanical properties :
#
#
# Convention : Reuss Voigt Hill
#
# Bulk Modulus (GPa) = 41.19880 71.72059 56.45970
# Shear Modulus (GPa) = 10.89809 41.04941 25.97375
#
# Velocity S-wave (km/s) = 1.98676 3.85588 3.06717
# Velocity P-wave (km/s) = 4.49276 6.76761 5.74393
#
# Compressibility (1/GPa) = 0.02427255
#
# Stress axis : x y z
#
# Youngs Moduli (GPa) = 23.76212 15.68708 40.78688
#
# Poissons Ratio (x) = 0.67789 -0.63945
# Poissons Ratio (y) = 1.02684 1.04016
# Poissons Ratio (z) = -0.37254 0.40006
#
# Static dielectric constant tensor:
#      x y z
#    x 2.210250 -0.071010 -0.010890 
#    y -0.071010 2.302480 -0.060490 
#    z -0.010890 -0.060490 2.321170 
# 
# From -- ./inp_files/280264.got.cif
#   From: 2010.05.17/outbox.cif.g08.bks.cpg/sg2_141_cif.got.tgz:280264.got - 2010.06.03 11:33:40.
