data_PCOD9085752
_publ_section_title
;
Structure prediction by ZEFSAII (Michael W. Deem and Ramdas Pophale) SiO2 
 PCOD9085752
Probable space group: P -1
;
_chemical_formula_sum "Si O2"
_cell_formula_units_Z 14
_cell_length_a 11.600661
_cell_length_b 8.258920
_cell_length_c 7.500243
_cell_angle_alpha 111.673587
_cell_angle_beta 63.028586
_cell_angle_gamma 105.740167
_cell_volume 590.464587
_symmetry_space_group_name_H-M "P -1"
_symmetry_group_IT_number 2
_symmetry_cell_setting 'triclinic'
loop_
_space_group_symop_operation_xyz
x,y,z
-x,-y,-z
loop_
_atom_site_type_symbol
_atom_site_label
_atom_site_fract_x
_atom_site_fract_y
_atom_site_fract_z
Si Si1 0.801272 0.397057 0.544140
Si Si2 0.371852 0.364073 0.030758
Si Si3 0.618143 0.872141 0.729953
Si Si4 0.331188 0.787787 0.752875
Si Si5 0.637159 0.582947 0.339014
Si Si6 0.966902 0.726524 0.456510
Si Si7 0.158121 0.946804 0.184475
O O1 0.692204 0.274451 0.459866
O O2 0.884335 0.538188 0.413481
O O3 0.908861 0.297339 0.518412
O O4 0.739346 0.522979 0.776971
O O5 0.359587 0.320306 0.813381
O O6 0.500000 0.500000 0.000000
O O7 0.394171 0.217835 0.102240
O O8 0.685806 0.736571 0.504552
O O9 0.716373 0.047958 0.766276
O O10 0.523631 0.124277 0.258433
O O11 0.304974 0.600624 0.800676
O O12 0.220997 0.905039 0.936659
O O13 0.500000 0.500000 0.500000
O O14 0.033327 0.812094 0.267328
O O15 0.888947 0.864723 0.671199
#
# Coordination Sequence:
#
# PCOD9085752 Si02
#       7
#     2   2   2   2   2   2   2
#     4  11  23  44  68  98 125 174 238 271 310 399
#     4  12  19  36  70  97 133 166 215 280 330 370
#     4  11  22  42  63 105 138 168 213 276 334 411
#     4  11  21  38  67  96 134 166 218 275 335 391
#     4  10  19  35  62  97 127 171 214 253 318 403
#     4  10  24  45  66  87 132 184 226 274 318 381
#     4  11  23  44  65  92 139 180 209 278 340 384
#
# _framework density 23.710139999999999
#
# number of rings (size 3 to 8) (size 9 to 14) (size 15 to 20)
#    0.000    1.143    5.714    2.143    0.000    1.143 
#    2.571    6.429    0.000    0.000    0.000    0.000 
#    0.000    0.000    0.000    0.000    0.000    0.000 
#
# Total GULP energy -78113.954802 kJ/mol
# GULP energy per Si atom -5579.568200 kJ/mol
# Density = 2.365617 g / cm^3
# Si number density = 23.710140 Si / 1000 Ang^3
#
#
#
# Elastic Constant Matrix: (Units=GPa)
#
#
# Indices 1 2 3 4 5 6 
#
# 1 85.6741 8.9142 31.3163 -6.5748 -7.7805 -9.5402
# 2 8.9142 34.8955 24.3151 -12.1121 0.9324 19.4650
# 3 31.3163 24.3151 99.5658 -3.1950 5.5146 -1.2686
# 4 -6.5748 -12.1121 -3.1950 23.7760 -4.9327 -0.2555
# 5 -7.7805 0.9324 5.5146 -4.9327 44.1482 -1.3840
# 6 -9.5402 19.4650 -1.2686 -0.2555 -1.3840 29.5095
#
#
#
# Elastic Compliance Matrix: (Units=1/GPa)
#
#
# Indices 1 2 3 4 5 6 
#
# 1 0.014921 -0.006138 -0.003235 0.001407 0.003600 0.008914
# 2 -0.006138 0.098784 -0.021734 0.045500 0.002512 -0.067567
# 3 -0.003235 -0.021734 0.016375 -0.010212 -0.002866 0.013771
# 4 0.001407 0.045500 -0.010212 0.065385 0.006956 -0.029105
# 5 0.003600 0.002512 -0.002866 0.006956 0.024386 0.000587
# 6 0.008914 -0.067567 0.013771 -0.029105 0.000587 0.081705
#
#
# Mechanical properties :
#
#
# Convention : Reuss Voigt Hill
#
# Bulk Modulus (GPa) = 14.73459 38.80295 26.76877
# Shear Modulus (GPa) = 12.94026 29.85940 21.39983
#
# Velocity S-wave (km/s) = 2.33870 3.55258 3.00752
# Velocity P-wave (km/s) = 3.67705 5.76445 4.83475
#
# Compressibility (1/GPa) = 0.06786750
#
# Stress axis : x y z
#
# Youngs Moduli (GPa) = 67.02092 10.12310 61.06839
#
# Poissons Ratio (x) = 0.06213 0.19754
# Poissons Ratio (y) = 0.41136 1.32723
# Poissons Ratio (z) = 0.21679 0.22001
#
# Static dielectric constant tensor:
#      x y z
#    x 2.755870 -1.045770 1.711580 
#    y -1.045770 3.227450 -2.233770 
#    z 1.711580 -2.233770 5.740380 
# 
# From -- ./inp_files/327937.got.cif
#   From: 2010.05.17/outbox.cif.g08.bks.cpg/sg2_164_cif.got.tgz:327937.got - 2010.06.03 11:33:40.
