data_PCOD9085149
_publ_section_title
;
Structure prediction by ZEFSAII (Michael W. Deem and Ramdas Pophale) SiO2 
 PCOD9085149
Probable space group: P -1
;
_chemical_formula_sum "Si O2"
_cell_formula_units_Z 16
_cell_length_a 7.172635
_cell_length_b 11.392261
_cell_length_c 19.783981
_cell_angle_alpha 45.201519
_cell_angle_beta 37.566704
_cell_angle_gamma 57.419925
_cell_volume 698.632351
_symmetry_space_group_name_H-M "P -1"
_symmetry_group_IT_number 2
_symmetry_cell_setting 'triclinic'
loop_
_space_group_symop_operation_xyz
x,y,z
-x,-y,-z
loop_
_atom_site_type_symbol
_atom_site_label
_atom_site_fract_x
_atom_site_fract_y
_atom_site_fract_z
Si Si1 0.784887 0.825815 0.015429
Si Si2 0.695579 0.458399 0.215798
Si Si3 0.709358 0.724829 0.921089
Si Si4 0.888315 0.666044 0.498967
Si Si5 0.214322 0.541600 0.203410
Si Si6 0.299955 0.654638 0.517059
Si Si7 0.196619 0.156026 0.765542
Si Si8 0.639355 0.087552 0.783760
O O1 0.812571 0.648717 0.116896
O O2 0.495822 0.897678 0.108458
O O3 0.754920 0.776309 0.965981
O O4 0.043558 0.972544 0.885472
O O5 0.469072 0.368710 0.371501
O O6 0.465720 0.474946 0.210439
O O7 0.986958 0.355891 0.157675
O O8 0.652276 0.899204 0.832551
O O9 0.410857 0.601177 0.058381
O O10 0.000000 0.500000 0.500000
O O11 0.063184 0.686310 0.511818
O O12 0.030795 0.819061 0.353431
O O13 0.932077 0.407530 0.332137
O O14 0.055831 0.703993 0.214016
O O15 0.500000 0.500000 0.500000
O O16 0.557458 0.802862 0.381656
O O17 0.401177 0.172618 0.768079
#
# Coordination Sequence:
#
# PCOD9085149 Si02
#       8
#     2   2   2   2   2   2   2   2
#     4  11  20  35  59  83 112 146 193 231 265 334
#     4  10  22  38  58  82 114 148 190 228 280 333
#     4  11  23  36  57  83 115 153 184 228 283 332
#     4  10  19  35  59  83 109 141 187 237 273 325
#     4   9  17  33  58  78 110 144 190 224 276 316
#     4   8  17  31  51  81 110 139 176 229 278 314
#     4  10  20  33  56  87 114 143 185 242 278 319
#     4  11  22  35  58  87 117 142 187 235 284 323
#
# _framework density 22.901890000000002
#
# number of rings (size 3 to 8) (size 9 to 14) (size 15 to 20)
#    0.000    2.000    2.500    2.250    1.750    1.500 
#    0.000    0.625    2.750   12.000    0.000    0.000 
#    0.000    0.000    0.000    0.000    0.000    0.000 
#
# Total GULP energy -89307.642547 kJ/mol
# GULP energy per Si atom -5581.727659 kJ/mol
# Density = 2.284976 g / cm^3
# Si number density = 22.901890 Si / 1000 Ang^3
#
#
#
# Elastic Constant Matrix: (Units=GPa)
#
#
# Indices 1 2 3 4 5 6 
#
# 1 77.7502 6.4636 16.2369 4.3218 -20.8611 -5.0913
# 2 6.4636 97.9357 63.9846 21.6290 -3.9544 -24.0760
# 3 16.2369 63.9846 256.8056 2.9813 -24.2025 -7.5415
# 4 4.3218 21.6290 2.9813 31.1376 -7.6055 -6.8348
# 5 -20.8611 -3.9544 -24.2025 -7.6055 13.7565 4.0066
# 6 -5.0913 -24.0760 -7.5415 -6.8348 4.0066 22.0392
#
#
#
# Elastic Compliance Matrix: (Units=1/GPa)
#
#
# Indices 1 2 3 4 5 6 
#
# 1 0.026157 -0.007145 0.005021 0.013059 0.055434 -0.006073
# 2 -0.007145 0.024096 -0.007944 -0.018513 -0.034679 0.022517
# 3 0.005021 -0.007944 0.007678 0.008874 0.025730 -0.006817
# 4 0.013059 -0.018513 0.008874 0.055985 0.063479 -0.008349
# 5 0.055434 -0.034679 0.025730 0.063479 0.238801 -0.040001
# 6 -0.006073 0.022517 -0.006817 -0.008349 -0.040001 0.070919
#
#
# Mechanical properties :
#
#
# Convention : Reuss Voigt Hill
#
# Bulk Modulus (GPa) = 26.45911 67.31793 46.88852
# Shear Modulus (GPa) = 10.95597 36.44043 23.69820
#
# Velocity S-wave (km/s) = 2.18958 3.99325 3.22027
# Velocity P-wave (km/s) = 4.23918 7.12175 5.86046
#
# Compressibility (1/GPa) = 0.03779416
#
# Stress axis : x y z
#
# Youngs Moduli (GPa) = 38.23040 41.49981 130.25016
#
# Poissons Ratio (x) = 0.29653 -0.65398
# Poissons Ratio (y) = 0.27317 1.03472
# Poissons Ratio (z) = -0.19195 0.32968
#
# Static dielectric constant tensor:
#      x y z
#    x 2.014190 0.015630 0.033190 
#    y 0.015630 1.789910 -0.041780 
#    z 0.033190 -0.041780 1.951530 
# 
# From -- ./inp_files/333534.got.cif
#   From: 2010.05.17/outbox.cif.g08.bks.cpg/sg2_167_cif.got.tgz:333534.got - 2010.06.03 11:33:40.
