data_PCOD9085703
_publ_section_title
;
Structure prediction by ZEFSAII (Michael W. Deem and Ramdas Pophale) SiO2 
 PCOD9085703
Probable space group: P -1
;
_chemical_formula_sum "Si O2"
_cell_formula_units_Z 16
_cell_length_a 9.757496
_cell_length_b 16.354523
_cell_length_c 12.876669
_cell_angle_alpha 25.162338
_cell_angle_beta 105.834676
_cell_angle_gamma 93.965136
_cell_volume 756.959510
_symmetry_space_group_name_H-M "P -1"
_symmetry_group_IT_number 2
_symmetry_cell_setting 'triclinic'
loop_
_space_group_symop_operation_xyz
x,y,z
-x,-y,-z
loop_
_atom_site_type_symbol
_atom_site_label
_atom_site_fract_x
_atom_site_fract_y
_atom_site_fract_z
Si Si1 0.985380 0.111435 0.626412
Si Si2 0.909107 0.631050 0.490301
Si Si3 0.789305 0.689447 0.174075
Si Si4 0.359779 0.841970 0.434854
Si Si5 0.772566 0.352331 0.876858
Si Si6 0.562931 0.523725 0.266448
Si Si7 0.535838 0.205361 0.270165
Si Si8 0.862711 0.210374 0.276382
O O1 0.820670 0.123693 0.622744
O O2 0.928580 0.257255 0.342859
O O3 0.066342 0.204935 0.617491
O O4 0.103501 0.871812 0.889920
O O5 0.867281 0.713493 0.269398
O O6 0.075350 0.418359 0.759629
O O7 0.782891 0.548964 0.596007
O O8 0.706957 0.530803 0.350250
O O9 0.657008 0.920103 0.850582
O O10 0.417416 0.707826 0.496620
O O11 0.472650 0.725754 0.689802
O O12 0.813349 0.370203 0.986221
O O13 0.599895 0.358828 0.840824
O O14 0.561113 0.632064 0.028047
O O15 0.716057 0.156291 0.335016
O O16 0.500000 0.000000 0.500000
O O17 0.000000 0.000000 0.500000
#
# Coordination Sequence:
#
# PCOD9085703 Si02
#       8
#     2   2   2   2   2   2   2   2
#     4  10  20  39  65  88 120 162 207 248 302 365
#     4  11  24  41  64  91 116 166 218 251 297 360
#     4  11  24  41  64  91 119 161 218 256 295 355
#     4  11  21  39  64  91 122 162 204 251 303 365
#     4  10  22  41  60  90 130 154 196 259 312 358
#     4  11  23  40  61  95 127 157 197 256 315 360
#     4  10  19  35  62  90 124 157 197 249 303 364
#     4   8  18  35  58  89 121 157 193 240 308 364
#
# _framework density 21.137194000000001
#
# number of rings (size 3 to 8) (size 9 to 14) (size 15 to 20)
#    0.000    1.750    3.750    0.375    0.000    3.500 
#    2.250    1.250    0.000    0.000    0.000    0.000 
#    0.000    0.000    0.000    0.000    0.000    0.000 
#
# Total GULP energy -89248.619942 kJ/mol
# GULP energy per Si atom -5578.038746 kJ/mol
# Density = 2.108908 g / cm^3
# Si number density = 21.137194 Si / 1000 Ang^3
#
#
#
# Elastic Constant Matrix: (Units=GPa)
#
#
# Indices 1 2 3 4 5 6 
#
# 1 43.0912 27.9336 -4.8388 -0.4480 3.9351 -1.1999
# 2 27.9336 118.3745 2.6055 -8.8901 -2.3223 20.5118
# 3 -4.8388 2.6055 24.7192 -11.0721 -5.0838 -0.4485
# 4 -0.4480 -8.8901 -11.0721 16.5018 0.8040 -0.7221
# 5 3.9351 -2.3223 -5.0838 0.8040 25.6110 -1.4038
# 6 -1.1999 20.5118 -0.4485 -0.7221 -1.4038 29.3508
#
#
#
# Elastic Compliance Matrix: (Units=1/GPa)
#
#
# Indices 1 2 3 4 5 6 
#
# 1 0.029962 -0.008420 0.006681 0.001249 -0.003693 0.007066
# 2 -0.008420 0.012444 -0.000106 0.005935 0.001732 -0.008814
# 3 0.006681 -0.000106 0.062646 0.041782 0.010242 0.002822
# 4 0.001249 0.005935 0.041782 0.091545 0.005715 -0.000932
# 5 -0.003693 0.001732 0.010242 0.005715 0.041675 0.000929
# 6 0.007066 -0.008814 0.002822 -0.000932 0.000929 0.040583
#
#
# Mechanical properties :
#
#
# Convention : Reuss Voigt Hill
#
# Bulk Modulus (GPa) = 9.86571 26.39839 18.13205
# Shear Modulus (GPa) = 15.80613 24.99170 20.39891
#
# Velocity S-wave (km/s) = 2.73754 3.44227 3.10993
# Velocity P-wave (km/s) = 3.83011 5.32120 4.63599
#
# Compressibility (1/GPa) = 0.10136117
#
# Stress axis : x y z
#
# Youngs Moduli (GPa) = 33.37529 80.36012 15.96283
#
# Poissons Ratio (x) = 0.67667 -0.10664
# Poissons Ratio (y) = 0.28104 0.00169
# Poissons Ratio (z) = -0.22297 0.00848
#
# Static dielectric constant tensor:
#      x y z
#    x 1.750540 0.004950 0.009160 
#    y 0.004950 1.787870 0.040770 
#    z 0.009160 0.040770 1.802830 
# 
# From -- ./inp_files/398212.got.cif
#   From: 2010.05.17/outbox.cif.g08.bks.cpg/sg2_200_cif.got.tgz:398212.got - 2010.06.03 11:33:40.
