data_PCOD9085863
_publ_section_title
;
Structure prediction by ZEFSAII (Michael W. Deem and Ramdas Pophale) SiO2 
 PCOD9085863
Probable space group: P -1
;
_chemical_formula_sum "Si O2"
_cell_formula_units_Z 14
_cell_length_a 9.585505
_cell_length_b 26.097486
_cell_length_c 8.885247
_cell_angle_alpha 141.513564
_cell_angle_beta 116.187765
_cell_angle_gamma 34.149966
_cell_volume 626.378429
_symmetry_space_group_name_H-M "P -1"
_symmetry_group_IT_number 2
_symmetry_cell_setting 'triclinic'
loop_
_space_group_symop_operation_xyz
x,y,z
-x,-y,-z
loop_
_atom_site_type_symbol
_atom_site_label
_atom_site_fract_x
_atom_site_fract_y
_atom_site_fract_z
Si Si1 0.709901 0.483808 0.523626
Si Si2 0.256311 0.766244 0.759283
Si Si3 0.707226 0.647508 0.096124
Si Si4 0.935659 0.370802 0.853718
Si Si5 0.938653 0.052224 0.420431
Si Si6 0.842301 0.815280 0.776187
Si Si7 0.209267 0.729822 0.318581
O O1 0.500000 0.500000 0.500000
O O2 0.594038 0.574410 0.517489
O O3 0.051939 0.292028 0.281907
O O4 0.641700 0.592911 0.851134
O O5 0.166223 0.792094 0.604076
O O6 0.035326 0.811545 0.863058
O O7 0.173308 0.895687 0.067219
O O8 0.425725 0.802786 0.426681
O O9 0.826189 0.664975 0.081397
O O10 0.000000 0.500000 0.000000
O O11 0.921730 0.301938 0.805141
O O12 0.042267 0.285344 0.548211
O O13 0.579904 0.557958 0.086634
O O14 0.944787 0.145091 0.594811
O O15 0.000000 0.000000 0.500000
O O16 0.500000 0.000000 0.000000
#
# Coordination Sequence:
#
# PCOD9085863 Si02
#       7
#     2   2   2   2   2   2   2
#     4  10  21  38  59  95 134 169 215 272 327 387
#     4  10  22  38  62  92 132 175 216 265 336 394
#     4  12  21  39  70  98 126 172 233 270 317 398
#     4  10  21  39  67  93 127 175 220 265 328 393
#     4  12  23  40  68  99 132 170 227 279 325 395
#     4  10  19  35  63  98 130 165 223 275 320 386
#     4  10  22  42  66  93 136 179 217 264 348 401
#
# _framework density 22.350705999999999
#
# number of rings (size 3 to 8) (size 9 to 14) (size 15 to 20)
#    0.000    1.429    4.286    1.286    0.000    0.000 
#    0.000    1.429    6.286    0.000    0.000    0.000 
#    0.000    0.000    0.000    0.000    0.000    0.000 
#
# Total GULP energy -78093.484570 kJ/mol
# GULP energy per Si atom -5578.106041 kJ/mol
# Density = 2.229984 g / cm^3
# Si number density = 22.350706 Si / 1000 Ang^3
#
#
#
# Elastic Constant Matrix: (Units=GPa)
#
#
# Indices 1 2 3 4 5 6 
#
# 1 112.2385 19.0017 34.4880 8.3890 31.2811 9.5809
# 2 19.0017 87.1868 22.3332 24.3011 11.5243 19.5907
# 3 34.4880 22.3332 91.2494 15.5332 18.5316 5.7043
# 4 8.3890 24.3011 15.5332 46.1351 -2.0760 11.3114
# 5 31.2811 11.5243 18.5316 -2.0760 32.2626 3.9740
# 6 9.5809 19.5907 5.7043 11.3114 3.9740 36.9293
#
#
#
# Elastic Compliance Matrix: (Units=1/GPa)
#
#
# Indices 1 2 3 4 5 6 
#
# 1 0.012976 0.000024 -0.002233 -0.001817 -0.011268 -0.001265
# 2 0.000024 0.015481 -0.001435 -0.006524 -0.004469 -0.005518
# 3 -0.002233 -0.001435 0.013939 -0.004044 -0.005717 0.001041
# 4 -0.001817 -0.006524 -0.004044 0.028457 0.008876 -0.005115
# 5 -0.011268 -0.004469 -0.005717 0.008876 0.047577 -0.001661
# 6 -0.001265 -0.005518 0.001041 -0.005115 -0.001661 0.031919
#
#
# Mechanical properties :
#
#
# Convention : Reuss Voigt Hill
#
# Bulk Modulus (GPa) = 28.48418 49.14672 38.81545
# Shear Modulus (GPa) = 29.52658 37.38884 33.45771
#
# Velocity S-wave (km/s) = 3.63858 4.09446 3.87323
# Velocity P-wave (km/s) = 5.51581 6.66254 6.11611
#
# Compressibility (1/GPa) = 0.03510720
#
# Stress axis : x y z
#
# Youngs Moduli (GPa) = 77.06500 64.59571 71.74359
#
# Poissons Ratio (x) = -0.00157 0.16023
# Poissons Ratio (y) = -0.00187 0.10295
# Poissons Ratio (z) = 0.17212 0.09269
#
# Static dielectric constant tensor:
#      x y z
#    x 1.916550 -0.010400 0.000800 
#    y -0.010400 1.940980 0.075260 
#    z 0.000800 0.075260 1.883690 
# 
# From -- ./inp_files/226692.got.cif
#   From: 2010.05.17/outbox.cif.g08.bks.cpg/sg2_114_cif.got.tgz:226692.got - 2010.06.03 11:33:40.
