data_PCOD9085294
_publ_section_title
;
Structure prediction by ZEFSAII (Michael W. Deem and Ramdas Pophale) SiO2 
 PCOD9085294
Probable space group: P -1
;
_chemical_formula_sum "Si O2"
_cell_formula_units_Z 16
_cell_length_a 13.515466
_cell_length_b 10.529458
_cell_length_c 14.439957
_cell_angle_alpha 101.744206
_cell_angle_beta 125.543864
_cell_angle_gamma 33.466973
_cell_volume 718.201696
_symmetry_space_group_name_H-M "P -1"
_symmetry_group_IT_number 2
_symmetry_cell_setting 'triclinic'
loop_
_space_group_symop_operation_xyz
x,y,z
-x,-y,-z
loop_
_atom_site_type_symbol
_atom_site_label
_atom_site_fract_x
_atom_site_fract_y
_atom_site_fract_z
Si Si1 0.003384 0.494750 0.871224
Si Si2 0.360899 0.098019 0.637621
Si Si3 0.447933 0.451918 0.322931
Si Si4 0.532346 0.652541 0.473694
Si Si5 0.946726 0.840380 0.427104
Si Si6 0.926771 0.799260 0.014618
Si Si7 0.093153 0.275044 0.326985
Si Si8 0.337775 0.415946 0.739986
O O1 0.028174 0.509268 0.780618
O O2 0.168523 0.214651 0.960530
O O3 0.684111 0.758797 0.751956
O O4 0.035420 0.596506 0.963369
O O5 0.213574 0.138886 0.632409
O O6 0.216083 0.223823 0.477952
O O7 0.344444 0.259003 0.688684
O O8 0.428185 0.620459 0.365072
O O9 0.515664 0.314829 0.437510
O O10 0.169660 0.658586 0.160954
O O11 0.705978 0.176901 0.354672
O O12 0.859134 0.351605 0.585361
O O13 0.355479 0.942401 0.381682
O O14 0.169238 0.648415 0.602437
O O15 0.658172 0.138843 0.888848
O O16 0.857685 0.399450 0.249016
#
# Coordination Sequence:
#
# PCOD9085294 Si02
#       8
#     2   2   2   2   2   2   2   2
#     4  10  20  35  61  83 125 163 191 247 311 360
#     4  10  19  35  59  92 122 156 197 253 299 357
#     4  11  23  43  63  90 124 156 206 258 296 356
#     4  11  23  39  68  90 116 161 212 252 297 347
#     4  11  20  40  63  90 120 157 205 250 299 352
#     4  10  21  40  56  86 127 161 189 250 314 357
#     4  11  20  37  58  92 123 158 211 247 290 363
#     4  10  22  37  59  92 130 157 195 251 304 369
#
# _framework density 22.277864000000001
#
# number of rings (size 3 to 8) (size 9 to 14) (size 15 to 20)
#    0.000    1.500    3.750    3.750    0.000    3.500 
#    2.250    3.125    0.000    0.000    0.000    0.000 
#    0.000    0.000    0.000    0.000    0.000    0.000 
#
# Total GULP energy -89460.137458 kJ/mol
# GULP energy per Si atom -5591.258591 kJ/mol
# Density = 2.222716 g / cm^3
# Si number density = 22.277864 Si / 1000 Ang^3
#
#
#
# Elastic Constant Matrix: (Units=GPa)
#
#
# Indices 1 2 3 4 5 6 
#
# 1 54.4074 -2.4942 2.5544 9.8715 8.2546 -6.7002
# 2 -2.4942 61.9047 4.7114 -5.1545 15.4058 -1.5399
# 3 2.5544 4.7114 94.8866 -6.6712 18.9946 11.0072
# 4 9.8715 -5.1545 -6.6712 31.0334 2.7568 4.5955
# 5 8.2546 15.4058 18.9946 2.7568 29.5060 5.8227
# 6 -6.7002 -1.5399 11.0072 4.5955 5.8227 26.3455
#
#
#
# Elastic Compliance Matrix: (Units=1/GPa)
#
#
# Indices 1 2 3 4 5 6 
#
# 1 0.022273 0.002626 -0.000659 -0.007418 -0.008305 0.009223
# 2 0.002626 0.019741 0.001365 0.003364 -0.012931 0.003522
# 3 -0.000659 0.001365 0.013030 0.004652 -0.008469 -0.004471
# 4 -0.007418 0.003364 0.004652 0.037905 -0.004387 -0.009276
# 5 -0.008305 -0.012931 -0.008469 -0.004387 0.050758 -0.009782
# 6 0.009223 0.003522 -0.004471 -0.009276 -0.009782 0.046157
#
#
# Mechanical properties :
#
#
# Convention : Reuss Voigt Hill
#
# Bulk Modulus (GPa) = 16.20500 24.52690 20.36595
# Shear Modulus (GPa) = 24.53758 31.13878 27.83818
#
# Velocity S-wave (km/s) = 3.32238 3.74270 3.53879
# Velocity P-wave (km/s) = 4.69121 5.45073 5.08517
#
# Compressibility (1/GPa) = 0.06170936
#
# Stress axis : x y z
#
# Youngs Moduli (GPa) = 44.89765 50.65496 76.74640
#
# Poissons Ratio (x) = -0.13302 0.05057
# Poissons Ratio (y) = -0.11790 -0.10480
# Poissons Ratio (z) = 0.02958 -0.06917
#
# Static dielectric constant tensor:
#      x y z
#    x 1.859480 -0.022650 -0.018330 
#    y -0.022650 1.876160 -0.019190 
#    z -0.018330 -0.019190 1.832380 
# 
# From -- ./inp_files/532558.got.cif
#   From: 2010.05.17/outbox.cif.g08.bks.cpg/sg2_267_cif.got.tgz:532558.got - 2010.06.03 11:33:40.
