data_PCOD9085465
_publ_section_title
;
Structure prediction by ZEFSAII (Michael W. Deem and Ramdas Pophale) SiO2 
 PCOD9085465
Probable space group: P -1
;
_chemical_formula_sum "Si O2"
_cell_formula_units_Z 16
_cell_length_a 5.363213
_cell_length_b 8.211705
_cell_length_c 17.276603
_cell_angle_alpha 60.064166
_cell_angle_beta 72.001921
_cell_angle_gamma 80.204450
_cell_volume 626.985688
_symmetry_space_group_name_H-M "P -1"
_symmetry_group_IT_number 2
_symmetry_cell_setting 'triclinic'
loop_
_space_group_symop_operation_xyz
x,y,z
-x,-y,-z
loop_
_atom_site_type_symbol
_atom_site_label
_atom_site_fract_x
_atom_site_fract_y
_atom_site_fract_z
Si Si1 0.914019 0.896936 0.910627
Si Si2 0.974800 0.752506 0.275912
Si Si3 0.508924 0.758060 0.857641
Si Si4 0.267575 0.518700 0.422835
Si Si5 0.178794 0.437439 0.924214
Si Si6 0.309765 0.182470 0.337894
Si Si7 0.818217 0.413254 0.277766
Si Si8 0.567845 0.814101 0.427532
O O1 0.903753 0.111050 0.832096
O O2 0.706437 0.796434 0.898064
O O3 0.221146 0.846033 0.880713
O O4 0.833652 0.790006 0.022948
O O5 0.793360 0.603188 0.284690
O O6 0.820888 0.857924 0.337412
O O7 0.193865 0.620832 0.326447
O O8 0.452103 0.540218 0.893074
O O9 0.626642 0.860446 0.748145
O O10 0.428084 0.661895 0.424363
O O11 0.367645 0.303289 0.473431
O O12 0.000000 0.500000 0.500000
O O13 0.081205 0.526472 0.831587
O O14 0.000000 0.500000 0.000000
O O15 0.545935 0.317494 0.307136
O O16 0.022038 0.277501 0.336951
O O17 0.370504 0.986458 0.420274
#
# Coordination Sequence:
#
# PCOD9085465 Si02
#       8
#     2   2   2   2   2   2   2   2
#     4  11  21  34  64  91 120 173 215 266 315 381
#     4  11  24  41  63  95 136 169 207 271 336 382
#     4  10  19  35  60  93 119 161 222 271 307 363
#     4   9  21  39  70 100 125 159 217 268 318 378
#     4   9  20  39  61  92 128 170 224 271 313 370
#     4  11  22  41  65  94 124 173 220 257 314 392
#     4  11  27  40  62  96 139 171 210 273 331 369
#     4  10  21  41  73  95 124 168 223 260 311 398
#
# _framework density 25.518926
#
# number of rings (size 3 to 8) (size 9 to 14) (size 15 to 20)
#    0.000    1.750    1.250    3.375    5.250    3.500 
#    0.000    1.250    0.000    7.500    0.000    0.000 
#    0.000    0.000    0.000    0.000    0.000    0.000 
#
# Total GULP energy -89336.597290 kJ/mol
# GULP energy per Si atom -5583.537331 kJ/mol
# Density = 2.546084 g / cm^3
# Si number density = 25.518926 Si / 1000 Ang^3
#
#
#
# Elastic Constant Matrix: (Units=GPa)
#
#
# Indices 1 2 3 4 5 6 
#
# 1 129.7305 21.1949 34.5085 -6.0048 18.5706 3.0014
# 2 21.1949 64.8982 41.9845 -11.1803 8.5414 -4.9488
# 3 34.5085 41.9845 145.9475 -34.9092 26.8848 -10.1123
# 4 -6.0048 -11.1803 -34.9092 37.4225 -4.9107 -4.1181
# 5 18.5706 8.5414 26.8848 -4.9107 32.9743 -4.7296
# 6 3.0014 -4.9488 -10.1123 -4.1181 -4.7296 24.7050
#
#
#
# Elastic Compliance Matrix: (Units=1/GPa)
#
#
# Indices 1 2 3 4 5 6 
#
# 1 0.008979 -0.001996 -0.001298 -0.001236 -0.004097 -0.003012
# 2 -0.001996 0.019481 -0.004694 0.001467 0.000491 0.002562
# 3 -0.001298 -0.004694 0.012193 0.009501 -0.005911 0.004661
# 4 -0.001236 0.001467 0.009501 0.036912 -0.000442 0.010401
# 5 -0.004097 0.000491 -0.005911 -0.000442 0.038033 0.005384
# 6 -0.003012 0.002562 0.004661 0.010401 0.005384 0.046029
#
#
# Mechanical properties :
#
#
# Convention : Reuss Voigt Hill
#
# Bulk Modulus (GPa) = 40.52450 59.55022 50.03736
# Shear Modulus (GPa) = 26.90652 35.21291 31.05971
#
# Velocity S-wave (km/s) = 3.25064 3.71870 3.49252
# Velocity P-wave (km/s) = 5.47755 6.46720 5.99283
#
# Compressibility (1/GPa) = 0.02467643
#
# Stress axis : x y z
#
# Youngs Moduli (GPa) = 111.37428 51.33259 82.01107
#
# Poissons Ratio (x) = 0.10245 0.10649
# Poissons Ratio (y) = 0.22227 0.38497
# Poissons Ratio (z) = 0.14462 0.24096
#
# Static dielectric constant tensor:
#      x y z
#    x 2.303970 -0.327130 -0.200690 
#    y -0.327130 2.360040 0.147130 
#    z -0.200690 0.147130 2.251800 
# 
# From -- ./inp_files/582265.got.cif
#   From: 2010.05.17/outbox.cif.g08.bks.cpg/sg2_292_cif.got.tgz:582265.got - 2010.06.03 11:33:40.
