data_PCOD9085675
_publ_section_title
;
Structure prediction by ZEFSAII (Michael W. Deem and Ramdas Pophale) SiO2 
 PCOD9085675
Probable space group: P -1
;
_chemical_formula_sum "Si O2"
_cell_formula_units_Z 16
_cell_length_a 8.433469
_cell_length_b 13.854622
_cell_length_c 27.100095
_cell_angle_alpha 23.145978
_cell_angle_beta 138.325481
_cell_angle_gamma 138.847623
_cell_volume 800.618046
_symmetry_space_group_name_H-M "P -1"
_symmetry_group_IT_number 2
_symmetry_cell_setting 'triclinic'
loop_
_space_group_symop_operation_xyz
x,y,z
-x,-y,-z
loop_
_atom_site_type_symbol
_atom_site_label
_atom_site_fract_x
_atom_site_fract_y
_atom_site_fract_z
Si Si1 0.900955 0.442106 0.068727
Si Si2 0.486473 0.715551 0.081300
Si Si3 0.869953 0.882740 0.789978
Si Si4 0.932737 0.304388 0.244193
Si Si5 0.116043 0.431388 0.610090
Si Si6 0.647664 0.248496 0.303227
Si Si7 0.567446 0.288386 0.814880
Si Si8 0.789745 0.122029 0.500280
O O1 0.803987 0.379985 0.130181
O O2 0.191607 0.594218 0.068082
O O3 0.920512 0.194174 0.158793
O O4 0.781618 0.635476 0.920563
O O5 0.628434 0.534911 0.172600
O O6 0.541289 0.713206 0.153711
O O7 0.550956 0.993366 0.942406
O O8 0.639984 0.907542 0.691465
O O9 0.971085 0.138291 0.723738
O O10 0.763464 0.214733 0.293782
O O11 0.155425 0.541736 0.200272
O O12 0.062117 0.088271 0.357844
O O13 0.398988 0.411372 0.682805
O O14 0.111619 0.635483 0.555683
O O15 0.000000 0.500000 0.500000
O O16 0.796061 0.183524 0.414606
O O17 0.500000 0.000000 0.500000
#
# Coordination Sequence:
#
# PCOD9085675 Si02
#       8
#     2   2   2   2   2   2   2   2
#     4   9  18  37  62  86 118 152 202 247 287 345
#     4   9  17  36  61  88 112 152 201 246 285 340
#     4  10  21  37  62  90 115 155 198 248 293 343
#     4  11  23  37  60  88 121 161 194 240 301 358
#     4  12  22  36  64  92 114 144 203 256 290 335
#     4  11  23  39  60  88 124 158 191 238 306 363
#     4  10  19  35  62  88 115 148 201 249 285 341
#     4  12  22  42  63  85 114 157 209 244 281 349
#
# _framework density 19.984559999999998
#
# number of rings (size 3 to 8) (size 9 to 14) (size 15 to 20)
#    0.000    1.500    3.750    3.375    0.000    1.000 
#    0.000    0.625    2.750    0.000    0.000    0.000 
#    0.000    0.000    0.000    0.000    0.000    0.000 
#
# Total GULP energy -89302.380448 kJ/mol
# GULP energy per Si atom -5581.398778 kJ/mol
# Density = 1.993907 g / cm^3
# Si number density = 19.984560 Si / 1000 Ang^3
#
#
#
# Elastic Constant Matrix: (Units=GPa)
#
#
# Indices 1 2 3 4 5 6 
#
# 1 57.7313 4.3356 4.1532 -2.2567 -11.5501 -15.3466
# 2 4.3356 77.8853 17.7368 -5.6477 -3.6660 -20.3706
# 3 4.1532 17.7368 56.4161 0.5790 -5.2572 -7.9840
# 4 -2.2567 -5.6477 0.5790 48.2004 -15.0186 -2.8174
# 5 -11.5501 -3.6660 -5.2572 -15.0186 24.3456 7.9922
# 6 -15.3466 -20.3706 -7.9840 -2.8174 7.9922 20.7000
#
#
#
# Elastic Compliance Matrix: (Units=1/GPa)
#
#
# Indices 1 2 3 4 5 6 
#
# 1 0.024333 0.004623 0.000384 0.005748 0.009330 0.019918
# 2 0.004623 0.019301 -0.003411 0.003617 -0.000567 0.021817
# 3 0.000384 -0.003411 0.019527 0.000555 0.003137 0.003324
# 4 0.005748 0.003617 0.000555 0.027598 0.018947 0.004476
# 5 0.009330 -0.000567 0.003137 0.018947 0.062354 -0.013927
# 6 0.019918 0.021817 0.003324 0.004476 -0.013927 0.091815
#
#
# Mechanical properties :
#
#
# Convention : Reuss Voigt Hill
#
# Bulk Modulus (GPa) = 15.07072 27.16490 21.11781
# Shear Modulus (GPa) = 18.95008 29.70300 24.32654
#
# Velocity S-wave (km/s) = 3.08268 3.85943 3.49272
# Velocity P-wave (km/s) = 4.49757 5.78643 5.18223
#
# Compressibility (1/GPa) = 0.06635382
#
# Stress axis : x y z
#
# Youngs Moduli (GPa) = 41.09668 51.81212 51.21233
#
# Poissons Ratio (x) = -0.23955 -0.01968
# Poissons Ratio (y) = -0.19000 0.17467
# Poissons Ratio (z) = -0.01580 0.17672
#
# Static dielectric constant tensor:
#      x y z
#    x 1.693780 -0.035070 -0.026370 
#    y -0.035070 1.747300 0.017330 
#    z -0.026370 0.017330 1.750900 
# 
# From -- ./inp_files/503928.got.cif
#   From: 2010.05.17/outbox.cif.g08.bks.cpg/sg2_252_cif.got.tgz:503928.got - 2010.06.03 11:33:40.
