data_PCOD9085374
_publ_section_title
;
Structure prediction by ZEFSAII (Michael W. Deem and Ramdas Pophale) SiO2 
 PCOD9085374
Probable space group: P -1
;
_chemical_formula_sum "Si O2"
_cell_formula_units_Z 16
_cell_length_a 13.456719
_cell_length_b 9.172301
_cell_length_c 12.120623
_cell_angle_alpha 44.355721
_cell_angle_beta 54.279177
_cell_angle_gamma 42.710009
_cell_volume 704.009516
_symmetry_space_group_name_H-M "P -1"
_symmetry_group_IT_number 2
_symmetry_cell_setting 'triclinic'
loop_
_space_group_symop_operation_xyz
x,y,z
-x,-y,-z
loop_
_atom_site_type_symbol
_atom_site_label
_atom_site_fract_x
_atom_site_fract_y
_atom_site_fract_z
Si Si1 0.000520 0.299646 0.267414
Si Si2 0.138679 0.162455 0.496074
Si Si3 0.413492 0.654809 0.080112
Si Si4 0.168092 0.580645 0.366545
Si Si5 0.186153 0.208842 0.997087
Si Si6 0.596057 0.119741 0.649121
Si Si7 0.289592 0.567843 0.529137
Si Si8 0.619245 0.742258 0.002024
O O1 0.859956 0.282338 0.382803
O O2 0.080587 0.236748 0.366877
O O3 0.107544 0.147833 0.177395
O O4 0.928203 0.590032 0.124478
O O5 0.157116 0.368257 0.430791
O O6 0.003256 0.182753 0.637769
O O7 0.306361 0.925464 0.498447
O O8 0.288552 0.605077 0.213771
O O9 0.314138 0.960677 0.986285
O O10 0.500000 0.500000 0.000000
O O11 0.547979 0.586207 0.113259
O O12 0.235677 0.510504 0.483756
O O13 0.243684 0.351947 0.955328
O O14 0.423137 0.311982 0.634963
O O15 0.645147 0.262257 0.620723
O O16 0.636098 0.855262 0.815515
O O17 0.500000 0.000000 0.000000
#
# Coordination Sequence:
#
# PCOD9085374 Si02
#       8
#     2   2   2   2   2   2   2   2
#     4  10  21  38  64  91 122 160 205 248 304 356
#     4  10  22  41  64  83 126 162 200 251 297 370
#     4  11  23  38  63  90 124 159 204 251 302 367
#     4  10  23  40  60  90 119 163 202 241 311 358
#     4  10  21  38  63  89 123 163 202 247 305 365
#     4  11  21  37  61  91 121 159 197 253 303 343
#     4  10  22  36  61  94 123 150 204 258 291 361
#     4  10  19  35  60  86 120 159 196 245 298 359
#
# _framework density 22.726963999999999
#
# number of rings (size 3 to 8) (size 9 to 14) (size 15 to 20)
#    0.000    1.750    1.250    3.750    1.750    2.500 
#    0.000    3.125    0.000    0.000    0.000    0.000 
#    0.000    0.000    0.000    0.000    0.000    0.000 
#
# Total GULP energy -89214.956077 kJ/mol
# GULP energy per Si atom -5575.934755 kJ/mol
# Density = 2.267524 g / cm^3
# Si number density = 22.726964 Si / 1000 Ang^3
#
#
#
# Elastic Constant Matrix: (Units=GPa)
#
#
# Indices 1 2 3 4 5 6 
#
# 1 118.5011 48.9332 39.5816 7.7583 -31.8905 -1.3346
# 2 48.9332 119.3345 32.9971 32.1073 -2.8159 -5.6192
# 3 39.5816 32.9971 73.0755 21.1234 -18.5483 -1.8272
# 4 7.7583 32.1073 21.1234 40.5418 -14.1184 -5.4054
# 5 -31.8905 -2.8159 -18.5483 -14.1184 39.0505 2.8345
# 6 -1.3346 -5.6192 -1.8272 -5.4054 2.8345 39.8269
#
#
#
# Elastic Compliance Matrix: (Units=1/GPa)
#
#
# Indices 1 2 3 4 5 6 
#
# 1 0.016558 -0.008028 -0.004741 0.010686 0.014582 -0.000383
# 2 -0.008028 0.015579 -0.001519 -0.013807 -0.011203 0.000783
# 3 -0.004741 -0.001519 0.019741 -0.007284 0.002809 -0.000656
# 4 0.010686 -0.013807 -0.007284 0.044767 0.020260 0.002710
# 5 0.014582 -0.011203 0.002809 0.020260 0.045473 -0.001450
# 6 -0.000383 0.000783 -0.000656 0.002710 -0.001450 0.025647
#
#
# Mechanical properties :
#
#
# Convention : Reuss Voigt Hill
#
# Bulk Modulus (GPa) = 42.91549 61.54833 52.23191
# Shear Modulus (GPa) = 24.49690 36.51045 30.50368
#
# Velocity S-wave (km/s) = 3.28667 4.01244 3.66755
# Velocity P-wave (km/s) = 5.77295 6.97185 6.40053
#
# Compressibility (1/GPa) = 0.02330161
#
# Stress axis : x y z
#
# Youngs Moduli (GPa) = 60.39546 64.18914 50.65692
#
# Poissons Ratio (x) = 0.51529 0.24015
# Poissons Ratio (y) = 0.48483 0.07696
# Poissons Ratio (z) = 0.28632 0.09752
#
# Static dielectric constant tensor:
#      x y z
#    x 1.884800 -0.039190 -0.051310 
#    y -0.039190 1.893540 0.043740 
#    z -0.051310 0.043740 1.974620 
# 
# From -- ./inp_files/418857.got.cif
#   From: 2010.05.17/outbox.cif.g08.bks.cpg/sg2_210_cif.got.tgz:418857.got - 2010.06.03 11:33:40.
