data_PCOD9085088
_publ_section_title
;
Structure prediction by ZEFSAII (Michael W. Deem and Ramdas Pophale) SiO2 
 PCOD9085088
Probable space group: P -1
;
_chemical_formula_sum "Si O2"
_cell_formula_units_Z 16
_cell_length_a 16.138499
_cell_length_b 12.837372
_cell_length_c 8.552669
_cell_angle_alpha 114.990772
_cell_angle_beta 86.305303
_cell_angle_gamma 37.760144
_cell_volume 684.654338
_symmetry_space_group_name_H-M "P -1"
_symmetry_group_IT_number 2
_symmetry_cell_setting 'triclinic'
loop_
_space_group_symop_operation_xyz
x,y,z
-x,-y,-z
loop_
_atom_site_type_symbol
_atom_site_label
_atom_site_fract_x
_atom_site_fract_y
_atom_site_fract_z
Si Si1 0.709006 0.792557 0.295536
Si Si2 0.810036 0.482590 0.651960
Si Si3 0.790980 0.309028 0.767481
Si Si4 0.119712 0.279634 0.477940
Si Si5 0.503369 0.811258 0.675714
Si Si6 0.577788 0.265587 0.087615
Si Si7 0.078078 0.018838 0.078399
Si Si8 0.828303 0.406233 0.112258
O O1 0.790880 0.760201 0.414516
O O2 0.824872 0.529544 0.097728
O O3 0.500000 0.000000 0.500000
O O4 0.678578 0.905426 0.213668
O O5 0.741329 0.492812 0.809355
O O6 0.625901 0.744043 0.731864
O O7 0.952795 0.402851 0.634818
O O8 0.943856 0.227781 0.370612
O O9 0.613297 0.460581 0.814544
O O10 0.810513 0.317229 0.949669
O O11 0.000000 0.000000 0.500000
O O12 0.000000 0.500000 0.500000
O O13 0.286902 0.993037 0.192147
O O14 0.468813 0.744088 0.749570
O O15 0.654733 0.604823 0.384164
O O16 0.701191 0.226929 0.071648
O O17 0.021779 0.175492 0.043934
O O18 0.000000 0.000000 0.000000
#
# Coordination Sequence:
#
# PCOD9085088 Si02
#       8
#     2   2   2   2   2   2   2   2
#     4  10  19  35  58  89 123 160 197 245 309 368
#     4   9  21  39  58  86 122 159 205 255 306 369
#     4  11  23  43  65  90 123 163 213 269 315 364
#     4  11  21  38  63  92 129 167 203 252 311 377
#     4   9  19  38  61  90 125 162 205 255 311 375
#     4  10  22  40  65  95 123 165 215 253 312 384
#     4  10  20  40  63  85 120 164 206 259 310 361
#     4  10  21  39  60  87 126 162 205 264 310 366
#
# _framework density 23.369456
#
# number of rings (size 3 to 8) (size 9 to 14) (size 15 to 20)
#    0.000    2.000    0.000    5.250    0.000    2.000 
#    0.000   27.500    0.000    0.000    0.000    0.000 
#    0.000    0.000    0.000    0.000    0.000    0.000 
#
# Total GULP energy -89245.124616 kJ/mol
# GULP energy per Si atom -5577.820289 kJ/mol
# Density = 2.331627 g / cm^3
# Si number density = 23.369456 Si / 1000 Ang^3
#
#
#
# Elastic Constant Matrix: (Units=GPa)
#
#
# Indices 1 2 3 4 5 6 
#
# 1 106.5930 30.3665 21.7380 -14.2394 4.2934 -41.3304
# 2 30.3665 128.9565 30.5732 -10.3136 1.5167 -29.2353
# 3 21.7380 30.5732 69.4342 -12.4599 11.4107 -18.1664
# 4 -14.2394 -10.3136 -12.4599 35.1755 -1.7871 -1.8689
# 5 4.2934 1.5167 11.4107 -1.7871 24.2099 -1.8358
# 6 -41.3304 -29.2353 -18.1664 -1.8689 -1.8358 42.7302
#
#
#
# Elastic Compliance Matrix: (Units=1/GPa)
#
#
# Indices 1 2 3 4 5 6 
#
# 1 0.016956 0.000419 0.000721 0.008086 -0.001466 0.017285
# 2 0.000419 0.009868 -0.002589 0.002536 0.001187 0.006218
# 3 0.000721 -0.002589 0.019729 0.006488 -0.008236 0.007244
# 4 0.008086 0.002536 0.006488 0.035428 -0.000987 0.013822
# 5 -0.001466 0.001187 -0.008236 -0.000987 0.045132 -0.002212
# 6 0.017285 0.006218 0.007244 0.013822 -0.002212 0.047964
#
#
# Mechanical properties :
#
#
# Convention : Reuss Voigt Hill
#
# Bulk Modulus (GPa) = 22.90682 52.25989 37.58335
# Shear Modulus (GPa) = 25.97005 35.24354 30.60680
#
# Velocity S-wave (km/s) = 3.33721 3.88764 3.62289
# Velocity P-wave (km/s) = 4.96715 6.52401 5.79807
#
# Compressibility (1/GPa) = 0.04365512
#
# Stress axis : x y z
#
# Youngs Moduli (GPa) = 58.97521 101.33399 50.68565
#
# Poissons Ratio (x) = -0.04242 -0.03656
# Poissons Ratio (y) = -0.02469 0.13124
# Poissons Ratio (z) = -0.04254 0.26239
#
# Static dielectric constant tensor:
#      x y z
#    x 1.948140 -0.005960 0.026670 
#    y -0.005960 2.060610 0.056710 
#    z 0.026670 0.056710 1.908820 
# 
# From -- ./inp_files/335738.got.cif
#   From: 2010.05.17/outbox.cif.g08.bks.cpg/sg2_168_cif.got.tgz:335738.got - 2010.06.03 11:33:40.
