data_PCOD9085246
_publ_section_title
;
Structure prediction by ZEFSAII (Michael W. Deem and Ramdas Pophale) SiO2 
 PCOD9085246
Probable space group: P -1
;
_chemical_formula_sum "Si O2"
_cell_formula_units_Z 16
_cell_length_a 5.059006
_cell_length_b 10.927412
_cell_length_c 16.841418
_cell_angle_alpha 128.758745
_cell_angle_beta 59.698273
_cell_angle_gamma 113.477457
_cell_volume 622.090716
_symmetry_space_group_name_H-M "P -1"
_symmetry_group_IT_number 2
_symmetry_cell_setting 'triclinic'
loop_
_space_group_symop_operation_xyz
x,y,z
-x,-y,-z
loop_
_atom_site_type_symbol
_atom_site_label
_atom_site_fract_x
_atom_site_fract_y
_atom_site_fract_z
Si Si1 0.214409 0.861035 0.482919
Si Si2 0.281863 0.838203 0.985712
Si Si3 0.444980 0.456291 0.120276
Si Si4 0.567293 0.443732 0.663907
Si Si5 0.406798 0.754477 0.759516
Si Si6 0.051188 0.950606 0.777765
Si Si7 0.001957 0.358459 0.821620
Si Si8 0.303238 0.927051 0.323288
O O1 0.257033 0.697046 0.451710
O O2 0.224414 0.825270 0.373064
O O3 0.500000 0.000000 0.500000
O O4 0.905023 0.931380 0.581355
O O5 0.444404 0.716194 0.965303
O O6 0.240607 0.760422 0.873379
O O7 0.998539 0.902620 0.097843
O O8 0.500000 0.000000 0.000000
O O9 0.305685 0.475809 0.238824
O O10 0.219576 0.509696 0.110498
O O11 0.242514 0.417928 0.877603
O O12 0.509647 0.580871 0.667958
O O13 0.241412 0.359989 0.712328
O O14 0.181694 0.813675 0.753604
O O15 0.721465 0.877560 0.763874
O O16 0.337116 0.011299 0.703636
O O17 0.803244 0.188181 0.780677
#
# Coordination Sequence:
#
# PCOD9085246 Si02
#       8
#     2   2   2   2   2   2   2   2
#     4  11  21  41  67  93 115 167 208 264 309 382
#     4   9  20  38  63  92 123 171 213 245 297 371
#     4   9  19  32  58  87 121 151 209 242 301 350
#     4   9  20  34  65  87 122 152 215 244 311 357
#     4  10  23  39  66  88 127 169 207 248 305 375
#     4  11  25  41  61  93 130 167 202 262 308 359
#     4  10  19  35  59  88 120 160 195 262 295 366
#     4  11  24  39  64  93 128 157 214 255 322 368
#
# _framework density 25.719719999999999
#
# number of rings (size 3 to 8) (size 9 to 14) (size 15 to 20)
#    0.750    1.250    2.500    0.375    7.000    2.000 
#    0.000    2.500    0.000    0.000    0.000    0.000 
#    0.000    0.000    0.000    0.000    0.000    0.000 
#
# Total GULP energy -89526.852826 kJ/mol
# GULP energy per Si atom -5595.428302 kJ/mol
# Density = 2.566118 g / cm^3
# Si number density = 25.719720 Si / 1000 Ang^3
#
#
#
# Elastic Constant Matrix: (Units=GPa)
#
#
# Indices 1 2 3 4 5 6 
#
# 1 87.1580 13.8154 12.0104 -4.8283 -10.8277 7.8079
# 2 13.8154 97.9858 58.5810 30.3727 -14.3160 -3.8876
# 3 12.0104 58.5810 79.4140 10.0712 -27.6155 -2.0190
# 4 -4.8283 30.3727 10.0712 51.2875 -5.0424 -13.0077
# 5 -10.8277 -14.3160 -27.6155 -5.0424 34.2894 5.6765
# 6 7.8079 -3.8876 -2.0190 -13.0077 5.6765 44.0398
#
#
#
# Elastic Compliance Matrix: (Units=1/GPa)
#
#
# Indices 1 2 3 4 5 6 
#
# 1 0.012648 -0.002789 0.001414 0.002442 0.004710 -0.002309
# 2 -0.002789 0.024272 -0.018526 -0.011916 -0.007289 -0.000792
# 3 0.001414 -0.018526 0.032020 0.006484 0.019624 -0.001032
# 4 0.002442 -0.011916 0.006484 0.027536 0.004003 0.006429
# 5 0.004710 -0.007289 0.019624 0.004003 0.044858 -0.005178
# 6 -0.002309 -0.000792 -0.001032 0.006429 -0.005178 0.025565
#
#
# Mechanical properties :
#
#
# Convention : Reuss Voigt Hill
#
# Bulk Modulus (GPa) = 34.32066 48.15237 41.23651
# Shear Modulus (GPa) = 23.10376 37.93342 30.51859
#
# Velocity S-wave (km/s) = 3.00040 3.84458 3.44842
# Velocity P-wave (km/s) = 5.03749 6.20245 5.65007
#
# Compressibility (1/GPa) = 0.02913697
#
# Stress axis : x y z
#
# Youngs Moduli (GPa) = 79.06436 41.19934 31.23027
#
# Poissons Ratio (x) = 0.11491 -0.04415
# Poissons Ratio (y) = 0.22051 0.57859
# Poissons Ratio (z) = -0.11178 0.76328
#
# Static dielectric constant tensor:
#      x y z
#    x 2.071680 -0.025750 0.060460 
#    y -0.025750 2.044710 -0.030020 
#    z 0.060460 -0.030020 2.048360 
# 
# From -- ./inp_files/583289.got.cif
#   From: 2010.05.17/outbox.cif.g08.bks.cpg/sg2_292_cif.got.tgz:583289.got - 2010.06.03 11:33:40.
