data_PCOD9085765
_publ_section_title
;
Structure prediction by ZEFSAII (Michael W. Deem and Ramdas Pophale) SiO2 
 PCOD9085765
Probable space group: P -1
;
_chemical_formula_sum "Si O2"
_cell_formula_units_Z 16
_cell_length_a 8.260257
_cell_length_b 11.196449
_cell_length_c 18.282121
_cell_angle_alpha 49.535110
_cell_angle_beta 149.599341
_cell_angle_gamma 133.688578
_cell_volume 612.136211
_symmetry_space_group_name_H-M "P -1"
_symmetry_group_IT_number 2
_symmetry_cell_setting 'triclinic'
loop_
_space_group_symop_operation_xyz
x,y,z
-x,-y,-z
loop_
_atom_site_type_symbol
_atom_site_label
_atom_site_fract_x
_atom_site_fract_y
_atom_site_fract_z
Si Si1 0.963372 0.932260 0.865844
Si Si2 0.462058 0.890426 0.276890
Si Si3 0.229892 0.607707 0.983808
Si Si4 0.684432 0.010656 0.163009
Si Si5 0.573174 0.856057 0.487720
Si Si6 0.093949 0.462412 0.839819
Si Si7 0.917962 0.537308 0.320249
Si Si8 0.455205 0.777523 0.630841
O O1 0.097991 0.030988 0.801362
O O2 0.763745 0.006068 0.816527
O O3 0.694705 0.764658 0.796454
O O4 0.288601 0.905232 0.036597
O O5 0.710237 0.980241 0.271463
O O6 0.678030 0.859545 0.442005
O O7 0.166691 0.724762 0.199029
O O8 0.600415 0.594100 0.150350
O O9 0.306147 0.803923 0.925498
O O10 0.017751 0.534202 0.856714
O O11 0.000000 0.500000 0.000000
O O12 0.650078 0.800448 0.620573
O O13 0.209502 0.704260 0.394032
O O14 0.602264 0.048694 0.441140
O O15 0.025453 0.539786 0.705867
O O16 0.500000 0.500000 0.000000
O O17 0.853460 0.392327 0.412735
#
# Coordination Sequence:
#
# PCOD9085765 Si02
#       8
#     2   2   2   2   2   2   2   2
#     4  10  22  35  59  89 116 155 200 235 303 356
#     4  10  21  39  60  83 124 155 198 251 294 357
#     4  11  23  36  52  87 127 155 195 244 300 370
#     4  11  23  36  59  88 124 158 193 244 304 364
#     4   9  20  37  56  91 110 151 207 248 296 352
#     4   9  20  34  53  82 116 153 196 234 295 358
#     4  10  20  36  57  85 115 156 198 246 298 359
#     4  10  19  35  63  82 117 152 199 252 298 353
#
# _framework density 26.137974
#
# number of rings (size 3 to 8) (size 9 to 14) (size 15 to 20)
#    0.000    2.000    0.000    4.500   10.500    0.000 
#    0.000    0.625    0.000    0.000    0.000    4.375 
#    0.000    0.000    0.000    0.000    0.000    0.000 
#
# Total GULP energy -89135.595856 kJ/mol
# GULP energy per Si atom -5570.974741 kJ/mol
# Density = 2.607848 g / cm^3
# Si number density = 26.137974 Si / 1000 Ang^3
#
#
#
# Elastic Constant Matrix: (Units=GPa)
#
#
# Indices 1 2 3 4 5 6 
#
# 1 128.1461 44.3678 32.6038 -15.2069 -41.1706 14.3891
# 2 44.3678 149.0968 40.3553 -5.7169 -21.9357 9.3342
# 3 32.6038 40.3553 76.7653 1.8354 -32.8025 -16.6924
# 4 -15.2069 -5.7169 1.8354 36.6116 5.2432 -16.5069
# 5 -41.1706 -21.9357 -32.8025 5.2432 54.3371 -3.2897
# 6 14.3891 9.3342 -16.6924 -16.5069 -3.2897 42.7210
#
#
#
# Elastic Compliance Matrix: (Units=1/GPa)
#
#
# Indices 1 2 3 4 5 6 
#
# 1 0.011582 -0.001698 -0.001910 0.002428 0.006531 -0.002836
# 2 -0.001698 0.008619 -0.004987 -0.000573 -0.000978 -0.003557
# 3 -0.001910 -0.004987 0.024202 0.001186 0.011795 0.012556
# 4 0.002428 -0.000573 0.001186 0.034015 -0.000177 0.012900
# 5 0.006531 -0.000978 0.011795 -0.000177 0.030391 0.004895
# 6 -0.002836 -0.003557 0.012556 0.012900 0.004895 0.035408
#
#
# Mechanical properties :
#
#
# Convention : Reuss Voigt Hill
#
# Bulk Modulus (GPa) = 36.74879 65.40689 51.07784
# Shear Modulus (GPa) = 29.32896 42.51271 35.92084
#
# Velocity S-wave (km/s) = 3.35338 4.03733 3.71115
# Velocity P-wave (km/s) = 5.39293 6.84189 6.16016
#
# Compressibility (1/GPa) = 0.02721178
#
# Stress axis : x y z
#
# Youngs Moduli (GPa) = 86.33821 116.02156 41.31851
#
# Poissons Ratio (x) = 0.19701 0.07894
# Poissons Ratio (y) = 0.14661 0.20607
# Poissons Ratio (z) = 0.16495 0.57865
#
# Static dielectric constant tensor:
#      x y z
#    x 2.241050 0.013080 0.025060 
#    y 0.013080 2.051620 0.028500 
#    z 0.025060 0.028500 2.171940 
# 
# From -- ./inp_files/559103.got.cif
#   From: 2010.05.17/outbox.cif.g08.bks.cpg/sg2_280_cif.got.tgz:559103.got - 2010.06.03 11:33:40.
