data_PCOD9085162
_publ_section_title
;
Structure prediction by ZEFSAII (Michael W. Deem and Ramdas Pophale) SiO2 
 PCOD9085162
Probable space group: P -1
;
_chemical_formula_sum "Si O2"
_cell_formula_units_Z 14
_cell_length_a 7.583235
_cell_length_b 21.380747
_cell_length_c 16.081227
_cell_angle_alpha 16.873683
_cell_angle_beta 129.730207
_cell_angle_gamma 122.155327
_cell_volume 543.935086
_symmetry_space_group_name_H-M "P -1"
_symmetry_group_IT_number 2
_symmetry_cell_setting 'triclinic'
loop_
_space_group_symop_operation_xyz
x,y,z
-x,-y,-z
loop_
_atom_site_type_symbol
_atom_site_label
_atom_site_fract_x
_atom_site_fract_y
_atom_site_fract_z
Si Si1 0.831375 0.480821 0.223212
Si Si2 0.674814 0.696218 0.478044
Si Si3 0.201691 0.703816 0.379925
Si Si4 0.890950 0.910708 0.760058
Si Si5 0.923385 0.349668 0.235064
Si Si6 0.760484 0.172475 0.163228
Si Si7 0.246301 0.203363 0.961823
O O1 0.735470 0.365273 0.416600
O O2 0.132805 0.355183 0.474922
O O3 0.781331 0.463086 0.132680
O O4 0.764994 0.748906 0.884599
O O5 0.382921 0.810544 0.252542
O O6 0.810575 0.797313 0.457964
O O7 0.709536 0.430380 0.852694
O O8 0.228091 0.467450 0.637541
O O9 0.909271 0.833455 0.115363
O O10 0.160471 0.818085 0.920054
O O11 0.796596 0.183263 0.370223
O O12 0.876914 0.871700 0.902035
O O13 0.000000 0.500000 0.000000
O O14 0.537589 0.080784 0.212194
O O15 0.000000 0.000000 0.500000
#
# Coordination Sequence:
#
# PCOD9085162 Si02
#       7
#     2   2   2   2   2   2   2
#     4   8  19  35  59  85 113 156 194 241 302 342
#     4   8  18  34  56  84 112 155 192 239 298 338
#     4   9  16  37  61  81 121 149 198 249 288 348
#     4  10  20  37  58  85 120 150 200 239 293 351
#     4  10  20  37  58  84 119 155 198 241 294 356
#     4  10  19  35  59  83 120 154 193 241 296 349
#     4   9  20  34  59  92 110 157 202 237 293 355
#
# _framework density 25.738365000000002
#
# number of rings (size 3 to 8) (size 9 to 14) (size 15 to 20)
#    0.857    2.000    0.000    0.857    0.000    1.714 
#    2.571   10.714    0.000    0.000    0.000    0.000 
#    0.000    0.000    0.000    0.000    0.000    0.000 
#
# Total GULP energy -77954.344271 kJ/mol
# GULP energy per Si atom -5568.167448 kJ/mol
# Density = 2.567978 g / cm^3
# Si number density = 25.738365 Si / 1000 Ang^3
#
#
#
# Elastic Constant Matrix: (Units=GPa)
#
#
# Indices 1 2 3 4 5 6 
#
# 1 142.5620 42.3539 6.3797 24.7129 2.5489 4.4638
# 2 42.3539 73.0423 24.6246 -13.8176 9.5186 -6.6360
# 3 6.3797 24.6246 51.9966 -11.3642 6.7984 7.0952
# 4 24.7129 -13.8176 -11.3642 39.8040 10.5755 5.8723
# 5 2.5489 9.5186 6.7984 10.5755 18.1986 15.0303
# 6 4.4638 -6.6360 7.0952 5.8723 15.0303 44.4937
#
#
#
# Elastic Compliance Matrix: (Units=1/GPa)
#
#
# Indices 1 2 3 4 5 6 
#
# 1 0.016704 -0.019206 -0.000695 -0.023907 0.031776 -0.012008
# 2 -0.019206 0.044225 -0.005640 0.038246 -0.061266 0.025070
# 3 -0.000695 -0.005640 0.025438 0.008565 -0.009031 -0.002907
# 4 -0.023907 0.038246 0.008565 0.074243 -0.083870 0.025270
# 5 0.031776 -0.061266 -0.009031 -0.083870 0.186550 -0.062834
# 6 -0.012008 0.025070 -0.002907 0.025270 -0.062834 0.045773
#
#
# Mechanical properties :
#
#
# Convention : Reuss Voigt Hill
#
# Bulk Modulus (GPa) = 28.34050 46.03526 37.18788
# Shear Modulus (GPa) = 10.97030 33.44877 22.20953
#
# Velocity S-wave (km/s) = 2.06676 3.60886 2.94070
# Velocity P-wave (km/s) = 4.09026 5.94053 5.10000
#
# Compressibility (1/GPa) = 0.03528519
#
# Stress axis : x y z
#
# Youngs Moduli (GPa) = 59.86721 22.61153 39.31191
#
# Poissons Ratio (x) = 0.43428 0.02732
# Poissons Ratio (y) = 1.14980 0.22171
# Poissons Ratio (z) = 0.04161 0.12752
#
# Static dielectric constant tensor:
#      x y z
#    x 2.097810 0.033480 0.094780 
#    y 0.033480 2.048110 0.017030 
#    z 0.094780 0.017030 2.181780 
# 
# From -- ./inp_files/563112.got.cif
#   From: 2010.05.17/outbox.cif.g08.bks.cpg/sg2_282_cif.got.tgz:563112.got - 2010.06.03 11:33:40.
