data_PCOD9085171
_publ_section_title
;
Structure prediction by ZEFSAII (Michael W. Deem and Ramdas Pophale) SiO2 
 PCOD9085171
Probable space group: P -1
;
_chemical_formula_sum "Si O2"
_cell_formula_units_Z 16
_cell_length_a 8.806305
_cell_length_b 10.921805
_cell_length_c 13.591623
_cell_angle_alpha 115.935815
_cell_angle_beta 88.678287
_cell_angle_gamma 42.372073
_cell_volume 650.314154
_symmetry_space_group_name_H-M "P -1"
_symmetry_group_IT_number 2
_symmetry_cell_setting 'triclinic'
loop_
_space_group_symop_operation_xyz
x,y,z
-x,-y,-z
loop_
_atom_site_type_symbol
_atom_site_label
_atom_site_fract_x
_atom_site_fract_y
_atom_site_fract_z
Si Si1 0.443258 0.198078 0.627344
Si Si2 0.107616 0.666495 0.071537
Si Si3 0.318435 0.014087 0.964064
Si Si4 0.551458 0.405574 0.733609
Si Si5 0.530938 0.636174 0.666410
Si Si6 0.686981 0.211938 0.967223
Si Si7 0.156673 0.026368 0.639080
Si Si8 0.103599 0.319786 0.517567
O O1 0.413385 0.364841 0.734344
O O2 0.664397 0.061007 0.486995
O O3 0.176811 0.342516 0.626202
O O4 0.610007 0.969031 0.612518
O O5 0.414494 0.379969 0.969138
O O6 0.125979 0.819929 0.105975
O O7 0.921899 0.747697 0.016798
O O8 0.964468 0.763494 0.214432
O O9 0.470971 0.797978 0.807547
O O10 0.210380 0.996045 0.047986
O O11 0.500000 0.000000 0.000000
O O12 0.472020 0.533417 0.676731
O O13 0.435949 0.595638 0.881399
O O14 0.880582 0.155319 0.654247
O O15 0.362014 0.793331 0.626476
O O16 0.855080 0.401706 0.561481
O O17 0.000000 0.500000 0.500000
#
# Coordination Sequence:
#
# PCOD9085171 Si02
#       8
#     2   2   2   2   2   2   2   2
#     4  11  23  37  60  85 114 152 190 236 282 337
#     4   9  19  36  60  82 110 149 189 234 284 329
#     4  10  21  36  58  85 116 149 187 234 282 340
#     4  10  21  37  59  87 113 146 194 237 277 333
#     4  10  21  38  59  81 114 156 187 229 288 336
#     4   9  19  38  60  82 115 149 186 237 285 328
#     4  10  19  35  59  84 113 147 190 232 281 334
#     4  11  23  40  56  82 117 152 187 232 287 338
#
# _framework density 24.603493
#
# number of rings (size 3 to 8) (size 9 to 14) (size 15 to 20)
#    0.000    2.000    2.500    0.750    0.000    3.000 
#    0.000    3.750    0.000    0.000    0.000    0.000 
#    0.000    0.000    0.000    0.000    0.000    0.000 
#
# Total GULP energy -89445.532778 kJ/mol
# GULP energy per Si atom -5590.345799 kJ/mol
# Density = 2.454749 g / cm^3
# Si number density = 24.603493 Si / 1000 Ang^3
#
#
#
# Elastic Constant Matrix: (Units=GPa)
#
#
# Indices 1 2 3 4 5 6 
#
# 1 42.4154 12.8937 12.6767 5.7119 16.6387 -4.3390
# 2 12.8937 144.0874 8.7827 -4.9119 17.9340 -5.3971
# 3 12.6767 8.7827 55.4124 -8.7696 -5.3444 -2.5164
# 4 5.7119 -4.9119 -8.7696 20.3208 1.3481 -8.8630
# 5 16.6387 17.9340 -5.3444 1.3481 38.2505 -0.5223
# 6 -4.3390 -5.3971 -2.5164 -8.8630 -0.5223 37.3511
#
#
#
# Elastic Compliance Matrix: (Units=1/GPa)
#
#
# Indices 1 2 3 4 5 6 
#
# 1 0.035705 -0.000961 -0.011903 -0.014533 -0.016238 -0.000469
# 2 -0.000961 0.007641 -0.000827 0.002644 -0.003352 0.001517
# 3 -0.011903 -0.000827 0.024207 0.014654 0.008482 0.003725
# 4 -0.014533 0.002644 0.014654 0.066725 0.004991 0.015584
# 5 -0.016238 -0.003352 0.008482 0.004991 0.035786 -0.000115
# 6 -0.000469 0.001517 0.003725 0.015584 -0.000115 0.030885
#
#
# Mechanical properties :
#
#
# Convention : Reuss Voigt Hill
#
# Bulk Modulus (GPa) = 24.89435 34.51350 29.70392
# Shear Modulus (GPa) = 20.68485 33.02197 26.85341
#
# Velocity S-wave (km/s) = 2.90268 3.66753 3.30729
# Velocity P-wave (km/s) = 4.62323 5.65621 5.16561
#
# Compressibility (1/GPa) = 0.04016976
#
# Stress axis : x y z
#
# Youngs Moduli (GPa) = 28.00718 130.87461 41.31010
#
# Poissons Ratio (x) = 0.12583 0.49173
# Poissons Ratio (y) = 0.02693 0.03416
# Poissons Ratio (z) = 0.33338 0.10824
#
# Static dielectric constant tensor:
#      x y z
#    x 1.990580 0.039930 -0.014070 
#    y 0.039930 1.983270 -0.007340 
#    z -0.014070 -0.007340 2.016760 
# 
# From -- ./inp_files/273020.got.cif
#   From: 2010.05.17/outbox.cif.g08.bks.cpg/sg2_137_cif.got.tgz:273020.got - 2010.06.03 11:33:40.
