data_PCOD9085853
_publ_section_title
;
Structure prediction by ZEFSAII (Michael W. Deem and Ramdas Pophale) SiO2 
 PCOD9085853
Probable space group: P -1
;
_chemical_formula_sum "Si O2"
_cell_formula_units_Z 16
_cell_length_a 14.145171
_cell_length_b 14.331270
_cell_length_c 7.630857
_cell_angle_alpha 68.206029
_cell_angle_beta 115.341443
_cell_angle_gamma 150.462393
_cell_volume 689.233803
_symmetry_space_group_name_H-M "P -1"
_symmetry_group_IT_number 2
_symmetry_cell_setting 'triclinic'
loop_
_space_group_symop_operation_xyz
x,y,z
-x,-y,-z
loop_
_atom_site_type_symbol
_atom_site_label
_atom_site_fract_x
_atom_site_fract_y
_atom_site_fract_z
Si Si1 0.728325 0.433394 0.277312
Si Si2 0.246614 0.397559 0.287463
Si Si3 0.387440 0.403673 0.708877
Si Si4 0.343586 0.234533 0.116538
Si Si5 0.967453 0.171608 0.920939
Si Si6 0.866986 0.493995 0.722944
Si Si7 0.278854 0.837254 0.219820
Si Si8 0.735275 0.218466 0.334446
O O1 0.515162 0.297726 0.146860
O O2 0.736245 0.412374 0.502806
O O3 0.782983 0.375766 0.263109
O O4 0.882337 0.645501 0.209599
O O5 0.232219 0.327328 0.508856
O O6 0.473371 0.564568 0.297389
O O7 0.196411 0.474165 0.211476
O O8 0.099821 0.235301 0.137998
O O9 0.544996 0.617216 0.743020
O O10 0.305113 0.285243 0.900121
O O11 0.154770 0.012324 0.148370
O O12 0.820842 0.136559 0.910575
O O13 0.823059 0.341137 0.829864
O O14 0.092455 0.692467 0.701282
O O15 0.257077 0.807208 0.436228
O O16 0.511095 0.022019 0.234228
#
# Coordination Sequence:
#
# PCOD9085853 Si02
#       8
#     2   2   2   2   2   2   2   2
#     4  11  19  39  66  97 128 168 218 261 308 383
#     4  11  25  43  65  94 137 167 207 267 336 375
#     4  10  24  48  67  92 125 170 218 276 319 369
#     4  11  23  44  75  90 120 170 225 270 312 372
#     4  12  23  40  68 101 126 167 213 262 321 391
#     4  11  21  39  63  93 136 177 198 259 322 378
#     4  10  20  35  63  99 128 167 218 253 305 391
#     4  10  19  35  63  96 132 166 217 261 300 374
#
# _framework density 23.214182000000001
#
# number of rings (size 3 to 8) (size 9 to 14) (size 15 to 20)
#    0.000    1.250    6.250    0.750    0.000    1.500 
#    2.250    1.875    0.000    0.000    0.000    0.000 
#    0.000    0.000    0.000    0.000    0.000    0.000 
#
# Total GULP energy -89507.146801 kJ/mol
# GULP energy per Si atom -5594.196675 kJ/mol
# Density = 2.316135 g / cm^3
# Si number density = 23.214182 Si / 1000 Ang^3
#
#
#
# Elastic Constant Matrix: (Units=GPa)
#
#
# Indices 1 2 3 4 5 6 
#
# 1 80.9067 1.1455 -12.8287 -5.5897 14.6895 1.5554
# 2 1.1455 115.8360 11.4175 -11.7747 4.9598 -2.9319
# 3 -12.8287 11.4175 88.2365 6.5978 14.8789 -3.4727
# 4 -5.5897 -11.7747 6.5978 18.3046 2.9708 4.5928
# 5 14.6895 4.9598 14.8789 2.9708 27.1289 9.3850
# 6 1.5554 -2.9319 -3.4727 4.5928 9.3850 23.1713
#
#
#
# Elastic Compliance Matrix: (Units=1/GPa)
#
#
# Indices 1 2 3 4 5 6 
#
# 1 0.015546 0.000556 0.004113 0.004712 -0.012612 0.003817
# 2 0.000556 0.009580 -0.001276 0.007035 -0.002304 0.000523
# 3 0.004113 -0.001276 0.014831 -0.004856 -0.012265 0.007716
# 4 0.004712 0.007035 -0.004856 0.065933 -0.004443 -0.011423
# 5 -0.012612 -0.002304 -0.012265 -0.004443 0.059850 -0.024643
# 6 0.003817 0.000523 0.007716 -0.011423 -0.024643 0.056368
#
#
# Mechanical properties :
#
#
# Convention : Reuss Voigt Hill
#
# Bulk Modulus (GPa) = 21.39278 31.60532 26.49905
# Shear Modulus (GPa) = 21.65412 32.73729 27.19571
#
# Velocity S-wave (km/s) = 3.05749 3.75937 3.42645
# Velocity P-wave (km/s) = 4.65829 5.69983 5.20518
#
# Compressibility (1/GPa) = 0.04674473
#
# Stress axis : x y z
#
# Youngs Moduli (GPa) = 64.32472 104.38259 67.42544
#
# Poissons Ratio (x) = -0.05809 -0.27731
# Poissons Ratio (y) = -0.03579 0.08601
# Poissons Ratio (z) = -0.26456 0.13316
#
# Static dielectric constant tensor:
#      x y z
#    x 1.921600 0.001300 -0.010140 
#    y 0.001300 1.826760 0.004630 
#    z -0.010140 0.004630 1.901770 
# 
# From -- ./inp_files/312860.got.cif
#   From: 2010.05.17/outbox.cif.g08.bks.cpg/sg2_157_cif.got.tgz:312860.got - 2010.06.03 11:33:40.
