data_PCOD9085981
_publ_section_title
;
Structure prediction by ZEFSAII (Michael W. Deem and Ramdas Pophale) SiO2 
 PCOD9085981
Probable space group: P -1
;
_chemical_formula_sum "Si O2"
_cell_formula_units_Z 14
_cell_length_a 7.722881
_cell_length_b 18.204163
_cell_length_c 5.254983
_cell_angle_alpha 129.985701
_cell_angle_beta 107.452136
_cell_angle_gamma 79.033806
_cell_volume 540.004611
_symmetry_space_group_name_H-M "P -1"
_symmetry_group_IT_number 2
_symmetry_cell_setting 'triclinic'
loop_
_space_group_symop_operation_xyz
x,y,z
-x,-y,-z
loop_
_atom_site_type_symbol
_atom_site_label
_atom_site_fract_x
_atom_site_fract_y
_atom_site_fract_z
Si Si1 0.624928 0.405459 0.672533
Si Si2 0.157282 0.928228 0.493438
Si Si3 0.106350 0.166329 0.502245
Si Si4 0.400752 0.238563 0.110970
Si Si5 0.811815 0.446187 0.350005
Si Si6 0.535734 0.877162 0.611101
Si Si7 0.104136 0.737946 0.745364
O O1 0.435149 0.350527 0.425356
O O2 0.704156 0.468763 0.615767
O O3 0.753675 0.310299 0.494129
O O4 0.670881 0.449631 0.062711
O O5 0.371376 0.950713 0.660075
O O6 0.080767 0.883111 0.619661
O O7 0.000000 0.000000 0.500000
O O8 0.148264 0.842583 0.096293
O O9 0.257236 0.093082 0.298318
O O10 0.078627 0.249934 0.471722
O O11 0.193392 0.209543 0.892812
O O12 0.465439 0.173445 0.228916
O O13 0.485448 0.206252 0.803045
O O14 0.000000 0.500000 0.500000
O O15 0.878358 0.337295 0.186875
#
# Coordination Sequence:
#
# PCOD9085981 Si02
#       7
#     2   2   2   2   2   2   2
#     4  10  19  35  66  91 135 171 222 263 333 389
#     4  12  25  43  66  99 134 175 229 281 329 398
#     4  10  23  39  66  93 133 176 227 270 337 390
#     4  10  19  40  64  91 127 174 222 261 329 390
#     4  10  21  36  65 103 134 172 221 273 333 397
#     4  10  22  40  63  91 130 172 224 268 329 387
#     4  10  20  38  63  94 128 174 220 270 330 392
#
# _framework density 25.925704
#
# number of rings (size 3 to 8) (size 9 to 14) (size 15 to 20)
#    1.714    0.000    1.429    4.714    0.000    1.143 
#    0.000    1.429    0.000    1.714    0.000    0.000 
#    0.000    0.000    0.000    0.000    0.000    0.000 
#
# Total GULP energy -78145.750669 kJ/mol
# GULP energy per Si atom -5581.839333 kJ/mol
# Density = 2.586670 g / cm^3
# Si number density = 25.925704 Si / 1000 Ang^3
#
#
#
# Elastic Constant Matrix: (Units=GPa)
#
#
# Indices 1 2 3 4 5 6 
#
# 1 84.5054 10.3355 6.8339 -9.9894 12.6969 -1.5152
# 2 10.3355 94.0585 41.1120 -25.2336 -7.7737 3.7469
# 3 6.8339 41.1120 93.3886 -23.4230 -8.7019 15.9590
# 4 -9.9894 -25.2336 -23.4230 48.8274 1.9575 -10.5052
# 5 12.6969 -7.7737 -8.7019 1.9575 41.1851 0.5255
# 6 -1.5152 3.7469 15.9590 -10.5052 0.5255 48.8645
#
#
#
# Elastic Compliance Matrix: (Units=1/GPa)
#
#
# Indices 1 2 3 4 5 6 
#
# 1 0.012957 -0.000972 -0.000557 0.002318 -0.004421 0.001204
# 2 -0.000972 0.014411 -0.005120 0.005072 0.001676 0.001609
# 3 -0.000557 -0.005120 0.014696 0.003402 0.002196 -0.003716
# 4 0.002318 0.005072 0.003402 0.026123 -0.000333 0.004191
# 5 -0.004421 0.001676 0.002196 -0.000333 0.026457 -0.001339
# 6 0.001204 0.001609 -0.003716 0.004191 -0.001339 0.022508
#
#
# Mechanical properties :
#
#
# Convention : Reuss Voigt Hill
#
# Bulk Modulus (GPa) = 34.76176 43.16838 38.96507
# Shear Modulus (GPa) = 35.70451 42.02014 38.86232
#
# Velocity S-wave (km/s) = 3.71507 4.03027 3.87588
# Velocity P-wave (km/s) = 5.64267 6.19229 5.92385
#
# Compressibility (1/GPa) = 0.02876724
#
# Stress axis : x y z
#
# Youngs Moduli (GPa) = 77.17645 69.38935 68.04751
#
# Poissons Ratio (x) = 0.06745 0.03788
# Poissons Ratio (y) = 0.07502 0.34839
# Poissons Ratio (z) = 0.04296 0.35526
#
# Static dielectric constant tensor:
#      x y z
#    x 2.167090 -0.022390 0.024760 
#    y -0.022390 2.036640 -0.012060 
#    z 0.024760 -0.012060 2.132130 
# 
# From -- ./inp_files/54016.got.cif
#   From: 2010.05.17/outbox.cif.g08.bks.cpg/sg2_28_cif.got.tgz:54016.got - 2010.06.03 11:33:40.
