data_PCOD9085558
_publ_section_title
;
Structure prediction by ZEFSAII (Michael W. Deem and Ramdas Pophale) SiO2 
 PCOD9085558
Probable space group: P -1
;
_chemical_formula_sum "Si O2"
_cell_formula_units_Z 16
_cell_length_a 9.386815
_cell_length_b 8.364421
_cell_length_c 13.549308
_cell_angle_alpha 113.689131
_cell_angle_beta 142.270993
_cell_angle_gamma 70.731812
_cell_volume 595.990809
_symmetry_space_group_name_H-M "P -1"
_symmetry_group_IT_number 2
_symmetry_cell_setting 'triclinic'
loop_
_space_group_symop_operation_xyz
x,y,z
-x,-y,-z
loop_
_atom_site_type_symbol
_atom_site_label
_atom_site_fract_x
_atom_site_fract_y
_atom_site_fract_z
Si Si1 0.544041 0.577077 0.874084
Si Si2 0.915185 0.767769 0.910247
Si Si3 0.581967 0.323830 0.656579
Si Si4 0.409236 0.934365 0.227431
Si Si5 0.116872 0.460688 0.334434
Si Si6 0.100289 0.793109 0.692484
Si Si7 0.210676 0.281471 0.683471
Si Si8 0.942743 0.806331 0.171944
O O1 0.647006 0.468844 0.810890
O O2 0.405624 0.430024 0.821120
O O3 0.348217 0.719632 0.772711
O O4 0.734095 0.684405 0.062884
O O5 0.906416 0.584761 0.804630
O O6 0.687087 0.870001 0.768636
O O7 0.909234 0.791672 0.030403
O O8 0.166780 0.845627 0.038531
O O9 0.528860 0.155758 0.655931
O O10 0.372467 0.414567 0.504668
O O11 0.788609 0.250748 0.683954
O O12 0.626981 0.893676 0.264422
O O13 0.006645 0.645398 0.354466
O O14 0.035262 0.685214 0.727978
O O15 0.914027 0.736918 0.495452
O O16 0.093233 0.997502 0.761530
#
# Coordination Sequence:
#
# PCOD9085558 Si02
#       8
#     2   2   2   2   2   2   2   2
#     4  10  19  39  57  89 117 146 193 245 286 334
#     4  10  22  36  50  88 129 153 178 231 297 357
#     4  10  19  35  61  88 112 147 197 248 276 332
#     4   9  18  35  54  85 117 148 192 241 285 328
#     4  11  19  35  61  91 114 144 197 246 287 325
#     4  11  19  35  62  90 109 143 199 253 275 320
#     4  10  20  36  66  90 108 143 203 255 278 318
#     4  11  24  36  58  88 123 157 181 228 300 355
#
# _framework density 26.846053999999999
#
# number of rings (size 3 to 8) (size 9 to 14) (size 15 to 20)
#    0.000    1.750    3.750    3.750    1.750    1.500 
#    0.000    3.125    0.000    0.750    0.000    0.000 
#    0.000    0.000    0.000    0.000    0.000    0.000 
#
# Total GULP energy -89538.027871 kJ/mol
# GULP energy per Si atom -5596.126742 kJ/mol
# Density = 2.678495 g / cm^3
# Si number density = 26.846054 Si / 1000 Ang^3
#
#
#
# Elastic Constant Matrix: (Units=GPa)
#
#
# Indices 1 2 3 4 5 6 
#
# 1 115.2382 39.2255 20.6886 -6.8036 -6.3953 -23.4538
# 2 39.2255 138.1811 10.7514 -24.7001 21.0905 -44.9060
# 3 20.6886 10.7514 73.2097 -23.5150 -2.4256 1.4177
# 4 -6.8036 -24.7001 -23.5150 54.9612 -15.2565 15.0552
# 5 -6.3953 21.0905 -2.4256 -15.2565 29.8998 -1.7426
# 6 -23.4538 -44.9060 1.4177 15.0552 -1.7426 30.2120
#
#
#
# Elastic Compliance Matrix: (Units=1/GPa)
#
#
# Indices 1 2 3 4 5 6 
#
# 1 0.011558 -0.000418 -0.004298 -0.002947 0.001504 0.010109
# 2 -0.000418 0.018916 -0.005953 -0.006800 -0.015604 0.030559
# 3 -0.004298 -0.005953 0.021087 0.014289 0.011136 -0.019652
# 4 -0.002947 -0.006800 0.014289 0.034819 0.021391 -0.029183
# 5 0.001504 -0.015604 0.011136 0.021391 0.054840 -0.030044
# 6 0.010109 0.030559 -0.019652 -0.029183 -0.030044 0.100101
#
#
# Mechanical properties :
#
#
# Convention : Reuss Voigt Hill
#
# Bulk Modulus (GPa) = 33.08502 51.99556 42.54029
# Shear Modulus (GPa) = 18.33291 40.07883 29.20587
#
# Velocity S-wave (km/s) = 2.61605 3.86802 3.30191
# Velocity P-wave (km/s) = 4.63419 6.27366 5.51518
#
# Compressibility (1/GPa) = 0.03022516
#
# Stress axis : x y z
#
# Youngs Moduli (GPa) = 86.51818 52.86554 47.42182
#
# Poissons Ratio (x) = 0.02209 0.20380
# Poissons Ratio (y) = 0.03615 0.28229
# Poissons Ratio (z) = 0.37182 0.31470
#
# Static dielectric constant tensor:
#      x y z
#    x 2.248220 0.086650 0.028040 
#    y 0.086650 2.106950 -0.017280 
#    z 0.028040 -0.017280 2.042860 
# 
# From -- ./inp_files/568204.got.cif
#   From: 2010.05.17/outbox.cif.g08.bks.cpg/sg2_285_cif.got.tgz:568204.got - 2010.06.03 11:33:40.
