data_PCOD9085145
_publ_section_title
;
Structure prediction by ZEFSAII (Michael W. Deem and Ramdas Pophale) SiO2 
 PCOD9085145
Probable space group: P -1
;
_chemical_formula_sum "Si O2"
_cell_formula_units_Z 12
_cell_length_a 8.150013
_cell_length_b 6.542887
_cell_length_c 18.221198
_cell_angle_alpha 102.615933
_cell_angle_beta 135.215818
_cell_angle_gamma 60.513489
_cell_volume 582.058970
_symmetry_space_group_name_H-M "P -1"
_symmetry_group_IT_number 2
_symmetry_cell_setting 'triclinic'
loop_
_space_group_symop_operation_xyz
x,y,z
-x,-y,-z
loop_
_atom_site_type_symbol
_atom_site_label
_atom_site_fract_x
_atom_site_fract_y
_atom_site_fract_z
Si Si1 0.113066 0.944014 0.137657
Si Si2 0.341449 0.834678 0.506987
Si Si3 0.898352 0.314795 0.471273
Si Si4 0.793247 0.777851 0.940107
Si Si5 0.856043 0.866459 0.679537
Si Si6 0.410317 0.598238 0.765955
O O1 0.135914 0.130958 0.104989
O O2 0.847381 0.928174 0.031462
O O3 0.638229 0.321189 0.820718
O O4 0.126951 0.016127 0.230342
O O5 0.245108 0.654429 0.493609
O O6 0.643059 0.773254 0.609358
O O7 0.248525 0.935481 0.403708
O O8 0.165163 0.061934 0.522609
O O9 0.684346 0.344217 0.343761
O O10 0.000000 0.500000 0.500000
O O11 0.517750 0.774886 0.842407
O O12 0.000000 0.500000 0.000000
O O13 0.146423 0.657238 0.731989
#
# Coordination Sequence:
#
# PCOD9085145 Si02
#       6
#     2   2   2   2   2   2
#     4  10  20  39  61  81 114 152 189 236 290 340
#     4   9  20  37  54  83 123 151 189 240 276 331
#     4  10  19  35  59  82 114 159 194 228 282 338
#     4   9  20  40  61  82 112 150 190 237 289 343
#     4  10  20  37  60  87 118 154 191 236 288 335
#     4  10  21  36  57  87 115 147 193 235 282 339
#
# _framework density 20.616468000000001
#
# number of rings (size 3 to 8) (size 9 to 14) (size 15 to 20)
#    0.000    2.333    0.000    2.000    0.000    3.333 
#    0.000   34.167    0.000    0.000    0.000    0.000 
#    0.000    0.000    0.000    0.000    0.000    0.000 
#
# Total GULP energy -66967.451792 kJ/mol
# GULP energy per Si atom -5580.620983 kJ/mol
# Density = 2.056954 g / cm^3
# Si number density = 20.616468 Si / 1000 Ang^3
#
#
#
# Elastic Constant Matrix: (Units=GPa)
#
#
# Indices 1 2 3 4 5 6 
#
# 1 113.4144 36.3810 66.0248 9.4164 -5.0154 23.3399
# 2 36.3810 64.7769 23.0010 4.0788 -0.9496 12.9218
# 3 66.0248 23.0010 127.7941 14.4823 -4.3598 5.1535
# 4 9.4164 4.0788 14.4823 21.8359 -5.6260 2.4670
# 5 -5.0154 -0.9496 -4.3598 -5.6260 32.4963 3.3186
# 6 23.3399 12.9218 5.1535 2.4670 3.3186 31.0240
#
#
#
# Elastic Compliance Matrix: (Units=1/GPa)
#
#
# Indices 1 2 3 4 5 6 
#
# 1 0.016692 -0.004842 -0.007312 0.000282 0.002484 -0.009615
# 2 -0.004842 0.019299 -0.000739 -0.000533 0.000058 -0.004237
# 3 -0.007312 -0.000739 0.012153 -0.005492 -0.000912 0.004324
# 4 0.000282 -0.000533 -0.005492 0.052139 0.008742 -0.004159
# 5 0.002484 0.000058 -0.000912 0.008742 0.033160 -0.005984
# 6 -0.009615 -0.004237 0.004324 -0.004159 -0.005984 0.041484
#
#
# Mechanical properties :
#
#
# Convention : Reuss Voigt Hill
#
# Bulk Modulus (GPa) = 44.72567 61.86657 53.29612
# Shear Modulus (GPa) = 24.01940 29.10980 26.56460
#
# Velocity S-wave (km/s) = 3.41700 3.76169 3.59348
# Velocity P-wave (km/s) = 6.10812 6.99575 6.56695
#
# Compressibility (1/GPa) = 0.02235853
#
# Stress axis : x y z
#
# Youngs Moduli (GPa) = 59.90792 51.81653 82.28604
#
# Poissons Ratio (x) = 0.25090 0.60168
# Poissons Ratio (y) = 0.29007 0.06078
# Poissons Ratio (z) = 0.43805 0.03827
#
# Static dielectric constant tensor:
#      x y z
#    x 1.761800 0.043240 0.008230 
#    y 0.043240 1.820590 0.011960 
#    z 0.008230 0.011960 1.756230 
# 
# From -- ./inp_files/69651.got.cif
#   From: 2010.05.17/outbox.cif.g08.bks.cpg/sg2_35_cif.got.tgz:69651.got - 2010.06.03 11:33:40.
