data_PCOD9085012
_publ_section_title
;
Structure prediction by ZEFSAII (Michael W. Deem and Ramdas Pophale) SiO2 
 PCOD9085012
Probable space group: P -1
;
_chemical_formula_sum "Si O2"
_cell_formula_units_Z 14
_cell_length_a 22.548523
_cell_length_b 7.939793
_cell_length_c 9.264062
_cell_angle_alpha 32.218261
_cell_angle_beta 130.387228
_cell_angle_gamma 119.705750
_cell_volume 667.836113
_symmetry_space_group_name_H-M "P -1"
_symmetry_group_IT_number 2
_symmetry_cell_setting 'triclinic'
loop_
_space_group_symop_operation_xyz
x,y,z
-x,-y,-z
loop_
_atom_site_type_symbol
_atom_site_label
_atom_site_fract_x
_atom_site_fract_y
_atom_site_fract_z
Si Si1 0.090260 0.891769 0.682985
Si Si2 0.332065 0.817337 0.826617
Si Si3 0.176761 0.698119 0.501334
Si Si4 0.185031 0.483688 0.349093
Si Si5 0.917394 0.633331 0.196124
Si Si6 0.335092 0.527100 0.352804
Si Si7 0.498879 0.625920 0.245355
O O1 0.094441 0.605942 0.780689
O O2 0.142243 0.162066 0.513957
O O3 0.123564 0.754051 0.986176
O O4 0.000000 0.000000 0.500000
O O5 0.252541 0.769493 0.656883
O O6 0.343690 0.178272 0.548112
O O7 0.324297 0.768304 0.024774
O O8 0.412870 0.599092 0.065050
O O9 0.200303 0.572158 0.472141
O O10 0.144426 0.419142 0.740226
O O11 0.107754 0.003219 0.160687
O O12 0.261489 0.511757 0.352005
O O13 0.000000 0.500000 0.500000
O O14 0.416930 0.537297 0.561410
O O15 0.500000 0.500000 0.500000
O O16 0.500000 0.000000 0.000000
#
# Coordination Sequence:
#
# PCOD9085012 Si02
#       7
#     2   2   2   2   2   2   2
#     4  12  25  43  63  85 114 152 194 240 290 346
#     4  10  19  35  58  84 114 152 195 237 284 341
#     4  12  24  39  59  88 120 153 192 239 290 345
#     4  12  24  39  59  88 120 153 192 239 290 345
#     4  12  25  43  63  85 114 152 194 240 290 346
#     4  10  19  35  58  84 114 152 195 237 284 341
#     4   8  16  30  53  82 111 146 191 236 279 336
#
# _framework density 20.963225999999999
#
# number of rings (size 3 to 8) (size 9 to 14) (size 15 to 20)
#    0.000    1.143    0.000    8.571    0.000    0.000 
#    0.000    0.714    0.000    0.000    0.000   16.000 
#    0.000    0.000    0.000    0.000    0.000    0.000 
#
# Total GULP energy -78056.160702 kJ/mol
# GULP energy per Si atom -5575.440050 kJ/mol
# Density = 2.091551 g / cm^3
# Si number density = 20.963226 Si / 1000 Ang^3
#
#
#
# Elastic Constant Matrix: (Units=GPa)
#
#
# Indices 1 2 3 4 5 6 
#
# 1 54.6307 14.3404 -0.5815 8.6776 2.2767 5.2606
# 2 14.3404 39.0063 8.3417 6.0440 4.0353 -0.2008
# 3 -0.5815 8.3417 81.2168 -0.2614 -6.1449 4.1672
# 4 8.6776 6.0440 -0.2614 40.0245 16.2247 -2.6843
# 5 2.2767 4.0353 -6.1449 16.2247 42.4862 3.2048
# 6 5.2606 -0.2008 4.1672 -2.6843 3.2048 24.3686
#
#
#
# Elastic Compliance Matrix: (Units=1/GPa)
#
#
# Indices 1 2 3 4 5 6 
#
# 1 0.021564 -0.007732 0.001379 -0.004696 0.002004 -0.005735
# 2 -0.007732 0.029741 -0.003438 -0.001657 -0.002475 0.002645
# 3 0.001379 -0.003438 0.013036 -0.001014 0.002754 -0.003029
# 4 -0.004696 -0.001657 -0.001014 0.031653 -0.012299 0.006278
# 5 0.002004 -0.002475 0.002754 -0.012299 0.029222 -0.006122
# 6 -0.005735 0.002645 -0.003029 0.006278 -0.006122 0.044311
#
#
# Mechanical properties :
#
#
# Convention : Reuss Voigt Hill
#
# Bulk Modulus (GPa) = 22.34181 24.33945 23.34063
# Shear Modulus (GPa) = 24.50639 31.55939 28.03289
#
# Velocity S-wave (km/s) = 3.42280 3.88424 3.66080
# Velocity P-wave (km/s) = 5.12850 5.63491 5.38766
#
# Compressibility (1/GPa) = 0.04475913
#
# Stress axis : x y z
#
# Youngs Moduli (GPa) = 46.37433 33.62340 76.70903
#
# Poissons Ratio (x) = 0.25998 -0.10581
# Poissons Ratio (y) = 0.35857 0.26375
# Poissons Ratio (z) = -0.06397 0.11561
#
# Static dielectric constant tensor:
#      x y z
#    x 1.844380 0.076010 0.095390 
#    y 0.076010 1.789090 0.046850 
#    z 0.095390 0.046850 1.784990 
# 
# From -- ./inp_files/224158.got.cif
#   From: 2010.05.17/outbox.cif.g08.bks.cpg/sg2_113_cif.got.tgz:224158.got - 2010.06.03 11:33:40.
