data_PCOD9085918
_publ_section_title
;
Structure prediction by ZEFSAII (Michael W. Deem and Ramdas Pophale) SiO2 
 PCOD9085918
Probable space group: P -1
;
_chemical_formula_sum "Si O2"
_cell_formula_units_Z 14
_cell_length_a 12.325603
_cell_length_b 11.170865
_cell_length_c 8.189169
_cell_angle_alpha 116.644476
_cell_angle_beta 122.445902
_cell_angle_gamma 34.511494
_cell_volume 539.065094
_symmetry_space_group_name_H-M "P -1"
_symmetry_group_IT_number 2
_symmetry_cell_setting 'triclinic'
loop_
_space_group_symop_operation_xyz
x,y,z
-x,-y,-z
loop_
_atom_site_type_symbol
_atom_site_label
_atom_site_fract_x
_atom_site_fract_y
_atom_site_fract_z
Si Si1 0.290998 0.715848 0.278892
Si Si2 0.039401 0.668601 0.041997
Si Si3 0.341728 0.213111 0.614451
Si Si4 0.460671 0.924093 0.782915
Si Si5 0.687336 0.128281 0.922969
Si Si6 0.308900 0.754828 0.665107
Si Si7 0.895995 0.518989 0.712692
O O1 0.263918 0.846331 0.196963
O O2 0.190959 0.827341 0.442515
O O3 0.530837 0.497623 0.361174
O O4 0.206513 0.640611 0.110362
O O5 0.032518 0.663181 0.230321
O O6 0.051353 0.511974 0.881657
O O7 0.833731 0.888742 0.935422
O O8 0.466242 0.238234 0.805303
O O9 0.166169 0.418644 0.487316
O O10 0.500000 0.000000 0.500000
O O11 0.299300 0.128902 0.659069
O O12 0.397050 0.832021 0.744268
O O13 0.674838 0.725358 0.744532
O O14 0.500000 0.000000 0.000000
O O15 0.738735 0.191607 0.148441
#
# Coordination Sequence:
#
# PCOD9085918 Si02
#       7
#     2   2   2   2   2   2   2
#     4  11  25  42  66  93 133 175 214 259 323 387
#     4  11  22  40  64  94 132 171 206 268 329 378
#     4  10  19  35  64  94 117 163 213 262 311 376
#     4  11  18  37  65  94 121 156 217 271 309 369
#     4  12  23  42  67  97 128 168 222 264 314 386
#     4  11  24  42  68  97 127 172 220 265 314 382
#     4  10  21  38  65  93 127 166 210 265 332 375
#
# _framework density 25.970887000000001
#
# number of rings (size 3 to 8) (size 9 to 14) (size 15 to 20)
#    0.000    1.143    5.714    2.571    2.000    0.571 
#    0.000    0.000    3.143    3.429    0.000    0.000 
#    0.000    0.000    0.000    0.000    0.000    0.000 
#
# Total GULP energy -78219.742777 kJ/mol
# GULP energy per Si atom -5587.124484 kJ/mol
# Density = 2.591178 g / cm^3
# Si number density = 25.970887 Si / 1000 Ang^3
#
#
#
# Elastic Constant Matrix: (Units=GPa)
#
#
# Indices 1 2 3 4 5 6 
#
# 1 88.0811 28.7150 35.9509 -17.0614 -20.6463 29.7357
# 2 28.7150 78.4817 35.5180 -16.2207 -22.0418 26.0318
# 3 35.9509 35.5180 145.4818 -33.2380 -21.4024 21.8934
# 4 -17.0614 -16.2207 -33.2380 61.0139 14.9483 -19.8355
# 5 -20.6463 -22.0418 -21.4024 14.9483 42.0472 -3.7131
# 6 29.7357 26.0318 21.8934 -19.8355 -3.7131 39.3348
#
#
#
# Elastic Compliance Matrix: (Units=1/GPa)
#
#
# Indices 1 2 3 4 5 6 
#
# 1 0.017729 0.000324 -0.001877 -0.002000 0.007494 -0.012873
# 2 0.000324 0.019833 -0.002204 -0.002071 0.009082 -0.012331
# 3 -0.001877 -0.002204 0.008855 0.003330 0.001224 -0.000256
# 4 -0.002000 -0.002071 0.003330 0.022747 -0.007418 0.011800
# 5 0.007494 0.009082 0.001224 -0.007418 0.034348 -0.012855
# 6 -0.012873 -0.012331 -0.000256 0.011800 -0.012855 0.048195
#
#
# Mechanical properties :
#
#
# Convention : Reuss Voigt Hill
#
# Bulk Modulus (GPa) = 25.70456 56.93472 41.31964
# Shear Modulus (GPa) = 29.03786 42.60322 35.82054
#
# Velocity S-wave (km/s) = 3.34742 4.05461 3.71786
# Velocity P-wave (km/s) = 4.98590 6.62494 5.86298
#
# Compressibility (1/GPa) = 0.03890360
#
# Stress axis : x y z
#
# Youngs Moduli (GPa) = 56.40523 50.42022 112.93010
#
# Poissons Ratio (x) = -0.01635 0.21202
# Poissons Ratio (y) = -0.01829 0.24885
# Poissons Ratio (z) = 0.10590 0.11111
#
# Static dielectric constant tensor:
#      x y z
#    x 2.089320 -0.082640 -0.048670 
#    y -0.082640 2.094770 0.017420 
#    z -0.048670 0.017420 2.129800 
# 
# From -- ./inp_files/308175.got.cif
#   From: 2010.05.17/outbox.cif.g08.bks.cpg/sg2_155_cif.got.tgz:308175.got - 2010.06.03 11:33:40.
