data_PCOD9085312
_publ_section_title
;
Structure prediction by ZEFSAII (Michael W. Deem and Ramdas Pophale) SiO2 
 PCOD9085312
Probable space group: P -1
;
_chemical_formula_sum "Si O2"
_cell_formula_units_Z 16
_cell_length_a 10.705191
_cell_length_b 5.323495
_cell_length_c 26.943178
_cell_angle_alpha 115.211523
_cell_angle_beta 150.669427
_cell_angle_gamma 53.449292
_cell_volume 587.017606
_symmetry_space_group_name_H-M "P -1"
_symmetry_group_IT_number 2
_symmetry_cell_setting 'triclinic'
loop_
_space_group_symop_operation_xyz
x,y,z
-x,-y,-z
loop_
_atom_site_type_symbol
_atom_site_label
_atom_site_fract_x
_atom_site_fract_y
_atom_site_fract_z
Si Si1 0.478605 0.969405 0.908711
Si Si2 0.324901 0.293797 0.319359
Si Si3 0.223965 0.685337 0.079181
Si Si4 0.507481 0.169237 0.568946
Si Si5 0.635621 0.471737 0.780547
Si Si6 0.152441 0.888382 0.880771
Si Si7 0.146346 0.304778 0.605529
Si Si8 0.690011 0.832983 0.241241
O O1 0.761212 0.639283 0.958994
O O2 0.343930 0.862517 0.897093
O O3 0.281851 0.112004 0.802539
O O4 0.626408 0.159959 0.000936
O O5 0.334129 0.617344 0.360754
O O6 0.031949 0.299013 0.196203
O O7 0.356390 0.115882 0.367786
O O8 0.623436 0.045221 0.368952
O O9 0.218424 0.753104 0.140413
O O10 0.558985 0.600114 0.176239
O O11 0.000000 0.000000 0.000000
O O12 0.186361 0.437309 0.502233
O O13 0.500000 0.000000 0.500000
O O14 0.325044 0.488836 0.671071
O O15 0.570587 0.819396 0.800711
O O16 0.882016 0.262622 0.809543
O O17 0.104015 0.265534 0.647128
#
# Coordination Sequence:
#
# PCOD9085312 Si02
#       8
#     2   2   2   2   2   2   2   2
#     4  10  22  43  66 101 153 201 253 304 375 449
#     4  11  27  51  81 114 156 199 262 316 387 467
#     4  10  19  35  59  95 134 186 250 301 359 434
#     4  12  28  53  80 119 154 199 250 326 399 470
#     4   9  20  38  64  98 141 187 247 304 364 446
#     4  10  22  45  68 104 148 204 249 315 379 445
#     4  10  24  44  79 113 148 199 254 316 385 460
#     4  10  21  39  68 105 141 196 248 308 367 447
#
# _framework density 27.256421
#
# number of rings (size 3 to 8) (size 9 to 14) (size 15 to 20)
#    0.000    1.750    0.000    2.625    5.250    5.000 
#   11.250    3.125    0.000    0.000    0.000    0.000 
#    0.000    0.000    0.000    0.000    0.000    0.000 
#
# Total GULP energy -89340.525015 kJ/mol
# GULP energy per Si atom -5583.782813 kJ/mol
# Density = 2.719438 g / cm^3
# Si number density = 27.256421 Si / 1000 Ang^3
#
#
#
# Elastic Constant Matrix: (Units=GPa)
#
#
# Indices 1 2 3 4 5 6 
#
# 1 128.7770 38.8995 56.9132 17.3472 -15.2915 -3.1164
# 2 38.8995 132.4816 50.7447 50.7913 -1.6345 -9.0745
# 3 56.9132 50.7447 115.9418 17.4247 0.2521 7.1598
# 4 17.3472 50.7913 17.4247 44.6339 -0.8799 0.1661
# 5 -15.2915 -1.6345 0.2521 -0.8799 58.4767 -13.3054
# 6 -3.1164 -9.0745 7.1598 0.1661 -13.3054 46.3353
#
#
#
# Elastic Compliance Matrix: (Units=1/GPa)
#
#
# Indices 1 2 3 4 5 6 
#
# 1 0.010791 -0.000360 -0.005030 -0.001764 0.003353 0.002402
# 2 -0.000360 0.015923 -0.004623 -0.016169 0.001078 0.004176
# 3 -0.005030 -0.004623 0.013053 0.002088 -0.002368 -0.003948
# 4 -0.001764 -0.016169 0.002088 0.040666 -0.001246 -0.004111
# 5 0.003353 0.001078 -0.002368 -0.001246 0.019454 0.006393
# 6 0.002402 0.004176 -0.003948 -0.004111 0.006393 0.025022
#
#
# Mechanical properties :
#
#
# Convention : Reuss Voigt Hill
#
# Bulk Modulus (GPa) = 50.65465 74.47945 62.56705
# Shear Modulus (GPa) = 33.00041 45.26539 39.13290
#
# Velocity S-wave (km/s) = 3.48334 4.07962 3.79322
# Velocity P-wave (km/s) = 5.89941 7.04101 6.49534
#
# Compressibility (1/GPa) = 0.01974152
#
# Stress axis : x y z
#
# Youngs Moduli (GPa) = 92.66963 62.80305 76.61309
#
# Poissons Ratio (x) = 0.02259 0.38538
# Poissons Ratio (y) = 0.03333 0.35415
# Poissons Ratio (z) = 0.46615 0.29031
#
# Static dielectric constant tensor:
#      x y z
#    x 2.269610 -0.094520 -0.052870 
#    y -0.094520 2.145240 0.006020 
#    z -0.052870 0.006020 2.207620 
# 
# From -- ./inp_files/622845.got.cif
#   From: 2010.05.17/outbox.cif.g08.bks.cpg/sg2_312_cif.got.tgz:622845.got - 2010.06.03 11:33:40.
