data_PCOD9085002
_publ_section_title
;
Structure prediction by ZEFSAII (Michael W. Deem and Ramdas Pophale) SiO2 
 PCOD9085002
Probable space group: P -1
;
_chemical_formula_sum "Si O2"
_cell_formula_units_Z 16
_cell_length_a 11.521308
_cell_length_b 7.119648
_cell_length_c 11.708215
_cell_angle_alpha 59.120915
_cell_angle_beta 53.767593
_cell_angle_gamma 64.508287
_cell_volume 653.583332
_symmetry_space_group_name_H-M "P -1"
_symmetry_group_IT_number 2
_symmetry_cell_setting 'triclinic'
loop_
_space_group_symop_operation_xyz
x,y,z
-x,-y,-z
loop_
_atom_site_type_symbol
_atom_site_label
_atom_site_fract_x
_atom_site_fract_y
_atom_site_fract_z
Si Si1 0.436015 0.744031 0.803286
Si Si2 0.313981 0.495028 0.142777
Si Si3 0.002806 0.653401 0.339567
Si Si4 0.851232 0.982406 0.162973
Si Si5 0.874984 0.404309 0.169866
Si Si6 0.625810 0.114402 0.839879
Si Si7 0.947176 0.926734 0.674895
Si Si8 0.453792 0.459170 0.667062
O O1 0.589830 0.722640 0.787252
O O2 0.307694 0.958400 0.823765
O O3 0.468837 0.665528 0.679032
O O4 0.370024 0.550134 0.969032
O O5 0.141536 0.522036 0.232393
O O6 0.338614 0.700594 0.147678
O O7 0.031034 0.882803 0.306836
O O8 0.000000 0.500000 0.500000
O O9 0.876307 0.753629 0.291879
O O10 0.840063 0.195369 0.184572
O O11 0.000000 0.000000 0.000000
O O12 0.717557 0.560495 0.223317
O O13 0.948066 0.296969 0.276496
O O14 0.000000 0.500000 0.000000
O O15 0.773376 0.939987 0.781043
O O16 0.561549 0.251354 0.723447
O O17 0.500000 0.000000 0.000000
O O18 0.000000 0.000000 0.500000
O O19 0.500000 0.500000 0.500000
#
# Coordination Sequence:
#
# PCOD9085002 Si02
#       8
#     2   2   2   2   2   2   2   2
#     4   9  18  35  60  80 111 150 193 231 294 337
#     4   9  18  36  60  81 116 151 193 240 287 348
#     4  10  21  37  57  83 117 156 189 234 296 348
#     4  10  19  35  58  83 115 149 191 241 286 341
#     4  10  21  36  58  87 113 146 194 237 287 344
#     4  10  20  36  60  85 110 152 196 235 289 348
#     4  10  21  38  56  83 119 150 187 241 289 342
#     4  10  20  36  59  81 115 153 187 234 295 345
#
# _framework density 24.480430999999999
#
# number of rings (size 3 to 8) (size 9 to 14) (size 15 to 20)
#    0.000    2.250    1.250    1.500    0.000    1.000 
#    6.750    0.625    0.000    0.000    0.000    0.000 
#    0.000    0.000    0.000    0.000    0.000    0.000 
#
# Total GULP energy -89421.067106 kJ/mol
# GULP energy per Si atom -5588.816694 kJ/mol
# Density = 2.442471 g / cm^3
# Si number density = 24.480431 Si / 1000 Ang^3
#
#
#
# Elastic Constant Matrix: (Units=GPa)
#
#
# Indices 1 2 3 4 5 6 
#
# 1 97.4332 40.4226 5.0175 -4.7364 16.6507 -18.5514
# 2 40.4226 118.5620 -1.3957 1.9186 9.3913 -18.5723
# 3 5.0175 -1.3957 72.0130 5.5871 33.5716 1.1792
# 4 -4.7364 1.9186 5.5871 42.4448 -7.1180 5.2922
# 5 16.6507 9.3913 33.5716 -7.1180 38.5469 -6.8092
# 6 -18.5514 -18.5723 1.1792 5.2922 -6.8092 43.0217
#
#
#
# Elastic Compliance Matrix: (Units=1/GPa)
#
#
# Indices 1 2 3 4 5 6 
#
# 1 0.013235 -0.003542 0.001583 0.000079 -0.005648 0.003231
# 2 -0.003542 0.010291 0.001550 -0.001771 -0.002169 0.002747
# 3 0.001583 0.001550 0.026552 -0.007429 -0.026014 -0.002580
# 4 0.000079 -0.001771 -0.007429 0.026799 0.011462 -0.002009
# 5 -0.005648 -0.002169 -0.026014 0.011462 0.054488 0.004556
# 6 0.003231 0.002747 -0.002580 -0.002009 0.004556 0.026863
#
#
# Mechanical properties :
#
#
# Convention : Reuss Voigt Hill
#
# Bulk Modulus (GPa) = 20.30018 41.78856 31.04437
# Shear Modulus (GPa) = 28.49545 41.06693 34.78119
#
# Velocity S-wave (km/s) = 3.41546 4.10022 3.77341
# Velocity P-wave (km/s) = 4.88510 6.28673 5.62971
#
# Compressibility (1/GPa) = 0.04926064
#
# Stress axis : x y z
#
# Youngs Moduli (GPa) = 75.55441 97.17293 37.66171
#
# Poissons Ratio (x) = 0.34415 -0.05962
# Poissons Ratio (y) = 0.26758 -0.05836
# Poissons Ratio (z) = -0.11961 -0.15057
#
# Static dielectric constant tensor:
#      x y z
#    x 2.010850 -0.021380 0.029740 
#    y -0.021380 1.986720 -0.016910 
#    z 0.029740 -0.016910 1.951680 
# 
# From -- ./inp_files/418819.got.cif
#   From: 2010.05.17/outbox.cif.g08.bks.cpg/sg2_210_cif.got.tgz:418819.got - 2010.06.03 11:33:40.
