data_PCOD9085101
_publ_section_title
;
Structure prediction by ZEFSAII (Michael W. Deem and Ramdas Pophale) SiO2 
 PCOD9085101
Probable space group: P -1
;
_chemical_formula_sum "Si O2"
_cell_formula_units_Z 14
_cell_length_a 11.706861
_cell_length_b 10.371856
_cell_length_c 8.323266
_cell_angle_alpha 93.485770
_cell_angle_beta 123.349376
_cell_angle_gamma 128.420949
_cell_volume 521.588027
_symmetry_space_group_name_H-M "P -1"
_symmetry_group_IT_number 2
_symmetry_cell_setting 'triclinic'
loop_
_space_group_symop_operation_xyz
x,y,z
-x,-y,-z
loop_
_atom_site_type_symbol
_atom_site_label
_atom_site_fract_x
_atom_site_fract_y
_atom_site_fract_z
Si Si1 0.627104 0.841636 0.125382
Si Si2 0.530446 0.469381 0.233848
Si Si3 0.274097 0.738990 0.734615
Si Si4 0.206840 0.434974 0.111695
Si Si5 0.968224 0.851563 0.740322
Si Si6 0.556202 0.230227 0.454503
Si Si7 0.159046 0.946816 0.353091
O O1 0.728778 0.954364 0.380700
O O2 0.609610 0.681027 0.039017
O O3 0.373656 0.691035 0.900251
O O4 0.799763 0.023544 0.140391
O O5 0.424068 0.517883 0.232523
O O6 0.791229 0.684571 0.453606
O O7 0.509854 0.334048 0.336066
O O8 0.344744 0.786398 0.606685
O O9 0.000000 0.500000 0.500000
O O10 0.500000 0.000000 0.000000
O O11 0.098543 0.271510 0.160382
O O12 0.271072 0.615417 0.257050
O O13 0.036227 0.300197 0.826253
O O14 0.943456 0.986587 0.757022
O O15 0.334261 0.033860 0.361206
#
# Coordination Sequence:
#
# PCOD9085101 Si02
#       7
#     2   2   2   2   2   2   2
#     4  11  26  39  61  96 134 177 214 278 339 394
#     4  10  19  35  58  90 133 181 224 251 319 400
#     4  11  28  53  77  97 122 173 244 296 341 393
#     4  11  19  34  61  95 135 180 219 252 320 407
#     4  11  20  35  60  93 141 180 214 254 315 422
#     4  10  22  40  66  92 126 174 220 280 327 393
#     4  12  22  36  59 101 142 172 211 257 343 412
#
# _framework density 26.841107999999998
#
# number of rings (size 3 to 8) (size 9 to 14) (size 15 to 20)
#    0.000    1.143    4.286    3.429    8.000    1.714 
#    0.000    1.429    0.000    0.000    0.000    0.000 
#    0.000    0.000    0.000    0.000    0.000    0.000 
#
# Total GULP energy -78037.950479 kJ/mol
# GULP energy per Si atom -5574.139320 kJ/mol
# Density = 2.678002 g / cm^3
# Si number density = 26.841108 Si / 1000 Ang^3
#
#
#
# Elastic Constant Matrix: (Units=GPa)
#
#
# Indices 1 2 3 4 5 6 
#
# 1 98.3853 34.7521 66.1674 20.3826 -8.8107 38.9950
# 2 34.7521 69.3684 36.1531 26.4266 12.8806 20.7432
# 3 66.1674 36.1531 211.3613 31.6556 -22.5229 23.7878
# 4 20.3826 26.4266 31.6556 40.0389 0.8756 8.1508
# 5 -8.8107 12.8806 -22.5229 0.8756 60.3726 7.2498
# 6 38.9950 20.7432 23.7878 8.1508 7.2498 28.8337
#
#
#
# Elastic Compliance Matrix: (Units=1/GPa)
#
#
# Indices 1 2 3 4 5 6 
#
# 1 0.028489 -0.002121 -0.003239 -0.003531 0.007688 -0.035266
# 2 -0.002121 0.024244 -0.001154 -0.012068 -0.004652 -0.009040
# 3 -0.003239 -0.001154 0.006617 -0.002869 0.002285 -0.000013
# 4 -0.003531 -0.012068 -0.002869 0.035841 -0.000221 0.005748
# 5 0.007688 -0.004652 0.002285 -0.000221 0.021241 -0.014215
# 6 -0.035266 -0.009040 -0.000013 0.005748 -0.014215 0.090839
#
#
# Mechanical properties :
#
#
# Convention : Reuss Voigt Hill
#
# Bulk Modulus (GPa) = 21.58760 72.58446 47.08603
# Shear Modulus (GPa) = 21.20982 41.98522 31.59752
#
# Velocity S-wave (km/s) = 2.81410 3.95930 3.43477
# Velocity P-wave (km/s) = 4.31498 6.92838 5.77155
#
# Compressibility (1/GPa) = 0.04632289
#
# Stress axis : x y z
#
# Youngs Moduli (GPa) = 35.10079 41.24727 151.12446
#
# Poissons Ratio (x) = 0.08750 0.48944
# Poissons Ratio (y) = 0.07446 0.17437
# Poissons Ratio (z) = 0.11368 0.04759
#
# Static dielectric constant tensor:
#      x y z
#    x 2.390860 -0.075060 0.054360 
#    y -0.075060 2.381180 0.069000 
#    z 0.054360 0.069000 2.343980 
# 
# From -- ./inp_files/273823.got.cif
#   From: 2010.05.17/outbox.cif.g08.bks.cpg/sg2_137_cif.got.tgz:273823.got - 2010.06.03 11:33:40.
