data_PCOD9085265
_publ_section_title
;
Structure prediction by ZEFSAII (Michael W. Deem and Ramdas Pophale) SiO2 
 PCOD9085265
Probable space group: P -1
;
_chemical_formula_sum "Si O2"
_cell_formula_units_Z 16
_cell_length_a 13.052068
_cell_length_b 18.478458
_cell_length_c 11.440635
_cell_angle_alpha 131.119808
_cell_angle_beta 67.087783
_cell_angle_gamma 152.549777
_cell_volume 794.246136
_symmetry_space_group_name_H-M "P -1"
_symmetry_group_IT_number 2
_symmetry_cell_setting 'triclinic'
loop_
_space_group_symop_operation_xyz
x,y,z
-x,-y,-z
loop_
_atom_site_type_symbol
_atom_site_label
_atom_site_fract_x
_atom_site_fract_y
_atom_site_fract_z
Si Si1 0.685366 0.554593 0.958096
Si Si2 0.782198 0.485082 0.052097
Si Si3 0.698035 0.246878 0.691247
Si Si4 0.355827 0.953757 0.202153
Si Si5 0.863274 0.219420 0.306478
Si Si6 0.736724 0.005825 0.922256
Si Si7 0.625241 0.330060 0.592582
Si Si8 0.171902 0.486715 0.680049
O O1 0.583471 0.403486 0.739493
O O2 0.500000 0.500000 0.000000
O O3 0.695150 0.496976 0.009591
O O4 0.990131 0.821496 0.069372
O O5 0.762922 0.507222 0.216425
O O6 0.650234 0.278276 0.857927
O O7 0.095826 0.712955 0.127761
O O8 0.661894 0.291185 0.647092
O O9 0.000932 0.445721 0.753097
O O10 0.500000 0.000000 0.500000
O O11 0.614744 0.097275 0.276240
O O12 0.395543 0.095894 0.374588
O O13 0.300784 0.922649 0.055842
O O14 0.111372 0.462264 0.384070
O O15 0.975465 0.286739 0.457695
O O16 0.788368 0.069097 0.102396
O O17 0.453883 0.730115 0.752089
#
# Coordination Sequence:
#
# PCOD9085265 Si02
#       8
#     2   2   2   2   2   2   2   2
#     4   9  21  45  68  84 111 155 209 266 309 339
#     4  10  24  37  57  89 123 158 208 244 293 356
#     4  11  22  35  54  85 128 170 195 227 290 363
#     4  11  18  37  56  86 124 163 204 237 282 358
#     4  11  21  33  57  87 129 167 191 232 297 359
#     4  10  22  36  59  86 119 156 205 251 292 354
#     4  10  19  35  59  90 114 158 205 240 290 357
#     4  12  22  34  56  89 129 159 193 234 297 366
#
# _framework density 20.144888999999999
#
# number of rings (size 3 to 8) (size 9 to 14) (size 15 to 20)
#    0.000    1.500    2.500    4.125    1.750    0.000 
#    0.000    3.125    0.000    3.000    0.000    0.000 
#    0.000    0.000    0.000    0.000    0.000    0.000 
#
# Total GULP energy -89275.893469 kJ/mol
# GULP energy per Si atom -5579.743342 kJ/mol
# Density = 2.009904 g / cm^3
# Si number density = 20.144889 Si / 1000 Ang^3
#
#
#
# Elastic Constant Matrix: (Units=GPa)
#
#
# Indices 1 2 3 4 5 6 
#
# 1 81.3591 50.0244 41.2081 -7.4297 -2.5207 19.9728
# 2 50.0244 93.7216 39.5429 -3.2664 2.9668 8.6988
# 3 41.2081 39.5429 110.0676 0.8618 14.9459 5.4024
# 4 -7.4297 -3.2664 0.8618 36.2029 -13.0376 9.4638
# 5 -2.5207 2.9668 14.9459 -13.0376 22.9814 -6.2881
# 6 19.9728 8.6988 5.4024 9.4638 -6.2881 32.6199
#
#
#
# Elastic Compliance Matrix: (Units=1/GPa)
#
#
# Indices 1 2 3 4 5 6 
#
# 1 0.027605 -0.010011 -0.007935 0.013434 0.013197 -0.014272
# 2 -0.010011 0.016669 -0.001991 -0.001947 -0.002485 0.002100
# 3 -0.007935 -0.001991 0.014583 -0.007806 -0.013821 0.002575
# 4 0.013434 -0.001947 -0.007806 0.044095 0.028041 -0.013802
# 5 0.013197 -0.002485 -0.013821 0.028041 0.070255 0.000279
# 6 -0.014272 0.002100 0.002575 -0.013802 0.000279 0.042466
#
#
# Mechanical properties :
#
#
# Convention : Reuss Voigt Hill
#
# Bulk Modulus (GPa) = 52.67933 60.74434 56.71184
# Shear Modulus (GPa) = 19.09301 28.65236 23.87269
#
# Velocity S-wave (km/s) = 3.08195 3.77545 3.44619
# Velocity P-wave (km/s) = 6.23471 7.01602 6.63687
#
# Compressibility (1/GPa) = 0.01898278
#
# Stress axis : x y z
#
# Youngs Moduli (GPa) = 36.22499 59.99025 68.57365
#
# Poissons Ratio (x) = 0.60058 0.54414
# Poissons Ratio (y) = 0.36266 0.13652
# Poissons Ratio (z) = 0.28745 0.11943
#
# Static dielectric constant tensor:
#      x y z
#    x 1.686830 -0.061710 0.046420 
#    y -0.061710 1.776260 -0.048060 
#    z 0.046420 -0.048060 1.844770 
# 
# From -- ./inp_files/436873.got.cif
#   From: 2010.05.17/outbox.cif.g08.bks.cpg/sg2_219_cif.got.tgz:436873.got - 2010.06.03 11:33:40.
