data_PCOD9085636
_publ_section_title
;
Structure prediction by ZEFSAII (Michael W. Deem and Ramdas Pophale) SiO2 
 PCOD9085636
Probable space group: P -1
;
_chemical_formula_sum "Si O2"
_cell_formula_units_Z 16
_cell_length_a 8.671106
_cell_length_b 14.859656
_cell_length_c 9.100179
_cell_angle_alpha 39.660874
_cell_angle_beta 78.386289
_cell_angle_gamma 63.589327
_cell_volume 649.521552
_symmetry_space_group_name_H-M "P -1"
_symmetry_group_IT_number 2
_symmetry_cell_setting 'triclinic'
loop_
_space_group_symop_operation_xyz
x,y,z
-x,-y,-z
loop_
_atom_site_type_symbol
_atom_site_label
_atom_site_fract_x
_atom_site_fract_y
_atom_site_fract_z
Si Si1 0.691727 0.914859 0.158037
Si Si2 0.140480 0.361322 0.007862
Si Si3 0.415811 0.757458 0.668268
Si Si4 0.164792 0.879837 0.285180
Si Si5 0.336206 0.646371 0.278766
Si Si6 0.524165 0.131806 0.184391
Si Si7 0.748989 0.444347 0.883323
Si Si8 0.050340 0.291645 0.427878
O O1 0.835010 0.736856 0.408071
O O2 0.623454 0.981231 0.251784
O O3 0.500000 0.000000 0.000000
O O4 0.821629 0.973105 0.978758
O O5 0.313789 0.221021 0.082131
O O6 0.144726 0.314706 0.236018
O O7 0.128214 0.534987 0.761653
O O8 0.950922 0.387264 0.958306
O O9 0.297608 0.840877 0.445068
O O10 0.438587 0.869734 0.646335
O O11 0.600886 0.617725 0.747228
O O12 0.315497 0.670855 0.877751
O O13 0.226415 0.754224 0.298002
O O14 0.997875 0.854667 0.402223
O O15 0.500000 0.500000 0.500000
O O16 0.250977 0.579075 0.261392
O O17 0.406310 0.749877 0.043694
#
# Coordination Sequence:
#
# PCOD9085636 Si02
#       8
#     2   2   2   2   2   2   2   2
#     4  11  28  48  68  95 137 182 220 268 343 407
#     4  11  23  40  70 105 136 163 228 288 323 378
#     4  10  19  37  66  97 129 175 225 264 330 395
#     4  11  22  42  69  93 134 178 222 271 333 398
#     4  10  19  35  61  96 135 173 216 267 331 401
#     4  10  24  42  65  98 133 176 220 275 332 396
#     4  10  20  34  63 101 136 171 216 275 331 388
#     4  11  24  44  68 102 134 177 221 278 334 388
#
# _framework density 24.633514999999999
#
# number of rings (size 3 to 8) (size 9 to 14) (size 15 to 20)
#    0.000    1.500    2.500    2.625    5.250    1.500 
#    0.000    3.750    0.000    0.000    0.000    0.000 
#    0.000    0.000    0.000    0.000    0.000    0.000 
#
# Total GULP energy -89322.314741 kJ/mol
# GULP energy per Si atom -5582.644671 kJ/mol
# Density = 2.457745 g / cm^3
# Si number density = 24.633515 Si / 1000 Ang^3
#
#
#
# Elastic Constant Matrix: (Units=GPa)
#
#
# Indices 1 2 3 4 5 6 
#
# 1 110.7378 16.7153 33.3603 11.5983 15.8270 9.6668
# 2 16.7153 86.8494 20.9354 23.8080 23.7855 5.1096
# 3 33.3603 20.9354 161.9900 21.4493 15.2581 12.8743
# 4 11.5983 23.8080 21.4493 32.9263 7.6444 10.4399
# 5 15.8270 23.7855 15.2581 7.6444 50.3489 6.9365
# 6 9.6668 5.1096 12.8743 10.4399 6.9365 31.7689
#
#
#
# Elastic Compliance Matrix: (Units=1/GPa)
#
#
# Indices 1 2 3 4 5 6 
#
# 1 0.010134 -0.000610 -0.001540 -0.001165 -0.002043 -0.001533
# 2 -0.000610 0.016133 -0.000165 -0.010724 -0.006098 0.002513
# 3 -0.001540 -0.000165 0.007139 -0.003435 -0.000933 -0.001066
# 4 -0.001165 -0.010724 -0.003435 0.044043 0.001343 -0.011295
# 5 -0.002043 -0.006098 -0.000933 0.001343 0.023972 -0.003695
# 6 -0.001533 0.002513 -0.001066 -0.011295 -0.003695 0.036490
#
#
# Mechanical properties :
#
#
# Convention : Reuss Voigt Hill
#
# Bulk Modulus (GPa) = 34.74981 55.73324 45.24153
# Shear Modulus (GPa) = 32.86598 42.24658 37.55628
#
# Velocity S-wave (km/s) = 3.65663 4.14575 3.90885
# Velocity P-wave (km/s) = 5.65378 6.75207 6.22719
#
# Compressibility (1/GPa) = 0.02877713
#
# Stress axis : x y z
#
# Youngs Moduli (GPa) = 98.67719 61.98334 140.07643
#
# Poissons Ratio (x) = 0.03783 0.21567
# Poissons Ratio (y) = 0.06022 0.02307
# Poissons Ratio (z) = 0.15193 0.01021
#
# Static dielectric constant tensor:
#      x y z
#    x 1.994420 0.009580 -0.042770 
#    y 0.009580 2.223940 0.130460 
#    z -0.042770 0.130460 2.096630 
# 
# From -- ./inp_files/199573.got.cif
#   From: 2010.05.17/outbox.cif.g08.bks.cpg/sg2_100_cif.got.tgz:199573.got - 2010.06.03 11:33:40.
