data_PCOD9085372
_publ_section_title
;
Structure prediction by ZEFSAII (Michael W. Deem and Ramdas Pophale) SiO2 
 PCOD9085372
Probable space group: P -1
;
_chemical_formula_sum "Si O2"
_cell_formula_units_Z 16
_cell_length_a 23.306237
_cell_length_b 22.667678
_cell_length_c 10.067101
_cell_angle_alpha 35.636892
_cell_angle_beta 143.870631
_cell_angle_gamma 167.376094
_cell_volume 672.764653
_symmetry_space_group_name_H-M "P -1"
_symmetry_group_IT_number 2
_symmetry_cell_setting 'triclinic'
loop_
_space_group_symop_operation_xyz
x,y,z
-x,-y,-z
loop_
_atom_site_type_symbol
_atom_site_label
_atom_site_fract_x
_atom_site_fract_y
_atom_site_fract_z
Si Si1 0.009254 0.296013 0.383079
Si Si2 0.165874 0.505049 0.998611
Si Si3 0.635532 0.040300 0.756576
Si Si4 0.264368 0.384921 0.346265
Si Si5 0.668894 0.945761 0.734528
Si Si6 0.495331 0.890455 0.270051
Si Si7 0.179235 0.333703 0.856184
Si Si8 0.785735 0.811377 0.636738
O O1 0.088524 0.389364 0.209582
O O2 0.193916 0.559972 0.315838
O O3 0.105389 0.286794 0.651329
O O4 0.700648 0.016116 0.344620
O O5 0.177057 0.413617 0.101470
O O6 0.448519 0.829308 0.915650
O O7 0.930238 0.347354 0.794893
O O8 0.648963 0.961454 0.819794
O O9 0.500000 0.000000 0.500000
O O10 0.543445 0.653524 0.452980
O O11 0.273501 0.331791 0.323849
O O12 0.053392 0.124280 0.521606
O O13 0.610222 0.987532 0.455536
O O14 0.449209 0.651109 0.820748
O O15 0.946215 0.164121 0.813372
O O16 0.500000 0.000000 0.000000
O O17 0.196468 0.233488 0.112364
#
# Coordination Sequence:
#
# PCOD9085372 Si02
#       8
#     2   2   2   2   2   2   2   2
#     4  10  23  39  60  87 115 165 195 239 305 351
#     4  12  25  43  61  84 133 156 195 244 305 367
#     4  12  26  41  60  89 117 164 197 244 301 358
#     4  10  21  35  58  91 113 160 188 242 304 342
#     4  10  21  36  60  85 118 149 205 243 300 348
#     4  10  21  38  61  85 110 152 206 255 285 336
#     4  10  20  39  61  89 117 157 197 253 293 341
#     4  10  19  35  60  86 120 144 207 244 281 355
#
# _framework density 23.782461999999999
#
# number of rings (size 3 to 8) (size 9 to 14) (size 15 to 20)
#    0.000    1.500    0.000    5.250    3.500    2.000 
#    0.000    1.250    0.000    0.000    0.000    0.000 
#    0.000    0.000    0.000    0.000    0.000    0.000 
#
# Total GULP energy -89511.565550 kJ/mol
# GULP energy per Si atom -5594.472847 kJ/mol
# Density = 2.372833 g / cm^3
# Si number density = 23.782462 Si / 1000 Ang^3
#
#
#
# Elastic Constant Matrix: (Units=GPa)
#
#
# Indices 1 2 3 4 5 6 
#
# 1 40.8329 15.7732 -7.1705 4.3193 -16.1307 10.7758
# 2 15.7732 74.9227 16.5765 15.7107 -13.8362 24.1640
# 3 -7.1705 16.5765 116.3522 13.5055 -18.0044 5.8995
# 4 4.3193 15.7107 13.5055 34.5381 2.0356 -4.4868
# 5 -16.1307 -13.8362 -18.0044 2.0356 33.9534 -5.9985
# 6 10.7758 24.1640 5.8995 -4.4868 -5.9985 20.5015
#
#
#
# Elastic Compliance Matrix: (Units=1/GPa)
#
#
# Indices 1 2 3 4 5 6 
#
# 1 0.042064 0.006294 0.008654 -0.016621 0.023025 -0.028919
# 2 0.006294 0.032619 0.002364 -0.022946 0.011101 -0.044208
# 3 0.008654 0.002364 0.011860 -0.008650 0.010175 -0.009663
# 4 -0.016621 -0.022946 -0.008650 0.051650 -0.017054 0.044585
# 5 0.023025 0.011101 0.010175 -0.017054 0.048198 -0.017745
# 6 -0.028919 -0.044208 -0.009663 0.044585 -0.017745 0.123429
#
#
# Mechanical properties :
#
#
# Convention : Reuss Voigt Hill
#
# Bulk Modulus (GPa) = 8.25310 31.38515 19.81912
# Shear Modulus (GPa) = 15.84361 31.59384 23.71872
#
# Velocity S-wave (km/s) = 2.58386 3.64875 3.16146
# Velocity P-wave (km/s) = 3.51846 5.56566 4.65597
#
# Compressibility (1/GPa) = 0.12116659
#
# Stress axis : x y z
#
# Youngs Moduli (GPa) = 23.77317 30.65702 84.31945
#
# Poissons Ratio (x) = -0.19296 -0.72972
# Poissons Ratio (y) = -0.14963 -0.19930
# Poissons Ratio (z) = -0.20574 -0.07246
#
# Static dielectric constant tensor:
#      x y z
#    x 1.944410 -0.010360 -0.011670 
#    y -0.010360 1.854560 0.006670 
#    z -0.011670 0.006670 1.910560 
# 
# From -- ./inp_files/371556.got.cif
#   From: 2010.05.17/outbox.cif.g08.bks.cpg/sg2_186_cif.got.tgz:371556.got - 2010.06.03 11:33:40.
