data_PCOD9085628
_publ_section_title
;
Structure prediction by ZEFSAII (Michael W. Deem and Ramdas Pophale) SiO2 
 PCOD9085628
Probable space group: P -1
;
_chemical_formula_sum "Si O2"
_cell_formula_units_Z 16
_cell_length_a 11.394487
_cell_length_b 15.309200
_cell_length_c 8.661374
_cell_angle_alpha 68.944523
_cell_angle_beta 73.879536
_cell_angle_gamma 27.649638
_cell_volume 651.457640
_symmetry_space_group_name_H-M "P -1"
_symmetry_group_IT_number 2
_symmetry_cell_setting 'triclinic'
loop_
_space_group_symop_operation_xyz
x,y,z
-x,-y,-z
loop_
_atom_site_type_symbol
_atom_site_label
_atom_site_fract_x
_atom_site_fract_y
_atom_site_fract_z
Si Si1 0.686899 0.192910 0.316846
Si Si2 0.697106 0.028460 0.652892
Si Si3 0.852157 0.205093 0.780564
Si Si4 0.902429 0.341582 0.475851
Si Si5 0.847894 0.687892 0.362536
Si Si6 0.793285 0.303901 0.071860
Si Si7 0.477156 0.283390 0.827966
Si Si8 0.802712 0.505131 0.909721
O O1 0.684060 0.140624 0.509952
O O2 0.414846 0.364407 0.224552
O O3 0.788655 0.230631 0.254974
O O4 0.891690 0.002162 0.259274
O O5 0.447105 0.136931 0.634376
O O6 0.653848 0.085067 0.811953
O O7 0.924698 0.822886 0.613789
O O8 0.920621 0.186119 0.941745
O O9 0.649870 0.257237 0.824495
O O10 0.759253 0.356038 0.616426
O O11 0.076432 0.273828 0.586042
O O12 0.725880 0.537685 0.334273
O O13 0.000000 0.500000 0.500000
O O14 0.953430 0.623997 0.189872
O O15 0.863305 0.362025 0.046101
O O16 0.500000 0.500000 0.000000
O O17 0.324082 0.354421 0.991703
#
# Coordination Sequence:
#
# PCOD9085628 Si02
#       8
#     2   2   2   2   2   2   2   2
#     4  10  21  39  64  95 128 168 227 260 313 392
#     4  11  26  45  68  99 129 176 222 269 324 391
#     4  11  22  38  66  96 134 174 211 270 322 393
#     4  11  25  45  67  99 130 176 223 264 328 390
#     4  12  22  47  77  87 126 174 233 276 308 385
#     4  10  19  35  61  94 128 162 221 261 318 382
#     4  12  25  41  63 100 144 169 203 271 343 390
#     4  11  23  40  67 100 124 178 216 273 326 380
#
# _framework density 24.560307000000002
#
# number of rings (size 3 to 8) (size 9 to 14) (size 15 to 20)
#    0.000    1.000    6.250    1.125    1.750    4.500 
#    0.000    0.625    0.000    0.000    0.000    0.000 
#    0.000    0.000    0.000    0.000    0.000    0.000 
#
# Total GULP energy -89576.763178 kJ/mol
# GULP energy per Si atom -5598.547699 kJ/mol
# Density = 2.450441 g / cm^3
# Si number density = 24.560307 Si / 1000 Ang^3
#
#
#
# Elastic Constant Matrix: (Units=GPa)
#
#
# Indices 1 2 3 4 5 6 
#
# 1 57.0496 12.4417 30.7620 8.1933 10.9373 6.8037
# 2 12.4417 90.1122 47.1868 34.7733 3.5058 9.6461
# 3 30.7620 47.1868 106.8802 24.4509 -0.1889 -6.3686
# 4 8.1933 34.7733 24.4509 47.1261 2.2607 7.4832
# 5 10.9373 3.5058 -0.1889 2.2607 42.1986 4.0630
# 6 6.8037 9.6461 -6.3686 7.4832 4.0630 34.9402
#
#
#
# Elastic Compliance Matrix: (Units=1/GPa)
#
#
# Indices 1 2 3 4 5 6 
#
# 1 0.023095 0.001733 -0.007739 -0.000103 -0.005609 -0.005712
# 2 0.001733 0.018734 -0.006791 -0.009832 -0.001074 -0.004517
# 3 -0.007739 -0.006791 0.015646 -0.002914 0.002160 0.006607
# 4 -0.000103 -0.009832 -0.002914 0.030710 -0.000398 -0.004328
# 5 -0.005609 -0.001074 0.002160 -0.000398 0.025376 -0.001083
# 6 -0.005712 -0.004517 0.006607 -0.004328 -0.001083 0.033237
#
#
# Mechanical properties :
#
#
# Convention : Reuss Voigt Hill
#
# Bulk Modulus (GPa) = 31.36753 48.31370 39.84062
# Shear Modulus (GPa) = 27.31961 35.76306 31.54134
#
# Velocity S-wave (km/s) = 3.33881 3.82007 3.58752
# Velocity P-wave (km/s) = 5.25955 6.25871 5.78076
#
# Compressibility (1/GPa) = 0.03188010
#
# Stress axis : x y z
#
# Youngs Moduli (GPa) = 43.29950 53.38008 63.91368
#
# Poissons Ratio (x) = -0.09251 0.49463
# Poissons Ratio (y) = -0.07504 0.43406
# Poissons Ratio (z) = 0.33510 0.36252
#
# Static dielectric constant tensor:
#      x y z
#    x 1.954510 -0.009040 0.042480 
#    y -0.009040 1.989120 -0.017710 
#    z 0.042480 -0.017710 2.040160 
# 
# From -- ./inp_files/272437.got.cif
#   From: 2010.05.17/outbox.cif.g08.bks.cpg/sg2_137_cif.got.tgz:272437.got - 2010.06.03 11:33:40.
