data_PCOD9085005
_publ_section_title
;
Structure prediction by ZEFSAII (Michael W. Deem and Ramdas Pophale) SiO2 
 PCOD9085005
Probable space group: P -1
;
_chemical_formula_sum "Si O2"
_cell_formula_units_Z 16
_cell_length_a 6.937400
_cell_length_b 14.516003
_cell_length_c 7.517283
_cell_angle_alpha 117.412116
_cell_angle_beta 61.480823
_cell_angle_gamma 110.328642
_cell_volume 582.518516
_symmetry_space_group_name_H-M "P -1"
_symmetry_group_IT_number 2
_symmetry_cell_setting 'triclinic'
loop_
_space_group_symop_operation_xyz
x,y,z
-x,-y,-z
loop_
_atom_site_type_symbol
_atom_site_label
_atom_site_fract_x
_atom_site_fract_y
_atom_site_fract_z
Si Si1 0.545717 0.602961 0.194142
Si Si2 0.571519 0.899210 0.470267
Si Si3 0.906859 0.218692 0.534136
Si Si4 0.570083 0.290039 0.977038
Si Si5 0.192552 0.507127 0.780025
Si Si6 0.024455 0.993667 0.198004
Si Si7 0.121833 0.647434 0.629495
Si Si8 0.613616 0.147937 0.115404
O O1 0.595957 0.689665 0.092166
O O2 0.697440 0.592709 0.290596
O O3 0.317059 0.618144 0.395227
O O4 0.500000 0.500000 0.000000
O O5 0.350241 0.818951 0.445677
O O6 0.823194 0.911711 0.302584
O O7 0.547020 0.887308 0.681157
O O8 0.500000 0.000000 0.500000
O O9 0.826316 0.275729 0.794683
O O10 0.024300 0.303155 0.411825
O O11 0.003839 0.109766 0.389264
O O12 0.610498 0.395245 0.173631
O O13 0.488622 0.186966 0.036423
O O14 0.080531 0.545590 0.685623
O O15 0.000000 0.500000 0.000000
O O16 0.242636 0.940404 0.077443
O O17 0.000000 0.000000 0.000000
O O18 0.215355 0.748815 0.800753
#
# Coordination Sequence:
#
# PCOD9085005 Si02
#       8
#     2   2   2   2   2   2   2   2
#     4   9  18  36  60  76 108 152 181 226 300 352
#     4   9  17  32  56  84 106 153 210 227 277 352
#     4   9  18  35  56  82 117 157 193 240 286 342
#     4   9  20  38  56  81 123 151 187 243 299 342
#     4  10  20  36  61  89 110 144 194 243 289 358
#     4  11  18  33  61  85 117 159 199 237 286 332
#     4   9  17  34  56  83 109 148 193 229 279 349
#     4  10  19  35  58  83 118 157 196 241 277 341
#
# _framework density 27.466939
#
# number of rings (size 3 to 8) (size 9 to 14) (size 15 to 20)
#    0.000    2.500    3.750    0.375    0.000    0.500 
#   13.500    8.125    8.250    0.000    0.000    0.000 
#    0.000    0.000    0.000    0.000    0.000    0.000 
#
# Total GULP energy -89186.498905 kJ/mol
# GULP energy per Si atom -5574.156182 kJ/mol
# Density = 2.740442 g / cm^3
# Si number density = 27.466939 Si / 1000 Ang^3
#
#
#
# Elastic Constant Matrix: (Units=GPa)
#
#
# Indices 1 2 3 4 5 6 
#
# 1 95.2635 57.9473 27.6916 -3.6903 -0.1738 -12.0877
# 2 57.9473 166.4997 49.1769 -36.8803 7.1365 -48.6244
# 3 27.6916 49.1769 105.6494 -21.4785 -5.0946 -9.9682
# 4 -3.6903 -36.8803 -21.4785 66.4607 -5.4399 10.4667
# 5 -0.1738 7.1365 -5.0946 -5.4399 35.1615 -7.7497
# 6 -12.0877 -48.6244 -9.9682 10.4667 -7.7497 43.9730
#
#
#
# Elastic Compliance Matrix: (Units=1/GPa)
#
#
# Indices 1 2 3 4 5 6 
#
# 1 0.014014 -0.005495 -0.001817 -0.002533 0.000085 -0.002017
# 2 -0.005495 0.012892 -0.002641 0.004246 0.000088 0.011151
# 3 -0.001817 -0.002641 0.011720 0.002568 0.002413 -0.000949
# 4 -0.002533 0.004246 0.002568 0.018186 0.002463 0.000687
# 5 0.000085 0.000088 0.002413 0.002463 0.030350 0.005431
# 6 -0.002017 0.011151 -0.000949 0.000687 0.005431 0.035096
#
#
# Mechanical properties :
#
#
# Convention : Reuss Voigt Hill
#
# Bulk Modulus (GPa) = 53.41765 70.78270 62.10017
# Shear Modulus (GPa) = 33.69245 44.62550 39.15897
#
# Velocity S-wave (km/s) = 3.50616 4.03513 3.77991
# Velocity P-wave (km/s) = 5.99008 6.89462 6.45821
#
# Compressibility (1/GPa) = 0.01872041
#
# Stress axis : x y z
#
# Youngs Moduli (GPa) = 71.35930 77.56970 85.32665
#
# Poissons Ratio (x) = 0.42621 0.15503
# Poissons Ratio (y) = 0.39209 0.22534
# Poissons Ratio (z) = 0.12965 0.20485
#
# Static dielectric constant tensor:
#      x y z
#    x 2.218450 0.124480 0.096770 
#    y 0.124480 2.246350 0.107500 
#    z 0.096770 0.107500 2.266660 
# 
# From -- ./inp_files/208175.got.cif
#   From: 2010.05.17/outbox.cif.g08.bks.cpg/sg2_105_cif.got.tgz:208175.got - 2010.06.03 11:33:40.
