data_PCOD9085835
_publ_section_title
;
Structure prediction by ZEFSAII (Michael W. Deem and Ramdas Pophale) SiO2 
 PCOD9085835
Probable space group: P -1
;
_chemical_formula_sum "Si O2"
_cell_formula_units_Z 16
_cell_length_a 12.799246
_cell_length_b 7.831640
_cell_length_c 10.135130
_cell_angle_alpha 92.132023
_cell_angle_beta 85.407329
_cell_angle_gamma 141.356005
_cell_volume 631.870165
_symmetry_space_group_name_H-M "P -1"
_symmetry_group_IT_number 2
_symmetry_cell_setting 'triclinic'
loop_
_space_group_symop_operation_xyz
x,y,z
-x,-y,-z
loop_
_atom_site_type_symbol
_atom_site_label
_atom_site_fract_x
_atom_site_fract_y
_atom_site_fract_z
Si Si1 0.069303 0.062217 0.140348
Si Si2 0.386425 0.052457 0.564283
Si Si3 0.845245 0.464079 0.129398
Si Si4 0.871223 0.487105 0.542355
Si Si5 0.945143 0.581447 0.819866
Si Si6 0.165867 0.098252 0.532952
Si Si7 0.606788 0.544429 0.737395
Si Si8 0.605965 0.400655 0.293916
O O1 0.004790 0.159398 0.208035
O O2 0.269579 0.323053 0.148136
O O3 0.995623 0.782470 0.172266
O O4 0.000000 0.000000 0.000000
O O5 0.717307 0.253790 0.454163
O O6 0.254978 0.039238 0.576164
O O7 0.506472 0.252270 0.680917
O O8 0.481045 0.193723 0.419126
O O9 0.675360 0.341475 0.189082
O O10 0.898191 0.348646 0.180897
O O11 0.856685 0.461508 0.968721
O O12 0.830499 0.401442 0.698328
O O13 0.000000 0.500000 0.500000
O O14 0.973224 0.793678 0.521886
O O15 0.260776 0.248300 0.388202
O O16 0.233729 0.320729 0.636753
O O17 0.485073 0.552612 0.765772
#
# Coordination Sequence:
#
# PCOD9085835 Si02
#       8
#     2   2   2   2   2   2   2   2
#     4  10  22  42  70  96 127 183 233 278 335 403
#     4   8  17  33  60  97 141 174 212 280 352 400
#     4  10  22  41  70  90 132 186 228 280 339 395
#     4  10  19  35  63  93 137 174 222 282 332 403
#     4  10  23  42  61  96 137 171 237 285 320 399
#     4   8  16  32  61 100 132 175 225 276 334 415
#     4   9  18  37  69  98 140 175 218 287 345 405
#     4   9  17  36  65  98 130 176 231 269 349 412
#
# _framework density 25.321660000000001
#
# number of rings (size 3 to 8) (size 9 to 14) (size 15 to 20)
#    0.000    2.750    0.000    2.250    5.250    0.000 
#    4.500    6.875    8.250    2.250    0.000    0.875 
#    0.000    0.000    0.000    0.000    0.000    0.000 
#
# Total GULP energy -89346.219185 kJ/mol
# GULP energy per Si atom -5584.138699 kJ/mol
# Density = 2.526403 g / cm^3
# Si number density = 25.321660 Si / 1000 Ang^3
#
#
#
# Elastic Constant Matrix: (Units=GPa)
#
#
# Indices 1 2 3 4 5 6 
#
# 1 153.2262 35.4837 39.6990 11.9213 -18.3895 21.1099
# 2 35.4837 137.6260 33.6231 25.4067 10.6419 2.7503
# 3 39.6990 33.6231 117.9578 18.9367 -14.5465 25.3792
# 4 11.9213 25.4067 18.9367 37.4729 8.1092 5.8742
# 5 -18.3895 10.6419 -14.5465 8.1092 44.8032 5.9013
# 6 21.1099 2.7503 25.3792 5.8742 5.9013 40.4339
#
#
#
# Elastic Compliance Matrix: (Units=1/GPa)
#
#
# Indices 1 2 3 4 5 6 
#
# 1 0.008396 -0.002063 -0.000515 -0.001315 0.004587 -0.004399
# 2 -0.002063 0.009368 -0.002388 -0.004213 -0.003488 0.003060
# 3 -0.000515 -0.002388 0.012505 -0.004695 0.006274 -0.007652
# 4 -0.001315 -0.004213 -0.004695 0.033885 -0.007203 0.000049
# 5 0.004587 -0.003488 0.006274 -0.007203 0.029606 -0.009370
# 6 -0.004399 0.003060 -0.007652 0.000049 -0.009370 0.032983
#
#
# Mechanical properties :
#
#
# Convention : Reuss Voigt Hill
#
# Bulk Modulus (GPa) = 49.16907 69.60241 59.38574
# Shear Modulus (GPa) = 34.85478 44.54228 39.69853
#
# Velocity S-wave (km/s) = 3.71412 4.19866 3.96380
# Velocity P-wave (km/s) = 6.15247 7.14507 6.66727
#
# Compressibility (1/GPa) = 0.02033799
#
# Stress axis : x y z
#
# Youngs Moduli (GPa) = 119.10248 106.75016 79.96738
#
# Poissons Ratio (x) = 0.22022 0.04115
# Poissons Ratio (y) = 0.24570 0.19096
# Poissons Ratio (z) = 0.06128 0.25491
#
# Static dielectric constant tensor:
#      x y z
#    x 2.145100 -0.032070 0.092460 
#    y -0.032070 2.087050 -0.025870 
#    z 0.092460 -0.025870 2.162530 
# 
# From -- ./inp_files/308765.got.cif
#   From: 2010.05.17/outbox.cif.g08.bks.cpg/sg2_155_cif.got.tgz:308765.got - 2010.06.03 11:33:40.
