data_PCOD9085271
_publ_section_title
;
Structure prediction by ZEFSAII (Michael W. Deem and Ramdas Pophale) SiO2 
 PCOD9085271
Probable space group: P -1
;
_chemical_formula_sum "Si O2"
_cell_formula_units_Z 15
_cell_length_a 14.115620
_cell_length_b 11.609667
_cell_length_c 9.972769
_cell_angle_alpha 116.153996
_cell_angle_beta 120.446528
_cell_angle_gamma 28.983526
_cell_volume 682.704173
_symmetry_space_group_name_H-M "P -1"
_symmetry_group_IT_number 2
_symmetry_cell_setting 'triclinic'
loop_
_space_group_symop_operation_xyz
x,y,z
-x,-y,-z
loop_
_atom_site_type_symbol
_atom_site_label
_atom_site_fract_x
_atom_site_fract_y
_atom_site_fract_z
Si Si1 0.466103 0.652905 0.705460
Si Si2 0.678149 0.990972 0.050502
Si Si3 0.745058 0.520211 0.618043
Si Si4 0.203000 0.871819 0.373269
Si Si5 0.356761 0.979272 0.440004
Si Si6 0.301203 0.203539 0.775163
Si Si7 0.873482 0.686316 0.798713
Si Si8 0.000000 0.000000 0.500000
O O1 0.596856 0.617835 0.683239
O O2 0.270085 0.802354 0.549777
O O3 0.619008 0.385162 0.698059
O O4 0.390042 0.799516 0.855639
O O5 0.861661 0.780202 0.974127
O O6 0.490326 0.103474 0.902896
O O7 0.711767 0.892984 0.168778
O O8 0.586061 0.700595 0.474712
O O9 0.831627 0.576561 0.739714
O O10 0.903715 0.251682 0.566776
O O11 0.211475 0.003262 0.388544
O O12 0.994318 0.011090 0.330065
O O13 0.328054 0.112269 0.604181
O O14 0.292650 0.098553 0.314351
O O15 0.090458 0.485203 0.780324
#
# Coordination Sequence:
#
# PCOD9085271 Si02
#       8
#     2   2   2   2   2   2   2   1
#     4   9  18  36  61  80 116 158 198 257 294 343
#     4  11  21  39  58  89 124 162 201 252 308 354
#     4  10  19  35  59  90 123 154 204 253 303 345
#     4   9  18  36  58  86 115 151 206 250 297 344
#     4  11  21  41  61  88 128 164 198 250 310 363
#     4  11  22  38  58  88 125 163 201 255 297 356
#     4  12  24  37  62  94 127 164 201 243 309 380
#     4  10  20  32  60  96 112 148 212 268 280 352
#
# _framework density 21.971449
#
# number of rings (size 3 to 8) (size 9 to 14) (size 15 to 20)
#    0.000    1.600    4.000    3.600    0.000    0.000 
#    2.400    0.667    0.000    0.800    0.000    0.000 
#    0.000    0.000    0.000    0.000    0.000    0.000 
#
# Total GULP energy -83623.398086 kJ/mol
# GULP energy per Si atom -5574.893206 kJ/mol
# Density = 2.192144 g / cm^3
# Si number density = 21.971449 Si / 1000 Ang^3
#
#
#
# Elastic Constant Matrix: (Units=GPa)
#
#
# Indices 1 2 3 4 5 6 
#
# 1 85.1424 24.6452 14.7690 6.2397 0.9698 8.9426
# 2 24.6452 112.4920 34.3945 33.2512 -2.5956 0.0173
# 3 14.7690 34.3945 75.8877 23.5349 -14.0184 16.7869
# 4 6.2397 33.2512 23.5349 38.7996 2.7690 6.0048
# 5 0.9698 -2.5956 -14.0184 2.7690 13.8409 3.4693
# 6 8.9426 0.0173 16.7869 6.0048 3.4693 24.0879
#
#
#
# Elastic Compliance Matrix: (Units=1/GPa)
#
#
# Indices 1 2 3 4 5 6 
#
# 1 0.013203 -0.003209 -0.001259 0.002204 -0.002175 -0.004258
# 2 -0.003209 0.013726 -0.004456 -0.009499 -0.001537 0.006876
# 3 -0.001259 -0.004456 0.033893 -0.015675 0.043096 -0.025449
# 4 0.002204 -0.009499 -0.015675 0.044570 -0.027470 0.002958
# 5 -0.002175 -0.001537 0.043096 -0.027470 0.131618 -0.041334
# 6 -0.004258 0.006876 -0.025449 0.002958 -0.041334 0.066042
#
#
# Mechanical properties :
#
#
# Convention : Reuss Voigt Hill
#
# Bulk Modulus (GPa) = 23.26874 46.79326 35.03100
# Shear Modulus (GPa) = 14.91541 28.65993 21.78767
#
# Velocity S-wave (km/s) = 2.60831 3.61559 3.15244
# Velocity P-wave (km/s) = 4.43672 6.22684 5.40638
#
# Compressibility (1/GPa) = 0.04297611
#
# Stress axis : x y z
#
# Youngs Moduli (GPa) = 75.74241 72.85407 29.50428
#
# Poissons Ratio (x) = 0.23377 0.03714
# Poissons Ratio (y) = 0.24304 0.13146
# Poissons Ratio (z) = 0.09533 0.32460
#
# Static dielectric constant tensor:
#      x y z
#    x 2.016120 -0.149570 0.036390 
#    y -0.149570 1.950340 0.008180 
#    z 0.036390 0.008180 1.794860 
# 
# From -- ./inp_files/269872.got.cif
#   From: 2010.05.17/outbox.cif.g08.bks.cpg/sg2_135_cif.got.tgz:269872.got - 2010.06.03 11:33:40.
