data_PCOD9085622
_publ_section_title
;
Structure prediction by ZEFSAII (Michael W. Deem and Ramdas Pophale) SiO2 
 PCOD9085622
Probable space group: P -1
;
_chemical_formula_sum "Si O2"
_cell_formula_units_Z 14
_cell_length_a 9.561393
_cell_length_b 24.977013
_cell_length_c 9.228472
_cell_angle_alpha 28.331997
_cell_angle_beta 48.347416
_cell_angle_gamma 36.356940
_cell_volume 612.318981
_symmetry_space_group_name_H-M "P -1"
_symmetry_group_IT_number 2
_symmetry_cell_setting 'triclinic'
loop_
_space_group_symop_operation_xyz
x,y,z
-x,-y,-z
loop_
_atom_site_type_symbol
_atom_site_label
_atom_site_fract_x
_atom_site_fract_y
_atom_site_fract_z
Si Si1 0.703996 0.271052 0.797309
Si Si2 0.393400 0.850976 0.397629
Si Si3 0.577385 0.939745 0.297222
Si Si4 0.107071 0.038490 0.508973
Si Si5 0.031488 0.765688 0.586046
Si Si6 0.234586 0.461254 0.124197
Si Si7 0.796520 0.465878 0.370021
O O1 0.809817 0.240111 0.637376
O O2 0.839689 0.315222 0.695576
O O3 0.431915 0.412911 0.667228
O O4 0.744806 0.129887 0.157723
O O5 0.568025 0.848044 0.398126
O O6 0.528476 0.691312 0.626536
O O7 0.148713 0.904097 0.515186
O O8 0.343681 0.968134 0.037515
O O9 0.772368 0.832326 0.536780
O O10 0.300923 0.047460 0.280289
O O11 0.020810 0.130867 0.495269
O O12 0.164333 0.599768 0.928017
O O13 0.019249 0.453593 0.298224
O O14 0.256079 0.485210 0.880460
#
# Coordination Sequence:
#
# PCOD9085622 Si02
#       7
#     2   2   2   2   2   2   2
#     4  10  19  35  61  94 118 161 211 261 302 359
#     4  11  24  41  64  94 131 160 206 267 317 363
#     4  11  24  42  65  96 122 166 214 260 311 368
#     4  12  24  41  66  92 131 167 207 256 315 378
#     4  11  23  42  65  91 128 168 213 253 306 379
#     4  10  20  39  60  89 126 165 206 260 306 372
#     4   9  19  35  64  90 122 160 216 258 305 360
#
# _framework density 22.863900000000001
#
# number of rings (size 3 to 8) (size 9 to 14) (size 15 to 20)
#    0.000    1.429    1.429    5.571    2.000    0.571 
#    5.143    0.714    0.000    0.000    0.000    0.000 
#    0.000    0.000    0.000    0.000    0.000    0.000 
#
# Total GULP energy -78305.173597 kJ/mol
# GULP energy per Si atom -5593.226685 kJ/mol
# Density = 2.281186 g / cm^3
# Si number density = 22.863900 Si / 1000 Ang^3
#
#
#
# Elastic Constant Matrix: (Units=GPa)
#
#
# Indices 1 2 3 4 5 6 
#
# 1 30.2605 29.2770 19.9823 -5.5064 -8.8633 -6.5184
# 2 29.2770 134.9411 41.4571 -1.8816 -17.7351 -5.8122
# 3 19.9823 41.4571 73.2634 -23.8980 -19.0460 7.3515
# 4 -5.5064 -1.8816 -23.8980 43.4075 -4.6325 -13.0459
# 5 -8.8633 -17.7351 -19.0460 -4.6325 14.2605 -2.0453
# 6 -6.5184 -5.8122 7.3515 -13.0459 -2.0453 36.1446
#
#
#
# Elastic Compliance Matrix: (Units=1/GPa)
#
#
# Indices 1 2 3 4 5 6 
#
# 1 0.055819 -0.006978 0.002069 0.016839 0.036641 0.016675
# 2 -0.006978 0.010543 -0.004254 -0.002332 0.002422 0.000597
# 3 0.002069 -0.004254 0.041166 0.031184 0.061978 0.006079
# 4 0.016839 -0.002332 0.031184 0.055897 0.070309 0.020473
# 5 0.036641 0.002422 0.061978 0.070309 0.206033 0.031427
# 6 0.016675 0.000597 0.006079 0.020473 0.031427 0.038702
#
#
# Mechanical properties :
#
#
# Convention : Reuss Voigt Hill
#
# Bulk Modulus (GPa) = 11.21031 46.65531 28.93281
# Shear Modulus (GPa) = 10.95962 28.61243 19.78602
#
# Velocity S-wave (km/s) = 2.19176 3.54138 2.94493
# Velocity P-wave (km/s) = 3.36434 6.09687 4.92395
#
# Compressibility (1/GPa) = 0.08920363
#
# Stress axis : x y z
#
# Youngs Moduli (GPa) = 17.91497 94.85067 24.29166
#
# Poissons Ratio (x) = 0.66183 -0.05026
# Poissons Ratio (y) = 0.12500 0.10333
# Poissons Ratio (z) = -0.03707 0.40348
#
# Static dielectric constant tensor:
#      x y z
#    x 1.852330 0.002080 -0.005980 
#    y 0.002080 1.853430 0.028410 
#    z -0.005980 0.028410 1.859810 
# 
# From -- ./inp_files/225793.got.cif
#   From: 2010.05.17/outbox.cif.g08.bks.cpg/sg2_113_cif.got.tgz:225793.got - 2010.06.03 11:33:40.
