data_PCOD9085330
_publ_section_title
;
Structure prediction by ZEFSAII (Michael W. Deem and Ramdas Pophale) SiO2 
 PCOD9085330
Probable space group: P -1
;
_chemical_formula_sum "Si O2"
_cell_formula_units_Z 12
_cell_length_a 13.830626
_cell_length_b 9.269019
_cell_length_c 6.281653
_cell_angle_alpha 67.639952
_cell_angle_beta 126.015605
_cell_angle_gamma 132.166881
_cell_volume 482.646157
_symmetry_space_group_name_H-M "P -1"
_symmetry_group_IT_number 2
_symmetry_cell_setting 'triclinic'
loop_
_space_group_symop_operation_xyz
x,y,z
-x,-y,-z
loop_
_atom_site_type_symbol
_atom_site_label
_atom_site_fract_x
_atom_site_fract_y
_atom_site_fract_z
Si Si1 0.887168 0.059584 0.340357
Si Si2 0.599721 0.853904 0.861092
Si Si3 0.851598 0.562922 0.620233
Si Si4 0.383736 0.782879 0.253172
Si Si5 0.835782 0.835838 0.780332
Si Si6 0.637589 0.478171 0.001657
O O1 0.980540 0.292073 0.329833
O O2 0.804717 0.955672 0.513211
O O3 0.000000 0.000000 0.500000
O O4 0.775900 0.972584 0.048111
O O5 0.511371 0.804226 0.554199
O O6 0.575788 0.007083 0.848611
O O7 0.523656 0.664470 0.018139
O O8 0.768484 0.348763 0.728139
O O9 0.848025 0.688800 0.733336
O O10 0.752279 0.540185 0.306653
O O11 0.359163 0.661833 0.081410
O O12 0.698608 0.677357 0.844416
O O13 0.000000 0.000000 0.000000
#
# Coordination Sequence:
#
# PCOD9085330 Si02
#       6
#     2   2   2   2   2   2
#     4  10  21  39  58  85 121 155 193 244 288 344
#     4  10  21  39  60  86 120 152 197 243 289 344
#     4   9  19  36  61  84 116 151 194 245 287 344
#     4   9  20  39  62  86 114 156 195 239 295 348
#     4  10  19  35  60  82 114 160 192 235 291 347
#     4  10  19  37  60  87 116 153 197 241 291 346
#
# _framework density 24.862933999999999
#
# number of rings (size 3 to 8) (size 9 to 14) (size 15 to 20)
#    0.000    2.333    1.667    0.500    0.000    1.333 
#    6.000   21.667    0.000    0.000    0.000    0.000 
#    0.000    0.000    0.000    0.000    0.000    0.000 
#
# Total GULP energy -67003.148986 kJ/mol
# GULP energy per Si atom -5583.595749 kJ/mol
# Density = 2.480634 g / cm^3
# Si number density = 24.862934 Si / 1000 Ang^3
#
#
#
# Elastic Constant Matrix: (Units=GPa)
#
#
# Indices 1 2 3 4 5 6 
#
# 1 35.5302 32.1365 29.3424 -0.3576 4.5534 2.3106
# 2 32.1365 174.3369 56.1546 5.4332 0.8625 25.2505
# 3 29.3424 56.1546 117.0920 30.2144 7.7352 -8.5028
# 4 -0.3576 5.4332 30.2144 48.6611 -6.5278 -11.6448
# 5 4.5534 0.8625 7.7352 -6.5278 24.3338 9.0445
# 6 2.3106 25.2505 -8.5028 -11.6448 9.0445 50.6664
#
#
#
# Elastic Compliance Matrix: (Units=1/GPa)
#
#
# Indices 1 2 3 4 5 6 
#
# 1 0.040517 -0.004845 -0.009187 0.006370 -0.003173 0.001056
# 2 -0.004845 0.008519 -0.003644 0.000548 0.003841 -0.005196
# 3 -0.009187 -0.003644 0.015803 -0.009484 -0.007204 0.003993
# 4 0.006370 0.000548 -0.009484 0.028221 0.008316 0.002847
# 5 -0.003173 0.003841 -0.007204 0.008316 0.049772 -0.009952
# 6 0.001056 -0.005196 0.003993 0.002847 -0.009952 0.025379
#
#
# Mechanical properties :
#
#
# Convention : Reuss Voigt Hill
#
# Bulk Modulus (GPa) = 33.91341 62.46959 48.19150
# Shear Modulus (GPa) = 23.43091 38.68729 31.05910
#
# Velocity S-wave (km/s) = 3.07319 3.94892 3.53826
# Velocity P-wave (km/s) = 5.12469 6.78028 6.00977
#
# Compressibility (1/GPa) = 0.02948686
#
# Stress axis : x y z
#
# Youngs Moduli (GPa) = 24.68127 117.37869 63.27901
#
# Poissons Ratio (x) = 0.56873 0.58134
# Poissons Ratio (y) = 0.11959 0.23058
# Poissons Ratio (z) = 0.22674 0.42772
#
# Static dielectric constant tensor:
#      x y z
#    x 2.147140 0.080440 -0.095360 
#    y 0.080440 2.011270 -0.013020 
#    z -0.095360 -0.013020 1.931170 
# 
# From -- ./inp_files/40215.got.cif
#   From: 2010.05.17/outbox.cif.g08.bks.cpg/sg2_21_cif.got.tgz:40215.got - 2010.06.03 11:33:40.
