data_PCOD9085478
_publ_section_title
;
Structure prediction by ZEFSAII (Michael W. Deem and Ramdas Pophale) SiO2 
 PCOD9085478
Probable space group: P -1
;
_chemical_formula_sum "Si O2"
_cell_formula_units_Z 15
_cell_length_a 13.848810
_cell_length_b 13.400654
_cell_length_c 9.390242
_cell_angle_alpha 101.938160
_cell_angle_beta 48.696559
_cell_angle_gamma 140.606301
_cell_volume 641.133473
_symmetry_space_group_name_H-M "P -1"
_symmetry_group_IT_number 2
_symmetry_cell_setting 'triclinic'
loop_
_space_group_symop_operation_xyz
x,y,z
-x,-y,-z
loop_
_atom_site_type_symbol
_atom_site_label
_atom_site_fract_x
_atom_site_fract_y
_atom_site_fract_z
Si Si1 0.500000 0.000000 0.500000
Si Si2 0.293930 0.633622 0.682685
Si Si3 0.582710 0.709704 0.214856
Si Si4 0.738309 0.099338 0.576378
Si Si5 0.211220 0.667570 0.063912
Si Si6 0.946880 0.018839 0.333417
Si Si7 0.373388 0.339473 0.260237
Si Si8 0.249127 0.545358 0.243418
O O1 0.609952 0.186392 0.392541
O O2 0.690776 0.133447 0.492908
O O3 0.504577 0.699854 0.440164
O O4 0.232781 0.593441 0.898094
O O5 0.032111 0.437246 0.789565
O O6 0.461447 0.514382 0.256482
O O7 0.443791 0.688568 0.228048
O O8 0.878965 0.904686 0.940622
O O9 0.816749 0.038021 0.438983
O O10 0.981221 0.312830 0.483883
O O11 0.476274 0.911169 0.863545
O O12 0.201567 0.610662 0.211073
O O13 0.155365 0.185520 0.305122
O O14 0.750180 0.802520 0.526958
O O15 0.610292 0.439094 0.993706
#
# Coordination Sequence:
#
# PCOD9085478 Si02
#       8
#     1   2   2   2   2   2   2   2
#     4  10  22  40  64  78 112 174 200 242 300 362
#     4  10  23  44  61  84 126 160 213 251 301 359
#     4  11  22  38  61  99 124 153 198 266 299 352
#     4  11  19  37  66  88 115 164 210 237 294 378
#     4  10  22  41  61  81 118 176 203 243 300 370
#     4  10  19  35  62  92 127 158 197 241 314 365
#     4  10  19  35  60  94 129 162 188 246 311 372
#     4  11  19  36  67  89 123 160 201 245 308 362
#
# _framework density 23.396062000000001
#
# number of rings (size 3 to 8) (size 9 to 14) (size 15 to 20)
#    0.000    1.600    5.333    0.800    0.000    0.533 
#    7.200    4.000    0.000    0.000    0.000    0.000 
#    0.000    0.000    0.000    0.000    0.000    0.000 
#
# Total GULP energy -83682.127202 kJ/mol
# GULP energy per Si atom -5578.808480 kJ/mol
# Density = 2.334281 g / cm^3
# Si number density = 23.396062 Si / 1000 Ang^3
#
#
#
# Elastic Constant Matrix: (Units=GPa)
#
#
# Indices 1 2 3 4 5 6 
#
# 1 102.0329 17.0044 19.3921 -1.7397 13.9271 8.1127
# 2 17.0044 50.0328 43.5677 -4.3302 0.0334 3.5631
# 3 19.3921 43.5677 132.3417 -3.6709 -5.6021 -11.1681
# 4 -1.7397 -4.3302 -3.6709 49.4115 3.5107 0.4842
# 5 13.9271 0.0334 -5.6021 3.5107 32.0669 -2.6432
# 6 8.1127 3.5631 -11.1681 0.4842 -2.6432 24.1092
#
#
#
# Elastic Compliance Matrix: (Units=1/GPa)
#
#
# Indices 1 2 3 4 5 6 
#
# 1 0.011677 -0.002094 -0.001680 0.000567 -0.005841 -0.005050
# 2 -0.002094 0.030751 -0.010602 0.002060 -0.001943 -0.009006
# 3 -0.001680 -0.010602 0.012120 -0.000422 0.003575 0.008147
# 4 0.000567 0.002060 -0.000422 0.020613 -0.002694 -0.001400
# 5 -0.005841 -0.001943 0.003575 -0.002694 0.035289 0.007832
# 6 -0.005050 -0.009006 0.008147 -0.001400 0.007832 0.049169
#
#
# Mechanical properties :
#
#
# Convention : Reuss Voigt Hill
#
# Bulk Modulus (GPa) = 38.76215 49.37066 44.06640
# Shear Modulus (GPa) = 25.38490 34.74707 30.06598
#
# Velocity S-wave (km/s) = 3.29752 3.85797 3.58870
# Velocity P-wave (km/s) = 5.57691 6.40259 6.00396
#
# Compressibility (1/GPa) = 0.02579836
#
# Stress axis : x y z
#
# Youngs Moduli (GPa) = 85.63563 32.51910 82.51093
#
# Poissons Ratio (x) = 0.06808 0.13858
# Poissons Ratio (y) = 0.17928 0.87476
# Poissons Ratio (z) = 0.14383 0.34476
#
# Static dielectric constant tensor:
#      x y z
#    x 1.880160 0.067300 -0.035590 
#    y 0.067300 1.910950 0.011240 
#    z -0.035590 0.011240 1.909060 
# 
# From -- ./inp_files/315397.got.cif
#   From: 2010.05.17/outbox.cif.g08.bks.cpg/sg2_158_cif.got.tgz:315397.got - 2010.06.03 11:33:40.
