data_PCOD9085609
_publ_section_title
;
Structure prediction by ZEFSAII (Michael W. Deem and Ramdas Pophale) SiO2 
 PCOD9085609
Probable space group: P -1
;
_chemical_formula_sum "Si O2"
_cell_formula_units_Z 16
_cell_length_a 8.460367
_cell_length_b 13.346275
_cell_length_c 14.761071
_cell_angle_alpha 106.634629
_cell_angle_beta 148.881700
_cell_angle_gamma 80.654924
_cell_volume 813.742074
_symmetry_space_group_name_H-M "P -1"
_symmetry_group_IT_number 2
_symmetry_cell_setting 'triclinic'
loop_
_space_group_symop_operation_xyz
x,y,z
-x,-y,-z
loop_
_atom_site_type_symbol
_atom_site_label
_atom_site_fract_x
_atom_site_fract_y
_atom_site_fract_z
Si Si1 0.020726 0.117482 0.501436
Si Si2 0.845845 0.719861 0.064403
Si Si3 0.958133 0.736502 0.774528
Si Si4 0.666007 0.270960 0.856505
Si Si5 0.775949 0.272782 0.560049
Si Si6 0.858792 0.504032 0.665463
Si Si7 0.636011 0.117993 0.129278
Si Si8 0.365340 0.505064 0.038659
O O1 0.374209 0.177400 0.677994
O O2 0.863207 0.186645 0.513232
O O3 0.828130 0.114102 0.314023
O O4 0.000000 0.000000 0.500000
O O5 0.095005 0.722735 0.107423
O O6 0.034811 0.734210 0.255770
O O7 0.633946 0.810325 0.973933
O O8 0.630354 0.603289 0.934248
O O9 0.594022 0.740726 0.609234
O O10 0.985562 0.619401 0.717934
O O11 0.127789 0.825350 0.815247
O O12 0.143514 0.745097 0.962589
O O13 0.540486 0.383033 0.837074
O O14 0.890591 0.392116 0.608225
O O15 0.500000 0.500000 0.500000
O O16 0.003472 0.502771 0.836295
O O17 0.500000 0.000000 0.000000
O O18 0.500000 0.500000 0.000000
#
# Coordination Sequence:
#
# PCOD9085609 Si02
#       8
#     2   2   2   2   2   2   2   2
#     4  12  26  44  63  87 118 161 212 262 311 368
#     4  11  22  39  63  95 129 165 205 252 306 367
#     4  10  20  39  64  92 125 162 201 250 306 365
#     4  11  22  39  63  95 129 165 205 252 306 367
#     4  10  20  39  64  92 125 162 201 250 306 365
#     4   8  16  31  57  88 120 154 190 233 291 354
#     4  12  26  44  63  87 118 161 212 262 311 368
#     4  10  19  35  61  92 128 168 202 243 301 364
#
# _framework density 19.66225
#
# number of rings (size 3 to 8) (size 9 to 14) (size 15 to 20)
#    0.000    1.500    0.000    7.125    0.000    1.000 
#    0.000   10.000    0.000    0.000    0.000    0.000 
#    0.000    0.000    0.000    0.000    0.000    0.000 
#
# Total GULP energy -89298.758939 kJ/mol
# GULP energy per Si atom -5581.172434 kJ/mol
# Density = 1.961750 g / cm^3
# Si number density = 19.662250 Si / 1000 Ang^3
#
#
#
# Elastic Constant Matrix: (Units=GPa)
#
#
# Indices 1 2 3 4 5 6 
#
# 1 80.5543 19.1542 19.8685 5.1956 0.8778 24.3345
# 2 19.1542 125.4956 35.9655 17.2009 -3.1982 23.9221
# 3 19.8685 35.9655 110.9673 -0.0835 -1.1828 15.8528
# 4 5.1956 17.2009 -0.0835 41.0647 0.3679 4.3020
# 5 0.8778 -3.1982 -1.1828 0.3679 36.7869 -0.9734
# 6 24.3345 23.9221 15.8528 4.3020 -0.9734 22.4425
#
#
#
# Elastic Compliance Matrix: (Units=1/GPa)
#
#
# Indices 1 2 3 4 5 6 
#
# 1 0.018730 0.001505 -0.000819 -0.000770 -0.000896 -0.021225
# 2 0.001505 0.011006 -0.002255 -0.003653 0.000593 -0.011044
# 3 -0.000819 -0.002255 0.010524 0.001534 0.000029 -0.004435
# 4 -0.000770 -0.003653 0.001534 0.026133 -0.000548 -0.001387
# 5 -0.000896 0.000593 0.000029 -0.000548 0.027306 0.001609
# 6 -0.021225 -0.011044 -0.004435 -0.001387 0.001609 0.082814
#
#
# Mechanical properties :
#
#
# Convention : Reuss Voigt Hill
#
# Bulk Modulus (GPa) = 26.93906 51.88816 39.41361
# Shear Modulus (GPa) = 26.03829 36.19409 31.11619
#
# Velocity S-wave (km/s) = 3.64301 4.29510 3.98242
# Velocity P-wave (km/s) = 5.60589 7.14452 6.42146
#
# Compressibility (1/GPa) = 0.03712082
#
# Stress axis : x y z
#
# Youngs Moduli (GPa) = 53.39165 90.85773 95.01823
#
# Poissons Ratio (x) = -0.13672 0.07783
# Poissons Ratio (y) = -0.08034 0.21429
# Poissons Ratio (z) = 0.04373 0.20491
#
# Static dielectric constant tensor:
#      x y z
#    x 1.685070 -0.014090 0.032130 
#    y -0.014090 1.721960 0.001570 
#    z 0.032130 0.001570 1.733390 
# 
# From -- ./inp_files/500491.got.cif
#   From: 2010.05.17/outbox.cif.g08.bks.cpg/sg2_251_cif.got.tgz:500491.got - 2010.06.03 11:33:40.
