data_PCOD9085168
_publ_section_title
;
Structure prediction by ZEFSAII (Michael W. Deem and Ramdas Pophale) SiO2 
 PCOD9085168
Probable space group: P -1
;
_chemical_formula_sum "Si O2"
_cell_formula_units_Z 16
_cell_length_a 5.619915
_cell_length_b 16.153424
_cell_length_c 12.337059
_cell_angle_alpha 52.273740
_cell_angle_beta 98.999812
_cell_angle_gamma 127.920962
_cell_volume 654.076924
_symmetry_space_group_name_H-M "P -1"
_symmetry_group_IT_number 2
_symmetry_cell_setting 'triclinic'
loop_
_space_group_symop_operation_xyz
x,y,z
-x,-y,-z
loop_
_atom_site_type_symbol
_atom_site_label
_atom_site_fract_x
_atom_site_fract_y
_atom_site_fract_z
Si Si1 0.552969 0.350789 0.211203
Si Si2 0.009257 0.893010 0.521871
Si Si3 0.157425 0.453742 0.473270
Si Si4 0.583112 0.137248 0.264773
Si Si5 0.856659 0.636172 0.996083
Si Si6 0.646371 0.906382 0.998664
Si Si7 0.814025 0.183489 0.768781
Si Si8 0.433369 0.340164 0.839427
O O1 0.583640 0.254791 0.220089
O O2 0.325639 0.367328 0.117644
O O3 0.352398 0.259217 0.378212
O O4 0.871760 0.514451 0.103015
O O5 0.223989 0.876585 0.622216
O O6 0.221332 0.985351 0.358187
O O7 0.000000 0.000000 0.500000
O O8 0.500000 0.500000 0.500000
O O9 0.247538 0.529061 0.303862
O O10 0.000000 0.500000 0.500000
O O11 0.898424 0.284705 0.595133
O O12 0.806175 0.206680 0.119332
O O13 0.667026 0.614982 0.106177
O O14 0.403472 0.825440 0.147525
O O15 0.589936 0.785897 0.021856
O O16 0.645595 0.024813 0.860630
O O17 0.000000 0.000000 0.000000
O O18 0.151087 0.263029 0.790873
#
# Coordination Sequence:
#
# PCOD9085168 Si02
#       8
#     2   2   2   2   2   2   2   2
#     4   9  18  33  52  75 105 148 185 233 280 334
#     4   8  15  29  53  73  93 130 184 222 273 338
#     4  10  19  35  59  84 112 151 193 232 294 357
#     4   9  16  30  52  74  97 141 184 224 278 337
#     4  10  20  32  51  79 111 139 190 232 282 330
#     4   9  17  32  55  79 104 140 182 226 279 344
#     4   9  18  33  56  79 105 147 187 227 280 351
#     4  10  20  33  54  81 112 146 188 241 283 344
#
# _framework density 24.461952
#
# number of rings (size 3 to 8) (size 9 to 14) (size 15 to 20)
#    0.000    2.750    1.250    0.375    0.000    1.000 
#    0.000    0.000   24.750    0.000    0.000    0.000 
#    0.000    0.000    0.000    0.000    0.000    0.000 
#
# Total GULP energy -89191.154573 kJ/mol
# GULP energy per Si atom -5574.447161 kJ/mol
# Density = 2.440628 g / cm^3
# Si number density = 24.461952 Si / 1000 Ang^3
#
#
#
# Elastic Constant Matrix: (Units=GPa)
#
#
# Indices 1 2 3 4 5 6 
#
# 1 69.1512 1.3383 32.0638 -4.9758 3.4421 -13.6323
# 2 1.3383 52.4595 44.6674 -14.7376 2.9180 -18.3951
# 3 32.0638 44.6674 190.9285 -34.0633 -40.0170 -19.2795
# 4 -4.9758 -14.7376 -34.0633 38.1723 -7.9194 4.0453
# 5 3.4421 2.9180 -40.0170 -7.9194 49.3040 3.1626
# 6 -13.6323 -18.3951 -19.2795 4.0453 3.1626 34.8497
#
#
#
# Elastic Compliance Matrix: (Units=1/GPa)
#
#
# Indices 1 2 3 4 5 6 
#
# 1 0.019209 0.007717 -0.006237 -0.002688 -0.007880 0.009164
# 2 0.007717 0.033859 -0.009664 0.001390 -0.011215 0.016401
# 3 -0.006237 -0.009664 0.012783 0.009889 0.013151 -0.002810
# 4 -0.002688 0.001390 0.009889 0.038239 0.014311 -0.000585
# 5 -0.007880 -0.011215 0.013151 0.014311 0.034889 -0.006554
# 6 0.009164 0.016401 -0.002810 -0.000585 -0.006554 0.040044
#
#
# Mechanical properties :
#
#
# Convention : Reuss Voigt Hill
#
# Bulk Modulus (GPa) = 20.20873 52.07536 36.14204
# Shear Modulus (GPa) = 23.59779 40.09651 31.84715
#
# Velocity S-wave (km/s) = 3.10929 4.05302 3.61211
# Velocity P-wave (km/s) = 4.60103 6.57550 5.67480
#
# Compressibility (1/GPa) = 0.04948358
#
# Stress axis : x y z
#
# Youngs Moduli (GPa) = 52.05888 29.53411 78.23194
#
# Poissons Ratio (x) = -0.22792 0.48793
# Poissons Ratio (y) = -0.40174 0.75600
# Poissons Ratio (z) = 0.32469 0.28541
#
# Static dielectric constant tensor:
#      x y z
#    x 1.940050 0.013510 -0.031470 
#    y 0.013510 1.983240 -0.024530 
#    z -0.031470 -0.024530 2.016190 
# 
# From -- ./inp_files/93882.got.cif
#   From: 2010.05.17/outbox.cif.g08.bks.cpg/sg2_47_cif.got.tgz:93882.got - 2010.06.03 11:33:40.
