data_PCOD9085712
_publ_section_title
;
Structure prediction by ZEFSAII (Michael W. Deem and Ramdas Pophale) SiO2 
 PCOD9085712
Probable space group: P -1
;
_chemical_formula_sum "Si O2"
_cell_formula_units_Z 16
_cell_length_a 7.184114
_cell_length_b 16.952848
_cell_length_c 7.160024
_cell_angle_alpha 82.793613
_cell_angle_beta 72.041079
_cell_angle_gamma 127.074766
_cell_volume 603.605654
_symmetry_space_group_name_H-M "P -1"
_symmetry_group_IT_number 2
_symmetry_cell_setting 'triclinic'
loop_
_space_group_symop_operation_xyz
x,y,z
-x,-y,-z
loop_
_atom_site_type_symbol
_atom_site_label
_atom_site_fract_x
_atom_site_fract_y
_atom_site_fract_z
Si Si1 0.500258 0.655577 0.990395
Si Si2 0.595734 0.905851 0.588531
Si Si3 0.072857 0.856952 0.639096
Si Si4 0.665010 0.963273 0.978492
Si Si5 0.569439 0.315109 0.384350
Si Si6 0.098635 0.450151 0.370276
Si Si7 0.781497 0.264042 0.793533
Si Si8 0.931206 0.806156 0.249187
O O1 0.385324 0.549514 0.170920
O O2 0.326955 0.686977 0.086231
O O3 0.451997 0.629071 0.792798
O O4 0.810993 0.762761 0.865003
O O5 0.321397 0.872219 0.621736
O O6 0.651658 0.925272 0.786044
O O7 0.571340 0.807099 0.582358
O O8 0.827126 0.025061 0.396206
O O9 0.015304 0.830291 0.440625
O O10 0.482662 0.850708 0.182154
O O11 0.953317 0.079169 0.902111
O O12 0.500000 0.000000 0.000000
O O13 0.388399 0.291539 0.623066
O O14 0.877879 0.383577 0.297585
O O15 0.000000 0.500000 0.500000
O O16 0.019410 0.355874 0.554659
O O17 0.919308 0.229345 0.870323
#
# Coordination Sequence:
#
# PCOD9085712 Si02
#       8
#     2   2   2   2   2   2   2   2
#     4  10  21  39  63  88 115 158 206 246 289 353
#     4  10  19  35  62  91 122 154 189 249 298 355
#     4   9  20  36  60  91 123 150 197 240 300 354
#     4   9  18  34  57  86 124 155 187 234 299 358
#     4  11  21  38  64  89 113 155 208 244 299 350
#     4  10  23  42  59  82 123 159 200 255 294 341
#     4  10  19  39  58  82 124 162 188 241 298 340
#     4   9  20  35  60  90 123 153 193 242 301 361
#
# _framework density 26.507372
#
# number of rings (size 3 to 8) (size 9 to 14) (size 15 to 20)
#    0.000    2.250    1.250    1.125    1.750    2.500 
#    9.000   10.000    0.000    0.000    0.000    0.000 
#    0.000    0.000    0.000    0.000    0.000    0.000 
#
# Total GULP energy -89456.503155 kJ/mol
# GULP energy per Si atom -5591.031447 kJ/mol
# Density = 2.644704 g / cm^3
# Si number density = 26.507372 Si / 1000 Ang^3
#
#
#
# Elastic Constant Matrix: (Units=GPa)
#
#
# Indices 1 2 3 4 5 6 
#
# 1 59.7164 11.8102 19.3873 8.1337 -14.3332 -4.7680
# 2 11.8102 81.0415 43.6984 -24.2757 -0.8971 -5.0685
# 3 19.3873 43.6984 166.4094 -53.1294 -7.5395 -1.9799
# 4 8.1337 -24.2757 -53.1294 47.1426 0.8098 5.0532
# 5 -14.3332 -0.8971 -7.5395 0.8098 42.5027 -7.0130
# 6 -4.7680 -5.0685 -1.9799 5.0532 -7.0130 31.5301
#
#
#
# Elastic Compliance Matrix: (Units=1/GPa)
#
#
# Indices 1 2 3 4 5 6 
#
# 1 0.023549 -0.003911 -0.005428 -0.013033 0.008218 0.006508
# 2 -0.003911 0.015862 -0.001481 0.007150 -0.001313 0.000428
# 3 -0.005428 -0.001481 0.011123 0.012995 -0.000560 -0.002567
# 4 -0.013033 0.007150 0.012995 0.042687 -0.004030 -0.007743
# 5 0.008218 -0.001313 -0.000560 -0.004030 0.027531 0.007766
# 6 0.006508 0.000428 -0.002567 -0.007743 0.007766 0.035576
#
#
# Mechanical properties :
#
#
# Convention : Reuss Voigt Hill
#
# Bulk Modulus (GPa) = 34.60861 50.77324 42.69092
# Shear Modulus (GPa) = 26.65272 39.71984 33.18628
#
# Velocity S-wave (km/s) = 3.17438 3.87517 3.54215
# Velocity P-wave (km/s) = 5.14977 6.26248 5.73318
#
# Compressibility (1/GPa) = 0.02889455
#
# Stress axis : x y z
#
# Youngs Moduli (GPa) = 42.46518 63.04368 89.90032
#
# Poissons Ratio (x) = 0.24656 0.48794
# Poissons Ratio (y) = 0.16608 0.13316
# Poissons Ratio (z) = 0.23048 0.09338
#
# Static dielectric constant tensor:
#      x y z
#    x 2.165900 0.118720 -0.039410 
#    y 0.118720 2.154310 -0.037300 
#    z -0.039410 -0.037300 2.242670 
# 
# From -- ./inp_files/207908.got.cif
#   From: 2010.05.17/outbox.cif.g08.bks.cpg/sg2_104_cif.got.tgz:207908.got - 2010.06.03 11:33:40.
