data_PCOD9085306
_publ_section_title
;
Structure prediction by ZEFSAII (Michael W. Deem and Ramdas Pophale) SiO2 
 PCOD9085306
Probable space group: P -1
;
_chemical_formula_sum "Si O2"
_cell_formula_units_Z 15
_cell_length_a 8.887802
_cell_length_b 21.872626
_cell_length_c 19.188358
_cell_angle_alpha 157.456376
_cell_angle_beta 29.337956
_cell_angle_gamma 133.382780
_cell_volume 544.394338
_symmetry_space_group_name_H-M "P -1"
_symmetry_group_IT_number 2
_symmetry_cell_setting 'triclinic'
loop_
_space_group_symop_operation_xyz
x,y,z
-x,-y,-z
loop_
_atom_site_type_symbol
_atom_site_label
_atom_site_fract_x
_atom_site_fract_y
_atom_site_fract_z
Si Si1 0.756470 0.735017 0.325226
Si Si2 0.000000 0.000000 0.500000
Si Si3 0.551110 0.223322 0.369432
Si Si4 0.774436 0.661634 0.095254
Si Si5 0.071193 0.927208 0.238848
Si Si6 0.805418 0.170293 0.063186
Si Si7 0.991447 0.643493 0.599414
Si Si8 0.914821 0.567366 0.792952
O O1 0.016819 0.803370 0.275417
O O2 0.513945 0.862555 0.626242
O O3 0.000000 0.500000 0.000000
O O4 0.543127 0.764192 0.369124
O O5 0.879833 0.057983 0.524366
O O6 0.130032 0.429102 0.730852
O O7 0.755284 0.105032 0.090435
O O8 0.792444 0.286169 0.374565
O O9 0.651948 0.642086 0.047610
O O10 0.962587 0.773985 0.119564
O O11 0.021891 0.981327 0.233016
O O12 0.530844 0.812915 0.946911
O O13 0.360442 0.369083 0.428549
O O14 0.033082 0.266620 0.080921
O O15 0.188987 0.519369 0.317806
O O16 0.000000 0.500000 0.500000
#
# Coordination Sequence:
#
# PCOD9085306 Si02
#       8
#     2   1   2   2   2   2   2   2
#     4   9  19  33  54  79 103 137 180 218 253 303
#     4  10  20  38  56  74 104 140 182 216 254 306
#     4  10  16  26  45  76 106 128 166 223 258 302
#     4   8  14  28  46  68 101 134 177 213 248 303
#     4   9  17  29  49  73  96 138 174 209 260 311
#     4   8  13  24  42  67 100 131 169 212 255 300
#     4  11  16  24  44  80 110 130 170 214 264 316
#     4   8  13  22  40  68 101 136 170 208 252 308
#
# _framework density 27.553557000000001
#
# number of rings (size 3 to 8) (size 9 to 14) (size 15 to 20)
#    0.000    2.933    2.667    1.600    0.000    0.000 
#    0.000    2.000    0.000    0.800    0.000    0.000 
#    0.000    0.000    0.000    0.000    0.000    0.000 
#
# Total GULP energy -83592.726701 kJ/mol
# GULP energy per Si atom -5572.848447 kJ/mol
# Density = 2.749084 g / cm^3
# Si number density = 27.553557 Si / 1000 Ang^3
#
#
#
# Elastic Constant Matrix: (Units=GPa)
#
#
# Indices 1 2 3 4 5 6 
#
# 1 190.4363 48.7827 45.8099 -6.9801 28.4403 -70.1944
# 2 48.7827 76.3432 23.8321 -8.6344 6.2548 -31.7989
# 3 45.8099 23.8321 97.3838 -22.1556 32.9299 -20.8443
# 4 -6.9801 -8.6344 -22.1556 32.1429 -11.4875 21.0331
# 5 28.4403 6.2548 32.9299 -11.4875 46.7476 -16.2495
# 6 -70.1944 -31.7989 -20.8443 21.0331 -16.2495 70.4384
#
#
#
# Elastic Compliance Matrix: (Units=1/GPa)
#
#
# Indices 1 2 3 4 5 6 
#
# 1 0.010439 -0.002030 -0.003318 -0.008162 -0.002114 0.010454
# 2 -0.002030 0.017518 -0.003280 -0.000723 0.003052 0.005835
# 3 -0.003318 -0.003280 0.016788 0.010047 -0.008566 -0.004796
# 4 -0.008162 -0.000723 0.010047 0.050184 0.003480 -0.019669
# 5 -0.002114 0.003052 -0.008566 0.003480 0.030075 0.002635
# 6 0.010454 0.005835 -0.004796 -0.019669 0.002635 0.032311
#
#
# Mechanical properties :
#
#
# Convention : Reuss Voigt Hill
#
# Bulk Modulus (GPa) = 36.37800 66.77919 51.57860
# Shear Modulus (GPa) = 27.21307 46.24834 36.73071
#
# Velocity S-wave (km/s) = 3.14609 4.10138 3.65508
# Velocity P-wave (km/s) = 5.14086 6.83500 6.04755
#
# Compressibility (1/GPa) = 0.02748914
#
# Stress axis : x y z
#
# Youngs Moduli (GPa) = 95.79166 57.08295 59.56569
#
# Poissons Ratio (x) = 0.11589 0.19766
# Poissons Ratio (y) = 0.19448 0.19536
# Poissons Ratio (z) = 0.31787 0.18722
#
# Static dielectric constant tensor:
#      x y z
#    x 2.118890 -0.026340 -0.047860 
#    y -0.026340 2.161640 -0.092380 
#    z -0.047860 -0.092380 2.376800 
# 
# From -- ./inp_files/384417.got.cif
#   From: 2010.05.17/outbox.cif.g08.bks.cpg/sg2_193_cif.got.tgz:384417.got - 2010.06.03 11:33:40.
