data_PCOD9085662
_publ_section_title
;
Structure prediction by ZEFSAII (Michael W. Deem and Ramdas Pophale) SiO2 
 PCOD9085662
Probable space group: P -1
;
_chemical_formula_sum "Si O2"
_cell_formula_units_Z 16
_cell_length_a 14.804431
_cell_length_b 13.772551
_cell_length_c 6.029114
_cell_angle_alpha 72.677390
_cell_angle_beta 110.422525
_cell_angle_gamma 145.727116
_cell_volume 648.649348
_symmetry_space_group_name_H-M "P -1"
_symmetry_group_IT_number 2
_symmetry_cell_setting 'triclinic'
loop_
_space_group_symop_operation_xyz
x,y,z
-x,-y,-z
loop_
_atom_site_type_symbol
_atom_site_label
_atom_site_fract_x
_atom_site_fract_y
_atom_site_fract_z
Si Si1 0.578727 0.638669 0.157548
Si Si2 0.988575 0.235718 0.527392
Si Si3 0.504284 0.267947 0.677525
Si Si4 0.775021 0.883772 0.785964
Si Si5 0.275298 0.908005 0.919217
Si Si6 0.771489 0.347498 0.792171
Si Si7 0.009991 0.627317 0.191533
Si Si8 0.859223 0.799234 0.593293
O O1 0.454461 0.604196 0.209304
O O2 0.692597 0.674041 0.398630
O O3 0.500000 0.500000 0.000000
O O4 0.708529 0.821613 0.017539
O O5 0.839857 0.173985 0.338395
O O6 0.071458 0.382425 0.671019
O O7 0.080068 0.259951 0.384727
O O8 0.920343 0.082933 0.714304
O O9 0.372961 0.202545 0.438921
O O10 0.645540 0.327215 0.633651
O O11 0.418060 0.108852 0.865564
O O12 0.822703 0.810137 0.799533
O O13 0.317243 0.825683 0.051634
O O14 0.154332 0.822766 0.082246
O O15 0.885131 0.387964 0.679776
O O16 0.887057 0.494100 0.980026
O O17 0.000000 0.000000 0.500000
#
# Coordination Sequence:
#
# PCOD9085662 Si02
#       8
#     2   2   2   2   2   2   2   2
#     4  11  24  40  59  88 119 156 197 246 298 360
#     4  10  19  35  62  87 110 155 194 238 292 349
#     4  10  20  39  61  82 120 155 198 236 300 349
#     4   9  21  41  58  86 119 149 198 247 286 354
#     4   9  19  37  57  85 115 155 193 243 283 345
#     4   9  20  39  54  86 121 156 186 247 292 341
#     4   9  20  36  53  83 122 146 198 240 287 342
#     4   9  21  38  60  87 116 150 198 241 296 347
#
# _framework density 24.666640000000001
#
# number of rings (size 3 to 8) (size 9 to 14) (size 15 to 20)
#    0.750    1.750    0.000    1.875    1.750    5.500 
#    4.500    1.250    0.000    0.000    0.000    0.000 
#    0.000    0.000    0.000    0.000    0.000    0.000 
#
# Total GULP energy -89299.968269 kJ/mol
# GULP energy per Si atom -5581.248017 kJ/mol
# Density = 2.461050 g / cm^3
# Si number density = 24.666640 Si / 1000 Ang^3
#
#
#
# Elastic Constant Matrix: (Units=GPa)
#
#
# Indices 1 2 3 4 5 6 
#
# 1 178.0860 31.0429 42.9075 16.7253 -21.6605 -14.3769
# 2 31.0429 77.5366 14.8688 -13.1018 -1.1401 -18.2403
# 3 42.9075 14.8688 40.4414 -12.3284 -5.2858 -14.4800
# 4 16.7253 -13.1018 -12.3284 44.9274 -1.4294 -4.1269
# 5 -21.6605 -1.1401 -5.2858 -1.4294 35.6144 2.2714
# 6 -14.3769 -18.2403 -14.4800 -4.1269 2.2714 31.3382
#
#
#
# Elastic Compliance Matrix: (Units=1/GPa)
#
#
# Indices 1 2 3 4 5 6 
#
# 1 0.010803 -0.004537 -0.014279 -0.009665 0.004292 -0.005867
# 2 -0.004537 0.018184 0.005177 0.009482 -0.001811 0.012275
# 3 -0.014279 0.005177 0.053896 0.023838 -0.001131 0.024586
# 4 -0.009665 0.009482 0.023838 0.036676 -0.001652 0.017049
# 5 0.004292 -0.001811 -0.001131 -0.001652 0.030527 -0.002038
# 6 -0.005867 0.012275 0.024586 0.017049 -0.002038 0.050116
#
#
# Mechanical properties :
#
#
# Convention : Reuss Voigt Hill
#
# Bulk Modulus (GPa) = 17.98441 52.63361 35.30901
# Shear Modulus (GPa) = 20.32392 36.19231 28.25812
#
# Velocity S-wave (km/s) = 2.87356 3.83464 3.38834
# Velocity P-wave (km/s) = 4.27979 6.40236 5.44549
#
# Compressibility (1/GPa) = 0.05560371
#
# Stress axis : x y z
#
# Youngs Moduli (GPa) = 92.56951 54.99332 18.55423
#
# Poissons Ratio (x) = 0.24950 0.26494
# Poissons Ratio (y) = 0.41998 -0.09605
# Poissons Ratio (z) = 1.32184 -0.28469
#
# Static dielectric constant tensor:
#      x y z
#    x 1.966460 0.004900 0.000260 
#    y 0.004900 2.000060 -0.037590 
#    z 0.000260 -0.037590 1.934290 
# 
# From -- ./inp_files/97020.got.cif
#   From: 2010.05.17/outbox.cif.g08.bks.cpg/sg2_49_cif.got.tgz:97020.got - 2010.06.03 11:33:40.
