data_PCOD9085809
_publ_section_title
;
Structure prediction by ZEFSAII (Michael W. Deem and Ramdas Pophale) SiO2 
 PCOD9085809
Probable space group: P -1
;
_chemical_formula_sum "Si O2"
_cell_formula_units_Z 16
_cell_length_a 14.138311
_cell_length_b 16.575228
_cell_length_c 11.498791
_cell_angle_alpha 19.600937
_cell_angle_beta 44.468083
_cell_angle_gamma 45.643630
_cell_volume 629.107471
_symmetry_space_group_name_H-M "P -1"
_symmetry_group_IT_number 2
_symmetry_cell_setting 'triclinic'
loop_
_space_group_symop_operation_xyz
x,y,z
-x,-y,-z
loop_
_atom_site_type_symbol
_atom_site_label
_atom_site_fract_x
_atom_site_fract_y
_atom_site_fract_z
Si Si1 0.840597 0.013689 0.104409
Si Si2 0.938705 0.754228 0.153000
Si Si3 0.496641 0.310705 0.550552
Si Si4 0.777947 0.079102 0.688983
Si Si5 0.694955 0.346843 0.620960
Si Si6 0.205616 0.839692 0.697684
Si Si7 0.497100 0.933772 0.359608
Si Si8 0.646904 0.671498 0.794249
O O1 0.835804 0.870260 0.182050
O O2 0.749658 0.869160 0.463368
O O3 0.778287 0.278377 0.760275
O O4 0.000000 0.000000 0.000000
O O5 0.000000 0.500000 0.500000
O O6 0.074897 0.883919 0.833843
O O7 0.851468 0.825349 0.016993
O O8 0.616852 0.108563 0.760983
O O9 0.386336 0.394292 0.631457
O O10 0.453799 0.246146 0.545764
O O11 0.577887 0.545879 0.131819
O O12 0.781618 0.281029 0.516103
O O13 0.837728 0.126620 0.445312
O O14 0.581404 0.160460 0.969464
O O15 0.334789 0.977985 0.425550
O O16 0.267332 0.557341 0.033079
O O17 0.535690 0.802053 0.626750
#
# Coordination Sequence:
#
# PCOD9085809 Si02
#       8
#     2   2   2   2   2   2   2   2
#     4  10  22  37  56  89 127 156 206 255 301 371
#     4  11  21  38  64  87 118 165 202 254 306 361
#     4  10  20  36  64  86 122 168 199 252 315 364
#     4   9  21  39  59  89 125 157 206 254 304 370
#     4  10  21  39  60  88 126 160 201 261 304 358
#     4  10  19  35  63  90 119 163 202 251 310 363
#     4   9  20  35  60  93 126 157 208 251 301 375
#     4   9  18  36  56  90 127 156 204 256 298 366
#
# _framework density 25.432856000000001
#
# number of rings (size 3 to 8) (size 9 to 14) (size 15 to 20)
#    0.000    2.500    1.250    2.250    0.000    7.000 
#    0.000    0.000    5.500   12.750    0.000    0.000 
#    0.000    0.000    0.000    0.000    0.000    0.000 
#
# Total GULP energy -89288.363459 kJ/mol
# GULP energy per Si atom -5580.522716 kJ/mol
# Density = 2.537497 g / cm^3
# Si number density = 25.432856 Si / 1000 Ang^3
#
#
#
# Elastic Constant Matrix: (Units=GPa)
#
#
# Indices 1 2 3 4 5 6 
#
# 1 129.5616 17.9578 54.3023 -3.4695 9.0179 -23.6909
# 2 17.9578 116.5584 33.2942 1.6945 -2.0049 -2.9439
# 3 54.3023 33.2942 98.8087 9.5101 18.6291 -3.7830
# 4 -3.4695 1.6945 9.5101 38.9810 -10.0409 2.2116
# 5 9.0179 -2.0049 18.6291 -10.0409 38.2036 -1.2655
# 6 -23.6909 -2.9439 -3.7830 2.2116 -1.2655 33.4853
#
#
#
# Elastic Compliance Matrix: (Units=1/GPa)
#
#
# Indices 1 2 3 4 5 6 
#
# 1 0.011922 0.000318 -0.006920 0.002703 0.001537 0.007561
# 2 0.000318 0.009742 -0.004081 0.001281 0.002784 0.000641
# 3 -0.006920 -0.004081 0.017544 -0.006870 -0.009046 -0.003161
# 4 0.002703 0.001281 -0.006870 0.030298 0.010731 -0.000347
# 5 0.001537 0.002784 -0.009046 0.010731 0.033218 0.000857
# 6 0.007561 0.000641 -0.003161 -0.000347 0.000857 0.034968
#
#
# Mechanical properties :
#
#
# Convention : Reuss Voigt Hill
#
# Bulk Modulus (GPa) = 56.04568 61.78194 58.91381
# Shear Modulus (GPa) = 30.30196 38.09225 34.19711
#
# Velocity S-wave (km/s) = 3.45548 3.87429 3.67086
# Velocity P-wave (km/s) = 6.16482 6.66021 6.41730
#
# Compressibility (1/GPa) = 0.01784259
#
# Stress axis : x y z
#
# Youngs Moduli (GPa) = 83.87525 102.65318 56.99868
#
# Poissons Ratio (x) = -0.03263 0.39442
# Poissons Ratio (y) = -0.02666 0.23260
# Poissons Ratio (z) = 0.58041 0.41891
#
# Static dielectric constant tensor:
#      x y z
#    x 2.121390 0.015000 0.014590 
#    y 0.015000 2.000010 -0.036010 
#    z 0.014590 -0.036010 2.127800 
# 
# From -- ./inp_files/456588.got.cif
#   From: 2010.05.17/outbox.cif.g08.bks.cpg/sg2_229_cif.got.tgz:456588.got - 2010.06.03 11:33:40.
