data_PCOD9085588
_publ_section_title
;
Structure prediction by ZEFSAII (Michael W. Deem and Ramdas Pophale) SiO2 
 PCOD9085588
Probable space group: P -1
;
_chemical_formula_sum "Si O2"
_cell_formula_units_Z 14
_cell_length_a 7.835760
_cell_length_b 9.502957
_cell_length_c 9.338849
_cell_angle_alpha 94.458778
_cell_angle_beta 110.872666
_cell_angle_gamma 95.313833
_cell_volume 642.370127
_symmetry_space_group_name_H-M "P -1"
_symmetry_group_IT_number 2
_symmetry_cell_setting 'triclinic'
loop_
_space_group_symop_operation_xyz
x,y,z
-x,-y,-z
loop_
_atom_site_type_symbol
_atom_site_label
_atom_site_fract_x
_atom_site_fract_y
_atom_site_fract_z
Si Si1 0.394506 0.115554 0.157100
Si Si2 0.807935 0.415170 0.988102
Si Si3 0.243754 0.844476 0.260478
Si Si4 0.348920 0.409633 0.259379
Si Si5 0.085399 0.009400 0.865263
Si Si6 0.730525 0.385103 0.522266
Si Si7 0.812764 0.264280 0.264725
O O1 0.292685 0.244531 0.198617
O O2 0.605386 0.181287 0.211712
O O3 0.366898 0.984906 0.249825
O O4 0.295879 0.070526 0.972667
O O5 0.782519 0.263358 0.889444
O O6 0.658131 0.505794 0.884301
O O7 0.804933 0.383214 0.150999
O O8 0.000000 0.500000 0.000000
O O9 0.318196 0.754604 0.403252
O O10 0.043242 0.888958 0.242945
O O11 0.553020 0.422629 0.385941
O O12 0.226405 0.485279 0.342833
O O13 0.076987 0.860349 0.769329
O O14 0.000000 0.000000 0.000000
O O15 0.866413 0.338852 0.438327
#
# Coordination Sequence:
#
# PCOD9085588 Si02
#       7
#     2   2   2   2   2   2   2
#     4  10  20  36  67  92 118 151 204 250 289 352
#     4  11  22  38  64  86 118 163 199 245 301 354
#     4  10  21  39  64  87 124 163 190 235 313 358
#     4   9  20  38  61  83 122 162 191 238 302 356
#     4  10  19  35  61  90 119 155 189 250 297 345
#     4   9  21  40  59  88 123 158 197 239 294 365
#     4  11  22  37  64  92 120 148 208 254 284 349
#
# _framework density 21.794288999999999
#
# number of rings (size 3 to 8) (size 9 to 14) (size 15 to 20)
#    0.000    2.000    2.857    1.286    2.000    5.143 
#    0.000    2.857   12.571    0.000    0.000    0.000 
#    0.000    0.000    0.000    0.000    0.000    0.000 
#
# Total GULP energy -78104.538575 kJ/mol
# GULP energy per Si atom -5578.895612 kJ/mol
# Density = 2.174468 g / cm^3
# Si number density = 21.794289 Si / 1000 Ang^3
#
#
#
# Elastic Constant Matrix: (Units=GPa)
#
#
# Indices 1 2 3 4 5 6 
#
# 1 51.7661 19.7550 3.1381 -7.0462 -3.6403 -3.1203
# 2 19.7550 146.7731 42.4309 -2.8249 -20.1998 -8.8515
# 3 3.1381 42.4309 76.7771 -7.9679 -18.0932 -2.1643
# 4 -7.0462 -2.8249 -7.9679 51.9435 -13.5822 -4.4519
# 5 -3.6403 -20.1998 -18.0932 -13.5822 36.0128 -1.8055
# 6 -3.1203 -8.8515 -2.1643 -4.4519 -1.8055 31.5137
#
#
#
# Elastic Compliance Matrix: (Units=1/GPa)
#
#
# Indices 1 2 3 4 5 6 
#
# 1 0.021155 -0.002744 0.001879 0.004027 0.003173 0.002204
# 2 -0.002744 0.008887 -0.003983 0.000470 0.002993 0.002189
# 3 0.001879 -0.003983 0.017858 0.005261 0.008990 0.001552
# 4 0.004027 0.000470 0.005261 0.024405 0.012773 0.005072
# 5 0.003173 0.002993 0.008990 0.012773 0.039394 0.005834
# 6 0.002204 0.002189 0.001552 0.005072 0.005834 0.033722
#
#
# Mechanical properties :
#
#
# Convention : Reuss Voigt Hill
#
# Bulk Modulus (GPa) = 26.17490 45.10714 35.64102
# Shear Modulus (GPa) = 29.78834 37.89349 33.84091
#
# Velocity S-wave (km/s) = 3.70103 4.17428 3.94476
# Velocity P-wave (km/s) = 5.50450 6.63133 6.09402
#
# Compressibility (1/GPa) = 0.03820454
#
# Stress axis : x y z
#
# Youngs Moduli (GPa) = 47.27042 112.52270 55.99879
#
# Poissons Ratio (x) = 0.30871 -0.10525
# Poissons Ratio (y) = 0.12969 0.22306
# Poissons Ratio (z) = -0.08884 0.44822
#
# Static dielectric constant tensor:
#      x y z
#    x 1.887890 -0.038580 0.011360 
#    y -0.038580 1.804000 0.021980 
#    z 0.011360 0.021980 1.831730 
# 
# From -- ./inp_files/154938.got.cif
#   From: 2010.05.17/outbox.cif.g08.bks.cpg/sg2_78_cif.got.tgz:154938.got - 2010.06.03 11:33:40.
