data_PCOD9085256
_publ_section_title
;
Structure prediction by ZEFSAII (Michael W. Deem and Ramdas Pophale) SiO2 
 PCOD9085256
Probable space group: P -1
;
_chemical_formula_sum "Si O2"
_cell_formula_units_Z 14
_cell_length_a 11.622013
_cell_length_b 10.346849
_cell_length_c 14.657190
_cell_angle_alpha 127.529355
_cell_angle_beta 115.387103
_cell_angle_gamma 108.506111
_cell_volume 744.795014
_symmetry_space_group_name_H-M "P -1"
_symmetry_group_IT_number 2
_symmetry_cell_setting 'triclinic'
loop_
_space_group_symop_operation_xyz
x,y,z
-x,-y,-z
loop_
_atom_site_type_symbol
_atom_site_label
_atom_site_fract_x
_atom_site_fract_y
_atom_site_fract_z
Si Si1 0.390349 0.649338 0.837719
Si Si2 0.847142 0.550196 0.009728
Si Si3 0.624381 0.050659 0.922568
Si Si4 0.934949 0.278422 0.446649
Si Si5 0.070801 0.510936 0.179721
Si Si6 0.396255 0.897247 0.608706
Si Si7 0.643216 0.679177 0.036106
O O1 0.464444 0.545527 0.843477
O O2 0.152126 0.422971 0.620276
O O3 0.548931 0.880609 0.913436
O O4 0.397790 0.780687 0.983897
O O5 0.923957 0.599521 0.953968
O O6 0.792502 0.679055 0.068064
O O7 0.616931 0.219811 0.800103
O O8 0.014699 0.631634 0.169363
O O9 0.472771 0.859268 0.701359
O O10 0.867833 0.264695 0.069731
O O11 0.789306 0.187658 0.442631
O O12 0.000000 0.500000 0.500000
O O13 0.794728 0.994995 0.228476
O O14 0.286708 0.721867 0.403607
O O15 0.500000 0.500000 0.000000
#
# Coordination Sequence:
#
# PCOD9085256 Si02
#       7
#     2   2   2   2   2   2   2
#     4  11  21  35  57  88 124 154 190 250 300 349
#     4  10  23  41  56  90 121 161 199 247 299 358
#     4  10  19  35  59  89 115 152 204 246 291 350
#     4  12  22  37  64  93 118 158 199 244 301 361
#     4  10  21  38  65  84 117 162 206 245 292 356
#     4  11  19  35  63  88 115 151 210 245 288 356
#     4  12  24  40  58  90 130 152 194 253 304 356
#
# _framework density 18.797118000000001
#
# number of rings (size 3 to 8) (size 9 to 14) (size 15 to 20)
#    0.000    1.143    5.714    2.143    0.000    1.714 
#    0.000    0.714    0.000    1.714    0.000    0.000 
#    0.000    0.000    0.000    0.000    0.000    0.000 
#
# Total GULP energy -78098.945582 kJ/mol
# GULP energy per Si atom -5578.496113 kJ/mol
# Density = 1.875434 g / cm^3
# Si number density = 18.797118 Si / 1000 Ang^3
#
#
#
# Elastic Constant Matrix: (Units=GPa)
#
#
# Indices 1 2 3 4 5 6 
#
# 1 77.2504 26.8293 6.4185 8.4618 -1.6028 2.6329
# 2 26.8293 60.1059 33.7727 -8.6996 4.5043 0.7490
# 3 6.4185 33.7727 70.9029 -18.3919 9.5418 -5.1618
# 4 8.4618 -8.6996 -18.3919 30.9519 -0.8141 7.0671
# 5 -1.6028 4.5043 9.5418 -0.8141 18.0777 -0.4857
# 6 2.6329 0.7490 -5.1618 7.0671 -0.4857 38.5997
#
#
#
# Elastic Compliance Matrix: (Units=1/GPa)
#
#
# Indices 1 2 3 4 5 6 
#
# 1 0.016849 -0.009116 0.000667 -0.006781 0.003118 0.000398
# 2 -0.009116 0.027793 -0.011302 0.004045 -0.001644 -0.002190
# 3 0.000667 -0.011302 0.023309 0.009946 -0.008944 0.001357
# 4 -0.006781 0.004045 0.009946 0.042474 -0.005111 -0.006127
# 5 0.003118 -0.001644 -0.008944 -0.005111 0.060502 0.000320
# 6 0.000398 -0.002190 0.001357 -0.006127 0.000320 0.027230
#
#
# Mechanical properties :
#
#
# Convention : Reuss Voigt Hill
#
# Bulk Modulus (GPa) = 35.14963 38.03335 36.59149
# Shear Modulus (GPa) = 20.23131 26.94179 23.58655
#
# Velocity S-wave (km/s) = 3.28426 3.78999 3.54615
# Velocity P-wave (km/s) = 5.75516 6.27930 6.02293
#
# Compressibility (1/GPa) = 0.02844981
#
# Stress axis : x y z
#
# Youngs Moduli (GPa) = 59.34916 35.98048 42.90130
#
# Poissons Ratio (x) = 0.32800 -0.02862
# Poissons Ratio (y) = 0.54103 0.48487
# Poissons Ratio (z) = -0.03960 0.40665
#
# Static dielectric constant tensor:
#      x y z
#    x 1.648690 -0.003440 -0.003030 
#    y -0.003440 1.670090 -0.029670 
#    z -0.003030 -0.029670 1.708030 
# 
# From -- ./inp_files/356940.got.cif
#   From: 2010.05.17/outbox.cif.g08.bks.cpg/sg2_179_cif.got.tgz:356940.got - 2010.06.03 11:33:40.
