data_PCOD9085901
_publ_section_title
;
Structure prediction by ZEFSAII (Michael W. Deem and Ramdas Pophale) SiO2 
 PCOD9085901
Probable space group: P -1
;
_chemical_formula_sum "Si O2"
_cell_formula_units_Z 12
_cell_length_a 12.277595
_cell_length_b 7.991982
_cell_length_c 7.979219
_cell_angle_alpha 62.047910
_cell_angle_beta 121.189343
_cell_angle_gamma 128.372093
_cell_volume 512.286239
_symmetry_space_group_name_H-M "P -1"
_symmetry_group_IT_number 2
_symmetry_cell_setting 'triclinic'
loop_
_space_group_symop_operation_xyz
x,y,z
-x,-y,-z
loop_
_atom_site_type_symbol
_atom_site_label
_atom_site_fract_x
_atom_site_fract_y
_atom_site_fract_z
Si Si1 0.119510 0.817399 0.106601
Si Si2 0.637100 0.227989 0.067218
Si Si3 0.964988 0.368579 0.356759
Si Si4 0.638082 0.602638 0.681915
Si Si5 0.057116 0.013868 0.308611
Si Si6 0.446201 0.122711 0.273016
O O1 0.053306 0.560375 0.203822
O O2 0.085045 0.909489 0.208287
O O3 0.293137 0.936625 0.159889
O O4 0.046031 0.889583 0.871000
O O5 0.792315 0.247929 0.227894
O O6 0.572259 0.256901 0.177180
O O7 0.665850 0.420691 0.872778
O O8 0.500000 0.000000 0.000000
O O9 0.000000 0.500000 0.500000
O O10 0.004066 0.180621 0.514954
O O11 0.500000 0.500000 0.500000
O O12 0.782148 0.786057 0.617948
O O13 0.597304 0.720598 0.738736
O O14 0.500000 0.000000 0.500000
#
# Coordination Sequence:
#
# PCOD9085901 Si02
#       6
#     2   2   2   2   2   2
#     4   9  18  35  58  88 123 161 209 259 316 380
#     4  12  24  42  66  95 132 173 218 268 327 386
#     4  10  19  35  64  91 120 173 213 259 325 388
#     4  11  22  40  66  95 131 170 215 269 323 387
#     4   9  17  33  59  88 121 163 208 255 318 379
#     4  11  23  41  63  98 129 168 217 268 322 388
#
# _framework density 23.424405
#
# number of rings (size 3 to 8) (size 9 to 14) (size 15 to 20)
#    0.000    1.667    1.667    5.500    2.333    0.000 
#    3.000    0.833    3.667    2.000    0.000    0.000 
#    0.000    0.000    0.000    0.000    0.000    0.000 
#
# Total GULP energy -67190.297377 kJ/mol
# GULP energy per Si atom -5599.191448 kJ/mol
# Density = 2.337109 g / cm^3
# Si number density = 23.424405 Si / 1000 Ang^3
#
#
#
# Elastic Constant Matrix: (Units=GPa)
#
#
# Indices 1 2 3 4 5 6 
#
# 1 76.2418 28.2333 18.7072 -4.8618 3.5490 9.3579
# 2 28.2333 144.2389 67.8150 -15.4352 15.0756 11.0202
# 3 18.7072 67.8150 157.7804 -20.5293 23.0658 10.9665
# 4 -4.8618 -15.4352 -20.5293 54.7809 2.1845 6.5810
# 5 3.5490 15.0756 23.0658 2.1845 36.6991 1.9445
# 6 9.3579 11.0202 10.9665 6.5810 1.9445 37.3116
#
#
#
# Elastic Compliance Matrix: (Units=1/GPa)
#
#
# Indices 1 2 3 4 5 6 
#
# 1 0.014497 -0.002327 -0.000387 0.000847 -0.000095 -0.002979
# 2 -0.002327 0.009329 -0.003214 0.001449 -0.001599 -0.001399
# 3 -0.000387 -0.003214 0.008882 0.002780 -0.004293 -0.001831
# 4 0.000847 0.001449 0.002780 0.020503 -0.003385 -0.004897
# 5 -0.000095 -0.001599 -0.004293 -0.003385 0.030775 0.000751
# 6 -0.002979 -0.001399 -0.001831 -0.004897 0.000751 0.029325
#
#
# Mechanical properties :
#
#
# Convention : Reuss Voigt Hill
#
# Bulk Modulus (GPa) = 47.96088 67.53024 57.74556
# Shear Modulus (GPa) = 37.84514 43.32534 40.58524
#
# Velocity S-wave (km/s) = 4.02385 4.30534 4.16697
# Velocity P-wave (km/s) = 6.48904 7.32163 6.91787
#
# Compressibility (1/GPa) = 0.02085033
#
# Stress axis : x y z
#
# Youngs Moduli (GPa) = 68.97890 107.19578 112.59064
#
# Poissons Ratio (x) = 0.24948 0.04361
# Poissons Ratio (y) = 0.16054 0.36187
# Poissons Ratio (z) = 0.02672 0.34453
#
# Static dielectric constant tensor:
#      x y z
#    x 1.850850 -0.060010 -0.040250 
#    y -0.060010 1.876740 0.035810 
#    z -0.040250 0.035810 1.854340 
# 
# From -- ./inp_files/152574.got.cif
#   From: 2010.05.17/outbox.cif.g08.bks.cpg/sg2_77_cif.got.tgz:152574.got - 2010.06.03 11:33:40.
