data_PCOD9085592
_publ_section_title
;
Structure prediction by ZEFSAII (Michael W. Deem and Ramdas Pophale) SiO2 
 PCOD9085592
Probable space group: P -1
;
_chemical_formula_sum "Si O2"
_cell_formula_units_Z 16
_cell_length_a 8.217412
_cell_length_b 9.553894
_cell_length_c 18.821704
_cell_angle_alpha 36.115933
_cell_angle_beta 119.869407
_cell_angle_gamma 120.961055
_cell_volume 736.866081
_symmetry_space_group_name_H-M "P -1"
_symmetry_group_IT_number 2
_symmetry_cell_setting 'triclinic'
loop_
_space_group_symop_operation_xyz
x,y,z
-x,-y,-z
loop_
_atom_site_type_symbol
_atom_site_label
_atom_site_fract_x
_atom_site_fract_y
_atom_site_fract_z
Si Si1 0.328220 0.945696 0.826747
Si Si2 0.111426 0.298496 0.176548
Si Si3 0.041732 0.275267 0.001578
Si Si4 0.645847 0.755197 0.428599
Si Si5 0.931528 0.446585 0.588218
Si Si6 0.416827 0.432177 0.921363
Si Si7 0.399009 0.042664 0.306064
Si Si8 0.225085 0.220089 0.826679
O O1 0.441306 0.733647 0.951642
O O2 0.105567 0.843884 0.798506
O O3 0.400790 0.119658 0.705842
O O4 0.323802 0.094139 0.837606
O O5 0.279116 0.163029 0.288191
O O6 0.117235 0.559522 0.104672
O O7 0.110435 0.308416 0.085544
O O8 0.219208 0.365478 0.950699
O O9 0.934075 0.997286 0.083003
O O10 0.500000 0.500000 0.500000
O O11 0.847762 0.674541 0.503858
O O12 0.580918 0.919999 0.408314
O O13 0.000000 0.500000 0.500000
O O14 0.109167 0.400930 0.690866
O O15 0.768969 0.189310 0.661291
O O16 0.509785 0.719879 0.819640
O O17 0.367206 0.350482 0.863556
#
# Coordination Sequence:
#
# PCOD9085592 Si02
#       8
#     2   2   2   2   2   2   2   2
#     4  11  21  37  63  90 129 159 203 256 310 367
#     4  10  19  35  61  90 120 164 203 250 306 365
#     4  10  20  36  57  88 130 161 197 242 311 373
#     4  10  22  36  63  95 113 156 218 261 291 345
#     4  11  21  43  69  84 117 166 217 254 298 360
#     4  12  25  36  60  98 133 158 192 260 326 367
#     4  11  21  39  63  92 122 152 210 262 300 364
#     4  11  23  41  59  90 128 171 202 239 315 388
#
# _framework density 21.713578999999999
#
# number of rings (size 3 to 8) (size 9 to 14) (size 15 to 20)
#    0.000    1.250    3.750    4.500    1.750    1.500 
#    0.000    1.250    0.000    0.000    0.000    0.000 
#    0.000    0.000    0.000    0.000    0.000    0.000 
#
# Total GULP energy -89235.943612 kJ/mol
# GULP energy per Si atom -5577.246476 kJ/mol
# Density = 2.166416 g / cm^3
# Si number density = 21.713579 Si / 1000 Ang^3
#
#
#
# Elastic Constant Matrix: (Units=GPa)
#
#
# Indices 1 2 3 4 5 6 
#
# 1 118.2406 22.8829 55.9615 -27.1205 15.9314 -16.3362
# 2 22.8829 56.5846 45.7040 -6.1782 5.4420 -1.9303
# 3 55.9615 45.7040 128.2107 -34.3181 10.7259 -2.4999
# 4 -27.1205 -6.1782 -34.3181 23.1637 -12.9574 7.3033
# 5 15.9314 5.4420 10.7259 -12.9574 55.2930 -22.3950
# 6 -16.3362 -1.9303 -2.4999 7.3033 -22.3950 21.9446
#
#
#
# Elastic Compliance Matrix: (Units=1/GPa)
#
#
# Indices 1 2 3 4 5 6 
#
# 1 0.013164 -0.002403 -0.002184 0.010359 0.002866 0.008817
# 2 -0.002403 0.027707 -0.013116 -0.016989 -0.002598 0.002157
# 3 -0.002184 -0.013116 0.020606 0.027724 0.000865 -0.008776
# 4 0.010359 -0.016989 0.027724 0.102621 0.012481 -0.012040
# 5 0.002866 -0.002598 0.000865 0.012481 0.033071 0.031600
# 6 0.008817 0.002157 -0.008776 -0.012040 0.031600 0.087578
#
#
# Mechanical properties :
#
#
# Convention : Reuss Voigt Hill
#
# Bulk Modulus (GPa) = 38.35765 61.34807 49.85286
# Shear Modulus (GPa) = 15.20480 31.97941 23.59211
#
# Velocity S-wave (km/s) = 2.64908 3.84185 3.29981
# Velocity P-wave (km/s) = 5.20197 6.92780 6.12596
#
# Compressibility (1/GPa) = 0.02607042
#
# Stress axis : x y z
#
# Youngs Moduli (GPa) = 75.96341 36.09220 48.52986
#
# Poissons Ratio (x) = 0.08673 0.10600
# Poissons Ratio (y) = 0.18255 0.63651
# Poissons Ratio (z) = 0.16592 0.47338
#
# Static dielectric constant tensor:
#      x y z
#    x 1.893490 -0.022720 0.015710 
#    y -0.022720 1.788360 -0.035390 
#    z 0.015710 -0.035390 1.824180 
# 
# From -- ./inp_files/556804.got.cif
#   From: 2010.05.17/outbox.cif.g08.bks.cpg/sg2_279_cif.got.tgz:556804.got - 2010.06.03 11:33:40.
