data_PCOD9085799
_publ_section_title
;
Structure prediction by ZEFSAII (Michael W. Deem and Ramdas Pophale) SiO2 
 PCOD9085799
Probable space group: P -1
;
_chemical_formula_sum "Si O2"
_cell_formula_units_Z 16
_cell_length_a 18.483085
_cell_length_b 9.088753
_cell_length_c 21.497243
_cell_angle_alpha 27.410323
_cell_angle_beta 153.868872
_cell_angle_gamma 151.121195
_cell_volume 674.876532
_symmetry_space_group_name_H-M "P -1"
_symmetry_group_IT_number 2
_symmetry_cell_setting 'triclinic'
loop_
_space_group_symop_operation_xyz
x,y,z
-x,-y,-z
loop_
_atom_site_type_symbol
_atom_site_label
_atom_site_fract_x
_atom_site_fract_y
_atom_site_fract_z
Si Si1 0.360122 0.551663 0.110939
Si Si2 0.492632 0.340574 0.690840
Si Si3 0.263548 0.571097 0.778136
Si Si4 0.016953 0.706716 0.764338
Si Si5 0.333147 0.595075 0.314591
Si Si6 0.070446 0.305940 0.493530
Si Si7 0.460249 0.412903 0.107094
Si Si8 0.265260 0.766427 0.370135
O O1 0.490134 0.764231 0.185922
O O2 0.441806 0.587376 0.091866
O O3 0.314382 0.164538 0.247127
O O4 0.180454 0.619450 0.945997
O O5 0.669020 0.432809 0.751690
O O6 0.416033 0.635674 0.513144
O O7 0.351791 0.989258 0.685098
O O8 0.061239 0.509996 0.656372
O O9 0.344085 0.456816 0.822763
O O10 0.337822 0.452948 0.941341
O O11 0.856238 0.636728 0.715183
O O12 0.914723 0.438980 0.730391
O O13 0.091638 0.089419 0.649238
O O14 0.500000 0.500000 0.500000
O O15 0.385309 0.000205 0.218596
O O16 0.232917 0.614912 0.471782
O O17 0.000000 0.000000 0.500000
#
# Coordination Sequence:
#
# PCOD9085799 Si02
#       8
#     2   2   2   2   2   2   2   2
#     4  12  25  37  61  97 126 153 201 259 312 355
#     4  11  23  40  61  89 127 163 193 251 320 361
#     4  10  20  39  63  91 116 164 206 252 295 362
#     4  11  21  37  64  89 115 162 211 249 294 358
#     4  11  20  39  66  87 118 161 214 246 292 367
#     4  10  19  35  63  89 116 153 214 246 294 353
#     4  10  21  36  60  93 119 155 207 256 292 356
#     4  11  21  39  62  89 120 164 205 250 295 367
#
# _framework density 23.70804
#
# number of rings (size 3 to 8) (size 9 to 14) (size 15 to 20)
#    0.000    1.250    5.000    3.000    1.750    1.000 
#    0.000    0.000    0.000    1.500    0.000    0.000 
#    0.000    0.000    0.000    0.000    0.000    0.000 
#
# Total GULP energy -89459.235432 kJ/mol
# GULP energy per Si atom -5591.202214 kJ/mol
# Density = 2.365408 g / cm^3
# Si number density = 23.708040 Si / 1000 Ang^3
#
#
#
# Elastic Constant Matrix: (Units=GPa)
#
#
# Indices 1 2 3 4 5 6 
#
# 1 188.7238 18.3081 48.8000 -4.2226 5.8787 13.3106
# 2 18.3081 28.1100 18.5064 -4.4359 -0.8259 0.0847
# 3 48.8000 18.5064 132.3541 -6.1632 9.5745 -0.1910
# 4 -4.2226 -4.4359 -6.1632 29.3896 9.1289 -10.4868
# 5 5.8787 -0.8259 9.5745 9.1289 40.4569 -0.5614
# 6 13.3106 0.0847 -0.1910 -10.4868 -0.5614 25.1184
#
#
#
# Elastic Compliance Matrix: (Units=1/GPa)
#
#
# Indices 1 2 3 4 5 6 
#
# 1 0.006358 -0.003045 -0.001962 -0.001261 -0.000291 -0.003907
# 2 -0.003045 0.041459 -0.004467 0.005967 0.001054 0.003955
# 3 -0.001962 -0.004467 0.009206 0.002514 -0.002523 0.002118
# 4 -0.001261 0.005967 0.002514 0.045375 -0.010259 0.019382
# 5 -0.000291 0.001054 -0.002523 -0.010259 0.027644 -0.003534
# 6 -0.003907 0.003955 0.002118 0.019382 -0.003534 0.049897
#
#
# Mechanical properties :
#
#
# Convention : Reuss Voigt Hill
#
# Bulk Modulus (GPa) = 26.26356 57.82412 42.04384
# Shear Modulus (GPa) = 23.63183 36.56454 30.09819
#
# Velocity S-wave (km/s) = 3.16062 3.93145 3.56692
# Velocity P-wave (km/s) = 4.94179 6.71204 5.89376
#
# Compressibility (1/GPa) = 0.03807557
#
# Stress axis : x y z
#
# Youngs Moduli (GPa) = 157.28693 24.11994 108.62531
#
# Poissons Ratio (x) = 0.07345 0.21309
# Poissons Ratio (y) = 0.47897 0.48523
# Poissons Ratio (z) = 0.30854 0.10774
#
# Static dielectric constant tensor:
#      x y z
#    x 2.015360 -0.048580 -0.011810 
#    y -0.048580 1.922330 -0.003760 
#    z -0.011810 -0.003760 1.876840 
# 
# From -- ./inp_files/599676.got.cif
#   From: 2010.05.17/outbox.cif.g08.bks.cpg/sg2_300_cif.got.tgz:599676.got - 2010.06.03 11:33:40.
