data_PCOD9085561
_publ_section_title
;
Structure prediction by ZEFSAII (Michael W. Deem and Ramdas Pophale) SiO2 
 PCOD9085561
Probable space group: P -1
;
_chemical_formula_sum "Si O2"
_cell_formula_units_Z 14
_cell_length_a 9.183827
_cell_length_b 12.590184
_cell_length_c 10.478596
_cell_angle_alpha 146.279462
_cell_angle_beta 101.143544
_cell_angle_gamma 78.086964
_cell_volume 657.604370
_symmetry_space_group_name_H-M "P -1"
_symmetry_group_IT_number 2
_symmetry_cell_setting 'triclinic'
loop_
_space_group_symop_operation_xyz
x,y,z
-x,-y,-z
loop_
_atom_site_type_symbol
_atom_site_label
_atom_site_fract_x
_atom_site_fract_y
_atom_site_fract_z
Si Si1 0.173319 0.614460 0.040485
Si Si2 0.883009 0.036102 0.131327
Si Si3 0.075220 0.665344 0.354803
Si Si4 0.674537 0.073208 0.735465
Si Si5 0.416065 0.860047 0.934998
Si Si6 0.354204 0.250885 0.779937
Si Si7 0.722809 0.695161 0.894989
O O1 0.317141 0.470130 0.953501
O O2 0.057174 0.472309 0.826426
O O3 0.122400 0.710493 0.262757
O O4 0.202808 0.776421 0.106429
O O5 0.949100 0.150784 0.374940
O O6 0.739247 0.169766 0.188008
O O7 0.815305 0.839119 0.970887
O O8 0.000000 0.000000 0.000000
O O9 0.201763 0.518373 0.293622
O O10 0.526927 0.181574 0.754623
O O11 0.711685 0.883786 0.471189
O O12 0.631408 0.038303 0.837971
O O13 0.548947 0.697679 0.826610
O O14 0.500000 0.000000 0.000000
O O15 0.281489 0.224986 0.880375
#
# Coordination Sequence:
#
# PCOD9085561 Si02
#       7
#     2   2   2   2   2   2   2
#     4  10  21  37  59  89 120 149 198 245 297 352
#     4  11  24  39  61  87 119 160 201 243 290 352
#     4  10  23  39  59  88 121 158 193 245 301 349
#     4  10  19  35  61  88 117 154 197 242 297 347
#     4   9  21  41  59  85 119 157 200 240 290 352
#     4   9  19  35  61  89 116 152 192 251 296 349
#     4   9  20  42  61  82 121 153 200 245 295 351
#
# _framework density 21.289396
#
# number of rings (size 3 to 8) (size 9 to 14) (size 15 to 20)
#    0.000    2.286    0.000    1.286    4.000    2.286 
#    0.000    4.286    0.000    0.000    0.000    0.000 
#    0.000    0.000    0.000    0.000    0.000    0.000 
#
# Total GULP energy -78116.549577 kJ/mol
# GULP energy per Si atom -5579.753541 kJ/mol
# Density = 2.124094 g / cm^3
# Si number density = 21.289396 Si / 1000 Ang^3
#
#
#
# Elastic Constant Matrix: (Units=GPa)
#
#
# Indices 1 2 3 4 5 6 
#
# 1 86.0385 34.0297 44.7722 -8.3534 -8.8640 9.3817
# 2 34.0297 73.0620 20.8749 -12.8752 -8.7944 13.7381
# 3 44.7722 20.8749 97.9317 -15.9842 -6.9040 12.0169
# 4 -8.3534 -12.8752 -15.9842 14.4513 -5.9154 5.5115
# 5 -8.8640 -8.7944 -6.9040 -5.9154 21.7977 -7.7647
# 6 9.3817 13.7381 12.0169 5.5115 -7.7647 39.2405
#
#
#
# Elastic Compliance Matrix: (Units=1/GPa)
#
#
# Indices 1 2 3 4 5 6 
#
# 1 0.017840 -0.006943 -0.007354 -0.003865 0.001525 0.001262
# 2 -0.006943 0.025376 0.005997 0.035609 0.015028 -0.011089
# 3 -0.007354 0.005997 0.018807 0.029270 0.010426 -0.008149
# 4 -0.003865 0.035609 0.029270 0.166319 0.055486 -0.032887
# 5 0.001525 0.015028 0.010426 0.055486 0.069931 -0.002774
# 6 0.001262 -0.011089 -0.008149 -0.032887 -0.002774 0.035630
#
#
# Mechanical properties :
#
#
# Convention : Reuss Voigt Hill
#
# Bulk Modulus (GPa) = 22.01503 50.70953 36.36228
# Shear Modulus (GPa) = 13.67445 25.58824 19.63134
#
# Velocity S-wave (km/s) = 2.53714 3.47064 3.03993
# Velocity P-wave (km/s) = 4.35271 6.31912 5.42574
#
# Compressibility (1/GPa) = 0.04542350
#
# Stress axis : x y z
#
# Youngs Moduli (GPa) = 56.05396 39.40654 53.17044
#
# Poissons Ratio (x) = 0.27360 0.39104
# Poissons Ratio (y) = 0.38918 -0.31887
# Poissons Ratio (z) = 0.41224 -0.23633
#
# Static dielectric constant tensor:
#      x y z
#    x 1.825520 -0.062700 0.016290 
#    y -0.062700 1.786330 -0.013950 
#    z 0.016290 -0.013950 1.734500 
# 
# From -- ./inp_files/112965.got.cif
#   From: 2010.05.17/outbox.cif.g08.bks.cpg/sg2_57_cif.got.tgz:112965.got - 2010.06.03 11:33:40.
