data_PCOD9085860
_publ_section_title
;
Structure prediction by ZEFSAII (Michael W. Deem and Ramdas Pophale) SiO2 
 PCOD9085860
Probable space group: P -1
;
_chemical_formula_sum "Si O2"
_cell_formula_units_Z 16
_cell_length_a 8.016168
_cell_length_b 11.877985
_cell_length_c 14.408281
_cell_angle_alpha 59.581182
_cell_angle_beta 143.433193
_cell_angle_gamma 117.245365
_cell_volume 701.313446
_symmetry_space_group_name_H-M "P -1"
_symmetry_group_IT_number 2
_symmetry_cell_setting 'triclinic'
loop_
_space_group_symop_operation_xyz
x,y,z
-x,-y,-z
loop_
_atom_site_type_symbol
_atom_site_label
_atom_site_fract_x
_atom_site_fract_y
_atom_site_fract_z
Si Si1 0.575579 0.350877 0.006986
Si Si2 0.293057 0.342469 0.064639
Si Si3 0.313267 0.102072 0.655323
Si Si4 0.102494 0.352638 0.376652
Si Si5 0.351295 0.702779 0.145280
Si Si6 0.428509 0.782626 0.595485
Si Si7 0.194697 0.041221 0.429710
Si Si8 0.351881 0.543705 0.538677
O O1 0.324868 0.309403 0.984229
O O2 0.858666 0.341040 0.197698
O O3 0.584792 0.506857 0.928786
O O4 0.583818 0.280203 0.941746
O O5 0.479462 0.254524 0.246003
O O6 0.977672 0.329614 0.967251
O O7 0.116706 0.219604 0.495839
O O8 0.543247 0.171761 0.797204
O O9 0.125287 0.982966 0.669332
O O10 0.383805 0.058587 0.600965
O O11 0.097387 0.476103 0.391884
O O12 0.407162 0.384358 0.450469
O O13 0.506977 0.576976 0.300805
O O14 0.252496 0.906796 0.461802
O O15 0.282896 0.653968 0.533939
O O16 0.713548 0.836562 0.645249
#
# Coordination Sequence:
#
# PCOD9085860 Si02
#       8
#     2   2   2   2   2   2   2   2
#     4  11  22  38  62  99 133 165 196 247 329 395
#     4  11  23  38  62  95 133 165 202 251 321 383
#     4  10  22  43  64  92 120 165 215 261 303 369
#     4  10  19  35  64  96 127 159 197 262 315 373
#     4  11  22  42  66  94 131 165 199 260 325 378
#     4  11  21  41  63  92 122 169 207 265 305 367
#     4  10  23  41  65  85 123 167 222 254 304 358
#     4  10  19  35  63  97 125 159 204 253 323 373
#
# _framework density 22.814335
#
# number of rings (size 3 to 8) (size 9 to 14) (size 15 to 20)
#    0.000    1.500    3.750    1.875    0.000    0.000 
#    9.000    3.125    0.000    0.000    0.000    0.000 
#    0.000    0.000    0.000    0.000    0.000    0.000 
#
# Total GULP energy -89463.408575 kJ/mol
# GULP energy per Si atom -5591.463036 kJ/mol
# Density = 2.276241 g / cm^3
# Si number density = 22.814335 Si / 1000 Ang^3
#
#
#
# Elastic Constant Matrix: (Units=GPa)
#
#
# Indices 1 2 3 4 5 6 
#
# 1 98.7025 15.9768 10.7136 8.6996 -28.2710 -7.1604
# 2 15.9768 96.5219 10.2838 12.7983 -10.7796 -21.3526
# 3 10.7136 10.2838 57.3404 5.0990 -10.5339 -4.3436
# 4 8.6996 12.7983 5.0990 21.0510 -7.4116 -14.5738
# 5 -28.2710 -10.7796 -10.5339 -7.4116 29.6103 -5.3829
# 6 -7.1604 -21.3526 -4.3436 -14.5738 -5.3829 35.3547
#
#
#
# Elastic Compliance Matrix: (Units=1/GPa)
#
#
# Indices 1 2 3 4 5 6 
#
# 1 0.015210 0.000560 0.000480 0.005292 0.017742 0.008361
# 2 0.000560 0.013066 -0.000524 0.000944 0.007051 0.009403
# 3 0.000480 -0.000524 0.019108 0.000840 0.007944 0.003684
# 4 0.005292 0.000944 0.000840 0.086498 0.035117 0.042748
# 5 0.017742 0.007051 0.007944 0.035117 0.071099 0.034129
# 6 0.008361 0.009403 0.003684 0.042748 0.034129 0.058927
#
#
# Mechanical properties :
#
#
# Convention : Reuss Voigt Hill
#
# Bulk Modulus (GPa) = 20.65453 36.27924 28.46688
# Shear Modulus (GPa) = 17.92014 31.57591 24.74802
#
# Velocity S-wave (km/s) = 2.80568 3.72430 3.29714
# Velocity P-wave (km/s) = 4.42366 5.86774 5.19611
#
# Compressibility (1/GPa) = 0.04841554
#
# Stress axis : x y z
#
# Youngs Moduli (GPa) = 65.74425 76.53549 52.33408
#
# Poissons Ratio (x) = -0.04289 -0.02510
# Poissons Ratio (y) = -0.03685 0.02744
# Poissons Ratio (z) = -0.03153 0.04013
#
# Static dielectric constant tensor:
#      x y z
#    x 1.955890 -0.015460 0.001930 
#    y -0.015460 1.841010 0.008060 
#    z 0.001930 0.008060 1.830830 
# 
# From -- ./inp_files/399606.got.cif
#   From: 2010.05.17/outbox.cif.g08.bks.cpg/sg2_200_cif.got.tgz:399606.got - 2010.06.03 11:33:40.
