data_PCOD9085882
_publ_section_title
;
Structure prediction by ZEFSAII (Michael W. Deem and Ramdas Pophale) SiO2 
 PCOD9085882
Probable space group: P -1
;
_chemical_formula_sum "Si O2"
_cell_formula_units_Z 16
_cell_length_a 7.778352
_cell_length_b 10.045434
_cell_length_c 15.662008
_cell_angle_alpha 37.918102
_cell_angle_beta 77.529388
_cell_angle_gamma 66.841387
_cell_volume 681.753582
_symmetry_space_group_name_H-M "P -1"
_symmetry_group_IT_number 2
_symmetry_cell_setting 'triclinic'
loop_
_space_group_symop_operation_xyz
x,y,z
-x,-y,-z
loop_
_atom_site_type_symbol
_atom_site_label
_atom_site_fract_x
_atom_site_fract_y
_atom_site_fract_z
Si Si1 0.098436 0.182407 0.921991
Si Si2 0.441165 0.609547 0.694310
Si Si3 0.660130 0.862898 0.803841
Si Si4 0.712564 0.019720 0.322908
Si Si5 0.159623 0.387886 0.361135
Si Si6 0.478955 0.828335 0.002045
Si Si7 0.796947 0.320030 0.021573
Si Si8 0.178012 0.000844 0.426116
O O1 0.027219 0.395944 0.753953
O O2 0.319114 0.030123 0.968374
O O3 0.993578 0.280688 0.972440
O O4 0.000000 0.000000 0.000000
O O5 0.370380 0.805054 0.677302
O O6 0.664006 0.529461 0.693127
O O7 0.330496 0.744644 0.555934
O O8 0.398996 0.392107 0.843153
O O9 0.469884 0.987047 0.705002
O O10 0.599828 0.920047 0.878669
O O11 0.820691 0.935121 0.705239
O O12 0.716014 0.584610 0.929249
O O13 0.812592 0.138041 0.187267
O O14 0.837753 0.771877 0.476776
O O15 0.217571 0.208977 0.365195
O O16 0.353938 0.720556 0.007926
O O17 0.000000 0.000000 0.500000
#
# Coordination Sequence:
#
# PCOD9085882 Si02
#       8
#     2   2   2   2   2   2   2   2
#     4  10  18  30  47  81 110 136 162 213 260 306
#     4  11  16  32  53  78 104 132 170 213 264 306
#     4  11  16  31  50  76 102 135 171 212 256 301
#     4  10  16  26  49  78  97 132 168 210 257 301
#     4  11  18  32  53  76 108 136 169 211 262 304
#     4  10  18  28  51  77 108 133 168 208 261 308
#     4  10  16  27  48  78 107 129 169 212 256 300
#     4  11  22  33  52  79 106 134 173 218 257 301
#
# _framework density 23.468888
#
# number of rings (size 3 to 8) (size 9 to 14) (size 15 to 20)
#    0.000    1.500    8.750    1.500    0.000    0.000 
#    0.000    7.500    0.000    1.500    0.000    0.000 
#    0.000    0.000    0.000    0.000    0.000    0.000 
#
# Total GULP energy -89426.118212 kJ/mol
# GULP energy per Si atom -5589.132388 kJ/mol
# Density = 2.341547 g / cm^3
# Si number density = 23.468888 Si / 1000 Ang^3
#
#
#
# Elastic Constant Matrix: (Units=GPa)
#
#
# Indices 1 2 3 4 5 6 
#
# 1 55.2131 11.7533 22.5483 3.2795 -0.2622 -15.0261
# 2 11.7533 74.3692 39.0391 9.8301 -3.3233 -21.8436
# 3 22.5483 39.0391 204.4426 19.4547 3.1649 -20.4323
# 4 3.2795 9.8301 19.4547 35.5171 -17.0432 -5.9710
# 5 -0.2622 -3.3233 3.1649 -17.0432 31.1285 1.5414
# 6 -15.0261 -21.8436 -20.4323 -5.9710 1.5414 33.4519
#
#
#
# Elastic Compliance Matrix: (Units=1/GPa)
#
#
# Indices 1 2 3 4 5 6 
#
# 1 0.021042 -0.000077 -0.001489 0.000384 0.000107 0.008556
# 2 -0.000077 0.017797 -0.002254 -0.001677 0.000721 0.009877
# 3 -0.001489 -0.002254 0.005991 -0.003787 -0.002984 0.000980
# 4 0.000384 -0.001677 -0.003787 0.042357 0.023239 0.003254
# 5 0.000107 0.000721 -0.002984 0.023239 0.045192 0.000762
# 6 0.008556 0.009877 0.000980 0.003254 0.000762 0.041330
#
#
# Mechanical properties :
#
#
# Convention : Reuss Voigt Hill
#
# Bulk Modulus (GPa) = 26.88959 53.41181 40.15070
# Shear Modulus (GPa) = 25.80689 37.39846 31.60268
#
# Velocity S-wave (km/s) = 3.31965 3.99624 3.67356
# Velocity P-wave (km/s) = 5.11624 6.64087 5.92778
#
# Compressibility (1/GPa) = 0.03718911
#
# Stress axis : x y z
#
# Youngs Moduli (GPa) = 47.52339 56.18943 166.92903
#
# Poissons Ratio (x) = 0.00431 0.24859
# Poissons Ratio (y) = 0.00365 0.37632
# Poissons Ratio (z) = 0.07077 0.12667
#
# Static dielectric constant tensor:
#      x y z
#    x 2.039290 0.006980 -0.016090 
#    y 0.006980 1.869720 0.031080 
#    z -0.016090 0.031080 1.897920 
# 
# From -- ./inp_files/253004.got.cif
#   From: 2010.05.17/outbox.cif.g08.bks.cpg/sg2_127_cif.got.tgz:253004.got - 2010.06.03 11:33:40.
