data_PCOD9085648
_publ_section_title
;
Structure prediction by ZEFSAII (Michael W. Deem and Ramdas Pophale) SiO2 
 PCOD9085648
Probable space group: P -1
;
_chemical_formula_sum "Si O2"
_cell_formula_units_Z 15
_cell_length_a 8.284511
_cell_length_b 17.799747
_cell_length_c 7.130748
_cell_angle_alpha 44.705903
_cell_angle_beta 129.582011
_cell_angle_gamma 127.727704
_cell_volume 545.020660
_symmetry_space_group_name_H-M "P -1"
_symmetry_group_IT_number 2
_symmetry_cell_setting 'triclinic'
loop_
_space_group_symop_operation_xyz
x,y,z
-x,-y,-z
loop_
_atom_site_type_symbol
_atom_site_label
_atom_site_fract_x
_atom_site_fract_y
_atom_site_fract_z
Si Si1 0.222758 0.451408 0.085301
Si Si2 0.782980 0.052709 0.326091
Si Si3 0.500000 0.000000 0.500000
Si Si4 0.322323 0.647005 0.551788
Si Si5 0.365580 0.121533 0.781956
Si Si6 0.715379 0.440744 0.709604
Si Si7 0.911563 0.720246 0.015846
Si Si8 0.613856 0.785997 0.987701
O O1 0.333388 0.575598 0.868219
O O2 0.963250 0.435187 0.918015
O O3 0.237936 0.357633 0.115754
O O4 0.290776 0.456532 0.343981
O O5 0.765585 0.026818 0.577415
O O6 0.787927 0.961629 0.332608
O O7 0.521175 0.053586 0.117338
O O8 0.931364 0.172600 0.164250
O O9 0.522562 0.132082 0.331573
O O10 0.477569 0.771800 0.400635
O O11 0.335684 0.562858 0.541275
O O12 0.076387 0.659706 0.337773
O O13 0.268822 0.163874 0.817228
O O14 0.566546 0.323929 0.882264
O O15 0.773206 0.760815 0.996895
#
# Coordination Sequence:
#
# PCOD9085648 Si02
#       8
#     2   2   1   2   2   2   2   2
#     4  10  19  35  62  82 109 156 191 229 278 342
#     4   9  18  34  57  79 109 143 186 233 275 337
#     4  10  20  34  58  76 102 152 190 218 282 338
#     4   9  18  36  60  82 112 152 191 230 275 342
#     4   8  17  35  55  79 106 147 185 225 282 332
#     4   9  19  35  56  84 113 148 193 232 279 333
#     4  10  20  35  55  83 120 145 182 237 285 324
#     4  10  21  36  56  80 116 148 182 239 286 334
#
# _framework density 27.521892999999999
#
# number of rings (size 3 to 8) (size 9 to 14) (size 15 to 20)
#    0.000    2.667    0.000    4.000    1.867    1.600 
#    0.000    6.000   14.667    0.000    0.000    0.000 
#    0.000    0.000    0.000    0.000    0.000    0.000 
#
# Total GULP energy -83812.460078 kJ/mol
# GULP energy per Si atom -5587.497339 kJ/mol
# Density = 2.745925 g / cm^3
# Si number density = 27.521893 Si / 1000 Ang^3
#
#
#
# Elastic Constant Matrix: (Units=GPa)
#
#
# Indices 1 2 3 4 5 6 
#
# 1 136.2762 52.7166 21.6197 -11.9850 -23.1092 -37.6384
# 2 52.7166 184.0433 34.2192 7.9064 -16.7862 -20.5731
# 3 21.6197 34.2192 95.0603 -16.7611 5.1598 2.8562
# 4 -11.9850 7.9064 -16.7611 40.9415 0.3516 -6.1300
# 5 -23.1092 -16.7862 5.1598 0.3516 47.1684 -10.5337
# 6 -37.6384 -20.5731 2.8562 -6.1300 -10.5337 63.8718
#
#
#
# Elastic Compliance Matrix: (Units=1/GPa)
#
#
# Indices 1 2 3 4 5 6 
#
# 1 0.012309 -0.001688 -0.002101 0.004270 0.007515 0.008453
# 2 -0.001688 0.006923 -0.002763 -0.002762 0.002288 0.001471
# 3 -0.002101 -0.002763 0.013170 0.004908 -0.004144 -0.002929
# 4 0.004270 -0.002762 0.004908 0.028865 0.001340 0.004399
# 5 0.007515 0.002288 -0.004144 0.001340 0.028410 0.010165
# 6 0.008453 0.001471 -0.002929 0.004399 0.010165 0.023341
#
#
# Mechanical properties :
#
#
# Convention : Reuss Voigt Hill
#
# Bulk Modulus (GPa) = 51.82025 70.27675 61.04850
# Shear Modulus (GPa) = 37.72029 50.85130 44.28580
#
# Velocity S-wave (km/s) = 3.70612 4.30311 4.01573
# Velocity P-wave (km/s) = 6.09782 7.09079 6.61297
#
# Compressibility (1/GPa) = 0.01929747
#
# Stress axis : x y z
#
# Youngs Moduli (GPa) = 81.24131 144.45493 75.92797
#
# Poissons Ratio (x) = 0.24388 0.15950
# Poissons Ratio (y) = 0.13716 0.20981
# Poissons Ratio (z) = 0.17066 0.39917
#
# Static dielectric constant tensor:
#      x y z
#    x 2.039960 0.147080 0.413190 
#    y 0.147080 2.046200 -0.194540 
#    z 0.413190 -0.194540 1.696830 
# 
# From -- ./inp_files/212028.got.cif
#   From: 2010.05.17/outbox.cif.g08.bks.cpg/sg2_107_cif.got.tgz:212028.got - 2010.06.03 11:33:40.
