data_PCOD9085235
_publ_section_title
;
Structure prediction by ZEFSAII (Michael W. Deem and Ramdas Pophale) SiO2 
 PCOD9085235
Probable space group: P -1
;
_chemical_formula_sum "Si O2"
_cell_formula_units_Z 16
_cell_length_a 11.885309
_cell_length_b 20.165953
_cell_length_c 16.017064
_cell_angle_alpha 17.012098
_cell_angle_beta 51.515887
_cell_angle_gamma 41.267607
_cell_volume 641.651435
_symmetry_space_group_name_H-M "P -1"
_symmetry_group_IT_number 2
_symmetry_cell_setting 'triclinic'
loop_
_space_group_symop_operation_xyz
x,y,z
-x,-y,-z
loop_
_atom_site_type_symbol
_atom_site_label
_atom_site_fract_x
_atom_site_fract_y
_atom_site_fract_z
Si Si1 0.038070 0.195773 0.920289
Si Si2 0.659827 0.362627 0.876796
Si Si3 0.769604 0.254738 0.405059
Si Si4 0.577194 0.140795 0.341475
Si Si5 0.197575 0.773513 0.774347
Si Si6 0.734641 0.157609 0.914362
Si Si7 0.711805 0.511776 0.285802
Si Si8 0.284660 0.294262 0.782118
O O1 0.117495 0.129888 0.868296
O O2 0.142179 0.850210 0.320278
O O3 0.130357 0.291658 0.816712
O O4 0.804476 0.413723 0.765901
O O5 0.436164 0.657152 0.596398
O O6 0.757447 0.114273 0.055297
O O7 0.638579 0.232440 0.124588
O O8 0.789627 0.279344 0.267628
O O9 0.740070 0.498623 0.188571
O O10 0.985799 0.926443 0.719799
O O11 0.753418 0.018884 0.471241
O O12 0.500000 0.000000 0.500000
O O13 0.382611 0.429656 0.133976
O O14 0.513300 0.322321 0.796192
O O15 0.750264 0.408497 0.586832
O O16 0.738966 0.679731 0.137707
O O17 0.500000 0.000000 0.000000
#
# Coordination Sequence:
#
# PCOD9085235 Si02
#       8
#     2   2   2   2   2   2   2   2
#     4  11  20  36  59  86 128 171 204 253 312 366
#     4  10  22  38  60  89 126 166 205 259 313 364
#     4   9  19  39  62  86 120 162 207 251 312 374
#     4  10  21  42  70  95 122 158 208 260 323 382
#     4   9  19  41  67  88 123 162 197 260 330 368
#     4  10  20  37  58  86 128 164 206 259 305 366
#     4  10  19  35  59  87 122 160 211 261 300 368
#     4  11  19  35  61  89 118 172 209 247 313 368
#
# _framework density 24.935656000000002
#
# number of rings (size 3 to 8) (size 9 to 14) (size 15 to 20)
#    0.000    2.000    2.500    1.875    0.000    0.500 
#    0.000   29.375    0.000    0.000    0.000    0.000 
#    0.000    0.000    0.000    0.000    0.000    0.000 
#
# Total GULP energy -89345.784649 kJ/mol
# GULP energy per Si atom -5584.111541 kJ/mol
# Density = 2.487890 g / cm^3
# Si number density = 24.935656 Si / 1000 Ang^3
#
#
#
# Elastic Constant Matrix: (Units=GPa)
#
#
# Indices 1 2 3 4 5 6 
#
# 1 220.6381 100.6877 47.6774 -28.4645 -28.2061 -1.9355
# 2 100.6877 164.6198 26.8416 -27.2026 -13.0983 4.6891
# 3 47.6774 26.8416 43.0415 -7.8925 -17.9700 -3.2107
# 4 -28.4645 -27.2026 -7.8925 23.7002 -0.3828 9.9243
# 5 -28.2061 -13.0983 -17.9700 -0.3828 38.3700 -15.5114
# 6 -1.9355 4.6891 -3.2107 9.9243 -15.5114 73.5166
#
#
#
# Elastic Compliance Matrix: (Units=1/GPa)
#
#
# Indices 1 2 3 4 5 6 
#
# 1 0.007901 -0.003130 -0.004963 0.004221 0.002519 0.000153
# 2 -0.003130 0.009456 -0.001367 0.007397 -0.000376 -0.001823
# 3 -0.004963 -0.001367 0.036657 0.003134 0.014806 0.004258
# 4 0.004221 0.007397 0.003134 0.059936 0.004736 -0.007316
# 5 0.002519 -0.000376 0.014806 0.004736 0.038052 0.008126
# 6 0.000153 -0.001823 0.004258 -0.007316 0.008126 0.016611
#
#
# Mechanical properties :
#
#
# Convention : Reuss Voigt Hill
#
# Bulk Modulus (GPa) = 28.49421 86.52364 57.50892
# Shear Modulus (GPa) = 25.09656 43.99021 34.54338
#
# Velocity S-wave (km/s) = 3.17591 4.20473 3.72600
# Velocity P-wave (km/s) = 4.99003 7.63853 6.45165
#
# Compressibility (1/GPa) = 0.03509485
#
# Stress axis : x y z
#
# Youngs Moduli (GPa) = 126.56748 105.75325 27.27984
#
# Poissons Ratio (x) = 0.33097 0.13539
# Poissons Ratio (y) = 0.39611 0.03729
# Poissons Ratio (z) = 0.62816 0.14455
#
# Static dielectric constant tensor:
#      x y z
#    x 2.049950 0.046230 0.053220 
#    y 0.046230 1.959180 0.031870 
#    z 0.053220 0.031870 2.060470 
# 
# From -- ./inp_files/570537.got.cif
#   From: 2010.05.17/outbox.cif.g08.bks.cpg/sg2_286_cif.got.tgz:570537.got - 2010.06.03 11:33:40.
