data_PCOD9085694
_publ_section_title
;
Structure prediction by ZEFSAII (Michael W. Deem and Ramdas Pophale) SiO2 
 PCOD9085694
Probable space group: P -1
;
_chemical_formula_sum "Si O2"
_cell_formula_units_Z 16
_cell_length_a 11.420400
_cell_length_b 15.178450
_cell_length_c 10.841051
_cell_angle_alpha 95.136727
_cell_angle_beta 154.071145
_cell_angle_gamma 87.267141
_cell_volume 816.072275
_symmetry_space_group_name_H-M "P -1"
_symmetry_group_IT_number 2
_symmetry_cell_setting 'triclinic'
loop_
_space_group_symop_operation_xyz
x,y,z
-x,-y,-z
loop_
_atom_site_type_symbol
_atom_site_label
_atom_site_fract_x
_atom_site_fract_y
_atom_site_fract_z
Si Si1 0.307796 0.111910 0.758598
Si Si2 0.223515 0.912208 0.608819
Si Si3 0.840436 0.541579 0.137918
Si Si4 0.952877 0.682883 0.044921
Si Si5 0.507917 0.285913 0.832792
Si Si6 0.336926 0.623791 0.750424
Si Si7 0.032600 0.350539 0.230271
Si Si8 0.550985 0.234156 0.343668
O O1 0.365741 0.192710 0.731475
O O2 0.070876 0.127998 0.633844
O O3 0.218870 0.017634 0.599378
O O4 0.579225 0.100514 0.090315
O O5 0.350169 0.860506 0.610703
O O6 0.887403 0.601892 0.067656
O O7 0.034016 0.586275 0.432932
O O8 0.925464 0.444896 0.176168
O O9 0.536307 0.549615 0.892382
O O10 0.255178 0.720125 0.363542
O O11 0.910987 0.653398 0.861768
O O12 0.752133 0.757275 0.901182
O O13 0.295058 0.333100 0.554467
O O14 0.594833 0.340434 0.045467
O O15 0.785414 0.279592 0.021487
O O16 0.399031 0.705425 0.724464
#
# Coordination Sequence:
#
# PCOD9085694 Si02
#       8
#     2   2   2   2   2   2   2   2
#     4  10  21  35  57  91 122 145 178 228 284 356
#     4  10  19  35  62  90 116 144 183 231 289 335
#     4  10  22  39  59  81 109 146 202 255 273 320
#     4  10  22  39  59  83 108 150 205 245 270 319
#     4  12  24  37  58  83 126 153 179 231 285 371
#     4  10  21  35  57  87 113 146 184 236 303 330
#     4  12  25  39  57  79 115 165 194 227 287 335
#     4  10  19  35  63  86 111 141 189 250 283 322
#
# _framework density 19.606106
#
# number of rings (size 3 to 8) (size 9 to 14) (size 15 to 20)
#    0.000    1.500    1.250    4.125    3.500    3.000 
#    0.000    5.000    0.000    4.500    0.000    0.000 
#    0.000    0.000    0.000    0.000    0.000    0.000 
#
# Total GULP energy -89459.006003 kJ/mol
# GULP energy per Si atom -5591.187875 kJ/mol
# Density = 1.956148 g / cm^3
# Si number density = 19.606106 Si / 1000 Ang^3
#
#
#
# Elastic Constant Matrix: (Units=GPa)
#
#
# Indices 1 2 3 4 5 6 
#
# 1 56.2959 22.5000 38.4999 -2.6352 -15.7402 5.6045
# 2 22.5000 62.6647 15.0456 0.4222 -8.9406 -1.3405
# 3 38.4999 15.0456 86.8104 -13.6155 -2.3872 6.8389
# 4 -2.6352 0.4222 -13.6155 19.4086 2.2776 6.4034
# 5 -15.7402 -8.9406 -2.3872 2.2776 32.7001 -1.2683
# 6 5.6045 -1.3405 6.8389 6.4034 -1.2683 16.2379
#
#
#
# Elastic Compliance Matrix: (Units=1/GPa)
#
#
# Indices 1 2 3 4 5 6 
#
# 1 0.034148 -0.006893 -0.014255 -0.005856 0.013805 -0.002964
# 2 -0.006893 0.019331 -0.001536 -0.004956 0.002463 0.006769
# 3 -0.014255 -0.001536 0.021711 0.018195 -0.007434 -0.012106
# 4 -0.005856 -0.004956 0.018195 0.076995 -0.009650 -0.037168
# 5 0.013805 0.002463 -0.007434 -0.009650 0.038237 0.005362
# 6 -0.002964 0.006769 -0.012106 -0.037168 0.005362 0.083340
#
#
# Mechanical properties :
#
#
# Convention : Reuss Voigt Hill
#
# Bulk Modulus (GPa) = 33.53307 39.76246 36.64777
# Shear Modulus (GPa) = 15.19432 22.31770 18.75601
#
# Velocity S-wave (km/s) = 2.78686 3.37754 3.09632
# Velocity P-wave (km/s) = 5.24366 5.96112 5.61387
#
# Compressibility (1/GPa) = 0.02982131
#
# Stress axis : x y z
#
# Youngs Moduli (GPa) = 29.28470 51.72962 46.06021
#
# Poissons Ratio (x) = 0.35655 0.65659
# Poissons Ratio (y) = 0.20185 0.07077
# Poissons Ratio (z) = 0.41745 0.07948
#
# Static dielectric constant tensor:
#      x y z
#    x 1.670450 -0.000650 0.009580 
#    y -0.000650 1.707340 0.008540 
#    z 0.009580 0.008540 1.675450 
# 
# From -- ./inp_files/108855.got.cif
#   From: 2010.05.17/outbox.cif.g08.bks.cpg/sg2_55_cif.got.tgz:108855.got - 2010.06.03 11:33:40.
