data_PCOD9085153
_publ_section_title
;
Structure prediction by ZEFSAII (Michael W. Deem and Ramdas Pophale) SiO2 
 PCOD9085153
Probable space group: P -1
;
_chemical_formula_sum "Si O2"
_cell_formula_units_Z 16
_cell_length_a 11.081276
_cell_length_b 11.439706
_cell_length_c 10.198775
_cell_angle_alpha 96.512586
_cell_angle_beta 126.715180
_cell_angle_gamma 43.445651
_cell_volume 579.732049
_symmetry_space_group_name_H-M "P -1"
_symmetry_group_IT_number 2
_symmetry_cell_setting 'triclinic'
loop_
_space_group_symop_operation_xyz
x,y,z
-x,-y,-z
loop_
_atom_site_type_symbol
_atom_site_label
_atom_site_fract_x
_atom_site_fract_y
_atom_site_fract_z
Si Si1 0.344637 0.533498 0.788482
Si Si2 0.790851 0.029511 0.761795
Si Si3 0.768235 0.224277 0.457730
Si Si4 0.197951 0.422338 0.399358
Si Si5 0.082160 0.071339 0.877525
Si Si6 0.353250 0.276763 0.890613
Si Si7 0.356656 0.292911 0.198462
Si Si8 0.750969 0.871460 0.492945
O O1 0.416446 0.567829 0.717312
O O2 0.365270 0.382586 0.815862
O O3 0.022319 0.749072 0.595112
O O4 0.500000 0.500000 0.000000
O O5 0.493340 0.282340 0.609470
O O6 0.735766 0.952107 0.629179
O O7 0.901941 0.910744 0.957233
O O8 0.015016 0.972509 0.839240
O O9 0.583946 0.237057 0.382947
O O10 0.000000 0.000000 0.500000
O O11 0.865764 0.236522 0.647150
O O12 0.167357 0.431397 0.220684
O O13 0.220429 0.281276 0.468612
O O14 0.898240 0.647675 0.284626
O O15 0.345526 0.956287 0.967268
O O16 0.320548 0.342630 0.027615
O O17 0.491669 0.077025 0.269621
#
# Coordination Sequence:
#
# PCOD9085153 Si02
#       8
#     2   2   2   2   2   2   2   2
#     4  11  19  30  54  87 114 139 179 242 285 319
#     4  10  20  36  58  82 112 148 194 225 271 335
#     4  12  18  33  58  84 112 142 192 236 272 330
#     4  10  22  36  58  87 117 144 182 238 284 328
#     4  11  21  36  60  82 109 154 191 226 269 340
#     4  11  22  34  55  86 116 147 181 233 288 329
#     4  11  18  33  56  82 114 144 189 226 276 331
#     4  10  19  35  59  83 112 146 190 232 274 332
#
# _framework density 27.598956999999999
#
# number of rings (size 3 to 8) (size 9 to 14) (size 15 to 20)
#    0.000    1.250    6.250    2.625    0.000    0.500 
#    0.000    0.000    0.000   27.750    0.000    0.000 
#    0.000    0.000    0.000    0.000    0.000    0.000 
#
# Total GULP energy -89234.014531 kJ/mol
# GULP energy per Si atom -5577.125908 kJ/mol
# Density = 2.753614 g / cm^3
# Si number density = 27.598957 Si / 1000 Ang^3
#
#
#
# Elastic Constant Matrix: (Units=GPa)
#
#
# Indices 1 2 3 4 5 6 
#
# 1 127.3926 30.3550 35.6780 -2.2428 5.1270 -17.2688
# 2 30.3550 36.0875 33.2449 11.8160 7.2755 8.4547
# 3 35.6780 33.2449 112.5543 25.8019 -18.4906 -10.9394
# 4 -2.2428 11.8160 25.8019 29.0754 -10.9943 -3.2196
# 5 5.1270 7.2755 -18.4906 -10.9943 75.6980 -8.2902
# 6 -17.2688 8.4547 -10.9394 -3.2196 -8.2902 37.4785
#
#
#
# Elastic Compliance Matrix: (Units=1/GPa)
#
#
# Indices 1 2 3 4 5 6 
#
# 1 0.014567 -0.021341 0.000997 0.012188 0.004598 0.013881
# 2 -0.021341 0.089218 -0.019686 -0.033375 -0.021531 -0.043335
# 3 0.000997 -0.019686 0.017400 -0.003563 0.006781 0.011173
# 4 0.012188 -0.033375 -0.003563 0.058887 0.012241 0.019871
# 5 0.004598 -0.021531 0.006781 0.012241 0.019983 0.014427
# 6 0.013881 -0.043335 0.011173 0.019871 0.014427 0.051013
#
#
# Mechanical properties :
#
#
# Convention : Reuss Voigt Hill
#
# Bulk Modulus (GPa) = 24.31633 52.73223 38.52428
# Shear Modulus (GPa) = 14.49964 40.23415 27.36689
#
# Velocity S-wave (km/s) = 2.29458 3.82228 3.15237
# Velocity P-wave (km/s) = 3.98119 6.21513 5.21908
#
# Compressibility (1/GPa) = 0.04112463
#
# Stress axis : x y z
#
# Youngs Moduli (GPa) = 68.64849 11.20851 57.47212
#
# Poissons Ratio (x) = 0.23920 -0.05727
# Poissons Ratio (y) = 1.46503 1.13137
# Poissons Ratio (z) = -0.06841 0.22065
#
# Static dielectric constant tensor:
#      x y z
#    x 2.130500 -0.070860 0.004540 
#    y -0.070860 2.359110 -0.119610 
#    z 0.004540 -0.119610 2.248090 
# 
# From -- ./inp_files/432903.got.cif
#   From: 2010.05.17/outbox.cif.g08.bks.cpg/sg2_217_cif.got.tgz:432903.got - 2010.06.03 11:33:40.
