data_PCOD9085226
_publ_section_title
;
Structure prediction by ZEFSAII (Michael W. Deem and Ramdas Pophale) SiO2 
 PCOD9085226
Probable space group: P -1
;
_chemical_formula_sum "Si O2"
_cell_formula_units_Z 14
_cell_length_a 8.406129
_cell_length_b 15.500148
_cell_length_c 9.058124
_cell_angle_alpha 33.830371
_cell_angle_beta 83.468469
_cell_angle_gamma 98.294773
_cell_volume 588.866961
_symmetry_space_group_name_H-M "P -1"
_symmetry_group_IT_number 2
_symmetry_cell_setting 'triclinic'
loop_
_space_group_symop_operation_xyz
x,y,z
-x,-y,-z
loop_
_atom_site_type_symbol
_atom_site_label
_atom_site_fract_x
_atom_site_fract_y
_atom_site_fract_z
Si Si1 0.021923 0.349206 0.622171
Si Si2 0.130440 0.866452 0.605397
Si Si3 0.738334 0.768548 0.749693
Si Si4 0.415343 0.133892 0.636698
Si Si5 0.754942 0.164059 0.677381
Si Si6 0.582646 0.449089 0.701082
Si Si7 0.715566 0.172261 0.094025
O O1 0.225734 0.393476 0.512934
O O2 0.000000 0.500000 0.500000
O O3 0.918459 0.310215 0.535440
O O4 0.898983 0.193232 0.964606
O O5 0.189388 0.900411 0.383763
O O6 0.226844 0.773832 0.821732
O O7 0.919424 0.750951 0.784227
O O8 0.201556 0.046369 0.433732
O O9 0.688936 0.777699 0.568863
O O10 0.563701 0.627219 0.047175
O O11 0.609684 0.231860 0.547027
O O12 0.427932 0.014522 0.670106
O O13 0.319782 0.996918 0.972292
O O14 0.500000 0.500000 0.500000
O O15 0.634812 0.296386 0.865866
#
# Coordination Sequence:
#
# PCOD9085226 Si02
#       7
#     2   2   2   2   2   2   2
#     4   9  20  38  56  79 113 154 189 227 281 342
#     4  10  20  36  61  88 115 148 187 241 290 333
#     4  10  21  37  57  87 121 149 187 235 288 336
#     4   9  19  36  60  88 113 144 188 244 290 331
#     4  10  19  35  59  87 113 147 192 233 287 341
#     4  11  21  35  58  83 110 152 196 229 273 345
#     4   9  18  37  61  84 114 148 189 235 290 340
#
# _framework density 23.774470000000001
#
# number of rings (size 3 to 8) (size 9 to 14) (size 15 to 20)
#    0.000    2.286    0.000    2.571    0.000    5.143 
#    0.000   12.857    0.000    0.000    0.000    0.000 
#    0.000    0.000    0.000    0.000    0.000    0.000 
#
# Total GULP energy -78025.957851 kJ/mol
# GULP energy per Si atom -5573.282704 kJ/mol
# Density = 2.372036 g / cm^3
# Si number density = 23.774470 Si / 1000 Ang^3
#
#
#
# Elastic Constant Matrix: (Units=GPa)
#
#
# Indices 1 2 3 4 5 6 
#
# 1 136.5913 52.7899 67.3511 11.8847 -15.3831 61.4599
# 2 52.7899 103.8388 31.9775 26.3866 -3.9566 48.8294
# 3 67.3511 31.9775 83.9625 21.6695 -16.7510 30.2434
# 4 11.8847 26.3866 21.6695 30.5077 6.6432 4.3024
# 5 -15.3831 -3.9566 -16.7510 6.6432 47.2497 -2.4470
# 6 61.4599 48.8294 30.2434 4.3024 -2.4470 48.9995
#
#
#
# Elastic Compliance Matrix: (Units=1/GPa)
#
#
# Indices 1 2 3 4 5 6 
#
# 1 0.023131 0.006120 -0.007962 -0.005461 0.004461 -0.029495
# 2 0.006120 0.031857 0.007942 -0.031936 0.009841 -0.041029
# 3 -0.007962 0.007942 0.028355 -0.024488 0.010909 -0.012734
# 4 -0.005461 -0.031936 -0.024488 0.078194 -0.021754 0.045837
# 5 0.004461 0.009841 0.010909 -0.021754 0.029395 -0.018757
# 6 -0.029495 -0.041029 -0.012734 0.045837 -0.018757 0.101190
#
#
# Mechanical properties :
#
#
# Convention : Reuss Voigt Hill
#
# Bulk Modulus (GPa) = 10.46638 69.84772 40.15705
# Shear Modulus (GPa) = 16.03750 36.83632 26.43691
#
# Velocity S-wave (km/s) = 2.60006 3.94052 3.33827
# Velocity P-wave (km/s) = 3.66411 7.08143 5.63792
#
# Compressibility (1/GPa) = 0.09554398
#
# Stress axis : x y z
#
# Youngs Moduli (GPa) = 43.23262 31.39007 35.26681
#
# Poissons Ratio (x) = -0.19211 0.28079
# Poissons Ratio (y) = -0.26459 -0.28010
# Poissons Ratio (z) = 0.34421 -0.24931
#
# Static dielectric constant tensor:
#      x y z
#    x 1.981240 -0.005900 -0.004490 
#    y -0.005900 1.901240 -0.043060 
#    z -0.004490 -0.043060 2.109880 
# 
# From -- ./inp_files/189988.got.cif
#   From: 2010.05.17/outbox.cif.g08.bks.cpg/sg2_95_cif.got.tgz:189988.got - 2010.06.03 11:33:40.
