data_PCOD9085717
_publ_section_title
;
Structure prediction by ZEFSAII (Michael W. Deem and Ramdas Pophale) SiO2 
 PCOD9085717
Probable space group: P -1
;
_chemical_formula_sum "Si O2"
_cell_formula_units_Z 16
_cell_length_a 8.482187
_cell_length_b 15.568540
_cell_length_c 9.531858
_cell_angle_alpha 65.532101
_cell_angle_beta 103.400440
_cell_angle_gamma 51.053933
_cell_volume 640.523395
_symmetry_space_group_name_H-M "P -1"
_symmetry_group_IT_number 2
_symmetry_cell_setting 'triclinic'
loop_
_space_group_symop_operation_xyz
x,y,z
-x,-y,-z
loop_
_atom_site_type_symbol
_atom_site_label
_atom_site_fract_x
_atom_site_fract_y
_atom_site_fract_z
Si Si1 0.794501 0.685497 0.818109
Si Si2 0.854203 0.395529 0.650893
Si Si3 0.322737 0.112054 0.527533
Si Si4 0.793581 0.245083 0.238952
Si Si5 0.291514 0.740107 0.281263
Si Si6 0.543358 0.859664 0.932032
Si Si7 0.329269 0.532158 0.121037
Si Si8 0.960481 0.033179 0.178140
O O1 0.705569 0.762312 0.592619
O O2 0.584686 0.787604 0.837425
O O3 0.000000 0.500000 0.000000
O O4 0.013225 0.664508 0.915817
O O5 0.617309 0.573623 0.410666
O O6 0.838623 0.295961 0.661976
O O7 0.701936 0.457601 0.728565
O O8 0.169146 0.279964 0.824246
O O9 0.031991 0.191440 0.405946
O O10 0.500000 0.000000 0.500000
O O11 0.475038 0.999538 0.773477
O O12 0.546617 0.351031 0.230167
O O13 0.945321 0.090825 0.287072
O O14 0.619265 0.390073 0.988342
O O15 0.109716 0.856352 0.029520
O O16 0.238237 0.846339 0.312883
O O17 0.288472 0.926197 0.905367
#
# Coordination Sequence:
#
# PCOD9085717 Si02
#       8
#     2   2   2   2   2   2   2   2
#     4   9  17  35  54  87 130 160 194 239 306 385
#     4  10  21  45  65  85 122 174 210 256 317 382
#     4   9  20  36  56  88 128 172 191 243 326 383
#     4  10  19  35  62  91 130 158 199 255 314 386
#     4  10  24  43  66  83 122 173 219 260 311 362
#     4  10  22  38  62  91 127 160 207 259 312 373
#     4   9  18  33  62  89 120 161 196 247 319 375
#     4  11  23  41  63  97 123 161 217 272 302 360
#
# _framework density 24.979572000000001
#
# number of rings (size 3 to 8) (size 9 to 14) (size 15 to 20)
#    0.000    2.250    1.250    1.500    1.750    1.500 
#    9.000    0.000    0.000    0.000    0.000    0.000 
#    0.000    0.000    0.000    0.000    0.000    0.000 
#
# Total GULP energy -89243.205144 kJ/mol
# GULP energy per Si atom -5577.700322 kJ/mol
# Density = 2.492272 g / cm^3
# Si number density = 24.979572 Si / 1000 Ang^3
#
#
#
# Elastic Constant Matrix: (Units=GPa)
#
#
# Indices 1 2 3 4 5 6 
#
# 1 49.0800 2.7902 25.9747 -9.5088 11.9649 -2.3370
# 2 2.7902 88.7458 10.5402 -19.6864 -0.7666 10.6782
# 3 25.9747 10.5402 90.5230 -20.4862 -1.2880 12.6229
# 4 -9.5088 -19.6864 -20.4862 28.6797 5.1309 -2.1788
# 5 11.9649 -0.7666 -1.2880 5.1309 42.2259 -8.8694
# 6 -2.3370 10.6782 12.6229 -2.1788 -8.8694 30.1842
#
#
#
# Elastic Compliance Matrix: (Units=1/GPa)
#
#
# Indices 1 2 3 4 5 6 
#
# 1 0.027403 0.000992 -0.007030 0.006415 -0.008157 0.002777
# 2 0.000992 0.014148 0.001268 0.010975 -0.002451 -0.005386
# 3 -0.007030 0.001268 0.016046 0.009489 -0.000131 -0.007057
# 4 0.006415 0.010975 0.009489 0.052446 -0.009007 -0.006215
# 5 -0.008157 -0.002451 -0.000131 -0.009007 0.028738 0.008084
# 6 0.002777 -0.005386 -0.007057 -0.006215 0.008084 0.040128
#
#
# Mechanical properties :
#
#
# Convention : Reuss Voigt Hill
#
# Bulk Modulus (GPa) = 20.80869 34.10655 27.45762
# Shear Modulus (GPa) = 24.45380 32.82087 28.63733
#
# Velocity S-wave (km/s) = 3.13221 3.62872 3.38957
# Velocity P-wave (km/s) = 4.62919 5.58930 5.13175
#
# Compressibility (1/GPa) = 0.04805684
#
# Stress axis : x y z
#
# Youngs Moduli (GPa) = 36.49276 70.68157 62.32084
#
# Poissons Ratio (x) = -0.07011 0.43811
# Poissons Ratio (y) = -0.03620 -0.07903
# Poissons Ratio (z) = 0.25654 -0.08963
#
# Static dielectric constant tensor:
#      x y z
#    x 2.064880 0.045760 -0.115670 
#    y 0.045760 2.019140 -0.016760 
#    z -0.115670 -0.016760 2.175600 
# 
# From -- ./inp_files/402028.got.cif
#   From: 2010.05.17/outbox.cif.g08.bks.cpg/sg2_202_cif.got.tgz:402028.got - 2010.06.03 11:33:40.
