data_PCOD9085067
_publ_section_title
;
Structure prediction by ZEFSAII (Michael W. Deem and Ramdas Pophale) SiO2 
 PCOD9085067
Probable space group: P -1
;
_chemical_formula_sum "Si O2"
_cell_formula_units_Z 16
_cell_length_a 13.215747
_cell_length_b 8.845203
_cell_length_c 9.998663
_cell_angle_alpha 123.658805
_cell_angle_beta 47.683549
_cell_angle_gamma 134.189867
_cell_volume 611.689751
_symmetry_space_group_name_H-M "P -1"
_symmetry_group_IT_number 2
_symmetry_cell_setting 'triclinic'
loop_
_space_group_symop_operation_xyz
x,y,z
-x,-y,-z
loop_
_atom_site_type_symbol
_atom_site_label
_atom_site_fract_x
_atom_site_fract_y
_atom_site_fract_z
Si Si1 0.602555 0.185937 0.340846
Si Si2 0.731410 0.378101 0.038995
Si Si3 0.814555 0.906580 0.459030
Si Si4 0.072607 0.806851 0.231848
Si Si5 0.470249 0.460809 0.333392
Si Si6 0.240740 0.842532 0.569342
Si Si7 0.675034 0.382559 0.795569
Si Si8 0.676080 0.773280 0.932106
O O1 0.583596 0.372004 0.514733
O O2 0.737326 0.173065 0.301321
O O3 0.425202 0.986096 0.424043
O O4 0.646163 0.226063 0.166812
O O5 0.674396 0.288909 0.895963
O O6 0.903444 0.393926 0.894113
O O7 0.658031 0.531272 0.196011
O O8 0.879820 0.078301 0.607766
O O9 0.627807 0.729034 0.564876
O O10 0.840930 0.039107 0.365043
O O11 0.902244 0.773906 0.329832
O O12 0.190218 0.990411 0.111868
O O13 0.392686 0.342888 0.206004
O O14 0.202691 0.630632 0.420521
O O15 0.736922 0.633089 0.879294
O O16 0.485191 0.272157 0.872956
#
# Coordination Sequence:
#
# PCOD9085067 Si02
#       8
#     2   2   2   2   2   2   2   2
#     4  11  23  36  57  90 119 152 190 239 290 342
#     4  11  21  36  60  88 114 151 195 238 286 340
#     4  10  21  38  61  85 116 156 192 241 284 347
#     4  10  21  38  59  88 117 152 195 237 293 335
#     4  10  20  37  58  85 120 152 190 238 290 340
#     4  11  21  37  59  85 118 153 192 236 288 349
#     4  10  19  35  58  88 114 147 195 244 290 324
#     4   9  19  33  57  86 119 146 187 249 284 338
#
# _framework density 26.157050999999999
#
# number of rings (size 3 to 8) (size 9 to 14) (size 15 to 20)
#    0.000    1.750    3.750    1.125    0.000    2.000 
#    0.000    3.125    0.000    0.000    0.000    0.000 
#    0.000    0.000    0.000    0.000    0.000    0.000 
#
# Total GULP energy -89288.723702 kJ/mol
# GULP energy per Si atom -5580.545231 kJ/mol
# Density = 2.609752 g / cm^3
# Si number density = 26.157051 Si / 1000 Ang^3
#
#
#
# Elastic Constant Matrix: (Units=GPa)
#
#
# Indices 1 2 3 4 5 6 
#
# 1 89.8774 17.6402 32.7457 9.6373 -15.0103 -35.6711
# 2 17.6402 49.7393 9.1270 6.6146 -12.2484 -17.6161
# 3 32.7457 9.1270 70.7691 18.4230 -17.2927 -9.7422
# 4 9.6373 6.6146 18.4230 35.5227 -22.3475 -0.5568
# 5 -15.0103 -12.2484 -17.2927 -22.3475 45.0455 -2.4728
# 6 -35.6711 -17.6161 -9.7422 -0.5568 -2.4728 42.5590
#
#
#
# Elastic Compliance Matrix: (Units=1/GPa)
#
#
# Indices 1 2 3 4 5 6 
#
# 1 0.020822 0.001156 -0.006313 0.001884 0.006692 0.016899
# 2 0.001156 0.026023 -0.000308 0.000334 0.008176 0.012150
# 3 -0.006313 -0.000308 0.019211 -0.007241 0.001539 -0.001026
# 4 0.001884 0.000334 -0.007241 0.043794 0.019763 0.001781
# 5 0.006692 0.008176 0.001539 0.019763 0.037696 0.011794
# 6 0.016899 0.012150 -0.001026 0.001781 0.011794 0.043163
#
#
# Mechanical properties :
#
#
# Convention : Reuss Voigt Hill
#
# Bulk Modulus (GPa) = 18.13983 36.60127 27.37055
# Shear Modulus (GPa) = 22.72590 34.68365 28.70477
#
# Velocity S-wave (km/s) = 2.95078 3.64535 3.31630
# Velocity P-wave (km/s) = 4.30807 5.63395 5.01502
#
# Compressibility (1/GPa) = 0.05512730
#
# Stress axis : x y z
#
# Youngs Moduli (GPa) = 48.02686 38.42736 52.05354
#
# Poissons Ratio (x) = -0.04443 0.32859
# Poissons Ratio (y) = -0.05553 0.01602
# Poissons Ratio (z) = 0.30318 0.01183
#
# Static dielectric constant tensor:
#      x y z
#    x 2.109200 0.002710 0.027420 
#    y 0.002710 2.156430 0.090790 
#    z 0.027420 0.090790 2.127150 
# 
# From -- ./inp_files/444865.got.cif
#   From: 2010.05.17/outbox.cif.g08.bks.cpg/sg2_223_cif.got.tgz:444865.got - 2010.06.03 11:33:40.
