data_PCOD9085257
_publ_section_title
;
Structure prediction by ZEFSAII (Michael W. Deem and Ramdas Pophale) SiO2 
 PCOD9085257
Probable space group: P -1
;
_chemical_formula_sum "Si O2"
_cell_formula_units_Z 16
_cell_length_a 20.079798
_cell_length_b 14.216704
_cell_length_c 8.341444
_cell_angle_alpha 62.611877
_cell_angle_beta 120.005718
_cell_angle_gamma 158.482875
_cell_volume 756.225459
_symmetry_space_group_name_H-M "P -1"
_symmetry_group_IT_number 2
_symmetry_cell_setting 'triclinic'
loop_
_space_group_symop_operation_xyz
x,y,z
-x,-y,-z
loop_
_atom_site_type_symbol
_atom_site_label
_atom_site_fract_x
_atom_site_fract_y
_atom_site_fract_z
Si Si1 0.199696 0.260172 0.447840
Si Si2 0.053541 0.526397 0.363105
Si Si3 0.537410 0.622550 0.800590
Si Si4 0.563015 0.899201 0.683419
Si Si5 0.379373 0.718244 0.265716
Si Si6 0.722074 0.217261 0.087021
Si Si7 0.220910 0.554990 0.720847
Si Si8 0.908669 0.986703 0.815450
O O1 0.366620 0.416874 0.629649
O O2 0.259562 0.458720 0.326271
O O3 0.169285 0.155758 0.332966
O O4 0.000000 0.000000 0.500000
O O5 0.133385 0.510881 0.502720
O O6 0.000000 0.500000 0.500000
O O7 0.877835 0.322997 0.198629
O O8 0.222593 0.804758 0.278346
O O9 0.548111 0.755174 0.772873
O O10 0.733516 0.828352 0.805222
O O11 0.500000 0.500000 0.000000
O O12 0.492303 0.855822 0.460334
O O13 0.425555 0.773524 0.748214
O O14 0.531906 0.920420 0.146816
O O15 0.277791 0.703673 0.126550
O O16 0.769147 0.358201 0.179470
O O17 0.080337 0.282701 0.784553
O O18 0.000000 0.000000 0.000000
#
# Coordination Sequence:
#
# PCOD9085257 Si02
#       8
#     2   2   2   2   2   2   2   2
#     4  11  24  42  64  94 133 171 214 265 321 385
#     4  10  19  35  59  89 116 157 204 245 307 372
#     4  11  24  42  66  93 127 170 218 267 322 381
#     4  11  21  39  63  89 125 158 206 261 315 378
#     4  10  21  38  63  86 126 159 202 253 321 366
#     4  10  21  38  63  92 120 163 205 257 316 381
#     4  11  22  37  65  90 122 162 210 256 316 378
#     4  12  24  42  65  95 128 170 217 262 323 387
#
# _framework density 21.157710999999999
#
# number of rings (size 3 to 8) (size 9 to 14) (size 15 to 20)
#    0.000    1.250    2.500    6.000    1.750    1.000 
#    0.000    0.625    0.000    0.000    0.000    0.000 
#    0.000    0.000    0.000    0.000    0.000    0.000 
#
# Total GULP energy -89358.120998 kJ/mol
# GULP energy per Si atom -5584.882562 kJ/mol
# Density = 2.110955 g / cm^3
# Si number density = 21.157711 Si / 1000 Ang^3
#
#
#
# Elastic Constant Matrix: (Units=GPa)
#
#
# Indices 1 2 3 4 5 6 
#
# 1 74.0057 23.2859 26.2553 -0.0636 12.5186 4.2107
# 2 23.2859 129.9974 35.4400 -14.9888 14.9196 1.1821
# 3 26.2553 35.4400 119.7510 -6.9338 31.6956 -5.3015
# 4 -0.0636 -14.9888 -6.9338 28.2477 4.9044 12.0424
# 5 12.5186 14.9196 31.6956 4.9044 32.7899 4.3005
# 6 4.2107 1.1821 -5.3015 12.0424 4.3005 33.9132
#
#
#
# Elastic Compliance Matrix: (Units=1/GPa)
#
#
# Indices 1 2 3 4 5 6 
#
# 1 0.015436 -0.001876 -0.002237 -0.000307 -0.002601 -0.001762
# 2 -0.001876 0.009452 -0.001358 0.006077 -0.002906 -0.002098
# 3 -0.002237 -0.001358 0.012601 0.003262 -0.011537 0.002599
# 4 -0.000307 0.006077 0.003262 0.047833 -0.010954 -0.015260
# 5 -0.002601 -0.002906 -0.011537 -0.010954 0.046039 -0.003328
# 6 -0.001762 -0.002098 0.002599 -0.015260 -0.003328 0.036026
#
#
# Mechanical properties :
#
#
# Convention : Reuss Voigt Hill
#
# Bulk Modulus (GPa) = 37.66866 54.85738 46.26302
# Shear Modulus (GPa) = 26.71261 34.90835 30.81048
#
# Velocity S-wave (km/s) = 3.55709 4.06632 3.82020
# Velocity P-wave (km/s) = 5.89177 6.93042 6.43209
#
# Compressibility (1/GPa) = 0.02654727
#
# Stress axis : x y z
#
# Youngs Moduli (GPa) = 64.78285 105.79832 79.36180
#
# Poissons Ratio (x) = 0.19850 0.17750
# Poissons Ratio (y) = 0.12155 0.10777
# Poissons Ratio (z) = 0.14489 0.14367
#
# Static dielectric constant tensor:
#      x y z
#    x 1.757390 0.049350 -0.028340 
#    y 0.049350 1.765780 0.019140 
#    z -0.028340 0.019140 1.780030 
# 
# From -- ./inp_files/347197.got.cif
#   From: 2010.05.17/outbox.cif.g08.bks.cpg/sg2_174_cif.got.tgz:347197.got - 2010.06.03 11:33:40.
