data_PCOD9085131
_publ_section_title
;
Structure prediction by ZEFSAII (Michael W. Deem and Ramdas Pophale) SiO2 
 PCOD9085131
Probable space group: P -1
;
_chemical_formula_sum "Si O2"
_cell_formula_units_Z 14
_cell_length_a 8.341701
_cell_length_b 5.130545
_cell_length_c 27.993796
_cell_angle_alpha 87.621008
_cell_angle_beta 27.067119
_cell_angle_gamma 84.475434
_cell_volume 540.035128
_symmetry_space_group_name_H-M "P -1"
_symmetry_group_IT_number 2
_symmetry_cell_setting 'triclinic'
loop_
_space_group_symop_operation_xyz
x,y,z
-x,-y,-z
loop_
_atom_site_type_symbol
_atom_site_label
_atom_site_fract_x
_atom_site_fract_y
_atom_site_fract_z
Si Si1 0.515670 0.273073 0.773438
Si Si2 0.154271 0.015445 0.397993
Si Si3 0.824186 0.279945 0.902895
Si Si4 0.539133 0.105896 0.379971
Si Si5 0.496597 0.594662 0.445626
Si Si6 0.379610 0.058629 0.956243
Si Si7 0.372072 0.755307 0.872175
O O1 0.567510 0.516756 0.791540
O O2 0.191060 0.370257 0.822079
O O3 0.804600 0.129676 0.662241
O O4 0.429052 0.033913 0.831358
O O5 0.517529 0.040988 0.329964
O O6 0.921364 0.297399 0.451784
O O7 0.890011 0.848433 0.497456
O O8 0.725497 0.189010 0.877036
O O9 0.500000 0.500000 0.000000
O O10 0.786547 0.035872 0.950084
O O11 0.657473 0.365365 0.368624
O O12 0.664958 0.856246 0.382380
O O13 0.500000 0.500000 0.500000
O O14 0.468602 0.805253 0.900791
O O15 0.054918 0.250489 0.017824
#
# Coordination Sequence:
#
# PCOD9085131 Si02
#       7
#     2   2   2   2   2   2   2
#     4  11  23  36  58  85 117 148 195 241 288 329
#     4   9  22  36  62  82 118 149 200 233 283 351
#     4  10  19  35  59  81 109 155 189 240 280 336
#     4   9  20  36  61  85 108 159 192 227 287 352
#     4  10  19  35  61  86 111 146 192 235 284 347
#     4   9  20  36  57  80 112 149 202 230 283 352
#     4  10  22  36  57  85 110 155 189 239 289 339
#
# _framework density 25.924237000000002
#
# number of rings (size 3 to 8) (size 9 to 14) (size 15 to 20)
#    0.857    1.429    1.429    0.857    4.000    1.714 
#    0.000    1.429    3.143    0.000    0.000    0.000 
#    0.000    0.000    0.000    0.000    0.000    0.000 
#
# Total GULP energy -78127.166956 kJ/mol
# GULP energy per Si atom -5580.511925 kJ/mol
# Density = 2.586523 g / cm^3
# Si number density = 25.924237 Si / 1000 Ang^3
#
#
#
# Elastic Constant Matrix: (Units=GPa)
#
#
# Indices 1 2 3 4 5 6 
#
# 1 131.2609 49.4787 11.1530 13.3113 14.8243 14.8091
# 2 49.4787 138.7400 14.2921 47.0226 4.1106 10.8513
# 3 11.1530 14.2921 35.1619 13.1772 7.9568 7.5695
# 4 13.3113 47.0226 13.1772 28.7294 11.0637 8.6115
# 5 14.8243 4.1106 7.9568 11.0637 33.4154 11.0433
# 6 14.8091 10.8513 7.5695 8.6115 11.0433 50.0255
#
#
#
# Elastic Compliance Matrix: (Units=1/GPa)
#
#
# Indices 1 2 3 4 5 6 
#
# 1 0.010031 -0.006150 -0.002521 0.009217 -0.005616 -0.001601
# 2 -0.006150 0.022348 0.005384 -0.041022 0.012098 0.000549
# 3 -0.002521 0.005384 0.036327 -0.023870 0.000331 -0.001883
# 4 0.009217 -0.041022 -0.023870 0.122383 -0.032522 -0.004106
# 5 -0.005616 0.012098 0.000331 -0.032522 0.043259 -0.004963
# 6 -0.001601 0.000549 -0.001883 -0.004106 -0.004963 0.022432
#
#
# Mechanical properties :
#
#
# Convention : Reuss Voigt Hill
#
# Bulk Modulus (GPa) = 16.09430 50.55671 33.32550
# Shear Modulus (GPa) = 17.60173 37.78334 27.69253
#
# Velocity S-wave (km/s) = 2.60853 3.82180 3.27189
# Velocity P-wave (km/s) = 3.91079 6.24651 5.21120
#
# Compressibility (1/GPa) = 0.06213382
#
# Stress axis : x y z
#
# Youngs Moduli (GPa) = 99.69140 44.74611 27.52804
#
# Poissons Ratio (x) = 0.27518 0.06939
# Poissons Ratio (y) = 0.61309 -0.14822
# Poissons Ratio (z) = 0.25128 -0.24093
#
# Static dielectric constant tensor:
#      x y z
#    x 2.238600 0.057710 0.022320 
#    y 0.057710 2.050720 -0.050830 
#    z 0.022320 -0.050830 2.113220 
# 
# From -- ./inp_files/104021.got.cif
#   From: 2010.05.17/outbox.cif.g08.bks.cpg/sg2_53_cif.got.tgz:104021.got - 2010.06.03 11:33:40.
