data_PCOD9085472
_publ_section_title
;
Structure prediction by ZEFSAII (Michael W. Deem and Ramdas Pophale) SiO2 
 PCOD9085472
Probable space group: P -1
;
_chemical_formula_sum "Si O2"
_cell_formula_units_Z 16
_cell_length_a 14.292091
_cell_length_b 10.491715
_cell_length_c 11.109010
_cell_angle_alpha 137.895879
_cell_angle_beta 41.357997
_cell_angle_gamma 114.487282
_cell_volume 698.827275
_symmetry_space_group_name_H-M "P -1"
_symmetry_group_IT_number 2
_symmetry_cell_setting 'triclinic'
loop_
_space_group_symop_operation_xyz
x,y,z
-x,-y,-z
loop_
_atom_site_type_symbol
_atom_site_label
_atom_site_fract_x
_atom_site_fract_y
_atom_site_fract_z
Si Si1 0.845433 0.356618 0.065830
Si Si2 0.836375 0.995809 0.689683
Si Si3 0.760145 0.460558 0.728832
Si Si4 0.362376 0.032096 0.367547
Si Si5 0.948169 0.649563 0.523632
Si Si6 0.555638 0.652267 0.629012
Si Si7 0.897491 0.658014 0.036801
Si Si8 0.509963 0.412510 0.080763
O O1 0.734402 0.540194 0.374618
O O2 0.894415 0.463411 0.980286
O O3 0.983772 0.259427 0.951451
O O4 0.773443 0.197348 0.970796
O O5 0.746924 0.988581 0.650222
O O6 0.858690 0.808947 0.624600
O O7 0.000000 0.000000 0.500000
O O8 0.832119 0.618027 0.710598
O O9 0.645535 0.443853 0.722797
O O10 0.913800 0.294846 0.509065
O O11 0.646662 0.495515 0.976426
O O12 0.467148 0.139979 0.273226
O O13 0.263558 0.176826 0.667853
O O14 0.447312 0.809390 0.176241
O O15 0.034849 0.438977 0.223129
O O16 0.500000 0.500000 0.500000
O O17 0.504824 0.640938 0.805059
#
# Coordination Sequence:
#
# PCOD9085472 Si02
#       8
#     2   2   2   2   2   2   2   2
#     4  10  20  34  57 100 128 159 188 256 347 374
#     4  12  19  34  66 103 131 156 206 270 332 383
#     4  10  25  42  67  83 121 187 222 252 297 378
#     4  11  23  37  65 101 127 162 203 271 333 378
#     4  11  22  41  66  90 124 169 223 261 308 377
#     4  11  24  39  65  96 131 163 200 270 336 378
#     4  10  19  35  60  93 132 152 197 265 324 379
#     4  11  23  45  65  88 130 172 221 252 311 393
#
# _framework density 22.895499000000001
#
# number of rings (size 3 to 8) (size 9 to 14) (size 15 to 20)
#    0.000    1.250    2.500    4.875    3.500    1.000 
#    0.000    1.250   11.000    0.000    0.000    0.000 
#    0.000    0.000    0.000    0.000    0.000    0.000 
#
# Total GULP energy -89277.941629 kJ/mol
# GULP energy per Si atom -5579.871352 kJ/mol
# Density = 2.284339 g / cm^3
# Si number density = 22.895499 Si / 1000 Ang^3
#
#
#
# Elastic Constant Matrix: (Units=GPa)
#
#
# Indices 1 2 3 4 5 6 
#
# 1 64.8787 32.2781 15.0471 1.4654 -8.2318 8.0522
# 2 32.2781 98.1577 36.1786 -19.2669 8.1448 4.7834
# 3 15.0471 36.1786 90.1308 -2.6297 8.2743 -5.8711
# 4 1.4654 -19.2669 -2.6297 38.2893 11.6183 -0.5128
# 5 -8.2318 8.1448 8.2743 11.6183 25.7219 -5.7894
# 6 8.0522 4.7834 -5.8711 -0.5128 -5.7894 34.8317
#
#
#
# Elastic Compliance Matrix: (Units=1/GPa)
#
#
# Indices 1 2 3 4 5 6 
#
# 1 0.023597 -0.010643 -0.001592 -0.011289 0.016140 -0.001745
# 2 -0.010643 0.019681 -0.004483 0.014688 -0.015589 -0.003373
# 3 -0.001592 -0.004483 0.013573 -0.000428 -0.002626 0.002829
# 4 -0.011289 0.014688 -0.000428 0.042377 -0.028059 -0.003519
# 5 0.016140 -0.015589 -0.002626 -0.028059 0.064355 0.008250
# 6 -0.001745 -0.003373 0.002829 -0.003519 0.008250 0.031372
#
#
# Mechanical properties :
#
#
# Convention : Reuss Voigt Hill
#
# Bulk Modulus (GPa) = 42.70811 46.68609 44.69710
# Shear Modulus (GPa) = 21.16880 31.07947 26.12413
#
# Velocity S-wave (km/s) = 3.04399 3.68835 3.38156
# Velocity P-wave (km/s) = 5.57212 6.21078 5.90010
#
# Compressibility (1/GPa) = 0.02341476
#
# Stress axis : x y z
#
# Youngs Moduli (GPa) = 42.37830 50.81115 73.67449
#
# Poissons Ratio (x) = 0.54077 0.11730
# Poissons Ratio (y) = 0.45102 0.33029
# Poissons Ratio (z) = 0.06747 0.22779
#
# Static dielectric constant tensor:
#      x y z
#    x 1.894080 0.034860 -0.041760 
#    y 0.034860 1.840350 -0.023570 
#    z -0.041760 -0.023570 2.011540 
# 
# From -- ./inp_files/392754.got.cif
#   From: 2010.05.17/outbox.cif.g08.bks.cpg/sg2_197_cif.got.tgz:392754.got - 2010.06.03 11:33:40.
