data_PCOD9085441
_publ_section_title
;
Structure prediction by ZEFSAII (Michael W. Deem and Ramdas Pophale) SiO2 
 PCOD9085441
Probable space group: P -1
;
_chemical_formula_sum "Si O2"
_cell_formula_units_Z 16
_cell_length_a 15.814634
_cell_length_b 21.885251
_cell_length_c 12.227352
_cell_angle_alpha 31.037410
_cell_angle_beta 132.385207
_cell_angle_gamma 155.027205
_cell_volume 812.438165
_symmetry_space_group_name_H-M "P -1"
_symmetry_group_IT_number 2
_symmetry_cell_setting 'triclinic'
loop_
_space_group_symop_operation_xyz
x,y,z
-x,-y,-z
loop_
_atom_site_type_symbol
_atom_site_label
_atom_site_fract_x
_atom_site_fract_y
_atom_site_fract_z
Si Si1 0.771290 0.961683 0.331420
Si Si2 0.138421 0.189859 0.462244
Si Si3 0.746401 0.193715 0.868514
Si Si4 0.674621 0.508205 0.219800
Si Si5 0.240931 0.279070 0.651763
Si Si6 0.924479 0.292505 0.649216
Si Si7 0.545801 0.651912 0.959010
Si Si8 0.874435 0.057486 0.797205
O O1 0.918122 0.036868 0.441692
O O2 0.827463 0.921168 0.344909
O O3 0.512784 0.717809 0.517432
O O4 0.828449 0.146203 0.069985
O O5 0.123280 0.209953 0.542750
O O6 0.352988 0.435841 0.207613
O O7 0.924670 0.459194 0.632516
O O8 0.743240 0.168384 0.773519
O O9 0.500000 0.000000 0.000000
O O10 0.905337 0.646996 0.234050
O O11 0.583663 0.414978 0.158783
O O12 0.674547 0.647989 0.035233
O O13 0.500000 0.500000 0.500000
O O14 0.138861 0.279788 0.649948
O O15 0.173469 0.092666 0.929886
O O16 0.832789 0.141633 0.695259
O O17 0.711608 0.884273 0.817276
#
# Coordination Sequence:
#
# PCOD9085441 Si02
#       8
#     2   2   2   2   2   2   2   2
#     4  10  20  35  62  89 121 153 204 255 302 359
#     4  10  20  35  58  94 123 157 191 246 314 368
#     4  11  23  43  64  89 117 162 214 262 300 361
#     4  10  19  35  60  90 124 162 202 245 305 369
#     4  11  21  34  56  86 128 165 194 236 306 373
#     4  11  24  39  64  90 117 162 212 259 307 357
#     4  10  20  35  57  92 131 162 194 246 310 372
#     4  11  23  37  57  90 131 162 200 253 309 367
#
# _framework density 19.693805999999999
#
# number of rings (size 3 to 8) (size 9 to 14) (size 15 to 20)
#    0.000    1.500    2.500    3.750    1.750    5.000 
#    0.000    0.000    0.000    9.750    0.000    0.000 
#    0.000    0.000    0.000    0.000    0.000    0.000 
#
# Total GULP energy -89362.320595 kJ/mol
# GULP energy per Si atom -5585.145037 kJ/mol
# Density = 1.964898 g / cm^3
# Si number density = 19.693806 Si / 1000 Ang^3
#
#
#
# Elastic Constant Matrix: (Units=GPa)
#
#
# Indices 1 2 3 4 5 6 
#
# 1 118.3364 31.6651 44.1293 -18.6795 -12.8016 -12.4389
# 2 31.6651 61.7388 16.1878 -10.0678 -3.4651 -11.2255
# 3 44.1293 16.1878 80.6338 -0.0596 -1.1665 -6.5137
# 4 -18.6795 -10.0678 -0.0596 24.7282 3.2176 -2.9930
# 5 -12.8016 -3.4651 -1.1665 3.2176 37.7202 -7.8834
# 6 -12.4389 -11.2255 -6.5137 -2.9930 -7.8834 36.7132
#
#
#
# Elastic Compliance Matrix: (Units=1/GPa)
#
#
# Indices 1 2 3 4 5 6 
#
# 1 0.014194 -0.002902 -0.006754 0.009482 0.004464 0.004455
# 2 -0.002902 0.020425 -0.002021 0.006625 0.001467 0.005759
# 3 -0.006754 -0.002021 0.016409 -0.005770 -0.001649 -0.000819
# 4 0.009482 0.006625 -0.005770 0.051188 0.001084 0.008620
# 5 0.004464 0.001467 -0.001649 0.001084 0.029718 0.008138
# 6 0.004455 0.005759 -0.000819 0.008620 0.008138 0.032813
#
#
# Mechanical properties :
#
#
# Convention : Reuss Voigt Hill
#
# Bulk Modulus (GPa) = 36.13416 49.40816 42.77116
# Shear Modulus (GPa) = 25.33873 31.08079 28.20976
#
# Velocity S-wave (km/s) = 3.59086 3.97697 3.78884
# Velocity P-wave (km/s) = 5.96491 6.79934 6.39575
#
# Compressibility (1/GPa) = 0.02767465
#
# Stress axis : x y z
#
# Youngs Moduli (GPa) = 70.45448 48.95875 60.94083
#
# Poissons Ratio (x) = 0.14208 0.41158
# Poissons Ratio (y) = 0.20446 0.12316
# Poissons Ratio (z) = 0.47583 0.09894
#
# Static dielectric constant tensor:
#      x y z
#    x 1.721860 0.004220 -0.016570 
#    y 0.004220 1.759140 -0.051470 
#    z -0.016570 -0.051470 1.698390 
# 
# From -- ./inp_files/432318.got.cif
#   From: 2010.05.17/outbox.cif.g08.bks.cpg/sg2_217_cif.got.tgz:432318.got - 2010.06.03 11:33:40.
