data_PCOD9085896
_publ_section_title
;
Structure prediction by ZEFSAII (Michael W. Deem and Ramdas Pophale) SiO2 
 PCOD9085896
Probable space group: P -1
;
_chemical_formula_sum "Si O2"
_cell_formula_units_Z 16
_cell_length_a 16.745220
_cell_length_b 9.883714
_cell_length_c 19.774260
_cell_angle_alpha 143.499871
_cell_angle_beta 158.358097
_cell_angle_gamma 37.234533
_cell_volume 699.832655
_symmetry_space_group_name_H-M "P -1"
_symmetry_group_IT_number 2
_symmetry_cell_setting 'triclinic'
loop_
_space_group_symop_operation_xyz
x,y,z
-x,-y,-z
loop_
_atom_site_type_symbol
_atom_site_label
_atom_site_fract_x
_atom_site_fract_y
_atom_site_fract_z
Si Si1 0.156174 0.648406 0.097164
Si Si2 0.118696 0.165068 0.282343
Si Si3 0.294541 0.449308 0.272963
Si Si4 0.326257 0.433537 0.890073
Si Si5 0.345958 0.923707 0.646927
Si Si6 0.350860 0.552265 0.612752
Si Si7 0.288715 0.601163 0.735146
Si Si8 0.865451 0.869425 0.565065
O O1 0.212536 0.611331 0.207788
O O2 0.385504 0.501795 0.188885
O O3 0.114346 0.916848 0.147644
O O4 0.931452 0.562171 0.871253
O O5 0.287513 0.310821 0.443797
O O6 0.194370 0.092069 0.389103
O O7 0.887709 0.356807 0.185510
O O8 0.500000 0.500000 0.500000
O O9 0.398137 0.192962 0.218098
O O10 0.293638 0.181333 0.740557
O O11 0.500000 0.500000 0.000000
O O12 0.459972 0.401167 0.052244
O O13 0.283860 0.745112 0.580104
O O14 0.224784 0.943168 0.487217
O O15 0.237536 0.625258 0.625168
O O16 0.231842 0.359894 0.618471
O O17 0.128081 0.798432 0.731158
#
# Coordination Sequence:
#
# PCOD9085896 Si02
#       8
#     2   2   2   2   2   2   2   2
#     4  10  22  43  68  93 130 175 216 266 329 383
#     4  11  22  40  69  93 130 173 214 269 319 384
#     4  10  22  42  68  99 126 165 224 274 319 384
#     4  12  21  37  64  96 126 163 224 271 316 382
#     4  11  22  39  65  94 126 167 209 269 330 382
#     4  10  24  43  60  92 138 172 213 260 327 390
#     4  10  21  38  57  92 128 168 215 263 317 387
#     4  10  19  35  64  90 122 168 218 262 317 378
#
# _framework density 22.862608000000002
#
# number of rings (size 3 to 8) (size 9 to 14) (size 15 to 20)
#    0.000    1.500    2.500    3.375    0.000    2.500 
#    6.750    0.625    0.000    0.000    0.000    0.000 
#    0.000    0.000    0.000    0.000    0.000    0.000 
#
# Total GULP energy -89299.372879 kJ/mol
# GULP energy per Si atom -5581.210805 kJ/mol
# Density = 2.281057 g / cm^3
# Si number density = 22.862608 Si / 1000 Ang^3
#
#
#
# Elastic Constant Matrix: (Units=GPa)
#
#
# Indices 1 2 3 4 5 6 
#
# 1 50.3711 26.9097 14.3614 5.5197 13.1320 28.9388
# 2 26.9097 135.6466 35.1650 -6.1793 -1.5002 20.1085
# 3 14.3614 35.1650 104.9946 -12.0584 7.1776 11.5101
# 4 5.5197 -6.1793 -12.0584 24.4135 -1.6006 1.7101
# 5 13.1320 -1.5002 7.1776 -1.6006 20.7286 -0.4155
# 6 28.9388 20.1085 11.5101 1.7101 -0.4155 29.9570
#
#
#
# Elastic Compliance Matrix: (Units=1/GPa)
#
#
# Indices 1 2 3 4 5 6 
#
# 1 0.084929 -0.007145 0.001035 -0.018862 -0.057687 -0.077368
# 2 -0.007145 0.009415 -0.002403 0.003126 0.006310 0.001415
# 3 0.001035 -0.002403 0.011507 0.004835 -0.004524 -0.004146
# 4 -0.018862 0.003126 0.004835 0.048535 0.014484 0.011695
# 5 -0.057687 0.006310 -0.004524 0.014484 0.089005 0.053637
# 6 -0.077368 0.001415 -0.004146 0.011695 0.053637 0.108839
#
#
# Mechanical properties :
#
#
# Convention : Reuss Voigt Hill
#
# Bulk Modulus (GPa) = 11.25816 49.32049 30.28932
# Shear Modulus (GPa) = 12.53558 29.32489 20.93024
#
# Velocity S-wave (km/s) = 2.34412 3.58531 3.02897
# Velocity P-wave (km/s) = 3.50164 6.22564 5.05075
#
# Compressibility (1/GPa) = 0.08882448
#
# Stress axis : x y z
#
# Youngs Moduli (GPa) = 11.77452 106.21329 86.90520
#
# Poissons Ratio (x) = 0.75887 -0.08994
# Poissons Ratio (y) = 0.08413 0.20887
# Poissons Ratio (z) = -0.01219 0.25528
#
# Static dielectric constant tensor:
#      x y z
#    x 1.887550 -0.042400 -0.033580 
#    y -0.042400 1.899500 0.013440 
#    z -0.033580 0.013440 1.889450 
# 
# From -- ./inp_files/594242.got.cif
#   From: 2010.05.17/outbox.cif.g08.bks.cpg/sg2_298_cif.got.tgz:594242.got - 2010.06.03 11:33:40.
