data_PCOD9085016
_publ_section_title
;
Structure prediction by ZEFSAII (Michael W. Deem and Ramdas Pophale) SiO2 
 PCOD9085016
Probable space group: P -1
;
_chemical_formula_sum "Si O2"
_cell_formula_units_Z 16
_cell_length_a 9.631352
_cell_length_b 16.783669
_cell_length_c 8.926017
_cell_angle_alpha 123.674471
_cell_angle_beta 85.827917
_cell_angle_gamma 137.992305
_cell_volume 637.298014
_symmetry_space_group_name_H-M "P -1"
_symmetry_group_IT_number 2
_symmetry_cell_setting 'triclinic'
loop_
_space_group_symop_operation_xyz
x,y,z
-x,-y,-z
loop_
_atom_site_type_symbol
_atom_site_label
_atom_site_fract_x
_atom_site_fract_y
_atom_site_fract_z
Si Si1 0.387151 0.412044 0.752179
Si Si2 0.731086 0.873489 0.200809
Si Si3 0.732457 0.886635 0.559513
Si Si4 0.392369 0.922003 0.258152
Si Si5 0.101897 0.840191 0.670171
Si Si6 0.915402 0.692027 0.866296
Si Si7 0.801171 0.399725 0.547363
Si Si8 0.179749 0.583258 0.933359
O O1 0.320598 0.259246 0.600348
O O2 0.634683 0.574678 0.796165
O O3 0.125953 0.305601 0.589288
O O4 0.500000 0.500000 0.000000
O O5 0.722125 0.912556 0.412514
O O6 0.433309 0.664620 0.994941
O O7 0.803133 0.995274 0.199348
O O8 0.963847 0.932917 0.231594
O O9 0.508159 0.793278 0.593685
O O10 0.302043 0.759204 0.079144
O O11 0.500000 0.000000 0.500000
O O12 0.641049 0.073097 0.288138
O O13 0.145243 0.838181 0.126473
O O14 0.009413 0.772424 0.776326
O O15 0.846247 0.538446 0.720691
O O16 0.000000 0.500000 0.500000
O O17 0.958103 0.423680 0.672211
O O18 0.000000 0.500000 0.000000
#
# Coordination Sequence:
#
# PCOD9085016 Si02
#       8
#     2   2   2   2   2   2   2   2
#     4  10  20  36  61  89 115 150 204 247 294 355
#     4   9  18  35  61  80 112 152 196 238 304 339
#     4   9  18  36  61  83 116 153 196 250 296 346
#     4  10  21  36  58  87 116 155 202 244 299 357
#     4  10  20  36  57  83 120 158 189 238 306 355
#     4  10  21  38  59  87 123 158 193 248 304 357
#     4  10  21  37  57  87 119 158 198 243 300 359
#     4  10  19  35  58  84 116 150 201 249 292 348
#
# _framework density 25.105993000000002
#
# number of rings (size 3 to 8) (size 9 to 14) (size 15 to 20)
#    0.000    2.250    1.250    1.500    0.000    1.000 
#    2.250    0.625   22.000    0.000    0.000    0.000 
#    0.000    0.000    0.000    0.000    0.000    0.000 
#
# Total GULP energy -89241.644791 kJ/mol
# GULP energy per Si atom -5577.602799 kJ/mol
# Density = 2.504885 g / cm^3
# Si number density = 25.105993 Si / 1000 Ang^3
#
#
#
# Elastic Constant Matrix: (Units=GPa)
#
#
# Indices 1 2 3 4 5 6 
#
# 1 94.0749 21.0902 27.6653 29.5644 25.4269 15.1690
# 2 21.0902 188.6053 38.9276 26.0825 24.8968 29.1884
# 3 27.6653 38.9276 64.2281 27.0832 19.5046 5.2544
# 4 29.5644 26.0825 27.0832 43.9213 2.1737 11.9862
# 5 25.4269 24.8968 19.5046 2.1737 45.8489 17.2122
# 6 15.1690 29.1884 5.2544 11.9862 17.2122 53.1405
#
#
#
# Elastic Compliance Matrix: (Units=1/GPa)
#
#
# Indices 1 2 3 4 5 6 
#
# 1 0.016363 0.000891 -0.000203 -0.011048 -0.009055 0.000285
# 2 0.000891 0.006715 -0.002804 -0.002058 -0.001877 -0.002593
# 3 -0.000203 -0.002804 0.027097 -0.016046 -0.011480 0.006257
# 4 -0.011048 -0.002058 -0.016046 0.042960 0.015332 -0.008785
# 5 -0.009055 -0.001877 -0.011480 0.015332 0.035887 -0.010331
# 6 0.000285 -0.002593 0.006257 -0.008785 -0.010331 0.024871
#
#
# Mechanical properties :
#
#
# Convention : Reuss Voigt Hill
#
# Bulk Modulus (GPa) = 21.76565 58.03049 39.89807
# Shear Modulus (GPa) = 28.82855 45.86383 37.34619
#
# Velocity S-wave (km/s) = 3.39229 4.27875 3.86105
# Velocity P-wave (km/s) = 4.90223 6.89744 5.98358
#
# Compressibility (1/GPa) = 0.04594396
#
# Stress axis : x y z
#
# Youngs Moduli (GPa) = 61.11176 148.92519 36.90434
#
# Poissons Ratio (x) = -0.13274 0.00750
# Poissons Ratio (y) = -0.05447 0.10347
# Poissons Ratio (z) = 0.01242 0.41756
#
# Static dielectric constant tensor:
#      x y z
#    x 2.122150 0.003640 -0.025860 
#    y 0.003640 1.867690 -0.005110 
#    z -0.025860 -0.005110 2.041630 
# 
# From -- ./inp_files/281853.got.cif
#   From: 2010.05.17/outbox.cif.g08.bks.cpg/sg2_141_cif.got.tgz:281853.got - 2010.06.03 11:33:40.
