data_PCOD9085396
_publ_section_title
;
Structure prediction by ZEFSAII (Michael W. Deem and Ramdas Pophale) SiO2 
 PCOD9085396
Probable space group: P -1
;
_chemical_formula_sum "Si O2"
_cell_formula_units_Z 16
_cell_length_a 8.705892
_cell_length_b 8.683786
_cell_length_c 16.181355
_cell_angle_alpha 39.653246
_cell_angle_beta 85.774301
_cell_angle_gamma 79.520838
_cell_volume 763.321095
_symmetry_space_group_name_H-M "P -1"
_symmetry_group_IT_number 2
_symmetry_cell_setting 'triclinic'
loop_
_space_group_symop_operation_xyz
x,y,z
-x,-y,-z
loop_
_atom_site_type_symbol
_atom_site_label
_atom_site_fract_x
_atom_site_fract_y
_atom_site_fract_z
Si Si1 0.188087 0.422624 0.289500
Si Si2 0.145292 0.643401 0.727871
Si Si3 0.679255 0.116775 0.520566
Si Si4 0.446958 0.288309 0.897703
Si Si5 0.059304 0.753066 0.871686
Si Si6 0.315567 0.551055 0.065492
Si Si7 0.735420 0.996417 0.746376
Si Si8 0.404533 0.548516 0.340811
O O1 0.215402 0.578798 0.143302
O O2 0.229085 0.521980 0.334743
O O3 0.013799 0.379787 0.302499
O O4 0.317261 0.167449 0.382178
O O5 0.237019 0.783796 0.601514
O O6 0.261502 0.388295 0.854144
O O7 0.101847 0.765580 0.768308
O O8 0.514902 0.299402 0.470440
O O9 0.769279 0.092924 0.614129
O O10 0.519503 0.383628 0.939002
O O11 0.522067 0.405141 0.769386
O O12 0.500000 0.000000 0.000000
O O13 0.898169 0.948120 0.810610
O O14 0.214718 0.735151 0.927941
O O15 0.000000 0.500000 0.000000
O O16 0.319306 0.267089 0.154467
O O17 0.607125 0.208128 0.705151
#
# Coordination Sequence:
#
# PCOD9085396 Si02
#       8
#     2   2   2   2   2   2   2   2
#     4  10  19  37  63  84 114 157 196 232 288 350
#     4  11  21  37  61  88 114 154 194 241 285 342
#     4  10  20  38  60  85 118 152 194 243 292 334
#     4  10  24  39  58  88 123 150 185 241 293 341
#     4  10  19  35  60  88 113 151 201 231 278 346
#     4   9  20  39  61  86 112 155 196 226 286 355
#     4  10  20  37  64  85 115 152 197 241 281 342
#     4  10  22  37  59  89 115 153 197 237 287 348
#
# _framework density 20.961034000000001
#
# number of rings (size 3 to 8) (size 9 to 14) (size 15 to 20)
#    0.000    2.000    3.750    1.125    3.500    2.500 
#    0.000    3.125    2.750    0.000    0.000    0.000 
#    0.000    0.000    0.000    0.000    0.000    0.000 
#
# Total GULP energy -89121.383950 kJ/mol
# GULP energy per Si atom -5570.086497 kJ/mol
# Density = 2.091333 g / cm^3
# Si number density = 20.961034 Si / 1000 Ang^3
#
#
#
# Elastic Constant Matrix: (Units=GPa)
#
#
# Indices 1 2 3 4 5 6 
#
# 1 57.2305 41.5447 43.8957 -7.8667 22.2792 0.0623
# 2 41.5447 73.1723 26.5882 -14.1753 23.6450 2.2174
# 3 43.8957 26.5882 94.7731 3.3871 27.0401 4.2769
# 4 -7.8667 -14.1753 3.3871 32.5177 -13.6670 2.4500
# 5 22.2792 23.6450 27.0401 -13.6670 33.8243 4.5241
# 6 0.0623 2.2174 4.2769 2.4500 4.5241 24.6601
#
#
#
# Elastic Compliance Matrix: (Units=1/GPa)
#
#
# Indices 1 2 3 4 5 6 
#
# 1 0.043031 -0.017621 -0.013888 0.001810 -0.004805 0.004586
# 2 -0.017621 0.025637 0.002838 0.003927 -0.006743 -0.001906
# 3 -0.013888 0.002838 0.020200 -0.009572 -0.012796 -0.000425
# 4 0.001810 0.003927 -0.009572 0.043850 0.022391 -0.007162
# 5 -0.004805 -0.006743 -0.012796 0.022391 0.058063 -0.010039
# 6 0.004586 -0.001906 -0.000425 -0.007162 -0.010039 0.043338
#
#
# Mechanical properties :
#
#
# Convention : Reuss Voigt Hill
#
# Bulk Modulus (GPa) = 31.71835 49.91479 40.81657
# Shear Modulus (GPa) = 16.55817 25.74356 21.15087
#
# Velocity S-wave (km/s) = 2.81365 3.50832 3.18001
# Velocity P-wave (km/s) = 5.07153 6.34633 5.74440
#
# Compressibility (1/GPa) = 0.03152749
#
# Stress axis : x y z
#
# Youngs Moduli (GPa) = 23.23931 39.00655 49.50589
#
# Poissons Ratio (x) = 0.68732 0.68752
# Poissons Ratio (y) = 0.40949 -0.14052
# Poissons Ratio (z) = 0.32274 -0.11072
#
# Static dielectric constant tensor:
#      x y z
#    x 1.834740 0.011540 0.020900 
#    y 0.011540 1.780970 0.001880 
#    z 0.020900 0.001880 1.769280 
# 
# From -- ./inp_files/176298.got.cif
#   From: 2010.05.17/outbox.cif.g08.bks.cpg/sg2_89_cif.got.tgz:176298.got - 2010.06.03 11:33:40.
