data_PCOD9085291
_publ_section_title
;
Structure prediction by ZEFSAII (Michael W. Deem and Ramdas Pophale) SiO2 
 PCOD9085291
Probable space group: P -1
;
_chemical_formula_sum "Si O2"
_cell_formula_units_Z 16
_cell_length_a 15.793002
_cell_length_b 30.575041
_cell_length_c 12.663323
_cell_angle_alpha 153.293772
_cell_angle_beta 153.058666
_cell_angle_gamma 17.834773
_cell_volume 803.305274
_symmetry_space_group_name_H-M "P -1"
_symmetry_group_IT_number 2
_symmetry_cell_setting 'triclinic'
loop_
_space_group_symop_operation_xyz
x,y,z
-x,-y,-z
loop_
_atom_site_type_symbol
_atom_site_label
_atom_site_fract_x
_atom_site_fract_y
_atom_site_fract_z
Si Si1 0.096247 0.765078 0.957262
Si Si2 0.173451 0.527969 0.221753
Si Si3 0.658956 0.107304 0.133239
Si Si4 0.987167 0.161412 0.533114
Si Si5 0.737621 0.856562 0.384081
Si Si6 0.327922 0.827555 0.485682
Si Si7 0.563831 0.487146 0.721674
Si Si8 0.536488 0.907767 0.746886
O O1 0.279649 0.737373 0.198923
O O2 0.316921 0.629980 0.829056
O O3 0.912076 0.927274 0.049710
O O4 0.842638 0.798289 0.793420
O O5 0.424757 0.456971 0.429332
O O6 0.302332 0.487986 0.159448
O O7 0.948255 0.706600 0.362906
O O8 0.000000 0.500000 0.000000
O O9 0.792279 0.145476 0.303056
O O10 0.548039 0.194832 0.310413
O O11 0.414024 0.151797 0.889678
O O12 0.812627 0.331126 0.726464
O O13 0.086409 0.132630 0.460823
O O14 0.273348 0.034765 0.648873
O O15 0.500000 0.000000 0.500000
O O16 0.492858 0.820640 0.563537
O O17 0.000000 0.000000 0.500000
O O18 0.500000 0.000000 0.000000
#
# Coordination Sequence:
#
# PCOD9085291 Si02
#       8
#     2   2   2   2   2   2   2   2
#     4  11  21  36  62  89 121 157 202 247 290 366
#     4  10  22  42  63  80 122 167 194 246 311 363
#     4  11  20  37  63  87 119 155 200 248 296 352
#     4  11  22  38  61  88 120 160 193 248 304 352
#     4  11  23  37  60  93 117 147 206 254 292 353
#     4  10  19  35  59  92 117 157 200 244 299 351
#     4  10  24  41  58  90 124 157 200 248 308 356
#     4  12  19  36  64  88 118 162 203 242 296 351
#
# _framework density 19.917708000000001
#
# number of rings (size 3 to 8) (size 9 to 14) (size 15 to 20)
#    0.000    1.250    6.250    1.500    0.000    2.500 
#    0.000    2.500    0.000    4.500    0.000    0.000 
#    0.000    0.000    0.000    0.000    0.000    0.000 
#
# Total GULP energy -89317.641138 kJ/mol
# GULP energy per Si atom -5582.352571 kJ/mol
# Density = 1.987237 g / cm^3
# Si number density = 19.917708 Si / 1000 Ang^3
#
#
#
# Elastic Constant Matrix: (Units=GPa)
#
#
# Indices 1 2 3 4 5 6 
#
# 1 146.8688 52.5822 48.5232 8.3228 37.4290 -27.2150
# 2 52.5822 77.4399 17.3550 1.6056 -1.6336 -22.1696
# 3 48.5232 17.3550 64.8864 -18.7755 8.7204 -9.6891
# 4 8.3228 1.6056 -18.7755 21.8334 -3.7658 -8.3338
# 5 37.4290 -1.6336 8.7204 -3.7658 36.5299 -1.8149
# 6 -27.2150 -22.1696 -9.6891 -8.3338 -1.8149 35.3070
#
#
#
# Elastic Compliance Matrix: (Units=1/GPa)
#
#
# Indices 1 2 3 4 5 6 
#
# 1 0.030336 -0.015786 -0.026990 -0.040686 -0.029791 -0.005071
# 2 -0.015786 0.024618 0.010805 0.021149 0.017480 0.012145
# 3 -0.026990 0.010805 0.049972 0.062479 0.023426 0.015645
# 4 -0.040686 0.021149 0.062479 0.133427 0.043101 0.032774
# 5 -0.029791 0.017480 0.023426 0.043101 0.057909 0.007591
# 6 -0.005071 0.012145 0.015645 0.032774 0.007591 0.044460
#
#
# Mechanical properties :
#
#
# Convention : Reuss Voigt Hill
#
# Bulk Modulus (GPa) = 24.40008 58.45732 41.42870
# Shear Modulus (GPa) = 11.95245 30.11639 21.03442
#
# Velocity S-wave (km/s) = 2.45233 3.89272 3.25324
# Velocity P-wave (km/s) = 4.50507 7.04397 5.91241
#
# Compressibility (1/GPa) = 0.04098348
#
# Stress axis : x y z
#
# Youngs Moduli (GPa) = 32.96439 40.62090 20.01139
#
# Poissons Ratio (x) = 0.64124 0.54010
# Poissons Ratio (y) = 0.52038 -0.21622
# Poissons Ratio (z) = 0.88969 -0.43890
#
# Static dielectric constant tensor:
#      x y z
#    x 1.724240 0.015970 -0.001940 
#    y 0.015970 1.713790 -0.037200 
#    z -0.001940 -0.037200 1.735970 
# 
# From -- ./inp_files/458402.got.cif
#   From: 2010.05.17/outbox.cif.g08.bks.cpg/sg2_230_cif.got.tgz:458402.got - 2010.06.03 11:33:40.
