data_PCOD9085817
_publ_section_title
;
Structure prediction by ZEFSAII (Michael W. Deem and Ramdas Pophale) SiO2 
 PCOD9085817
Probable space group: P -1
;
_chemical_formula_sum "Si O2"
_cell_formula_units_Z 12
_cell_length_a 11.971816
_cell_length_b 9.521104
_cell_length_c 11.041465
_cell_angle_alpha 47.436605
_cell_angle_beta 95.335251
_cell_angle_gamma 59.871399
_cell_volume 588.630492
_symmetry_space_group_name_H-M "P -1"
_symmetry_group_IT_number 2
_symmetry_cell_setting 'triclinic'
loop_
_space_group_symop_operation_xyz
x,y,z
-x,-y,-z
loop_
_atom_site_type_symbol
_atom_site_label
_atom_site_fract_x
_atom_site_fract_y
_atom_site_fract_z
Si Si1 0.168028 0.156627 0.176087
Si Si2 0.097534 0.571039 0.443148
Si Si3 0.567948 0.699769 0.448977
Si Si4 0.501845 0.771968 0.125078
Si Si5 0.805078 0.061045 0.957110
Si Si6 0.852068 0.204088 0.464724
O O1 0.365735 0.991125 0.302018
O O2 0.148312 0.110763 0.062185
O O3 0.162621 0.975260 0.362706
O O4 0.000000 0.500000 0.000000
O O5 0.293763 0.308481 0.556332
O O6 0.112702 0.670336 0.510868
O O7 0.000000 0.500000 0.500000
O O8 0.978402 0.855694 0.174488
O O9 0.542777 0.649246 0.339274
O O10 0.680393 0.403680 0.712917
O O11 0.318590 0.919789 0.989794
O O12 0.661307 0.498235 0.218223
O O13 0.500000 0.000000 0.000000
O O14 0.000000 0.000000 0.500000
#
# Coordination Sequence:
#
# PCOD9085817 Si02
#       6
#     2   2   2   2   2   2
#     4  11  23  39  66  95 122 167 215 258 313 369
#     4  11  24  40  67  96 126 166 212 261 321 376
#     4  10  20  40  63  91 121 167 220 255 301 376
#     4  10  19  35  63  91 120 167 212 252 305 379
#     4  11  19  40  66  87 123 164 216 263 297 370
#     4  11  24  42  61  93 131 161 210 264 318 376
#
# _framework density 20.386303999999999
#
# number of rings (size 3 to 8) (size 9 to 14) (size 15 to 20)
#    0.000    1.333    5.000    3.500    7.000    0.000 
#    0.000    1.667    0.000    0.000    0.000    0.000 
#    0.000    0.000    0.000    0.000    0.000    0.000 
#
# Total GULP energy -66909.342305 kJ/mol
# GULP energy per Si atom -5575.778525 kJ/mol
# Density = 2.033990 g / cm^3
# Si number density = 20.386304 Si / 1000 Ang^3
#
#
#
# Elastic Constant Matrix: (Units=GPa)
#
#
# Indices 1 2 3 4 5 6 
#
# 1 152.8288 36.2200 34.9841 -24.8841 12.2531 -27.1536
# 2 36.2200 74.6979 35.9863 -31.8213 15.3834 -28.4454
# 3 34.9841 35.9863 105.3903 -22.9968 17.4589 -14.5103
# 4 -24.8841 -31.8213 -22.9968 43.7843 -4.2337 11.0334
# 5 12.2531 15.3834 17.4589 -4.2337 42.8983 -9.3280
# 6 -27.1536 -28.4454 -14.5103 11.0334 -9.3280 29.2611
#
#
#
# Elastic Compliance Matrix: (Units=1/GPa)
#
#
# Indices 1 2 3 4 5 6 
#
# 1 0.008356 0.000049 -0.001358 0.002509 -0.000279 0.006094
# 2 0.000049 0.029752 -0.003684 0.014170 -0.003272 0.020755
# 3 -0.001358 -0.003684 0.012233 0.002890 -0.003175 -0.000877
# 4 0.002509 0.014170 0.002890 0.034937 -0.002770 0.003480
# 5 -0.000279 -0.003272 -0.003175 -0.002770 0.026561 0.004497
# 6 0.006094 0.020755 -0.000877 0.003480 0.004497 0.059693
#
#
# Mechanical properties :
#
#
# Convention : Reuss Voigt Hill
#
# Bulk Modulus (GPa) = 24.77924 60.81087 42.79506
# Shear Modulus (GPa) = 25.64516 38.23717 31.94117
#
# Velocity S-wave (km/s) = 3.55062 4.33555 3.96257
# Velocity P-wave (km/s) = 5.38428 7.41328 6.47870
#
# Compressibility (1/GPa) = 0.04035636
#
# Stress axis : x y z
#
# Youngs Moduli (GPa) = 119.67432 33.61122 81.74577
#
# Poissons Ratio (x) = -0.00166 0.11100
# Poissons Ratio (y) = -0.00590 0.30113
# Poissons Ratio (z) = 0.16250 0.12382
#
# Static dielectric constant tensor:
#      x y z
#    x 1.799550 -0.032430 0.002120 
#    y -0.032430 1.685700 0.005960 
#    z 0.002120 0.005960 1.799140 
# 
# From -- ./inp_files/144680.got.cif
#   From: 2010.05.17/outbox.cif.g08.bks.cpg/sg2_73_cif.got.tgz:144680.got - 2010.06.03 11:33:40.
