data_PCOD9085322
_publ_section_title
;
Structure prediction by ZEFSAII (Michael W. Deem and Ramdas Pophale) SiO2 
 PCOD9085322
Probable space group: P -1
;
_chemical_formula_sum "Si O2"
_cell_formula_units_Z 15
_cell_length_a 13.329329
_cell_length_b 7.523252
_cell_length_c 13.521014
_cell_angle_alpha 43.100389
_cell_angle_beta 41.720547
_cell_angle_gamma 70.745496
_cell_volume 543.115361
_symmetry_space_group_name_H-M "P -1"
_symmetry_group_IT_number 2
_symmetry_cell_setting 'triclinic'
loop_
_space_group_symop_operation_xyz
x,y,z
-x,-y,-z
loop_
_atom_site_type_symbol
_atom_site_label
_atom_site_fract_x
_atom_site_fract_y
_atom_site_fract_z
Si Si1 0.500000 0.500000 0.500000
Si Si2 0.734692 0.228316 0.456942
Si Si3 0.994116 0.144360 0.802381
Si Si4 0.998110 0.952740 0.678856
Si Si5 0.660660 0.399882 0.835425
Si Si6 0.225971 0.837468 0.324360
Si Si7 0.247435 0.965088 0.788328
Si Si8 0.433593 0.667592 0.839974
O O1 0.680797 0.476300 0.378129
O O2 0.422437 0.258686 0.565437
O O3 0.685463 0.133477 0.646940
O O4 0.926510 0.275339 0.289161
O O5 0.615634 0.962834 0.581206
O O6 0.907437 0.952174 0.848203
O O7 0.080313 0.491903 0.574856
O O8 0.139021 0.046137 0.758725
O O9 0.870227 0.103389 0.999722
O O10 0.169148 0.277220 0.420326
O O11 0.866875 0.958370 0.692861
O O12 0.683825 0.172066 0.840001
O O13 0.500251 0.426908 0.893978
O O14 0.631116 0.323925 0.003850
O O15 0.305016 0.708323 0.843899
#
# Coordination Sequence:
#
# PCOD9085322 Si02
#       8
#     1   2   2   2   2   2   2   2
#     4  10  20  40  54  76 114 148 176 222 276 320
#     4  10  21  35  53  79 108 152 179 223 278 322
#     4  10  20  35  58  85 106 140 194 218 272 324
#     4  10  20  35  55  81 110 141 182 233 270 320
#     4   9  18  33  54  81 107 140 183 222 274 320
#     4  11  19  34  56  82 109 142 184 225 275 325
#     4  10  19  35  60  79 109 148 182 225 268 327
#     4   9  18  34  53  78 113 141 178 227 272 323
#
# _framework density 27.61844
#
# number of rings (size 3 to 8) (size 9 to 14) (size 15 to 20)
#    0.000    2.133    1.333    3.600    0.000    0.533 
#    2.400    3.333    0.000    0.000    0.000    0.000 
#    0.000    0.000    0.000    0.000    0.000    0.000 
#
# Total GULP energy -83621.173079 kJ/mol
# GULP energy per Si atom -5574.744872 kJ/mol
# Density = 2.755558 g / cm^3
# Si number density = 27.618440 Si / 1000 Ang^3
#
#
#
# Elastic Constant Matrix: (Units=GPa)
#
#
# Indices 1 2 3 4 5 6 
#
# 1 134.2716 51.8385 11.5277 6.7115 -17.2378 -48.9005
# 2 51.8385 133.6491 7.7593 18.1003 0.0106 -40.0931
# 3 11.5277 7.7593 37.0207 14.2535 0.0828 -8.2967
# 4 6.7115 18.1003 14.2535 35.8548 2.7244 2.9601
# 5 -17.2378 0.0106 0.0828 2.7244 25.4110 2.4069
# 6 -48.9005 -40.0931 -8.2967 2.9601 2.4069 66.3753
#
#
#
# Elastic Compliance Matrix: (Units=1/GPa)
#
#
# Indices 1 2 3 4 5 6 
#
# 1 0.012127 -0.002191 -0.000934 -0.001985 0.007752 0.007302
# 2 -0.002191 0.010664 0.002016 -0.006118 -0.001353 0.005401
# 3 -0.000934 0.002016 0.033762 -0.014734 0.000324 0.005395
# 4 -0.001985 -0.006118 -0.014734 0.038261 -0.004589 -0.008539
# 5 0.007752 -0.001353 0.000324 -0.004589 0.044770 0.003515
# 6 0.007302 0.005401 0.005395 -0.008539 0.003515 0.024635
#
#
# Mechanical properties :
#
#
# Convention : Reuss Voigt Hill
#
# Bulk Modulus (GPa) = 18.40427 49.68804 34.04615
# Shear Modulus (GPa) = 27.09308 41.11594 34.10451
#
# Velocity S-wave (km/s) = 3.13545 3.86257 3.51785
# Velocity P-wave (km/s) = 4.44818 6.15813 5.37163
#
# Compressibility (1/GPa) = 0.05433522
#
# Stress axis : x y z
#
# Youngs Moduli (GPa) = 82.45901 93.77345 29.61949
#
# Poissons Ratio (x) = 0.20546 0.02766
# Poissons Ratio (y) = 0.18067 -0.05972
# Poissons Ratio (z) = 0.07701 -0.18905
#
# Static dielectric constant tensor:
#      x y z
#    x 2.278940 -0.072620 -0.073120 
#    y -0.072620 2.107140 0.001330 
#    z -0.073120 0.001330 2.269350 
# 
# From -- ./inp_files/174786.got.cif
#   From: 2010.05.17/outbox.cif.g08.bks.cpg/sg2_88_cif.got.tgz:174786.got - 2010.06.03 11:33:40.
