data_PCOD9085042
_publ_section_title
;
Structure prediction by ZEFSAII (Michael W. Deem and Ramdas Pophale) SiO2 
 PCOD9085042
Probable space group: P -1
;
_chemical_formula_sum "Si O2"
_cell_formula_units_Z 16
_cell_length_a 9.244912
_cell_length_b 24.601016
_cell_length_c 18.778367
_cell_angle_alpha 160.692270
_cell_angle_beta 36.902981
_cell_angle_gamma 144.003714
_cell_volume 815.500326
_symmetry_space_group_name_H-M "P -1"
_symmetry_group_IT_number 2
_symmetry_cell_setting 'triclinic'
loop_
_space_group_symop_operation_xyz
x,y,z
-x,-y,-z
loop_
_atom_site_type_symbol
_atom_site_label
_atom_site_fract_x
_atom_site_fract_y
_atom_site_fract_z
Si Si1 0.788427 0.546773 0.293841
Si Si2 0.770586 0.623112 0.681506
Si Si3 0.182218 0.761633 0.800582
Si Si4 0.308925 0.310720 0.350134
Si Si5 0.378887 0.963607 0.106320
Si Si6 0.884971 0.660004 0.242159
Si Si7 0.257108 0.383024 0.913415
Si Si8 0.979054 0.981519 0.400611
O O1 0.525465 0.399708 0.221378
O O2 0.809385 0.679389 0.514432
O O3 0.772230 0.640447 0.341387
O O4 0.019207 0.463325 0.107329
O O5 0.793349 0.428723 0.429610
O O6 0.864632 0.708231 0.673931
O O7 0.934014 0.728652 0.810417
O O8 0.424450 0.867443 0.792091
O O9 0.186055 0.872423 0.007134
O O10 0.500000 0.500000 0.500000
O O11 0.458447 0.170515 0.113566
O O12 0.230605 0.988250 0.265465
O O13 0.718644 0.645871 0.217867
O O14 0.084085 0.846386 0.388206
O O15 0.000000 0.500000 0.000000
O O16 0.194611 0.210042 0.771127
O O17 0.500000 0.500000 0.000000
O O18 0.000000 0.000000 0.500000
#
# Coordination Sequence:
#
# PCOD9085042 Si02
#       8
#     2   2   2   2   2   2   2   2
#     4  10  19  38  61  85 122 169 199 254 313 370
#     4  10  20  38  57  91 123 167 204 238 311 379
#     4  10  22  35  59  93 128 159 206 250 308 367
#     4  10  19  35  58  85 120 164 196 241 314 362
#     4  11  21  38  61  91 127 161 202 260 306 368
#     4   9  20  39  63  82 117 162 207 255 311 370
#     4  10  22  40  62  93 117 158 215 263 313 366
#     4  10  21  38  62  89 118 162 209 253 311 369
#
# _framework density 19.619857
#
# number of rings (size 3 to 8) (size 9 to 14) (size 15 to 20)
#    0.000    2.000    2.500    2.250    1.750    1.500 
#    6.750    2.500    5.500    0.000    0.000    0.000 
#    0.000    0.000    0.000    0.000    0.000    0.000 
#
# Total GULP energy -89095.917176 kJ/mol
# GULP energy per Si atom -5568.494823 kJ/mol
# Density = 1.957520 g / cm^3
# Si number density = 19.619857 Si / 1000 Ang^3
#
#
#
# Elastic Constant Matrix: (Units=GPa)
#
#
# Indices 1 2 3 4 5 6 
#
# 1 127.7778 51.4397 40.9594 -1.4297 15.7987 -3.7204
# 2 51.4397 85.3002 46.5287 -1.7175 17.8312 -19.8629
# 3 40.9594 46.5287 95.0838 2.3002 -5.5812 -8.4047
# 4 -1.4297 -1.7175 2.3002 34.1859 -9.7371 2.5947
# 5 15.7987 17.8312 -5.5812 -9.7371 19.2091 -0.1100
# 6 -3.7204 -19.8629 -8.4047 2.5947 -0.1100 41.2007
#
#
#
# Elastic Compliance Matrix: (Units=1/GPa)
#
#
# Indices 1 2 3 4 5 6 
#
# 1 0.011362 -0.003464 -0.003750 -0.001641 -0.008059 -0.001327
# 2 -0.003464 0.032309 -0.015096 -0.008677 -0.035855 0.012635
# 3 -0.003750 -0.015096 0.020577 0.005314 0.025748 -0.003685
# 4 -0.001641 -0.008677 0.005314 0.037304 0.029826 -0.005517
# 5 -0.008059 -0.035855 0.025748 0.029826 0.114487 -0.014333
# 6 -0.001327 0.012635 -0.003685 -0.005517 -0.014333 0.029800
#
#
# Mechanical properties :
#
#
# Convention : Reuss Voigt Hill
#
# Bulk Modulus (GPa) = 50.94739 65.11305 58.03022
# Shear Modulus (GPa) = 16.83495 30.20140 23.51817
#
# Velocity S-wave (km/s) = 2.93244 3.92768 3.46597
# Velocity P-wave (km/s) = 6.12284 7.33678 6.75713
#
# Compressibility (1/GPa) = 0.01962809
#
# Stress axis : x y z
#
# Youngs Moduli (GPa) = 88.01310 30.95120 48.59865
#
# Poissons Ratio (x) = 0.10720 0.18225
# Poissons Ratio (y) = 0.30485 0.73364
# Poissons Ratio (z) = 0.33006 0.46724
#
# Static dielectric constant tensor:
#      x y z
#    x 1.732220 -0.052250 0.012810 
#    y -0.052250 1.731490 -0.012230 
#    z 0.012810 -0.012230 1.749890 
# 
# From -- ./inp_files/207439.got.cif
#   From: 2010.05.17/outbox.cif.g08.bks.cpg/sg2_104_cif.got.tgz:207439.got - 2010.06.03 11:33:40.
