data_PCOD9085448
_publ_section_title
;
Structure prediction by ZEFSAII (Michael W. Deem and Ramdas Pophale) SiO2 
 PCOD9085448
Probable space group: P -1
;
_chemical_formula_sum "Si O2"
_cell_formula_units_Z 16
_cell_length_a 11.436341
_cell_length_b 20.973897
_cell_length_c 8.272276
_cell_angle_alpha 46.950611
_cell_angle_beta 48.310901
_cell_angle_gamma 25.284437
_cell_volume 611.991496
_symmetry_space_group_name_H-M "P -1"
_symmetry_group_IT_number 2
_symmetry_cell_setting 'triclinic'
loop_
_space_group_symop_operation_xyz
x,y,z
-x,-y,-z
loop_
_atom_site_type_symbol
_atom_site_label
_atom_site_fract_x
_atom_site_fract_y
_atom_site_fract_z
Si Si1 0.185951 0.226028 0.242077
Si Si2 0.191435 0.709790 0.282876
Si Si3 0.134095 0.897799 0.213900
Si Si4 0.286212 0.513439 0.987182
Si Si5 0.719014 0.987507 0.006238
Si Si6 0.386543 0.890550 0.441152
Si Si7 0.169055 0.366162 0.273564
Si Si8 0.276938 0.421290 0.453720
O O1 0.012991 0.255308 0.485618
O O2 0.209797 0.309933 0.156506
O O3 0.008363 0.313748 0.090581
O O4 0.480141 0.053063 0.219740
O O5 0.265519 0.750764 0.274876
O O6 0.478150 0.546615 0.226046
O O7 0.013739 0.823614 0.092180
O O8 0.305214 0.898926 0.123521
O O9 0.892152 0.987719 0.408983
O O10 0.000000 0.000000 0.000000
O O11 0.280241 0.413939 0.106779
O O12 0.321653 0.486544 0.192432
O O13 0.659771 0.017761 0.817037
O O14 0.640721 0.780140 0.526203
O O15 0.470731 0.759341 0.504335
O O16 0.847217 0.506384 0.380951
O O17 0.000000 0.500000 0.500000
#
# Coordination Sequence:
#
# PCOD9085448 Si02
#       8
#     2   2   2   2   2   2   2   2
#     4  12  23  38  59  87 118 157 198 240 290 344
#     4  11  24  40  56  85 124 157 193 242 291 345
#     4  10  20  37  60  85 115 152 190 237 289 344
#     4  10  20  39  60  81 114 156 194 242 292 345
#     4  11  21  38  62  87 114 155 198 241 288 345
#     4  10  19  35  60  91 118 147 192 246 292 341
#     4  10  19  35  61  90 115 148 196 246 289 345
#     4   8  16  32  55  84 111 140 186 244 287 331
#
# _framework density 26.144151999999998
#
# number of rings (size 3 to 8) (size 9 to 14) (size 15 to 20)
#    0.000    2.000    0.000    9.000    0.000    1.000 
#    0.000    4.375    0.000    0.000    0.000    0.000 
#    0.000    0.000    0.000    0.000    0.000    0.000 
#
# Total GULP energy -89414.759516 kJ/mol
# GULP energy per Si atom -5588.422470 kJ/mol
# Density = 2.608465 g / cm^3
# Si number density = 26.144152 Si / 1000 Ang^3
#
#
#
# Elastic Constant Matrix: (Units=GPa)
#
#
# Indices 1 2 3 4 5 6 
#
# 1 61.1911 20.3740 16.7295 -0.1016 -0.1486 3.3772
# 2 20.3740 81.5461 17.9000 16.2467 21.0634 4.4130
# 3 16.7295 17.9000 126.2734 20.5031 15.2996 -4.6842
# 4 -0.1016 16.2467 20.5031 57.3982 -4.6856 12.1172
# 5 -0.1486 21.0634 15.2996 -4.6856 33.8301 0.9102
# 6 3.3772 4.4130 -4.6842 12.1172 0.9102 22.7085
#
#
#
# Elastic Compliance Matrix: (Units=1/GPa)
#
#
# Indices 1 2 3 4 5 6 
#
# 1 0.019764 -0.006525 -0.003441 0.004733 0.006500 -0.005167
# 2 -0.006525 0.018296 0.001046 -0.007018 -0.012916 0.001893
# 3 -0.003441 0.001046 0.010090 -0.005596 -0.006156 0.005623
# 4 0.004733 -0.007018 -0.005596 0.025351 0.010821 -0.014455
# 5 0.006500 -0.012916 -0.006156 0.010821 0.042106 -0.007188
# 6 -0.005167 0.001893 0.005623 -0.014455 -0.007188 0.053598
#
#
# Mechanical properties :
#
#
# Convention : Reuss Voigt Hill
#
# Bulk Modulus (GPa) = 32.99397 42.11306 37.55351
# Shear Modulus (GPa) = 25.36155 37.05449 31.20802
#
# Velocity S-wave (km/s) = 3.11797 3.76881 3.45873
# Velocity P-wave (km/s) = 5.06060 5.92297 5.50869
#
# Compressibility (1/GPa) = 0.03030857
#
# Stress axis : x y z
#
# Youngs Moduli (GPa) = 50.59589 54.65813 99.10785
#
# Poissons Ratio (x) = 0.35664 0.34106
# Poissons Ratio (y) = 0.33014 -0.10362
# Poissons Ratio (z) = 0.17411 -0.05715
#
# Static dielectric constant tensor:
#      x y z
#    x 2.175990 -0.006300 0.005860 
#    y -0.006300 2.009380 -0.001730 
#    z 0.005860 -0.001730 2.139880 
# 
# From -- ./inp_files/321018.got.cif
#   From: 2010.05.17/outbox.cif.g08.bks.cpg/sg2_161_cif.got.tgz:321018.got - 2010.06.03 11:33:40.
