data_PCOD9085451
_publ_section_title
;
Structure prediction by ZEFSAII (Michael W. Deem and Ramdas Pophale) SiO2 
 PCOD9085451
Probable space group: P -1
;
_chemical_formula_sum "Si O2"
_cell_formula_units_Z 16
_cell_length_a 13.316701
_cell_length_b 16.637322
_cell_length_c 9.343260
_cell_angle_alpha 120.115657
_cell_angle_beta 63.938212
_cell_angle_gamma 155.238102
_cell_volume 749.238365
_symmetry_space_group_name_H-M "P -1"
_symmetry_group_IT_number 2
_symmetry_cell_setting 'triclinic'
loop_
_space_group_symop_operation_xyz
x,y,z
-x,-y,-z
loop_
_atom_site_type_symbol
_atom_site_label
_atom_site_fract_x
_atom_site_fract_y
_atom_site_fract_z
Si Si1 0.248187 0.609911 0.065397
Si Si2 0.155868 0.369834 0.309056
Si Si3 0.876550 0.316570 0.595850
Si Si4 0.360744 0.340919 0.822896
Si Si5 0.506762 0.115818 0.099201
Si Si6 0.288287 0.090656 0.764041
Si Si7 0.494160 0.101797 0.421584
Si Si8 0.964498 0.730435 0.036376
O O1 0.109498 0.576947 0.231431
O O2 0.506634 0.773102 0.121676
O O3 0.303848 0.703086 0.967076
O O4 0.104642 0.409667 0.952085
O O5 0.429062 0.537368 0.306528
O O6 0.088071 0.407236 0.484469
O O7 0.120309 0.361903 0.153619
O O8 0.958490 0.144051 0.257598
O O9 0.726966 0.231722 0.470177
O O10 0.706883 0.126005 0.631077
O O11 0.250857 0.169677 0.815202
O O12 0.168450 0.274394 0.832378
O O13 0.500000 0.500000 0.000000
O O14 0.537837 0.161713 0.286230
O O15 0.245363 0.954280 0.064469
O O16 0.500000 0.000000 0.000000
O O17 0.403006 0.122497 0.585593
#
# Coordination Sequence:
#
# PCOD9085451 Si02
#       8
#     2   2   2   2   2   2   2   2
#     4  11  21  38  62  94 123 158 200 249 305 362
#     4  10  19  35  60  91 121 158 192 253 310 341
#     4   9  18  37  61  91 121 149 206 251 295 365
#     4  10  21  38  59  95 124 149 210 258 294 347
#     4  12  23  41  61  86 128 167 194 242 313 362
#     4  10  19  38  65  92 118 157 206 251 301 351
#     4   9  19  36  60  89 121 157 199 251 295 365
#     4  11  24  38  59  93 126 155 204 255 295 364
#
# _framework density 21.355021000000001
#
# number of rings (size 3 to 8) (size 9 to 14) (size 15 to 20)
#    0.000    1.750    5.000    1.500    0.000    4.000 
#    2.250    1.875    0.000    3.750    0.000    0.000 
#    0.000    0.000    0.000    0.000    0.000    0.000 
#
# Total GULP energy -89443.871518 kJ/mol
# GULP energy per Si atom -5590.241970 kJ/mol
# Density = 2.130642 g / cm^3
# Si number density = 21.355021 Si / 1000 Ang^3
#
#
#
# Elastic Constant Matrix: (Units=GPa)
#
#
# Indices 1 2 3 4 5 6 
#
# 1 110.2011 51.0111 43.9053 -9.4772 -34.3715 -4.6058
# 2 51.0111 87.8854 22.0713 -15.4015 -7.4042 -7.0417
# 3 43.9053 22.0713 60.3732 -21.5973 5.1601 -8.1668
# 4 -9.4772 -15.4015 -21.5973 32.0240 -0.6800 -5.2812
# 5 -34.3715 -7.4042 5.1601 -0.6800 33.9010 -4.2466
# 6 -4.6058 -7.0417 -8.1668 -5.2812 -4.2466 47.0758
#
#
#
# Elastic Compliance Matrix: (Units=1/GPa)
#
#
# Indices 1 2 3 4 5 6 
#
# 1 0.043652 -0.015716 -0.037084 -0.019095 0.045770 -0.002527
# 2 -0.015716 0.019204 0.010103 0.011667 -0.012636 0.003257
# 3 -0.037084 0.010103 0.055844 0.031855 -0.042336 0.007325
# 4 -0.019095 0.011667 0.031855 0.053858 -0.019365 0.009698
# 5 0.045770 -0.012636 -0.042336 -0.019365 0.079226 0.000218
# 6 -0.002527 0.003257 0.007325 0.009698 0.000218 0.023861
#
#
# Mechanical properties :
#
#
# Convention : Reuss Voigt Hill
#
# Bulk Modulus (GPa) = 30.02548 54.71501 42.37024
# Shear Modulus (GPa) = 13.43577 32.03164 22.73370
#
# Velocity S-wave (km/s) = 2.51103 3.87713 3.26630
# Velocity P-wave (km/s) = 4.74318 6.76166 5.84028
#
# Compressibility (1/GPa) = 0.03330505
#
# Stress axis : x y z
#
# Youngs Moduli (GPa) = 22.90865 52.07154 17.90713
#
# Poissons Ratio (x) = 0.81836 0.66407
# Poissons Ratio (y) = 0.36003 -0.18091
# Poissons Ratio (z) = 0.84954 -0.52606
#
# Static dielectric constant tensor:
#      x y z
#    x 1.799550 -0.005170 0.007410 
#    y -0.005170 1.810720 0.001570 
#    z 0.007410 0.001570 1.803530 
# 
# From -- ./inp_files/273682.got.cif
#   From: 2010.05.17/outbox.cif.g08.bks.cpg/sg2_137_cif.got.tgz:273682.got - 2010.06.03 11:33:40.
