data_PCOD9085139
_publ_section_title
;
Structure prediction by ZEFSAII (Michael W. Deem and Ramdas Pophale) SiO2 
 PCOD9085139
Probable space group: P -1
;
_chemical_formula_sum "Si O2"
_cell_formula_units_Z 12
_cell_length_a 7.026582
_cell_length_b 8.170722
_cell_length_c 14.277913
_cell_angle_alpha 100.912989
_cell_angle_beta 47.538523
_cell_angle_gamma 68.831243
_cell_volume 438.147551
_symmetry_space_group_name_H-M "P -1"
_symmetry_group_IT_number 2
_symmetry_cell_setting 'triclinic'
loop_
_space_group_symop_operation_xyz
x,y,z
-x,-y,-z
loop_
_atom_site_type_symbol
_atom_site_label
_atom_site_fract_x
_atom_site_fract_y
_atom_site_fract_z
Si Si1 0.745601 0.504029 0.150689
Si Si2 0.803704 0.682703 0.505795
Si Si3 0.167571 0.064076 0.673364
Si Si4 0.737110 0.014176 0.674796
Si Si5 0.232151 0.028887 0.985524
Si Si6 0.687427 0.553057 0.846704
O O1 0.492519 0.763179 0.290082
O O2 0.535506 0.467765 0.151007
O O3 0.000000 0.500000 0.000000
O O4 0.967992 0.296823 0.126717
O O5 0.907663 0.821448 0.520633
O O6 0.383373 0.871519 0.660181
O O7 0.500000 0.000000 0.500000
O O8 0.978088 0.541830 0.337657
O O9 0.968980 0.020416 0.669085
O O10 0.881703 0.331804 0.826207
O O11 0.503435 0.998206 0.819422
O O12 0.444423 0.823401 0.968738
O O13 0.000000 0.000000 0.000000
O O14 0.000000 0.500000 0.500000
#
# Coordination Sequence:
#
# PCOD9085139 Si02
#       6
#     2   2   2   2   2   2
#     4   8  16  29  53  81 100 143 190 217 263 325
#     4  11  21  35  56  86 113 141 184 232 279 333
#     4   9  21  36  53  81 116 148 182 221 275 338
#     4  10  19  35  59  82 111 149 182 224 284 325
#     4   9  16  31  58  82 106 147 190 222 267 331
#     4   9  17  33  53  82 111 141 181 226 273 325
#
# _framework density 27.388036
#
# number of rings (size 3 to 8) (size 9 to 14) (size 15 to 20)
#    0.000    2.667    1.667    0.000    0.000    6.667 
#    0.000    0.000    0.000   38.000    0.000    0.000 
#    0.000    0.000    0.000    0.000    0.000    0.000 
#
# Total GULP energy -66988.353203 kJ/mol
# GULP energy per Si atom -5582.362767 kJ/mol
# Density = 2.732570 g / cm^3
# Si number density = 27.388036 Si / 1000 Ang^3
#
#
#
# Elastic Constant Matrix: (Units=GPa)
#
#
# Indices 1 2 3 4 5 6 
#
# 1 144.6563 52.7845 34.3477 7.5774 -25.9117 -19.8750
# 2 52.7845 264.2528 49.2336 66.1154 -13.1989 -25.7223
# 3 34.3477 49.2336 77.9490 8.6855 -11.5139 8.0254
# 4 7.5774 66.1154 8.6855 60.2698 3.6600 -16.0802
# 5 -25.9117 -13.1989 -11.5139 3.6600 45.5951 4.7818
# 6 -19.8750 -25.7223 8.0254 -16.0802 4.7818 44.5789
#
#
#
# Elastic Compliance Matrix: (Units=1/GPa)
#
#
# Indices 1 2 3 4 5 6 
#
# 1 0.009253 -0.000907 -0.003571 0.001286 0.003537 0.004330
# 2 -0.000907 0.006155 -0.002851 -0.005896 0.000869 0.001441
# 3 -0.003571 -0.002851 0.017366 -0.000921 0.002333 -0.006946
# 4 0.001286 -0.005896 -0.000921 0.025086 -0.003936 0.006808
# 5 0.003537 0.000869 0.002333 -0.003936 0.025359 -0.002482
# 6 0.004330 0.001441 -0.006946 0.006808 -0.002482 0.029166
#
#
# Mechanical properties :
#
#
# Convention : Reuss Voigt Hill
#
# Bulk Modulus (GPa) = 55.20148 84.39885 69.80016
# Shear Modulus (GPa) = 37.57075 53.45493 45.51284
#
# Velocity S-wave (km/s) = 3.70779 4.42267 4.08091
# Velocity P-wave (km/s) = 6.20720 7.54737 6.90986
#
# Compressibility (1/GPa) = 0.01811546
#
# Stress axis : x y z
#
# Youngs Moduli (GPa) = 108.07634 162.46000 57.58445
#
# Poissons Ratio (x) = 0.14729 0.20565
# Poissons Ratio (y) = 0.09798 0.16420
# Poissons Ratio (z) = 0.38596 0.46324
#
# Static dielectric constant tensor:
#      x y z
#    x 2.139350 -0.134150 -0.012710 
#    y -0.134150 2.392300 -0.124440 
#    z -0.012710 -0.124440 2.325900 
# 
# From -- ./inp_files/555298.got.cif
#   From: 2010.05.17/outbox.cif.g08.bks.cpg/sg2_278_cif.got.tgz:555298.got - 2010.06.03 11:33:40.
