data_PCOD9085547
_publ_section_title
;
Structure prediction by ZEFSAII (Michael W. Deem and Ramdas Pophale) SiO2 
 PCOD9085547
Probable space group: P -1
;
_chemical_formula_sum "Si O2"
_cell_formula_units_Z 14
_cell_length_a 9.766467
_cell_length_b 12.197653
_cell_length_c 8.519502
_cell_angle_alpha 129.269159
_cell_angle_beta 44.622433
_cell_angle_gamma 128.725343
_cell_volume 522.533748
_symmetry_space_group_name_H-M "P -1"
_symmetry_group_IT_number 2
_symmetry_cell_setting 'triclinic'
loop_
_space_group_symop_operation_xyz
x,y,z
-x,-y,-z
loop_
_atom_site_type_symbol
_atom_site_label
_atom_site_fract_x
_atom_site_fract_y
_atom_site_fract_z
Si Si1 0.367030 0.094493 0.617871
Si Si2 0.859559 0.757997 0.446993
Si Si3 0.695435 0.412145 0.599860
Si Si4 0.522155 0.377173 0.183198
Si Si5 0.068300 0.530126 0.208018
Si Si6 0.956800 0.062011 0.844310
Si Si7 0.490039 0.041452 0.867377
O O1 0.506632 0.262714 0.635627
O O2 0.139441 0.085613 0.842000
O O3 0.500000 0.000000 0.500000
O O4 0.335394 0.012836 0.401543
O O5 0.613426 0.665668 0.584876
O O6 0.990047 0.663026 0.332201
O O7 0.950485 0.813332 0.252135
O O8 0.891945 0.902546 0.662869
O O9 0.607978 0.546705 0.750151
O O10 0.809108 0.437314 0.697541
O O11 0.855836 0.406263 0.325007
O O12 0.761987 0.478935 0.067303
O O13 0.523831 0.215669 0.971766
O O14 0.738889 0.057008 0.088456
O O15 0.500000 0.000000 0.000000
#
# Coordination Sequence:
#
# PCOD9085547 Si02
#       7
#     2   2   2   2   2   2   2
#     4  12  25  41  62  95 131 161 204 264 318 365
#     4   9  18  34  59  88 111 156 207 251 301 362
#     4  10  23  37  57  89 123 162 207 257 313 368
#     4  10  19  35  61  87 115 158 206 247 301 369
#     4  10  19  37  60  83 121 165 210 253 305 373
#     4  10  20  36  59  87 126 157 199 258 308 362
#     4  11  23  41  68  95 122 168 215 250 309 380
#
# _framework density 26.792528999999998
#
# number of rings (size 3 to 8) (size 9 to 14) (size 15 to 20)
#    0.000    1.714    0.000    6.429    0.000    2.857 
#    0.000    6.429    0.000    8.571    0.000    0.000 
#    0.000    0.000    0.000    0.000    0.000    0.000 
#
# Total GULP energy -78380.286844 kJ/mol
# GULP energy per Si atom -5598.591917 kJ/mol
# Density = 2.673155 g / cm^3
# Si number density = 26.792529 Si / 1000 Ang^3
#
#
#
# Elastic Constant Matrix: (Units=GPa)
#
#
# Indices 1 2 3 4 5 6 
#
# 1 95.4783 62.1263 8.8400 -2.9804 -38.5876 -14.6136
# 2 62.1263 177.4097 51.0268 -15.7866 -21.9978 -0.9049
# 3 8.8400 51.0268 115.5335 -35.7142 -28.8410 7.3865
# 4 -2.9804 -15.7866 -35.7142 56.2515 10.2950 -13.4836
# 5 -38.5876 -21.9978 -28.8410 10.2950 42.5016 -13.5693
# 6 -14.6136 -0.9049 7.3865 -13.4836 -13.5693 50.9580
#
#
#
# Elastic Compliance Matrix: (Units=1/GPa)
#
#
# Indices 1 2 3 4 5 6 
#
# 1 0.035995 -0.010537 0.012049 0.003985 0.040932 0.020343
# 2 -0.010537 0.009695 -0.005932 -0.000962 -0.009899 -0.004880
# 3 0.012049 -0.005932 0.017498 0.008376 0.020417 0.008467
# 4 0.003985 -0.000962 0.008376 0.023877 0.005474 0.007687
# 5 0.040932 -0.009899 0.020417 0.005474 0.077931 0.030803
# 6 0.020343 -0.004880 0.008467 0.007687 0.030803 0.034381
#
#
# Mechanical properties :
#
#
# Convention : Reuss Voigt Hill
#
# Bulk Modulus (GPa) = 18.39997 70.26752 44.33374
# Shear Modulus (GPa) = 22.09142 47.70413 34.89777
#
# Velocity S-wave (km/s) = 2.87459 4.22418 3.61296
# Velocity P-wave (km/s) = 4.23086 7.07637 5.82989
#
# Compressibility (1/GPa) = 0.05434791
#
# Stress axis : x y z
#
# Youngs Moduli (GPa) = 27.78178 103.14884 57.14849
#
# Poissons Ratio (x) = 1.08684 -0.68857
# Poissons Ratio (y) = 0.29273 0.33901
# Poissons Ratio (z) = -0.33473 0.61188
#
# Static dielectric constant tensor:
#      x y z
#    x 2.161540 0.014800 0.085320 
#    y 0.014800 2.125470 -0.100680 
#    z 0.085320 -0.100680 2.200220 
# 
# From -- ./inp_files/189719.got.cif
#   From: 2010.05.17/outbox.cif.g08.bks.cpg/sg2_95_cif.got.tgz:189719.got - 2010.06.03 11:33:40.
