data_PCOD9085430
_publ_section_title
;
Structure prediction by ZEFSAII (Michael W. Deem and Ramdas Pophale) SiO2 
 PCOD9085430
Probable space group: P -1
;
_chemical_formula_sum "Si O2"
_cell_formula_units_Z 16
_cell_length_a 7.165713
_cell_length_b 15.179528
_cell_length_c 9.580496
_cell_angle_alpha 114.814157
_cell_angle_beta 68.189417
_cell_angle_gamma 71.609065
_cell_volume 727.900102
_symmetry_space_group_name_H-M "P -1"
_symmetry_group_IT_number 2
_symmetry_cell_setting 'triclinic'
loop_
_space_group_symop_operation_xyz
x,y,z
-x,-y,-z
loop_
_atom_site_type_symbol
_atom_site_label
_atom_site_fract_x
_atom_site_fract_y
_atom_site_fract_z
Si Si1 0.829496 0.670652 0.176776
Si Si2 0.629907 0.028395 0.101342
Si Si3 0.162272 0.229899 0.503855
Si Si4 0.049438 0.858779 0.271436
Si Si5 0.634283 0.516066 0.102033
Si Si6 0.853346 0.177967 0.080762
Si Si7 0.658643 0.121450 0.565725
Si Si8 0.746826 0.292776 0.470539
O O1 0.827427 0.671666 0.349183
O O2 0.713929 0.604921 0.100780
O O3 0.630822 0.807103 0.291983
O O4 0.107253 0.600056 0.009363
O O5 0.423534 0.113419 0.326178
O O6 0.733904 0.103128 0.068484
O O7 0.500000 0.000000 0.000000
O O8 0.864251 0.909453 0.014017
O O9 0.016670 0.203053 0.636777
O O10 0.005376 0.266048 0.431425
O O11 0.236230 0.878664 0.312279
O O12 0.812391 0.987186 0.389065
O O13 0.160378 0.788105 0.052686
O O14 0.451660 0.582355 0.324601
O O15 0.500000 0.500000 0.000000
O O16 0.736263 0.275471 0.298136
O O17 0.716297 0.194980 0.491029
#
# Coordination Sequence:
#
# PCOD9085430 Si02
#       8
#     2   2   2   2   2   2   2   2
#     4  10  20  34  59  87 114 147 192 250 295 337
#     4  11  22  34  56  82 116 157 200 238 285 341
#     4  11  21  37  58  90 119 156 196 236 287 354
#     4  10  22  36  60  85 125 164 195 230 284 356
#     4  10  19  35  60  90 112 141 197 255 302 339
#     4  11  22  38  55  81 121 160 191 243 295 337
#     4   9  19  35  54  86 119 158 195 235 281 348
#     4  10  19  36  59  83 116 151 192 249 295 336
#
# _framework density 21.981037000000001
#
# number of rings (size 3 to 8) (size 9 to 14) (size 15 to 20)
#    0.000    1.750    2.500    3.750    3.500    2.000 
#    0.000    0.000    0.000    1.500    0.000    0.000 
#    0.000    0.000    0.000    0.000    0.000    0.000 
#
# Total GULP energy -89340.143904 kJ/mol
# GULP energy per Si atom -5583.758994 kJ/mol
# Density = 2.193101 g / cm^3
# Si number density = 21.981037 Si / 1000 Ang^3
#
#
#
# Elastic Constant Matrix: (Units=GPa)
#
#
# Indices 1 2 3 4 5 6 
#
# 1 129.4180 2.2519 48.3695 12.1724 18.5659 -6.1404
# 2 2.2519 13.7310 23.7910 5.4634 5.7627 2.3400
# 3 48.3695 23.7910 176.6476 9.0768 13.3696 -1.6853
# 4 12.1724 5.4634 9.0768 32.0207 -4.2211 -1.7396
# 5 18.5659 5.7627 13.3696 -4.2211 45.1464 15.1820
# 6 -6.1404 2.3400 -1.6853 -1.7396 15.1820 22.3893
#
#
#
# Elastic Compliance Matrix: (Units=1/GPa)
#
#
# Indices 1 2 3 4 5 6 
#
# 1 0.010473 0.007321 -0.003020 -0.004947 -0.006882 0.006162
# 2 0.007321 0.111705 -0.015046 -0.019538 -0.013599 -0.003096
# 3 -0.003020 -0.015046 0.008422 0.001446 0.000392 0.001225
# 4 -0.004947 -0.019538 0.001446 0.037012 0.008195 -0.001887
# 5 -0.006882 -0.013599 0.000392 0.008195 0.035363 -0.023779
# 6 0.006162 -0.003096 0.001225 -0.001887 -0.023779 0.062748
#
#
# Mechanical properties :
#
#
# Convention : Reuss Voigt Hill
#
# Bulk Modulus (GPa) = 9.16491 52.06905 30.61698
# Shear Modulus (GPa) = 15.45204 36.27022 25.86113
#
# Velocity S-wave (km/s) = 2.65424 4.06651 3.43376
# Velocity P-wave (km/s) = 3.68399 6.76670 5.44794
#
# Compressibility (1/GPa) = 0.10911185
#
# Stress axis : x y z
#
# Youngs Moduli (GPa) = 95.48303 8.95213 118.73659
#
# Poissons Ratio (x) = -0.06554 0.35858
# Poissons Ratio (y) = -0.69905 1.78645
# Poissons Ratio (z) = 0.28835 0.13469
#
# Static dielectric constant tensor:
#      x y z
#    x 1.893060 0.039210 0.032220 
#    y 0.039210 1.837840 0.034430 
#    z 0.032220 0.034430 1.840820 
# 
# From -- ./inp_files/213250.got.cif
#   From: 2010.05.17/outbox.cif.g08.bks.cpg/sg2_107_cif.got.tgz:213250.got - 2010.06.03 11:33:40.
