data_PCOD9085947
_publ_section_title
;
Structure prediction by ZEFSAII (Michael W. Deem and Ramdas Pophale) SiO2 
 PCOD9085947
Probable space group: P -1
;
_chemical_formula_sum "Si O2"
_cell_formula_units_Z 16
_cell_length_a 7.265960
_cell_length_b 15.923475
_cell_length_c 8.658139
_cell_angle_alpha 118.176420
_cell_angle_beta 119.190674
_cell_angle_gamma 98.960962
_cell_volume 666.866387
_symmetry_space_group_name_H-M "P -1"
_symmetry_group_IT_number 2
_symmetry_cell_setting 'triclinic'
loop_
_space_group_symop_operation_xyz
x,y,z
-x,-y,-z
loop_
_atom_site_type_symbol
_atom_site_label
_atom_site_fract_x
_atom_site_fract_y
_atom_site_fract_z
Si Si1 0.252866 0.009314 0.667272
Si Si2 0.864710 0.637165 0.175937
Si Si3 0.115466 0.518204 0.731041
Si Si4 0.386241 0.765820 0.134780
Si Si5 0.550056 0.248774 0.514552
Si Si6 0.964691 0.176204 0.794493
Si Si7 0.193321 0.063568 0.000118
Si Si8 0.368600 0.528572 0.336849
O O1 0.470101 0.132122 0.831326
O O2 0.230385 0.989030 0.823819
O O3 0.260847 0.922384 0.477758
O O4 0.000000 0.000000 0.500000
O O5 0.818278 0.573874 0.265222
O O6 0.156151 0.687701 0.313324
O O7 0.860189 0.744059 0.201228
O O8 0.691524 0.542430 0.903898
O O9 0.000000 0.500000 0.500000
O O10 0.898511 0.502372 0.740327
O O11 0.319967 0.645419 0.944987
O O12 0.530233 0.789624 0.376684
O O13 0.139076 0.765833 0.084456
O O14 0.484590 0.341869 0.524469
O O15 0.436947 0.151646 0.261473
O O16 0.096400 0.129928 0.915923
O O17 0.000000 0.000000 0.000000
O O18 0.500000 0.500000 0.500000
#
# Coordination Sequence:
#
# PCOD9085947 Si02
#       8
#     2   2   2   2   2   2   2   2
#     4  10  23  41  63  93 127 167 216 269 324 385
#     4  10  20  42  63  95 129 169 215 257 323 390
#     4  11  23  41  63  98 134 171 214 266 322 389
#     4  11  21  42  67  91 130 175 213 264 330 385
#     4  10  19  35  65  87 125 169 207 261 325 377
#     4  10  21  42  67  92 131 169 218 268 322 383
#     4  11  24  43  64  96 128 169 220 273 332 389
#     4  11  20  38  65  93 125 170 219 257 320 387
#
# _framework density 23.992809000000001
#
# number of rings (size 3 to 8) (size 9 to 14) (size 15 to 20)
#    0.000    1.500    3.750    3.375    3.500    1.000 
#    2.250    6.250    0.000    0.000    0.000    0.000 
#    0.000    0.000    0.000    0.000    0.000    0.000 
#
# Total GULP energy -89368.135825 kJ/mol
# GULP energy per Si atom -5585.508489 kJ/mol
# Density = 2.393820 g / cm^3
# Si number density = 23.992809 Si / 1000 Ang^3
#
#
#
# Elastic Constant Matrix: (Units=GPa)
#
#
# Indices 1 2 3 4 5 6 
#
# 1 62.5234 27.4068 12.2105 3.2468 8.9637 17.4793
# 2 27.4068 123.2663 29.7005 -17.1799 -0.5519 7.2846
# 3 12.2105 29.7005 128.0836 -19.8051 -4.7476 15.7478
# 4 3.2468 -17.1799 -19.8051 43.3948 1.4158 4.1775
# 5 8.9637 -0.5519 -4.7476 1.4158 27.5642 -5.4480
# 6 17.4793 7.2846 15.7478 4.1775 -5.4480 35.0564
#
#
#
# Elastic Compliance Matrix: (Units=1/GPa)
#
#
# Indices 1 2 3 4 5 6 
#
# 1 0.022846 -0.004671 -0.000404 -0.002320 -0.009742 -0.011477
# 2 -0.004671 0.009937 -0.001336 0.003563 0.001436 0.000663
# 3 -0.000404 -0.001336 0.009323 0.004128 0.000689 -0.004094
# 4 -0.002320 0.003563 0.004128 0.026998 -0.000794 -0.004778
# 5 -0.009742 0.001436 0.000689 -0.000794 0.041777 0.010836
# 6 -0.011477 0.000663 -0.004094 -0.004778 0.010836 0.038202
#
#
# Mechanical properties :
#
#
# Convention : Reuss Voigt Hill
#
# Bulk Modulus (GPa) = 34.14859 50.27876 42.21367
# Shear Modulus (GPa) = 29.12633 37.50679 33.31656
#
# Velocity S-wave (km/s) = 3.48797 3.95809 3.73044
# Velocity P-wave (km/s) = 5.52132 6.47224 6.01560
#
# Compressibility (1/GPa) = 0.02928379
#
# Stress axis : x y z
#
# Youngs Moduli (GPa) = 43.77164 100.63561 107.26327
#
# Poissons Ratio (x) = 0.47007 0.04329
# Poissons Ratio (y) = 0.20446 0.14333
# Poissons Ratio (z) = 0.01767 0.13448
#
# Static dielectric constant tensor:
#      x y z
#    x 1.947200 -0.107050 0.027900 
#    y -0.107050 1.971940 0.111300 
#    z 0.027900 0.111300 1.786800 
# 
# From -- ./inp_files/208837.got.cif
#   From: 2010.05.17/outbox.cif.g08.bks.cpg/sg2_105_cif.got.tgz:208837.got - 2010.06.03 11:33:40.
