data_PCOD9085429
_publ_section_title
;
Structure prediction by ZEFSAII (Michael W. Deem and Ramdas Pophale) SiO2 
 PCOD9085429
Probable space group: P -1
;
_chemical_formula_sum "Si O2"
_cell_formula_units_Z 16
_cell_length_a 15.132684
_cell_length_b 14.897218
_cell_length_c 14.423407
_cell_angle_alpha 160.459017
_cell_angle_beta 137.869793
_cell_angle_gamma 43.203687
_cell_volume 723.008278
_symmetry_space_group_name_H-M "P -1"
_symmetry_group_IT_number 2
_symmetry_cell_setting 'triclinic'
loop_
_space_group_symop_operation_xyz
x,y,z
-x,-y,-z
loop_
_atom_site_type_symbol
_atom_site_label
_atom_site_fract_x
_atom_site_fract_y
_atom_site_fract_z
Si Si1 0.350195 0.501234 0.420982
Si Si2 0.608489 0.758263 0.073917
Si Si3 0.942290 0.185364 0.848011
Si Si4 0.269094 0.759391 0.426184
Si Si5 0.240145 0.002614 0.930319
Si Si6 0.656103 0.958591 0.763666
Si Si7 0.361224 0.512841 0.847369
Si Si8 0.182412 0.298949 0.653125
O O1 0.500000 0.500000 0.500000
O O2 0.254976 0.629323 0.388296
O O3 0.326980 0.204678 0.143762
O O4 0.308899 0.700755 0.668714
O O5 0.698413 0.736104 0.213996
O O6 0.675630 0.954083 0.247219
O O7 0.468834 0.905982 0.141606
O O8 0.620943 0.458176 0.750889
O O9 0.858598 0.210820 0.711628
O O10 0.872741 0.986192 0.667509
O O11 0.927547 0.476645 0.168990
O O12 0.093116 0.060944 0.831054
O O13 0.230917 0.075085 0.102908
O O14 0.623935 0.689309 0.425758
O O15 0.677442 0.181691 0.920411
O O16 0.247064 0.407730 0.718424
O O17 0.500000 0.500000 0.000000
#
# Coordination Sequence:
#
# PCOD9085429 Si02
#       8
#     2   2   2   2   2   2   2   2
#     4  12  24  42  67  95 129 162 214 263 320 367
#     4  10  19  35  60  89 127 157 199 261 319 371
#     4  10  23  42  63  89 128 172 216 247 307 374
#     4  10  21  37  62  93 121 166 213 258 306 361
#     4  12  26  44  64  90 131 175 206 255 312 382
#     4  12  24  39  61  93 131 163 208 255 329 374
#     4  12  24  39  65 100 127 155 210 269 322 370
#     4  10  21  39  63  90 125 160 208 265 308 370
#
# _framework density 22.129760000000001
#
# number of rings (size 3 to 8) (size 9 to 14) (size 15 to 20)
#    0.000    1.000    1.250    6.000    3.500    1.000 
#    0.000    3.750    0.000    0.000    0.000    0.000 
#    0.000    0.000    0.000    0.000    0.000    0.000 
#
# Total GULP energy -89503.582367 kJ/mol
# GULP energy per Si atom -5593.973898 kJ/mol
# Density = 2.207939 g / cm^3
# Si number density = 22.129760 Si / 1000 Ang^3
#
#
#
# Elastic Constant Matrix: (Units=GPa)
#
#
# Indices 1 2 3 4 5 6 
#
# 1 31.6135 16.1606 -1.2094 -13.7965 -2.3490 5.3387
# 2 16.1606 75.7964 15.2640 0.2295 -1.3501 -1.8490
# 3 -1.2094 15.2640 72.3875 2.6005 -9.5289 2.4632
# 4 -13.7965 0.2295 2.6005 19.8348 6.9791 2.0179
# 5 -2.3490 -1.3501 -9.5289 6.9791 33.0384 13.5298
# 6 5.3387 -1.8490 2.4632 2.0179 13.5298 37.0168
#
#
#
# Elastic Compliance Matrix: (Units=1/GPa)
#
#
# Indices 1 2 3 4 5 6 
#
# 1 0.058943 -0.013537 0.002796 0.041835 0.000441 -0.011805
# 2 -0.013537 0.016937 -0.003736 -0.009163 -0.001017 0.003918
# 3 0.002796 -0.003736 0.015727 -0.002002 0.006622 -0.003947
# 4 0.041835 -0.009163 -0.002002 0.085251 -0.013500 -0.006071
# 5 0.000441 -0.001017 0.006622 -0.013500 0.041097 -0.014840
# 6 -0.011805 0.003918 -0.003947 -0.006071 -0.014840 0.034931
#
#
# Mechanical properties :
#
#
# Convention : Reuss Voigt Hill
#
# Bulk Modulus (GPa) = 15.96077 26.69198 21.32637
# Shear Modulus (GPa) = 16.51676 27.95014 22.23345
#
# Velocity S-wave (km/s) = 2.73492 3.55774 3.17312
# Velocity P-wave (km/s) = 4.14742 5.38187 4.80445
#
# Compressibility (1/GPa) = 0.06265362
#
# Stress axis : x y z
#
# Youngs Moduli (GPa) = 16.96564 59.04241 63.58549
#
# Poissons Ratio (x) = 0.79926 -0.17780
# Poissons Ratio (y) = 0.22967 0.23753
# Poissons Ratio (z) = -0.04744 0.22056
#
# Static dielectric constant tensor:
#      x y z
#    x 1.806570 0.022480 -0.007120 
#    y 0.022480 1.853950 -0.026500 
#    z -0.007120 -0.026500 1.793760 
# 
# From -- ./inp_files/485837.got.cif
#   From: 2010.05.17/outbox.cif.g08.bks.cpg/sg2_243_cif.got.tgz:485837.got - 2010.06.03 11:33:40.
