data_PCOD9085816
_publ_section_title
;
Structure prediction by ZEFSAII (Michael W. Deem and Ramdas Pophale) SiO2 
 PCOD9085816
Probable space group: P -1
;
_chemical_formula_sum "Si O2"
_cell_formula_units_Z 14
_cell_length_a 12.663728
_cell_length_b 18.708360
_cell_length_c 12.191718
_cell_angle_alpha 30.373434
_cell_angle_beta 36.104427
_cell_angle_gamma 29.111598
_cell_volume 693.095249
_symmetry_space_group_name_H-M "P -1"
_symmetry_group_IT_number 2
_symmetry_cell_setting 'triclinic'
loop_
_space_group_symop_operation_xyz
x,y,z
-x,-y,-z
loop_
_atom_site_type_symbol
_atom_site_label
_atom_site_fract_x
_atom_site_fract_y
_atom_site_fract_z
Si Si1 0.779631 0.496706 0.340559
Si Si2 0.990389 0.836521 0.737770
Si Si3 0.903243 0.904171 0.351997
Si Si4 0.601197 0.010264 0.663072
Si Si5 0.388601 0.480913 0.780674
Si Si6 0.305303 0.906315 0.948064
Si Si7 0.308756 0.188383 0.857897
O O1 0.569791 0.503819 0.549694
O O2 0.741413 0.528454 0.200602
O O3 0.767152 0.645819 0.222814
O O4 0.995481 0.298916 0.442503
O O5 0.218493 0.651438 0.767436
O O6 0.813567 0.876587 0.738205
O O7 0.896635 0.824768 0.948129
O O8 0.000000 0.000000 0.500000
O O9 0.711726 0.022142 0.445583
O O10 0.805894 0.963039 0.233868
O O11 0.111310 0.916280 0.165506
O O12 0.425767 0.182406 0.655280
O O13 0.454359 0.942964 0.844357
O O14 0.528298 0.293363 0.970183
O O15 0.500000 0.000000 0.000000
#
# Coordination Sequence:
#
# PCOD9085816 Si02
#       7
#     2   2   2   2   2   2   2
#     4  10  20  37  62  91 118 157 211 247 309 365
#     4  11  23  36  61  93 128 163 199 255 318 359
#     4  10  22  42  66  90 124 164 204 260 299 367
#     4  11  22  39  63  89 124 167 200 255 303 369
#     4  10  19  35  63  91 118 159 203 259 299 367
#     4  10  23  39  65  94 123 158 215 248 308 362
#     4  10  22  36  55  89 125 154 201 253 300 365
#
# _framework density 20.199244
#
# number of rings (size 3 to 8) (size 9 to 14) (size 15 to 20)
#    0.000    1.714    1.429    3.857    4.000    1.143 
#    0.000    0.714    0.000    3.429    0.000    0.000 
#    0.000    0.000    0.000    0.000    0.000    0.000 
#
# Total GULP energy -78075.836687 kJ/mol
# GULP energy per Si atom -5576.845478 kJ/mol
# Density = 2.015327 g / cm^3
# Si number density = 20.199244 Si / 1000 Ang^3
#
#
#
# Elastic Constant Matrix: (Units=GPa)
#
#
# Indices 1 2 3 4 5 6 
#
# 1 56.9674 22.1548 34.1560 -4.9468 -20.1675 -6.3900
# 2 22.1548 126.6740 40.4710 7.8781 -2.9982 17.0818
# 3 34.1560 40.4710 72.0316 -3.2839 -6.7962 6.9399
# 4 -4.9468 7.8781 -3.2839 30.4478 -2.5747 6.3789
# 5 -20.1675 -2.9982 -6.7962 -2.5747 21.4445 2.5149
# 6 -6.3900 17.0818 6.9399 6.3789 2.5149 29.4112
#
#
#
# Elastic Compliance Matrix: (Units=1/GPa)
#
#
# Indices 1 2 3 4 5 6 
#
# 1 0.041675 -0.003387 -0.015400 0.006643 0.033422 0.010357
# 2 -0.003387 0.010654 -0.004297 -0.002956 -0.002823 -0.005028
# 3 -0.015400 -0.004297 0.023668 0.001920 -0.006615 -0.006286
# 4 0.006643 -0.002956 0.001920 0.037212 0.011656 -0.006361
# 5 0.033422 -0.002823 -0.006615 0.011656 0.076812 0.001366
# 6 0.010357 -0.005028 -0.006286 -0.006361 0.001366 0.041917
#
#
# Mechanical properties :
#
#
# Convention : Reuss Voigt Hill
#
# Bulk Modulus (GPa) = 33.52346 49.91518 41.71932
# Shear Modulus (GPa) = 17.35802 26.85345 22.10574
#
# Velocity S-wave (km/s) = 2.93463 3.65009 3.31174
# Velocity P-wave (km/s) = 5.30237 6.52145 5.94325
#
# Compressibility (1/GPa) = 0.02982985
#
# Stress axis : x y z
#
# Youngs Moduli (GPa) = 23.99500 93.85740 42.25056
#
# Poissons Ratio (x) = 0.31794 0.65066
# Poissons Ratio (y) = 0.08128 0.18154
# Poissons Ratio (z) = 0.36952 0.40328
#
# Static dielectric constant tensor:
#      x y z
#    x 1.736130 0.014090 -0.009180 
#    y 0.014090 1.752310 0.052740 
#    z -0.009180 0.052740 1.768530 
# 
# From -- ./inp_files/198975.got.cif
#   From: 2010.05.17/outbox.cif.g08.bks.cpg/sg2_100_cif.got.tgz:198975.got - 2010.06.03 11:33:40.
