data_PCOD9085631
_publ_section_title
;
Structure prediction by ZEFSAII (Michael W. Deem and Ramdas Pophale) SiO2 
 PCOD9085631
Probable space group: P -1
;
_chemical_formula_sum "Si O2"
_cell_formula_units_Z 16
_cell_length_a 7.645105
_cell_length_b 10.981137
_cell_length_c 11.045682
_cell_angle_alpha 123.955849
_cell_angle_beta 95.312769
_cell_angle_gamma 86.409583
_cell_volume 765.800211
_symmetry_space_group_name_H-M "P -1"
_symmetry_group_IT_number 2
_symmetry_cell_setting 'triclinic'
loop_
_space_group_symop_operation_xyz
x,y,z
-x,-y,-z
loop_
_atom_site_type_symbol
_atom_site_label
_atom_site_fract_x
_atom_site_fract_y
_atom_site_fract_z
Si Si1 0.931568 0.691120 0.729787
Si Si2 0.549977 0.387079 0.626357
Si Si3 0.141616 0.992430 0.203659
Si Si4 0.795969 0.851349 0.208823
Si Si5 0.280497 0.383485 0.093738
Si Si6 0.334503 0.104313 0.517330
Si Si7 0.268492 0.564508 0.565163
Si Si8 0.519339 0.112586 0.954186
O O1 0.894731 0.861276 0.795809
O O2 0.870890 0.649535 0.837018
O O3 0.817889 0.585359 0.575514
O O4 0.130120 0.650214 0.686356
O O5 0.653600 0.454004 0.784181
O O6 0.420146 0.260738 0.583401
O O7 0.435796 0.515525 0.626154
O O8 0.681339 0.343803 0.500962
O O9 0.232256 0.045644 0.362708
O O10 0.284230 0.893288 0.086868
O O11 0.963538 0.913195 0.184826
O O12 0.791941 0.879888 0.366108
O O13 0.620025 0.927224 0.182867
O O14 0.777253 0.678785 0.074642
O O15 0.442288 0.271535 0.072957
O O16 0.500000 0.000000 0.500000
O O17 0.500000 0.000000 0.000000
#
# Coordination Sequence:
#
# PCOD9085631 Si02
#       8
#     2   2   2   2   2   2   2   2
#     4  10  19  35  61  95 130 155 209 264 322 383
#     4  10  21  39  67  88 127 169 207 266 322 372
#     4  12  22  40  67  93 132 172 206 268 318 372
#     4  10  25  41  58  92 129 169 217 257 304 384
#     4   9  21  40  58  93 124 165 208 258 318 380
#     4  12  24  43  65  92 126 172 220 262 313 379
#     4   9  20  36  60  99 124 161 207 263 325 378
#     4  10  21  40  65  95 132 168 208 260 325 376
#
# _framework density 20.893176
#
# number of rings (size 3 to 8) (size 9 to 14) (size 15 to 20)
#    0.750    1.000    3.750    0.375    1.750    4.500 
#    0.000    0.000    0.000    2.250    0.000    0.000 
#    0.000    0.000    0.000    0.000    0.000    0.000 
#
# Total GULP energy -89287.416870 kJ/mol
# GULP energy per Si atom -5580.463554 kJ/mol
# Density = 2.084562 g / cm^3
# Si number density = 20.893176 Si / 1000 Ang^3
#
#
#
# Elastic Constant Matrix: (Units=GPa)
#
#
# Indices 1 2 3 4 5 6 
#
# 1 74.3409 -2.7390 -1.1205 0.6112 -29.6192 16.8055
# 2 -2.7390 21.3435 -12.8517 -1.6857 -0.9701 11.0442
# 3 -1.1205 -12.8517 56.9612 -6.0306 -13.0165 1.2917
# 4 0.6112 -1.6857 -6.0306 16.8971 7.7258 -0.9632
# 5 -29.6192 -0.9701 -13.0165 7.7258 42.7324 -4.8632
# 6 16.8055 11.0442 1.2917 -0.9632 -4.8632 17.5788
#
#
#
# Elastic Compliance Matrix: (Units=1/GPa)
#
#
# Indices 1 2 3 4 5 6 
#
# 1 0.045356 0.057764 0.022269 -0.006940 0.032517 -0.072673
# 2 0.057764 0.166738 0.052263 0.005588 0.041428 -0.152051
# 3 0.022269 0.052263 0.036251 0.004846 0.021017 -0.050708
# 4 -0.006940 0.005588 0.004846 0.068893 -0.015403 0.002282
# 5 0.032517 0.041428 0.021017 -0.015403 0.050898 -0.045421
# 6 -0.072673 -0.152051 -0.050708 0.002282 -0.045421 0.213176
#
#
# Mechanical properties :
#
#
# Convention : Reuss Voigt Hill
#
# Bulk Modulus (GPa) = 1.94957 13.24702 7.59829
# Shear Modulus (GPa) = 10.25222 26.73212 18.49217
#
# Velocity S-wave (km/s) = 2.21757 3.58084 2.97826
# Velocity P-wave (km/s) = 2.73715 4.84259 3.93336
#
# Compressibility (1/GPa) = 0.51293456
#
# Stress axis : x y z
#
# Youngs Moduli (GPa) = 22.04769 5.99745 27.58535
#
# Poissons Ratio (x) = -0.34643 -0.61429
# Poissons Ratio (y) = -1.27355 -1.44168
# Poissons Ratio (z) = -0.49097 -0.31344
#
# Static dielectric constant tensor:
#      x y z
#    x 1.634920 -0.285000 -0.061870 
#    y -0.285000 0.960670 -0.198030 
#    z -0.061870 -0.198030 1.745290 
# 
# From -- ./inp_files/391337.got.cif
#   From: 2010.05.17/outbox.cif.g08.bks.cpg/sg2_196_cif.got.tgz:391337.got - 2010.06.03 11:33:40.
