data_PCOD9085195
_publ_section_title
;
Structure prediction by ZEFSAII (Michael W. Deem and Ramdas Pophale) SiO2 
 PCOD9085195
Probable space group: P -1
;
_chemical_formula_sum "Si O2"
_cell_formula_units_Z 14
_cell_length_a 13.020562
_cell_length_b 10.494028
_cell_length_c 16.655361
_cell_angle_alpha 131.386310
_cell_angle_beta 24.205394
_cell_angle_gamma 134.471178
_cell_volume 663.934373
_symmetry_space_group_name_H-M "P -1"
_symmetry_group_IT_number 2
_symmetry_cell_setting 'triclinic'
loop_
_space_group_symop_operation_xyz
x,y,z
-x,-y,-z
loop_
_atom_site_type_symbol
_atom_site_label
_atom_site_fract_x
_atom_site_fract_y
_atom_site_fract_z
Si Si1 0.181379 0.132207 0.274628
Si Si2 0.108137 0.436684 0.551286
Si Si3 0.747335 0.206395 0.840896
Si Si4 0.907566 0.561909 0.173905
Si Si5 0.248256 0.001582 0.770066
Si Si6 0.188215 0.792667 0.562044
Si Si7 0.447953 0.688792 0.552221
O O1 0.246536 0.311129 0.355783
O O2 0.941788 0.146696 0.396569
O O3 0.144346 0.959248 0.285268
O O4 0.432131 0.138561 0.043285
O O5 0.050135 0.585153 0.597622
O O6 0.294461 0.550833 0.535685
O O7 0.855587 0.302938 0.720717
O O8 0.862975 0.351717 0.889826
O O9 0.752127 0.705469 0.333682
O O10 0.683248 0.396879 0.306498
O O11 0.000000 0.500000 0.000000
O O12 0.167104 0.917519 0.704667
O O13 0.383438 0.868510 0.659360
O O14 0.497758 0.181339 0.659950
O O15 0.000000 0.000000 0.000000
#
# Coordination Sequence:
#
# PCOD9085195 Si02
#       7
#     2   2   2   2   2   2   2
#     4  11  22  39  59  84 117 154 195 239 285 340
#     4  10  21  39  58  82 117 154 190 241 288 335
#     4  10  23  37  57  87 117 153 196 234 285 352
#     4  10  19  35  59  85 117 152 187 239 291 337
#     4  10  22  40  60  85 118 151 187 244 298 343
#     4  10  23  39  61  88 113 149 200 238 285 357
#     4   9  20  35  56  87 114 147 196 234 286 354
#
# _framework density 21.086421999999999
#
# number of rings (size 3 to 8) (size 9 to 14) (size 15 to 20)
#    0.000    2.000    0.000    2.571    0.000    9.714 
#    0.000    4.286    0.000    0.000    0.000    0.000 
#    0.000    0.000    0.000    0.000    0.000    0.000 
#
# Total GULP energy -78172.845457 kJ/mol
# GULP energy per Si atom -5583.774676 kJ/mol
# Density = 2.103843 g / cm^3
# Si number density = 21.086422 Si / 1000 Ang^3
#
#
#
# Elastic Constant Matrix: (Units=GPa)
#
#
# Indices 1 2 3 4 5 6 
#
# 1 50.2343 22.6291 36.7969 3.3097 3.2735 -15.8293
# 2 22.6291 93.1680 25.9443 0.7842 2.4342 -28.5357
# 3 36.7969 25.9443 114.1123 -2.5540 10.0874 -4.5631
# 4 3.3097 0.7842 -2.5540 25.5293 1.7787 -0.7930
# 5 3.2735 2.4342 10.0874 1.7787 20.7041 -5.1074
# 6 -15.8293 -28.5357 -4.5631 -0.7930 -5.1074 24.1566
#
#
#
# Elastic Compliance Matrix: (Units=1/GPa)
#
#
# Indices 1 2 3 4 5 6 
#
# 1 0.034983 0.002008 -0.011441 -0.005424 0.006263 0.024280
# 2 0.002008 0.018552 -0.004436 -0.000929 0.005548 0.023536
# 3 -0.011441 -0.004436 0.013730 0.003154 -0.007498 -0.011625
# 4 -0.005424 -0.000929 0.003154 0.040447 -0.004978 -0.003781
# 5 0.006263 0.005548 -0.007498 -0.004978 0.055892 0.020895
# 6 0.024280 0.023536 -0.011625 -0.003781 0.020895 0.087207
#
#
# Mechanical properties :
#
#
# Convention : Reuss Voigt Hill
#
# Bulk Modulus (GPa) = 25.29915 47.58392 36.44153
# Shear Modulus (GPa) = 17.13938 25.55429 21.34684
#
# Velocity S-wave (km/s) = 2.85409 3.48499 3.18520
# Velocity P-wave (km/s) = 4.78382 6.22966 5.55399
#
# Compressibility (1/GPa) = 0.03952703
#
# Stress axis : x y z
#
# Youngs Moduli (GPa) = 28.58494 53.90199 72.83484
#
# Poissons Ratio (x) = -0.10822 0.83333
# Poissons Ratio (y) = -0.05739 0.32306
# Poissons Ratio (z) = 0.32705 0.23908
#
# Static dielectric constant tensor:
#      x y z
#    x 1.765890 -0.027270 -0.003020 
#    y -0.027270 1.825850 -0.032560 
#    z -0.003020 -0.032560 1.732870 
# 
# From -- ./inp_files/368757.got.cif
#   From: 2010.05.17/outbox.cif.g08.bks.cpg/sg2_185_cif.got.tgz:368757.got - 2010.06.03 11:33:40.
