data_PCOD9085576
_publ_section_title
;
Structure prediction by ZEFSAII (Michael W. Deem and Ramdas Pophale) SiO2 
 PCOD9085576
Probable space group: P -1
;
_chemical_formula_sum "Si O2"
_cell_formula_units_Z 14
_cell_length_a 13.122668
_cell_length_b 13.856389
_cell_length_c 7.398654
_cell_angle_alpha 60.050969
_cell_angle_beta 130.475199
_cell_angle_gamma 147.783685
_cell_volume 541.419360
_symmetry_space_group_name_H-M "P -1"
_symmetry_group_IT_number 2
_symmetry_cell_setting 'triclinic'
loop_
_space_group_symop_operation_xyz
x,y,z
-x,-y,-z
loop_
_atom_site_type_symbol
_atom_site_label
_atom_site_fract_x
_atom_site_fract_y
_atom_site_fract_z
Si Si1 0.264459 0.219575 0.038393
Si Si2 0.732153 0.709536 0.606181
Si Si3 0.356967 0.642593 0.831740
Si Si4 0.134853 0.910994 0.357540
Si Si5 0.743539 0.208894 0.617857
Si Si6 0.900829 0.599353 0.898043
Si Si7 0.462819 0.195743 0.762142
O O1 0.256771 0.257885 0.198401
O O2 0.501356 0.360030 0.095807
O O3 0.200628 0.046179 0.152716
O O4 0.097586 0.186279 0.764582
O O5 0.500000 0.500000 0.500000
O O6 0.703765 0.809943 0.389526
O O7 0.902894 0.729098 0.721869
O O8 0.251795 0.659144 0.557530
O O9 0.207705 0.480906 0.953738
O O10 0.484073 0.806667 0.971483
O O11 0.127919 0.785174 0.383036
O O12 0.325978 0.036158 0.610405
O O13 0.852902 0.273310 0.884185
O O14 0.500000 0.000000 0.500000
O O15 0.699401 0.396666 0.762761
#
# Coordination Sequence:
#
# PCOD9085576 Si02
#       7
#     2   2   2   2   2   2   2
#     4  10  19  35  61  89 114 152 199 237 285 347
#     4   9  16  35  60  83 114 152 190 233 293 340
#     4  10  22  37  60  89 121 150 193 241 294 342
#     4  10  20  37  60  85 117 156 195 237 289 345
#     4  12  22  38  61  85 114 162 200 233 285 359
#     4   9  20  39  58  84 117 155 189 243 290 339
#     4   8  20  36  60  84 123 149 187 248 296 334
#
# _framework density 25.857959999999999
#
# number of rings (size 3 to 8) (size 9 to 14) (size 15 to 20)
#    0.857    1.429    2.857    0.429    0.000    1.714 
#    0.000    0.714    0.000    0.000    0.000    0.000 
#    0.000    0.000    0.000    0.000    0.000    0.000 
#
# Total GULP energy -77980.436578 kJ/mol
# GULP energy per Si atom -5570.031184 kJ/mol
# Density = 2.579911 g / cm^3
# Si number density = 25.857960 Si / 1000 Ang^3
#
#
#
# Elastic Constant Matrix: (Units=GPa)
#
#
# Indices 1 2 3 4 5 6 
#
# 1 52.5609 14.2048 15.2073 2.2237 13.0095 -17.3815
# 2 14.2048 34.7495 24.5363 10.4802 5.7718 2.1707
# 3 15.2073 24.5363 129.2418 21.2305 3.0621 -12.9628
# 4 2.2237 10.4802 21.2305 50.1304 -5.8016 -3.4009
# 5 13.0095 5.7718 3.0621 -5.8016 32.6893 -0.4789
# 6 -17.3815 2.1707 -12.9628 -3.4009 -0.4789 24.4531
#
#
#
# Elastic Compliance Matrix: (Units=1/GPa)
#
#
# Indices 1 2 3 4 5 6 
#
# 1 0.033905 -0.015392 0.001542 0.001661 -0.010240 0.026314
# 2 -0.015392 0.044004 -0.007306 -0.007052 -0.002500 -0.019750
# 3 0.001542 -0.007306 0.010025 -0.002399 -0.000590 0.006713
# 4 0.001661 -0.007052 -0.002399 0.023203 0.004983 0.003859
# 5 -0.010240 -0.002500 -0.000590 0.004983 0.035960 -0.005972
# 6 0.026314 -0.019750 0.006713 0.003859 -0.005972 0.065331
#
#
# Mechanical properties :
#
#
# Convention : Reuss Voigt Hill
#
# Bulk Modulus (GPa) = 21.92002 36.04990 28.98496
# Shear Modulus (GPa) = 18.52206 32.29481 25.40844
#
# Velocity S-wave (km/s) = 2.67928 3.53786 3.13807
# Velocity P-wave (km/s) = 4.25052 5.53718 4.93595
#
# Compressibility (1/GPa) = 0.04562039
#
# Stress axis : x y z
#
# Youngs Moduli (GPa) = 29.49376 22.72524 99.75528
#
# Poissons Ratio (x) = 0.34979 -0.15380
# Poissons Ratio (y) = 0.45398 0.72883
# Poissons Ratio (z) = -0.04547 0.16604
#
# Static dielectric constant tensor:
#      x y z
#    x 2.158410 0.097140 0.140440 
#    y 0.097140 2.114230 0.128640 
#    z 0.140440 0.128640 2.191890 
# 
# From -- ./inp_files/282088.got.cif
#   From: 2010.05.17/outbox.cif.g08.bks.cpg/sg2_142_cif.got.tgz:282088.got - 2010.06.03 11:33:40.
