data_PCOD9085613
_publ_section_title
;
Structure prediction by ZEFSAII (Michael W. Deem and Ramdas Pophale) SiO2 
 PCOD9085613
Probable space group: P -1
;
_chemical_formula_sum "Si O2"
_cell_formula_units_Z 16
_cell_length_a 19.851177
_cell_length_b 14.240423
_cell_length_c 22.037293
_cell_angle_alpha 160.373832
_cell_angle_beta 161.023450
_cell_angle_gamma 28.576140
_cell_volume 675.930346
_symmetry_space_group_name_H-M "P -1"
_symmetry_group_IT_number 2
_symmetry_cell_setting 'triclinic'
loop_
_space_group_symop_operation_xyz
x,y,z
-x,-y,-z
loop_
_atom_site_type_symbol
_atom_site_label
_atom_site_fract_x
_atom_site_fract_y
_atom_site_fract_z
Si Si1 0.165507 0.659394 0.191826
Si Si2 0.316646 0.722248 0.030077
Si Si3 0.669923 0.330121 0.125584
Si Si4 0.083078 0.485832 0.215011
Si Si5 0.292027 0.335028 0.525590
Si Si6 0.422803 0.367249 0.526896
Si Si7 0.785200 0.306739 0.950016
Si Si8 0.608220 0.209549 0.419985
O O1 0.344630 0.504107 0.215865
O O2 0.304917 0.850040 0.474802
O O3 0.000000 0.500000 0.000000
O O4 0.023347 0.733242 0.059500
O O5 0.484819 0.507353 0.053827
O O6 0.151999 0.644274 0.896466
O O7 0.426306 0.030969 0.331258
O O8 0.238137 0.727506 0.897470
O O9 0.787132 0.499176 0.383665
O O10 0.566364 0.044537 0.894819
O O11 0.270122 0.392227 0.356338
O O12 0.194154 0.748481 0.431170
O O13 0.908773 0.514764 0.134453
O O14 0.319766 0.463049 0.559121
O O15 0.539592 0.322754 0.743183
O O16 0.182769 0.014751 0.234785
O O17 0.500000 0.500000 0.500000
#
# Coordination Sequence:
#
# PCOD9085613 Si02
#       8
#     2   2   2   2   2   2   2   2
#     4  10  21  35  61  93 118 158 212 251 291 358
#     4   9  19  33  60  87 122 158 198 249 299 358
#     4  10  19  35  61  93 118 164 199 249 315 353
#     4  11  22  34  65  91 120 160 210 250 292 361
#     4   9  19  33  59  88 123 159 199 251 304 361
#     4  11  19  39  62  93 122 160 206 247 301 365
#     4   9  18  35  58  88 118 163 203 244 305 358
#     4  11  21  39  63  90 121 159 205 250 304 362
#
# _framework density 23.671078999999999
#
# number of rings (size 3 to 8) (size 9 to 14) (size 15 to 20)
#    0.000    2.000    3.750    0.750    0.000    2.000 
#    0.000    3.125    0.000   19.500    0.000    0.000 
#    0.000    0.000    0.000    0.000    0.000    0.000 
#
# Total GULP energy -89134.873091 kJ/mol
# GULP energy per Si atom -5570.929568 kJ/mol
# Density = 2.361720 g / cm^3
# Si number density = 23.671079 Si / 1000 Ang^3
#
#
#
# Elastic Constant Matrix: (Units=GPa)
#
#
# Indices 1 2 3 4 5 6 
#
# 1 221.3804 -3.8035 52.9469 -7.5666 -2.7615 26.8398
# 2 -3.8035 25.7895 9.4604 -17.4084 -12.5014 25.7670
# 3 52.9469 9.4604 61.2206 -14.6427 -1.9361 -4.2918
# 4 -7.5666 -17.4084 -14.6427 28.6133 -6.9802 0.4456
# 5 -2.7615 -12.5014 -1.9361 -6.9802 42.5880 -5.8967
# 6 26.8398 25.7670 -4.2918 0.4456 -5.8967 28.8092
#
#
#
# Elastic Compliance Matrix: (Units=1/GPa)
#
#
# Indices 1 2 3 4 5 6 
#
# 1 0.004098 -0.012158 -0.003608 -0.009271 -0.004183 0.005806
# 2 -0.012158 -0.048755 0.014595 -0.029089 -0.011563 0.055191
# 3 -0.003608 0.014595 0.022175 0.021265 0.007836 -0.005114
# 4 -0.009271 -0.029089 0.021265 0.025389 0.001205 0.037676
# 5 -0.004183 -0.011563 0.007836 0.001205 0.023156 0.020127
# 6 0.005806 0.055191 -0.005114 0.037676 0.020127 -0.017286
#
#
# Mechanical properties :
#
#
# Convention : Reuss Voigt Hill
#
# Bulk Modulus (GPa) = -40.28244 47.28868 3.50312
# Shear Modulus (GPa) = 1758.20499 36.65452 897.42976
#
# Velocity S-wave (km/s) = 27.28328 3.93936 19.49226
# Velocity P-wave (km/s) = 31.23218 6.38061 22.54064
#
# Compressibility (1/GPa) = -0.02482471
#
# Stress axis : x y z
#
# Youngs Moduli (GPa) = 244.00611 -20.51054 45.09598
#
# Poissons Ratio (x) = -0.24937 0.16272
# Poissons Ratio (y) = 2.96665 -0.65818
# Poissons Ratio (z) = 0.88042 0.29935
#
# Static dielectric constant tensor:
#      x y z
#    x 2.042300 -0.031190 0.010040 
#    y -0.031190 1.898810 -0.032150 
#    z 0.010040 -0.032150 1.926140 
# 
# From -- ./inp_files/613813.got.cif
#   From: 2010.05.17/outbox.cif.g08.bks.cpg/sg2_307_cif.got.tgz:613813.got - 2010.06.03 11:33:40.
