data_PCOD9085511
_publ_section_title
;
Structure prediction by ZEFSAII (Michael W. Deem and Ramdas Pophale) SiO2 
 PCOD9085511
Probable space group: P -1
;
_chemical_formula_sum "Si O2"
_cell_formula_units_Z 16
_cell_length_a 15.753457
_cell_length_b 10.034902
_cell_length_c 8.019649
_cell_angle_alpha 37.013497
_cell_angle_beta 80.553972
_cell_angle_gamma 67.139593
_cell_volume 678.436189
_symmetry_space_group_name_H-M "P -1"
_symmetry_group_IT_number 2
_symmetry_cell_setting 'triclinic'
loop_
_space_group_symop_operation_xyz
x,y,z
-x,-y,-z
loop_
_atom_site_type_symbol
_atom_site_label
_atom_site_fract_x
_atom_site_fract_y
_atom_site_fract_z
Si Si1 0.903364 0.874930 0.588931
Si Si2 0.276922 0.591406 0.879165
Si Si3 0.193287 0.015018 0.979950
Si Si4 0.567293 0.313145 0.427855
Si Si5 0.003604 0.098806 0.123195
Si Si6 0.306779 0.205861 0.976159
Si Si7 0.827270 0.592897 0.684171
Si Si8 0.368589 0.507903 0.430117
O O1 0.959707 0.831296 0.785769
O O2 0.865701 0.677927 0.750196
O O3 0.812251 0.141051 0.358781
O O4 0.970874 0.893429 0.400364
O O5 0.374607 0.618298 0.799455
O O6 0.268067 0.444224 0.866536
O O7 0.263144 0.447935 0.185579
O O8 0.230241 0.111852 0.032676
O O9 0.190255 0.197409 0.652585
O O10 0.091507 0.022322 0.046766
O O11 0.271075 0.742372 0.185444
O O12 0.453402 0.432922 0.345094
O O13 0.595357 0.405347 0.500110
O O14 0.612131 0.018962 0.726176
O O15 0.911830 0.337608 0.854758
O O16 0.349655 0.279375 0.725920
#
# Coordination Sequence:
#
# PCOD9085511 Si02
#       8
#     2   2   2   2   2   2   2   2
#     4  10  21  38  59  83 108 143 192 235 274 323
#     4  10  20  36  59  84 111 146 186 232 274 322
#     4  11  23  37  54  84 118 150 183 222 279 336
#     4   9  17  33  57  86 111 140 186 232 276 323
#     4  10  21  37  57  82 108 144 191 233 275 324
#     4  10  19  35  61  84 111 144 183 231 280 327
#     4  11  23  37  56  81 116 152 183 225 276 332
#     4   9  19  33  55  85 115 143 180 231 278 328
#
# _framework density 23.583648
#
# number of rings (size 3 to 8) (size 9 to 14) (size 15 to 20)
#    0.000    2.000    0.000    4.875    0.000    6.500 
#    0.000    0.625    0.000    3.750    0.000    0.000 
#    0.000    0.000    0.000    0.000    0.000    0.000 
#
# Total GULP energy -89551.315765 kJ/mol
# GULP energy per Si atom -5596.957235 kJ/mol
# Density = 2.352997 g / cm^3
# Si number density = 23.583648 Si / 1000 Ang^3
#
#
#
# Elastic Constant Matrix: (Units=GPa)
#
#
# Indices 1 2 3 4 5 6 
#
# 1 90.6175 62.9135 46.7456 7.1664 -25.1071 -38.4193
# 2 62.9135 98.4183 54.1787 8.0104 -15.2061 -34.5855
# 3 46.7456 54.1787 136.0413 23.8374 -22.9905 -46.2345
# 4 7.1664 8.0104 23.8374 34.8111 -0.0707 -14.4035
# 5 -25.1071 -15.2061 -22.9905 -0.0707 30.6669 13.4045
# 6 -38.4193 -34.5855 -46.2345 -14.4035 13.4045 66.0734
#
#
#
# Elastic Compliance Matrix: (Units=1/GPa)
#
#
# Indices 1 2 3 4 5 6 
#
# 1 0.025467 -0.012447 0.000350 -0.000103 0.012310 0.006018
# 2 -0.012447 0.020229 -0.004168 0.001391 -0.003955 0.001540
# 3 0.000350 -0.004168 0.012276 -0.005758 0.005562 0.004229
# 4 -0.000103 0.001391 -0.005758 0.034591 -0.005990 0.005394
# 5 0.012310 -0.003955 0.005562 -0.005990 0.045568 -0.001571
# 6 0.006018 0.001540 0.004229 0.005394 -0.001571 0.023893
#
#
# Mechanical properties :
#
#
# Convention : Reuss Voigt Hill
#
# Bulk Modulus (GPa) = 39.30522 72.52808 55.91665
# Shear Modulus (GPa) = 24.62642 37.05960 30.84301
#
# Velocity S-wave (km/s) = 3.23494 3.96840 3.62029
# Velocity P-wave (km/s) = 5.53675 7.19847 6.42159
#
# Compressibility (1/GPa) = 0.02544191
#
# Stress axis : x y z
#
# Youngs Moduli (GPa) = 39.26700 49.43443 81.45783
#
# Poissons Ratio (x) = 0.61532 -0.02850
# Poissons Ratio (y) = 0.48876 0.33949
# Poissons Ratio (z) = -0.01374 0.20603
#
# Static dielectric constant tensor:
#      x y z
#    x 1.907470 0.024120 0.007440 
#    y 0.024120 1.891100 0.052350 
#    z 0.007440 0.052350 1.871390 
# 
# From -- ./inp_files/38963.got.cif
#   From: 2010.05.17/outbox.cif.g08.bks.cpg/sg2_20_cif.got.tgz:38963.got - 2010.06.03 11:33:40.
