data_PCOD9085221
_publ_section_title
;
Structure prediction by ZEFSAII (Michael W. Deem and Ramdas Pophale) SiO2 
 PCOD9085221
Probable space group: P -1
;
_chemical_formula_sum "Si O2"
_cell_formula_units_Z 14
_cell_length_a 9.776096
_cell_length_b 10.972559
_cell_length_c 24.800491
_cell_angle_alpha 154.004235
_cell_angle_beta 143.889776
_cell_angle_gamma 51.007295
_cell_volume 636.976310
_symmetry_space_group_name_H-M "P -1"
_symmetry_group_IT_number 2
_symmetry_cell_setting 'triclinic'
loop_
_space_group_symop_operation_xyz
x,y,z
-x,-y,-z
loop_
_atom_site_type_symbol
_atom_site_label
_atom_site_fract_x
_atom_site_fract_y
_atom_site_fract_z
Si Si1 0.358210 0.647935 0.319003
Si Si2 0.108774 0.792726 0.769636
Si Si3 0.654017 0.617022 0.493377
Si Si4 0.178593 0.123984 0.189477
Si Si5 0.740582 0.311189 0.813824
Si Si6 0.146521 0.679113 0.917646
Si Si7 0.562000 0.387446 0.113088
O O1 0.538571 0.519811 0.358092
O O2 0.283442 0.537122 0.190695
O O3 0.107969 0.581972 0.247884
O O4 0.500000 0.000000 0.500000
O O5 0.237171 0.624625 0.782874
O O6 0.912174 0.590988 0.582800
O O7 0.934300 0.899240 0.796637
O O8 0.323665 0.076642 0.923665
O O9 0.424635 0.423258 0.381217
O O10 0.706998 0.971195 0.655825
O O11 0.955538 0.139650 0.086157
O O12 0.247358 0.868045 0.079369
O O13 0.523375 0.339619 0.792788
O O14 0.000000 0.500000 0.000000
O O15 0.336406 0.593933 0.907734
#
# Coordination Sequence:
#
# PCOD9085221 Si02
#       7
#     2   2   2   2   2   2   2
#     4   9  20  38  61  85 116 162 199 238 290 362
#     4  10  19  35  59  86 122 150 200 241 295 351
#     4  10  20  36  62  89 116 156 204 241 288 359
#     4   9  18  34  59  86 115 160 197 238 291 359
#     4  11  21  39  64  83 116 160 204 237 297 365
#     4   9  18  35  58  85 121 154 197 243 298 349
#     4  10  21  36  59  94 118 155 194 254 298 345
#
# _framework density 21.978840999999999
#
# number of rings (size 3 to 8) (size 9 to 14) (size 15 to 20)
#    0.000    2.286    1.429    1.286    0.000    3.429 
#    0.000   15.000    0.000    0.000    0.000    0.000 
#    0.000    0.000    0.000    0.000    0.000    0.000 
#
# Total GULP energy -78096.364323 kJ/mol
# GULP energy per Si atom -5578.311737 kJ/mol
# Density = 2.192882 g / cm^3
# Si number density = 21.978841 Si / 1000 Ang^3
#
#
#
# Elastic Constant Matrix: (Units=GPa)
#
#
# Indices 1 2 3 4 5 6 
#
# 1 119.6155 22.5062 21.6778 -19.8739 5.2724 13.6458
# 2 22.5062 39.6250 33.6371 -21.0162 -1.8216 2.7802
# 3 21.6778 33.6371 111.7896 -29.4187 6.4444 14.7683
# 4 -19.8739 -21.0162 -29.4187 36.0547 6.2888 -1.0544
# 5 5.2724 -1.8216 6.4444 6.2888 23.0057 0.1690
# 6 13.6458 2.7802 14.7683 -1.0544 0.1690 27.6603
#
#
#
# Elastic Compliance Matrix: (Units=1/GPa)
#
#
# Indices 1 2 3 4 5 6 
#
# 1 0.010596 -0.004482 0.001655 0.005228 -0.004636 -0.005433
# 2 -0.004482 0.043110 -0.008658 0.015215 0.002684 0.003064
# 3 0.001655 -0.008658 0.015155 0.009371 -0.007815 -0.007632
# 4 0.005228 0.015215 0.009371 0.049743 -0.016164 -0.007117
# 5 -0.004636 0.002684 -0.007815 -0.016164 0.051312 0.005261
# 6 -0.005433 0.003064 -0.007632 -0.007117 0.005261 0.042297
#
#
# Mechanical properties :
#
#
# Convention : Reuss Voigt Hill
#
# Bulk Modulus (GPa) = 21.79131 47.40804 34.59967
# Shear Modulus (GPa) = 19.96160 30.22474 25.09317
#
# Velocity S-wave (km/s) = 3.01694 3.71236 3.38257
# Velocity P-wave (km/s) = 4.69809 6.32393 5.57065
#
# Compressibility (1/GPa) = 0.04588986
#
# Stress axis : x y z
#
# Youngs Moduli (GPa) = 94.37176 23.19633 65.98696
#
# Poissons Ratio (x) = 0.10397 -0.10919
# Poissons Ratio (y) = 0.42300 0.57132
# Poissons Ratio (z) = -0.15616 0.20084
#
# Static dielectric constant tensor:
#      x y z
#    x 1.839730 0.016110 -0.041720 
#    y 0.016110 1.853790 -0.023070 
#    z -0.041720 -0.023070 1.833130 
# 
# From -- ./inp_files/174813.got.cif
#   From: 2010.05.17/outbox.cif.g08.bks.cpg/sg2_88_cif.got.tgz:174813.got - 2010.06.03 11:33:40.
