data_PCOD9085533
_publ_section_title
;
Structure prediction by ZEFSAII (Michael W. Deem and Ramdas Pophale) SiO2 
 PCOD9085533
Probable space group: P -1
;
_chemical_formula_sum "Si O2"
_cell_formula_units_Z 16
_cell_length_a 20.472695
_cell_length_b 8.334793
_cell_length_c 10.569579
_cell_angle_alpha 86.895306
_cell_angle_beta 44.834475
_cell_angle_gamma 52.197353
_cell_volume 733.849910
_symmetry_space_group_name_H-M "P -1"
_symmetry_group_IT_number 2
_symmetry_cell_setting 'triclinic'
loop_
_space_group_symop_operation_xyz
x,y,z
-x,-y,-z
loop_
_atom_site_type_symbol
_atom_site_label
_atom_site_fract_x
_atom_site_fract_y
_atom_site_fract_z
Si Si1 0.997480 0.383707 0.882506
Si Si2 0.544055 0.254438 0.481186
Si Si3 0.680175 0.245445 0.510158
Si Si4 0.708643 0.548480 0.317483
Si Si5 0.478376 0.011612 0.815956
Si Si6 0.335272 0.786918 0.101468
Si Si7 0.446162 0.316405 0.046462
Si Si8 0.210897 0.181640 0.058631
O O1 0.863804 0.435159 0.088540
O O2 0.944476 0.552090 0.819580
O O3 0.155884 0.056746 0.647578
O O4 0.000000 0.500000 0.000000
O O5 0.500000 0.500000 0.500000
O O6 0.636916 0.153459 0.485211
O O7 0.386260 0.368923 0.683216
O O8 0.662525 0.033250 0.217706
O O9 0.724536 0.353119 0.375376
O O10 0.508869 0.527571 0.800182
O O11 0.590753 0.828570 0.549088
O O12 0.571997 0.777932 0.807502
O O13 0.305037 0.182136 0.011792
O O14 0.453092 0.214393 0.910479
O O15 0.384724 0.839293 0.142145
O O16 0.208780 0.034605 0.165219
O O17 0.314732 0.642063 0.197307
#
# Coordination Sequence:
#
# PCOD9085533 Si02
#       8
#     2   2   2   2   2   2   2   2
#     4  12  26  36  54  86 130 158 191 226 294 355
#     4   9  16  33  58  78 112 148 196 232 274 342
#     4  11  20  39  56  86 121 158 190 236 287 353
#     4  10  21  38  57  85 117 161 190 240 286 350
#     4   9  18  36  60  90 112 136 201 253 286 325
#     4  10  19  35  61  86 115 148 194 238 296 336
#     4   9  18  33  60  94 106 138 195 265 284 325
#     4  10  19  37  51  85 118 148 192 233 279 354
#
# _framework density 21.802824000000001
#
# number of rings (size 3 to 8) (size 9 to 14) (size 15 to 20)
#    0.000    2.000    6.250    0.375    1.750    3.000 
#    0.000    0.000    0.000    7.500    0.000    0.000 
#    0.000    0.000    0.000    0.000    0.000    0.000 
#
# Total GULP energy -89108.995677 kJ/mol
# GULP energy per Si atom -5569.312230 kJ/mol
# Density = 2.175320 g / cm^3
# Si number density = 21.802824 Si / 1000 Ang^3
#
#
#
# Elastic Constant Matrix: (Units=GPa)
#
#
# Indices 1 2 3 4 5 6 
#
# 1 146.7432 25.0224 20.4431 9.5203 6.1387 8.3964
# 2 25.0224 118.8577 5.2548 23.3092 -12.0806 -19.7300
# 3 20.4431 5.2548 37.8105 11.0888 -8.0633 2.2142
# 4 9.5203 23.3092 11.0888 33.2138 1.1234 -6.1813
# 5 6.1387 -12.0806 -8.0633 1.1234 23.0436 6.6782
# 6 8.3964 -19.7300 2.2142 -6.1813 6.6782 35.3994
#
#
#
# Elastic Compliance Matrix: (Units=1/GPa)
#
#
# Indices 1 2 3 4 5 6 
#
# 1 0.008231 -0.002503 -0.005310 0.000975 -0.004851 -0.001930
# 2 -0.002503 0.011825 0.003413 -0.008190 0.007250 0.004173
# 3 -0.005310 0.003413 0.037530 -0.015023 0.018610 -0.005320
# 4 0.000975 -0.008190 -0.015023 0.042184 -0.013629 0.006081
# 5 -0.004851 0.007250 0.018610 -0.013629 0.058380 -0.009366
# 6 -0.001930 0.004173 -0.005320 0.006081 -0.009366 0.034194
#
#
# Mechanical properties :
#
#
# Convention : Reuss Voigt Hill
#
# Bulk Modulus (GPa) = 20.49687 44.98354 32.74021
# Shear Modulus (GPa) = 22.99842 35.17745 29.08794
#
# Velocity S-wave (km/s) = 3.25135 4.02112 3.65655
# Velocity P-wave (km/s) = 4.84938 6.49892 5.73378
#
# Compressibility (1/GPa) = 0.04878793
#
# Stress axis : x y z
#
# Youngs Moduli (GPa) = 121.48864 84.56626 26.64509
#
# Poissons Ratio (x) = 0.21164 0.14148
# Poissons Ratio (y) = 0.30404 -0.09095
# Poissons Ratio (z) = 0.64510 -0.28864
#
# Static dielectric constant tensor:
#      x y z
#    x 1.869500 -0.038450 0.036380 
#    y -0.038450 1.956600 -0.046060 
#    z 0.036380 -0.046060 1.801830 
# 
# From -- ./inp_files/469404.got.cif
#   From: 2010.05.17/outbox.cif.g08.bks.cpg/sg2_235_cif.got.tgz:469404.got - 2010.06.03 11:33:40.
