data_PCOD9085959
_publ_section_title
;
Structure prediction by ZEFSAII (Michael W. Deem and Ramdas Pophale) SiO2 
 PCOD9085959
Probable space group: P -1
;
_chemical_formula_sum "Si O2"
_cell_formula_units_Z 14
_cell_length_a 9.055846
_cell_length_b 18.078388
_cell_length_c 12.403122
_cell_angle_alpha 25.478254
_cell_angle_beta 134.386083
_cell_angle_gamma 117.853941
_cell_volume 527.672614
_symmetry_space_group_name_H-M "P -1"
_symmetry_group_IT_number 2
_symmetry_cell_setting 'triclinic'
loop_
_space_group_symop_operation_xyz
x,y,z
-x,-y,-z
loop_
_atom_site_type_symbol
_atom_site_label
_atom_site_fract_x
_atom_site_fract_y
_atom_site_fract_z
Si Si1 0.986232 0.122805 0.573040
Si Si2 0.276263 0.827133 0.836172
Si Si3 0.783634 0.218489 0.558297
Si Si4 0.827757 0.436637 0.720894
Si Si5 0.593753 0.896158 0.564753
Si Si6 0.288709 0.669097 0.401922
Si Si7 0.237988 0.327295 0.413416
O O1 0.777631 0.219855 0.249403
O O2 0.877277 0.260241 0.442200
O O3 0.218776 0.131428 0.645595
O O4 0.073553 0.893357 0.952948
O O5 0.426172 0.934310 0.752136
O O6 0.298222 0.673406 0.140985
O O7 0.000000 0.000000 0.500000
O O8 0.564719 0.190876 0.447075
O O9 0.738183 0.363922 0.443592
O O10 0.000000 0.000000 0.000000
O O11 0.715743 0.488353 0.475156
O O12 0.779330 0.608087 0.555712
O O13 0.119488 0.282126 0.058437
O O14 0.500000 0.000000 0.500000
O O15 0.524906 0.684807 0.494558
O O16 0.000000 0.500000 0.000000
#
# Coordination Sequence:
#
# PCOD9085959 Si02
#       7
#     2   2   2   2   2   2   2
#     4  11  21  42  64  96 125 165 216 259 307 374
#     4  10  19  35  65  93 124 155 215 258 308 364
#     4  10  22  38  60  95 127 158 211 264 305 365
#     4  11  23  41  62  95 130 161 209 264 317 372
#     4  11  19  37  65  92 120 166 210 255 310 371
#     4  11  23  42  65  90 127 171 212 259 307 381
#     4  12  25  40  64  95 131 166 207 262 325 367
#
# _framework density 26.531600999999998
#
# number of rings (size 3 to 8) (size 9 to 14) (size 15 to 20)
#    0.000    1.143    5.714    2.571    2.000    2.286 
#    0.000    5.000    0.000    0.000    0.000    0.000 
#    0.000    0.000    0.000    0.000    0.000    0.000 
#
# Total GULP energy -78357.344375 kJ/mol
# GULP energy per Si atom -5596.953170 kJ/mol
# Density = 2.647121 g / cm^3
# Si number density = 26.531601 Si / 1000 Ang^3
#
#
#
# Elastic Constant Matrix: (Units=GPa)
#
#
# Indices 1 2 3 4 5 6 
#
# 1 98.0066 21.8293 8.4648 15.4040 2.3500 -14.2572
# 2 21.8293 108.1956 -2.4929 32.5636 -10.4174 -24.3812
# 3 8.4648 -2.4929 90.0611 26.9873 0.0006 1.8752
# 4 15.4040 32.5636 26.9873 44.8820 5.8126 -1.2292
# 5 2.3500 -10.4174 0.0006 5.8126 30.8474 -0.4163
# 6 -14.2572 -24.3812 1.8752 -1.2292 -0.4163 68.2161
#
#
#
# Elastic Compliance Matrix: (Units=1/GPa)
#
#
# Indices 1 2 3 4 5 6 
#
# 1 0.011194 -0.001074 -0.000300 -0.002743 -0.000673 0.001910
# 2 -0.001074 0.016197 0.005050 -0.015380 0.008520 0.005200
# 3 -0.000300 0.005050 0.015211 -0.013225 0.004235 0.001112
# 4 -0.002743 -0.015380 -0.013225 0.043922 -0.013328 -0.004996
# 5 -0.000673 0.008520 0.004235 -0.013328 0.037895 0.002779
# 6 0.001910 0.005200 0.001112 -0.004996 0.002779 0.016814
#
#
# Mechanical properties :
#
#
# Convention : Reuss Voigt Hill
#
# Bulk Modulus (GPa) = 20.01871 39.09618 29.55745
# Shear Modulus (GPa) = 33.21550 46.68658 39.95104
#
# Velocity S-wave (km/s) = 3.54209 4.19938 3.88466
# Velocity P-wave (km/s) = 4.92850 6.18714 5.59334
#
# Compressibility (1/GPa) = 0.04995326
#
# Stress axis : x y z
#
# Youngs Moduli (GPa) = 89.33642 61.74123 65.74019
#
# Poissons Ratio (x) = 0.06632 0.01970
# Poissons Ratio (y) = 0.09596 -0.33196
# Poissons Ratio (z) = 0.02677 -0.31177
#
# Static dielectric constant tensor:
#      x y z
#    x 2.054360 0.012220 0.071390 
#    y 0.012220 1.705330 -0.008240 
#    z 0.071390 -0.008240 2.261110 
# 
# From -- ./inp_files/159093.got.cif
#   From: 2010.05.17/outbox.cif.g08.bks.cpg/sg2_80_cif.got.tgz:159093.got - 2010.06.03 11:33:40.
