data_PCOD9085096
_publ_section_title
;
Structure prediction by ZEFSAII (Michael W. Deem and Ramdas Pophale) SiO2 
 PCOD9085096
Probable space group: P -1
;
_chemical_formula_sum "Si O2"
_cell_formula_units_Z 14
_cell_length_a 11.730161
_cell_length_b 11.241620
_cell_length_c 16.933232
_cell_angle_alpha 59.594845
_cell_angle_beta 31.325853
_cell_angle_gamma 39.313810
_cell_volume 649.239580
_symmetry_space_group_name_H-M "P -1"
_symmetry_group_IT_number 2
_symmetry_cell_setting 'triclinic'
loop_
_space_group_symop_operation_xyz
x,y,z
-x,-y,-z
loop_
_atom_site_type_symbol
_atom_site_label
_atom_site_fract_x
_atom_site_fract_y
_atom_site_fract_z
Si Si1 0.302129 0.668203 0.715634
Si Si2 0.586888 0.692704 0.689994
Si Si3 0.428008 0.000704 0.450415
Si Si4 0.160681 0.476394 0.652176
Si Si5 0.510619 0.335257 0.071286
Si Si6 0.183082 0.871981 0.206704
Si Si7 0.771685 0.749586 0.945696
O O1 0.426727 0.687135 0.713203
O O2 0.639853 0.498055 0.520002
O O3 0.034140 0.672720 0.883331
O O4 0.080905 0.876528 0.720963
O O5 0.480885 0.904193 0.680118
O O6 0.425833 0.707025 0.859628
O O7 0.000000 0.500000 0.500000
O O8 0.028116 0.158518 0.630489
O O9 0.500000 0.000000 0.500000
O O10 0.630545 0.767712 0.382361
O O11 0.840126 0.579305 0.757254
O O12 0.017297 0.599139 0.777841
O O13 0.500000 0.500000 0.000000
O O14 0.729779 0.173505 0.923018
O O15 0.516557 0.742081 0.103831
O O16 0.500000 0.000000 0.000000
#
# Coordination Sequence:
#
# PCOD9085096 Si02
#       7
#     2   2   2   2   2   2   2
#     4  10  19  35  58  90 120 159 210 245 296 371
#     4  12  22  36  61  91 125 164 201 254 312 366
#     4  11  19  37  61  90 128 158 203 248 306 380
#     4  10  19  36  61  89 118 166 203 251 305 362
#     4  11  22  36  57  90 125 155 202 253 317 366
#     4   9  19  35  57  88 119 160 193 256 305 352
#     4   9  19  35  60  93 121 163 211 250 299 363
#
# _framework density 21.563687000000002
#
# number of rings (size 3 to 8) (size 9 to 14) (size 15 to 20)
#    0.000    1.714    4.286    2.143    0.000    0.571 
#    0.000    0.000    0.000    8.571    7.429    0.000 
#    0.000    0.000    0.000    0.000    0.000    0.000 
#
# Total GULP energy -77979.463365 kJ/mol
# GULP energy per Si atom -5569.961669 kJ/mol
# Density = 2.151461 g / cm^3
# Si number density = 21.563687 Si / 1000 Ang^3
#
#
#
# Elastic Constant Matrix: (Units=GPa)
#
#
# Indices 1 2 3 4 5 6 
#
# 1 96.6122 16.8103 50.6022 -3.5294 -36.0839 11.7535
# 2 16.8103 47.7428 10.4002 -1.5982 17.5483 8.8394
# 3 50.6022 10.4002 99.8758 -3.2947 -22.0368 8.3464
# 4 -3.5294 -1.5982 -3.2947 33.9340 3.4306 8.7416
# 5 -36.0839 17.5483 -22.0368 3.4306 45.2759 1.0702
# 6 11.7535 8.8394 8.3464 8.7416 1.0702 22.6794
#
#
#
# Elastic Compliance Matrix: (Units=1/GPa)
#
#
# Indices 1 2 3 4 5 6 
#
# 1 0.025636 -0.015277 -0.005577 0.000726 0.023741 -0.006679
# 2 -0.015277 0.038479 -0.001741 0.004680 -0.028128 -0.006916
# 3 -0.005577 -0.001741 0.013872 0.000907 0.002960 -0.002026
# 4 0.000726 0.004680 0.000907 0.034166 -0.003015 -0.015561
# 5 0.023741 -0.028128 0.002960 -0.003015 0.053669 -0.003801
# 6 -0.006679 -0.006916 -0.002026 -0.015561 -0.003801 0.057172
#
#
# Mechanical properties :
#
#
# Convention : Reuss Voigt Hill
#
# Bulk Modulus (GPa) = 30.48999 44.42846 37.45922
# Shear Modulus (GPa) = 17.91364 31.47241 24.69303
#
# Velocity S-wave (km/s) = 2.88537 3.82450 3.38763
# Velocity P-wave (km/s) = 5.02699 6.33644 5.71932
#
# Compressibility (1/GPa) = 0.03279765
#
# Stress axis : x y z
#
# Youngs Moduli (GPa) = 39.00763 25.98788 72.08792
#
# Poissons Ratio (x) = 0.39701 0.40207
# Poissons Ratio (y) = 0.59591 0.12549
# Poissons Ratio (z) = 0.21756 0.04524
#
# Static dielectric constant tensor:
#      x y z
#    x 1.881820 0.013460 -0.008370 
#    y 0.013460 1.768430 -0.021940 
#    z -0.008370 -0.021940 1.907710 
# 
# From -- ./inp_files/212347.got.cif
#   From: 2010.05.17/outbox.cif.g08.bks.cpg/sg2_107_cif.got.tgz:212347.got - 2010.06.03 11:33:40.
