data_PCOD9085137
_publ_section_title
;
Structure prediction by ZEFSAII (Michael W. Deem and Ramdas Pophale) SiO2 
 PCOD9085137
Probable space group: P -1
;
_chemical_formula_sum "Si O2"
_cell_formula_units_Z 16
_cell_length_a 20.072430
_cell_length_b 25.596663
_cell_length_c 9.344058
_cell_angle_alpha 30.256793
_cell_angle_beta 30.260655
_cell_angle_gamma 21.280431
_cell_volume 831.226447
_symmetry_space_group_name_H-M "P -1"
_symmetry_group_IT_number 2
_symmetry_cell_setting 'triclinic'
loop_
_space_group_symop_operation_xyz
x,y,z
-x,-y,-z
loop_
_atom_site_type_symbol
_atom_site_label
_atom_site_fract_x
_atom_site_fract_y
_atom_site_fract_z
Si Si1 0.869816 0.488234 0.348945
Si Si2 0.903367 0.811523 0.724363
Si Si3 0.146326 0.729199 0.226581
Si Si4 0.124858 0.400076 0.642410
Si Si5 0.581390 0.124701 0.422168
Si Si6 0.419917 0.734295 0.631683
Si Si7 0.887443 0.953276 0.696647
Si Si8 0.163123 0.969435 0.083633
O O1 0.910362 0.348608 0.552111
O O2 0.893585 0.496635 0.453608
O O3 0.637671 0.630369 0.422341
O O4 0.000000 0.500000 0.000000
O O5 0.877382 0.868994 0.797208
O O6 0.090382 0.755600 0.434228
O O7 0.716092 0.952208 0.640766
O O8 0.942623 0.667400 0.998441
O O9 0.354364 0.654177 0.974003
O O10 0.002381 0.896813 0.032952
O O11 0.350500 0.244067 0.561960
O O12 0.000000 0.500000 0.500000
O O13 0.613980 0.190610 0.330209
O O14 0.650225 0.123626 0.141250
O O15 0.279353 0.870087 0.458265
O O16 0.093635 0.895042 0.437135
O O17 0.846929 0.954865 0.934093
#
# Coordination Sequence:
#
# PCOD9085137 Si02
#       8
#     2   2   2   2   2   2   2   2
#     4  11  22  38  55  78 113 151 186 224 270 333
#     4  10  19  36  59  80 108 145 189 226 276 327
#     4  10  19  35  59  82 108 145 189 225 273 329
#     4  11  24  38  54  78 116 152 183 227 279 333
#     4   9  19  37  59  80 108 144 189 226 276 328
#     4   9  19  35  59  83 107 144 186 231 272 328
#     4   9  18  33  56  85 109 134 178 235 284 319
#     4   9  18  33  56  84 110 135 176 236 282 321
#
# _framework density 19.248664999999999
#
# number of rings (size 3 to 8) (size 9 to 14) (size 15 to 20)
#    0.000    2.250    1.250    1.500    1.750    4.000 
#    0.000    0.625    0.000    2.250    0.000    0.000 
#    0.000    0.000    0.000    0.000    0.000    0.000 
#
# Total GULP energy -89077.313484 kJ/mol
# GULP energy per Si atom -5567.332093 kJ/mol
# Density = 1.920485 g / cm^3
# Si number density = 19.248665 Si / 1000 Ang^3
#
#
#
# Elastic Constant Matrix: (Units=GPa)
#
#
# Indices 1 2 3 4 5 6 
#
# 1 49.4717 0.8215 9.4723 7.0047 6.4212 -6.6362
# 2 0.8215 37.8287 19.0843 11.5679 -0.3237 -2.2432
# 3 9.4723 19.0843 81.0928 19.1299 -0.6764 -6.4256
# 4 7.0047 11.5679 19.1299 28.7065 7.4307 0.6836
# 5 6.4212 -0.3237 -0.6764 7.4307 29.6817 2.6206
# 6 -6.6362 -2.2432 -6.4256 0.6836 2.6206 24.6716
#
#
#
# Elastic Compliance Matrix: (Units=1/GPa)
#
#
# Indices 1 2 3 4 5 6 
#
# 1 0.022518 0.001963 -0.001628 -0.004215 -0.004397 0.006395
# 2 0.001963 0.032424 -0.005123 -0.010783 0.002318 0.002194
# 3 -0.001628 -0.005123 0.016146 -0.009060 0.002644 0.003272
# 4 -0.004215 -0.010783 -0.009060 0.049293 -0.011344 -0.004635
# 5 -0.004397 0.002318 0.002644 -0.011344 0.037920 -0.003997
# 6 0.006395 0.002194 0.003272 -0.004635 -0.003997 0.043857
#
#
# Mechanical properties :
#
#
# Convention : Reuss Voigt Hill
#
# Bulk Modulus (GPa) = 16.25696 25.23884 20.74790
# Shear Modulus (GPa) = 21.52954 25.87964 23.70459
#
# Velocity S-wave (km/s) = 3.34802 3.67071 3.51307
# Velocity P-wave (km/s) = 4.83836 5.57727 5.22090
#
# Compressibility (1/GPa) = 0.06151211
#
# Stress axis : x y z
#
# Youngs Moduli (GPa) = 44.40892 30.84112 61.93517
#
# Poissons Ratio (x) = -0.06053 0.10082
# Poissons Ratio (y) = -0.08716 0.31729
# Poissons Ratio (z) = 0.07229 0.15800
#
# Static dielectric constant tensor:
#      x y z
#    x 1.685020 0.010290 -0.022480 
#    y 0.010290 1.691610 0.037550 
#    z -0.022480 0.037550 1.703040 
# 
# From -- ./inp_files/218636.got.cif
#   From: 2010.05.17/outbox.cif.g08.bks.cpg/sg2_110_cif.got.tgz:218636.got - 2010.06.03 11:33:40.
