data_PCOD9085106
_publ_section_title
;
Structure prediction by ZEFSAII (Michael W. Deem and Ramdas Pophale) SiO2 
 PCOD9085106
Probable space group: P -1
;
_chemical_formula_sum "Si O2"
_cell_formula_units_Z 16
_cell_length_a 10.812392
_cell_length_b 11.000755
_cell_length_c 15.303772
_cell_angle_alpha 40.265128
_cell_angle_beta 133.720396
_cell_angle_gamma 105.302801
_cell_volume 702.131499
_symmetry_space_group_name_H-M "P -1"
_symmetry_group_IT_number 2
_symmetry_cell_setting 'triclinic'
loop_
_space_group_symop_operation_xyz
x,y,z
-x,-y,-z
loop_
_atom_site_type_symbol
_atom_site_label
_atom_site_fract_x
_atom_site_fract_y
_atom_site_fract_z
Si Si1 0.089566 0.639692 0.930057
Si Si2 0.111657 0.374800 0.332072
Si Si3 0.425374 0.698321 0.683392
Si Si4 0.715829 0.759461 0.227458
Si Si5 0.521736 0.955669 0.704612
Si Si6 0.114511 0.714683 0.386345
Si Si7 0.260653 0.458417 0.828400
Si Si8 0.045515 0.131796 0.081961
O O1 0.336173 0.486921 0.122785
O O2 0.000000 0.500000 0.000000
O O3 0.993497 0.693219 0.757140
O O4 0.028852 0.817907 0.880267
O O5 0.977956 0.402127 0.335623
O O6 0.352384 0.177311 0.553226
O O7 0.076694 0.618243 0.159921
O O8 0.417029 0.917476 0.591612
O O9 0.282226 0.724563 0.519507
O O10 0.346446 0.612763 0.769828
O O11 0.766223 0.553856 0.429976
O O12 0.710213 0.666458 0.180188
O O13 0.914751 0.771913 0.312836
O O14 0.500000 0.000000 0.000000
O O15 0.717303 0.952073 0.769847
O O16 0.615620 0.733384 0.932784
O O17 0.031971 0.920349 0.164208
#
# Coordination Sequence:
#
# PCOD9085106 Si02
#       8
#     2   2   2   2   2   2   2   2
#     4  10  19  35  58  91 137 167 195 248 300 360
#     4  10  22  38  58  88 130 172 197 246 300 366
#     4  11  21  38  62  94 133 163 204 254 302 373
#     4  10  24  47  67  88 120 156 210 271 309 358
#     4  11  22  38  62  93 133 172 194 244 311 369
#     4  10  24  39  66  95 117 158 208 258 314 358
#     4  10  23  42  60  88 127 160 211 255 304 374
#     4  10  22  38  60  95 129 160 208 248 299 373
#
# _framework density 22.787754
#
# number of rings (size 3 to 8) (size 9 to 14) (size 15 to 20)
#    0.000    1.750    3.750    1.125    7.000    4.500 
#    0.000    2.500    0.000    4.500    0.000    0.000 
#    0.000    0.000    0.000    0.000    0.000    0.000 
#
# Total GULP energy -89317.776517 kJ/mol
# GULP energy per Si atom -5582.361032 kJ/mol
# Density = 2.273589 g / cm^3
# Si number density = 22.787754 Si / 1000 Ang^3
#
#
#
# Elastic Constant Matrix: (Units=GPa)
#
#
# Indices 1 2 3 4 5 6 
#
# 1 93.2653 25.8527 39.8519 -34.8699 3.5724 5.2024
# 2 25.8527 37.4235 15.9649 -14.6643 7.1231 6.3081
# 3 39.8519 15.9649 106.5009 -33.3521 34.6018 11.6078
# 4 -34.8699 -14.6643 -33.3521 41.9336 -11.5471 -5.2964
# 5 3.5724 7.1231 34.6018 -11.5471 36.9623 -15.0180
# 6 5.2024 6.3081 11.6078 -5.2964 -15.0180 40.6188
#
#
#
# Elastic Compliance Matrix: (Units=1/GPa)
#
#
# Indices 1 2 3 4 5 6 
#
# 1 0.020468 -0.010118 -0.007935 0.012208 0.014540 0.008185
# 2 -0.010118 0.037427 0.005068 0.003400 -0.014310 -0.010813
# 3 -0.007935 0.005068 0.023703 0.004382 -0.027604 -0.016179
# 4 0.012208 0.003400 0.004382 0.041992 0.009470 0.005633
# 5 0.014540 -0.014310 -0.027604 0.009470 0.071855 0.036051
# 6 0.008185 -0.010813 -0.016179 0.005633 0.036051 0.043937
#
#
# Mechanical properties :
#
#
# Convention : Reuss Voigt Hill
#
# Bulk Modulus (GPa) = 17.97629 44.50319 31.23974
# Shear Modulus (GPa) = 17.61209 34.27094 25.94152
#
# Velocity S-wave (km/s) = 2.78308 3.88225 3.37767
# Velocity P-wave (km/s) = 4.27002 6.29822 5.38055
#
# Compressibility (1/GPa) = 0.05562884
#
# Stress axis : x y z
#
# Youngs Moduli (GPa) = 48.85584 26.71856 42.18835
#
# Poissons Ratio (x) = 0.27034 0.33477
# Poissons Ratio (y) = 0.49432 -0.21381
# Poissons Ratio (z) = 0.38768 -0.13541
#
# Static dielectric constant tensor:
#      x y z
#    x 1.885410 -0.055100 -0.080420 
#    y -0.055100 1.948940 -0.009360 
#    z -0.080420 -0.009360 1.908000 
# 
# From -- ./inp_files/569135.got.cif
#   From: 2010.05.17/outbox.cif.g08.bks.cpg/sg2_285_cif.got.tgz:569135.got - 2010.06.03 11:33:40.
