data_PCOD9085862
_publ_section_title
;
Structure prediction by ZEFSAII (Michael W. Deem and Ramdas Pophale) SiO2 
 PCOD9085862
Probable space group: P -1
;
_chemical_formula_sum "Si O2"
_cell_formula_units_Z 14
_cell_length_a 12.634791
_cell_length_b 7.637829
_cell_length_c 11.944218
_cell_angle_alpha 127.478843
_cell_angle_beta 126.432579
_cell_angle_gamma 68.933146
_cell_volume 735.935692
_symmetry_space_group_name_H-M "P -1"
_symmetry_group_IT_number 2
_symmetry_cell_setting 'triclinic'
loop_
_space_group_symop_operation_xyz
x,y,z
-x,-y,-z
loop_
_atom_site_type_symbol
_atom_site_label
_atom_site_fract_x
_atom_site_fract_y
_atom_site_fract_z
Si Si1 0.638794 0.020251 0.693660
Si Si2 0.511480 0.389824 0.627378
Si Si3 0.811238 0.062857 0.601972
Si Si4 0.946726 0.252898 0.367133
Si Si5 0.874882 0.006755 0.005771
Si Si6 0.796851 0.532719 0.779785
Si Si7 0.734838 0.320030 0.446659
O O1 0.555538 0.242254 0.704358
O O2 0.720081 0.978497 0.612459
O O3 0.743745 0.050976 0.868874
O O4 0.547588 0.804380 0.564997
O O5 0.355307 0.503224 0.295028
O O6 0.198328 0.483686 0.359513
O O7 0.863003 0.303944 0.769938
O O8 0.730781 0.128704 0.464839
O O9 0.931106 0.905702 0.589529
O O10 0.828602 0.241455 0.376877
O O11 0.000000 0.500000 0.500000
O O12 0.898165 0.178933 0.185826
O O13 0.853652 0.760453 0.944853
O O14 0.000000 0.000000 0.000000
O O15 0.400813 0.576053 0.641146
#
# Coordination Sequence:
#
# PCOD9085862 Si02
#       7
#     2   2   2   2   2   2   2
#     4  10  19  35  63  98 114 159 203 260 293 352
#     4  10  19  36  66  91 122 155 210 246 303 360
#     4   9  20  37  61  91 118 155 206 248 304 353
#     4  12  24  40  59  86 130 167 197 246 311 371
#     4  12  23  40  61  95 126 154 209 253 306 355
#     4   9  21  37  64  91 118 155 206 257 289 350
#     4  10  20  37  59  90 116 161 200 244 302 357
#
# _framework density 19.023399999999999
#
# number of rings (size 3 to 8) (size 9 to 14) (size 15 to 20)
#    0.857    0.857    2.857    2.571    0.000    0.571 
#    0.000    1.429    0.000    0.000    0.000    0.000 
#    0.000    0.000    0.000    0.000    0.000    0.000 
#
# Total GULP energy -78005.445153 kJ/mol
# GULP energy per Si atom -5571.817511 kJ/mol
# Density = 1.898010 g / cm^3
# Si number density = 19.023400 Si / 1000 Ang^3
#
#
#
# Elastic Constant Matrix: (Units=GPa)
#
#
# Indices 1 2 3 4 5 6 
#
# 1 103.4336 49.6009 44.8395 13.1704 -2.4872 -8.7724
# 2 49.6009 145.9216 29.5699 4.5574 10.8760 -26.5326
# 3 44.8395 29.5699 100.5940 10.2784 9.0302 -0.1632
# 4 13.1704 4.5574 10.2784 25.7459 -1.1385 4.1833
# 5 -2.4872 10.8760 9.0302 -1.1385 30.7084 6.2776
# 6 -8.7724 -26.5326 -0.1632 4.1833 6.2776 37.2392
#
#
#
# Elastic Compliance Matrix: (Units=1/GPa)
#
#
# Indices 1 2 3 4 5 6 
#
# 1 0.014522 -0.003946 -0.005191 -0.004562 0.003839 0.000452
# 2 -0.003946 0.010047 -0.000623 -0.000912 -0.005201 0.007205
# 3 -0.005191 -0.000623 0.013053 -0.002516 -0.003998 -0.000653
# 4 -0.004562 -0.000912 -0.002516 0.043692 0.003803 -0.007285
# 5 0.003839 -0.005201 -0.003998 0.003803 0.038008 -0.009654
# 6 0.000452 0.007205 -0.000653 -0.007285 -0.009654 0.034536
#
#
# Mechanical properties :
#
#
# Convention : Reuss Voigt Hill
#
# Bulk Modulus (GPa) = 55.24045 66.44110 60.84077
# Shear Modulus (GPa) = 27.86896 33.80131 30.83513
#
# Velocity S-wave (km/s) = 3.83166 4.21982 4.03041
# Velocity P-wave (km/s) = 6.97687 7.66448 7.32874
#
# Compressibility (1/GPa) = 0.01810268
#
# Stress axis : x y z
#
# Youngs Moduli (GPa) = 68.86059 99.53558 76.61186
#
# Poissons Ratio (x) = 0.39274 0.39770
# Poissons Ratio (y) = 0.27171 0.04770
# Poissons Ratio (z) = 0.35746 0.06197
#
# Static dielectric constant tensor:
#      x y z
#    x 1.677340 0.017590 0.015850 
#    y 0.017590 1.726780 -0.021190 
#    z 0.015850 -0.021190 1.655960 
# 
# From -- ./inp_files/448394.got.cif
#   From: 2010.05.17/outbox.cif.g08.bks.cpg/sg2_225_cif.got.tgz:448394.got - 2010.06.03 11:33:40.
