data_PCOD9085650
_publ_section_title
;
Structure prediction by ZEFSAII (Michael W. Deem and Ramdas Pophale) SiO2 
 PCOD9085650
Probable space group: P -1
;
_chemical_formula_sum "Si O2"
_cell_formula_units_Z 16
_cell_length_a 19.096875
_cell_length_b 7.448050
_cell_length_c 11.901994
_cell_angle_alpha 31.107528
_cell_angle_beta 126.322278
_cell_angle_gamma 124.238377
_cell_volume 698.387819
_symmetry_space_group_name_H-M "P -1"
_symmetry_group_IT_number 2
_symmetry_cell_setting 'triclinic'
loop_
_space_group_symop_operation_xyz
x,y,z
-x,-y,-z
loop_
_atom_site_type_symbol
_atom_site_label
_atom_site_fract_x
_atom_site_fract_y
_atom_site_fract_z
Si Si1 0.004597 0.099525 0.749291
Si Si2 0.844622 0.115509 0.859008
Si Si3 0.366653 0.263037 0.472353
Si Si4 0.484337 0.367814 0.737732
Si Si5 0.909339 0.891044 0.406432
Si Si6 0.574505 0.442116 0.189942
Si Si7 0.238702 0.171001 0.842617
Si Si8 0.195460 0.980909 0.366188
O O1 0.903895 0.945181 0.749158
O O2 0.000000 0.500000 0.500000
O O3 0.052967 0.983586 0.748347
O O4 0.068156 0.060349 0.934692
O O5 0.881685 0.503167 0.642036
O O6 0.788703 0.953010 0.786784
O O7 0.787588 0.054750 0.950000
O O8 0.401995 0.334287 0.592815
O O9 0.429494 0.515512 0.316266
O O10 0.386914 0.888618 0.646533
O O11 0.263252 0.228817 0.373052
O O12 0.466052 0.603369 0.700265
O O13 0.500000 0.000000 0.000000
O O14 0.810497 0.982014 0.236265
O O15 0.000000 0.000000 0.500000
O O16 0.657031 0.747201 0.112504
O O17 0.500000 0.500000 0.000000
O O18 0.204476 0.562051 0.618503
#
# Coordination Sequence:
#
# PCOD9085650 Si02
#       8
#     2   2   2   2   2   2   2   2
#     4  11  19  35  57  88 114 146 197 242 289 357
#     4  10  19  35  62  82 122 154 197 247 296 354
#     4  10  24  42  64  95 125 165 207 258 315 368
#     4  11  23  44  64  91 130 158 208 262 308 377
#     4  10  22  38  56  81 122 161 193 243 301 352
#     4  11  22  41  69  92 123 170 208 253 323 371
#     4   9  21  37  56  91 119 150 210 245 289 375
#     4  10  20  35  59  91 116 154 201 247 300 357
#
# _framework density 22.909907
#
# number of rings (size 3 to 8) (size 9 to 14) (size 15 to 20)
#    0.000    1.750    5.000    0.750    1.750    3.000 
#    2.250    2.500    0.000    0.000    0.000    0.000 
#    0.000    0.000    0.000    0.000    0.000    0.000 
#
# Total GULP energy -89119.402414 kJ/mol
# GULP energy per Si atom -5569.962651 kJ/mol
# Density = 2.285776 g / cm^3
# Si number density = 22.909907 Si / 1000 Ang^3
#
#
#
# Elastic Constant Matrix: (Units=GPa)
#
#
# Indices 1 2 3 4 5 6 
#
# 1 46.9221 20.4361 36.8531 6.5305 -1.8628 6.6111
# 2 20.4361 121.0793 47.7397 34.5901 -8.1743 27.8743
# 3 36.8531 47.7397 98.1696 24.0315 -22.1977 12.1699
# 4 6.5305 34.5901 24.0315 28.2652 -2.7311 0.2897
# 5 -1.8628 -8.1743 -22.1977 -2.7311 30.9036 7.6235
# 6 6.6111 27.8743 12.1699 0.2897 7.6235 38.7448
#
#
#
# Elastic Compliance Matrix: (Units=1/GPa)
#
#
# Indices 1 2 3 4 5 6 
#
# 1 0.032955 -0.003524 -0.015665 0.008979 -0.010342 0.003800
# 2 -0.003524 0.018392 0.001036 -0.021756 0.006968 -0.014164
# 3 -0.015665 0.001036 0.024982 -0.017046 0.018073 -0.009348
# 4 0.008979 -0.021756 -0.017046 0.072599 -0.016513 0.022180
# 5 -0.010342 0.006968 0.018073 -0.016513 0.049684 -0.018578
# 6 0.003800 -0.014164 -0.009348 0.022180 -0.018578 0.041778
#
#
# Mechanical properties :
#
#
# Convention : Reuss Voigt Hill
#
# Bulk Modulus (GPa) = 24.98599 52.91431 38.95015
# Shear Modulus (GPa) = 17.23931 30.32552 23.78241
#
# Velocity S-wave (km/s) = 2.74612 3.64220 3.22543
# Velocity P-wave (km/s) = 4.58091 6.39017 5.55963
#
# Compressibility (1/GPa) = 0.04002242
#
# Stress axis : x y z
#
# Youngs Moduli (GPa) = 30.34481 54.37235 40.02922
#
# Poissons Ratio (x) = 0.19160 0.62706
# Poissons Ratio (y) = 0.10693 -0.04148
# Poissons Ratio (z) = 0.47536 -0.05634
#
# Static dielectric constant tensor:
#      x y z
#    x 1.927570 0.021790 0.083980 
#    y 0.021790 2.017870 0.039470 
#    z 0.083980 0.039470 1.907740 
# 
# From -- ./inp_files/142360.got.cif
#   From: 2010.05.17/outbox.cif.g08.bks.cpg/sg2_72_cif.got.tgz:142360.got - 2010.06.03 11:33:40.
