data_PCOD9085314
_publ_section_title
;
Structure prediction by ZEFSAII (Michael W. Deem and Ramdas Pophale) SiO2 
 PCOD9085314
Probable space group: P -1
;
_chemical_formula_sum "Si O2"
_cell_formula_units_Z 14
_cell_length_a 9.196679
_cell_length_b 10.832759
_cell_length_c 13.950834
_cell_angle_alpha 135.170607
_cell_angle_beta 146.691145
_cell_angle_gamma 50.105415
_cell_volume 533.815178
_symmetry_space_group_name_H-M "P -1"
_symmetry_group_IT_number 2
_symmetry_cell_setting 'triclinic'
loop_
_space_group_symop_operation_xyz
x,y,z
-x,-y,-z
loop_
_atom_site_type_symbol
_atom_site_label
_atom_site_fract_x
_atom_site_fract_y
_atom_site_fract_z
Si Si1 0.397521 0.235748 0.223667
Si Si2 0.159506 0.783191 0.683803
Si Si3 0.754047 0.345170 0.633332
Si Si4 0.030975 0.003823 0.132242
Si Si5 0.610666 0.875389 0.367361
Si Si6 0.644408 0.639633 0.089746
Si Si7 0.539355 0.560974 0.295861
O O1 0.581883 0.164548 0.198329
O O2 0.576103 0.215105 0.407808
O O3 0.344266 0.445957 0.310351
O O4 0.118008 0.163547 0.017215
O O5 0.219946 0.566966 0.589473
O O6 0.915906 0.905694 0.563891
O O7 0.114958 0.834375 0.798550
O O8 0.680840 0.329768 0.696858
O O9 0.039290 0.341540 0.736673
O O10 0.343943 0.990815 0.318839
O O11 0.000000 0.000000 0.000000
O O12 0.549334 0.817979 0.193428
O O13 0.636453 0.699898 0.352791
O O14 0.500000 0.500000 0.000000
O O15 0.584904 0.580154 0.917035
#
# Coordination Sequence:
#
# PCOD9085314 Si02
#       7
#     2   2   2   2   2   2   2
#     4  10  22  42  66  95 133 175 218 272 324 392
#     4  11  23  44  67  97 134 173 219 267 337 390
#     4  10  20  38  67 101 131 166 222 274 329 379
#     4  12  27  45  67  94 136 180 220 266 330 397
#     4  11  23  43  66 100 134 170 220 275 325 389
#     4  10  19  35  59  96 132 162 206 267 325 377
#     4  10  22  37  70 102 130 166 220 274 330 382
#
# _framework density 26.226305
#
# number of rings (size 3 to 8) (size 9 to 14) (size 15 to 20)
#    0.000    1.429    1.429    4.286    2.000    2.286 
#    0.000    2.143    0.000    0.000    0.000    0.000 
#    0.000    0.000    0.000    0.000    0.000    0.000 
#
# Total GULP energy -78023.462784 kJ/mol
# GULP energy per Si atom -5573.104485 kJ/mol
# Density = 2.616661 g / cm^3
# Si number density = 26.226305 Si / 1000 Ang^3
#
#
#
# Elastic Constant Matrix: (Units=GPa)
#
#
# Indices 1 2 3 4 5 6 
#
# 1 147.6134 33.3190 47.3360 -9.2478 5.8188 -50.8506
# 2 33.3190 79.7932 27.7383 5.1141 11.1836 -35.8422
# 3 47.3360 27.7383 101.4396 -1.3413 13.1288 -6.8420
# 4 -9.2478 5.1141 -1.3413 37.6426 -4.2938 2.4649
# 5 5.8188 11.1836 13.1288 -4.2938 42.6717 2.6258
# 6 -50.8506 -35.8422 -6.8420 2.4649 2.6258 41.4221
#
#
#
# Elastic Compliance Matrix: (Units=1/GPa)
#
#
# Indices 1 2 3 4 5 6 
#
# 1 0.016702 0.008009 -0.007739 0.000609 -0.003555 0.026345
# 2 0.008009 0.029261 -0.008323 -0.005590 -0.008897 0.034674
# 3 -0.007739 -0.008323 0.014842 0.000648 -0.000387 -0.014264
# 4 0.000609 -0.005590 0.000648 0.028390 0.004405 -0.005951
# 5 -0.003555 -0.008897 -0.000387 0.004405 0.027684 -0.014144
# 6 0.026345 0.034674 -0.014264 -0.005951 -0.014144 0.085380
#
#
# Mechanical properties :
#
#
# Convention : Reuss Voigt Hill
#
# Bulk Modulus (GPa) = 22.37112 60.62585 41.49849
# Shear Modulus (GPa) = 21.43499 39.04414 30.23957
#
# Velocity S-wave (km/s) = 2.86196 3.86260 3.39930
# Velocity P-wave (km/s) = 4.41244 6.56198 5.59148
#
# Compressibility (1/GPa) = 0.04470048
#
# Stress axis : x y z
#
# Youngs Moduli (GPa) = 59.87340 34.17475 67.37823
#
# Poissons Ratio (x) = -0.27371 0.52142
# Poissons Ratio (y) = -0.47953 0.56076
# Poissons Ratio (z) = 0.46334 0.28442
#
# Static dielectric constant tensor:
#      x y z
#    x 2.435710 0.209210 0.007460 
#    y 0.209210 2.085740 -0.066880 
#    z 0.007460 -0.066880 2.227530 
# 
# From -- ./inp_files/505521.got.cif
#   From: 2010.05.17/outbox.cif.g08.bks.cpg/sg2_253_cif.got.tgz:505521.got - 2010.06.03 11:33:40.
