data_PCOD9085811
_publ_section_title
;
Structure prediction by ZEFSAII (Michael W. Deem and Ramdas Pophale) SiO2 
 PCOD9085811
Probable space group: P -1
;
_chemical_formula_sum "Si O2"
_cell_formula_units_Z 16
_cell_length_a 9.500676
_cell_length_b 13.742202
_cell_length_c 9.895937
_cell_angle_alpha 44.430488
_cell_angle_beta 66.330201
_cell_angle_gamma 41.650189
_cell_volume 576.343002
_symmetry_space_group_name_H-M "P -1"
_symmetry_group_IT_number 2
_symmetry_cell_setting 'triclinic'
loop_
_space_group_symop_operation_xyz
x,y,z
-x,-y,-z
loop_
_atom_site_type_symbol
_atom_site_label
_atom_site_fract_x
_atom_site_fract_y
_atom_site_fract_z
Si Si1 0.567980 0.392232 0.283615
Si Si2 0.127972 0.326231 0.866340
Si Si3 0.138713 0.731674 0.967295
Si Si4 0.696441 0.753359 0.681458
Si Si5 0.174447 0.172056 0.713006
Si Si6 0.521891 0.272957 0.842542
Si Si7 0.737423 0.012451 0.511968
Si Si8 0.090020 0.852095 0.325501
O O1 0.313487 0.540946 0.185259
O O2 0.562292 0.537695 0.229095
O O3 0.660234 0.175299 0.489323
O O4 0.724188 0.328432 0.159618
O O5 0.131249 0.299550 0.729977
O O6 0.317185 0.311029 0.839857
O O7 0.097446 0.184811 0.059810
O O8 0.906188 0.520827 0.833108
O O9 0.067887 0.917915 0.884084
O O10 0.723069 0.808459 0.469214
O O11 0.455397 0.841641 0.676145
O O12 0.725090 0.853188 0.685325
O O13 0.956519 0.247226 0.655133
O O14 0.325216 0.943993 0.928766
O O15 0.665470 0.252106 0.689864
O O16 0.978217 0.886321 0.479108
#
# Coordination Sequence:
#
# PCOD9085811 Si02
#       8
#     2   2   2   2   2   2   2   2
#     4  10  20  36  63  97 117 159 212 260 301 353
#     4  12  24  39  60  95 133 162 196 257 320 363
#     4  10  19  35  63  90 126 157 208 257 300 363
#     4  10  22  40  66  90 122 164 214 247 301 375
#     4  11  22  39  64  93 123 164 208 253 299 370
#     4  12  24  38  64  99 127 156 201 264 318 356
#     4   9  20  40  67  89 116 162 216 257 290 356
#     4  10  20  38  65  93 121 158 213 256 298 362
#
# _framework density 27.761247999999998
#
# number of rings (size 3 to 8) (size 9 to 14) (size 15 to 20)
#    0.000    1.500    3.750    1.875    1.750    0.500 
#    0.000    3.125    0.000    0.000    0.000    0.000 
#    0.000    0.000    0.000    0.000    0.000    0.000 
#
# Total GULP energy -89390.526198 kJ/mol
# GULP energy per Si atom -5586.907887 kJ/mol
# Density = 2.769806 g / cm^3
# Si number density = 27.761248 Si / 1000 Ang^3
#
#
#
# Elastic Constant Matrix: (Units=GPa)
#
#
# Indices 1 2 3 4 5 6 
#
# 1 232.1817 63.5549 19.7202 -6.7332 -38.7470 -7.7022
# 2 63.5549 127.5762 12.6559 -2.2788 -15.9724 0.5411
# 3 19.7202 12.6559 89.9188 -17.6694 -11.1706 5.6080
# 4 -6.7332 -2.2788 -17.6694 38.9505 2.6994 -19.8098
# 5 -38.7470 -15.9724 -11.1706 2.6994 34.1536 0.2416
# 6 -7.7022 0.5411 5.6080 -19.8098 0.2416 60.4501
#
#
#
# Elastic Compliance Matrix: (Units=1/GPa)
#
#
# Indices 1 2 3 4 5 6 
#
# 1 0.005919 -0.002226 -0.000172 0.000987 0.005532 0.001091
# 2 -0.002226 0.009208 -0.000679 -0.000507 0.001602 -0.000476
# 3 -0.000172 -0.000679 0.012758 0.005856 0.003193 0.000707
# 4 0.000987 -0.000507 0.005856 0.033910 0.000042 0.010699
# 5 0.005532 0.001602 0.003193 0.000042 0.037344 0.000259
# 6 0.001091 -0.000476 0.000707 0.010699 0.000259 0.020125
#
#
# Mechanical properties :
#
#
# Convention : Reuss Voigt Hill
#
# Bulk Modulus (GPa) = 46.01518 71.28207 58.64863
# Shear Modulus (GPa) = 37.69010 50.29388 43.99199
#
# Velocity S-wave (km/s) = 3.68863 4.26097 3.98509
# Velocity P-wave (km/s) = 5.89514 7.06686 6.50742
#
# Compressibility (1/GPa) = 0.02173196
#
# Stress axis : x y z
#
# Youngs Moduli (GPa) = 168.95062 108.59765 78.38448
#
# Poissons Ratio (x) = 0.24174 0.01346
# Poissons Ratio (y) = 0.37608 0.05320
# Poissons Ratio (z) = 0.02901 0.07371
#
# Static dielectric constant tensor:
#      x y z
#    x 2.200140 0.026130 0.048860 
#    y 0.026130 2.135400 -0.003570 
#    z 0.048860 -0.003570 2.252490 
# 
# From -- ./inp_files/274216.got.cif
#   From: 2010.05.17/outbox.cif.g08.bks.cpg/sg2_138_cif.got.tgz:274216.got - 2010.06.03 11:33:40.
