data_PCOD9085198
_publ_section_title
;
Structure prediction by ZEFSAII (Michael W. Deem and Ramdas Pophale) SiO2 
 PCOD9085198
Probable space group: P -1
;
_chemical_formula_sum "Si O2"
_cell_formula_units_Z 16
_cell_length_a 21.902551
_cell_length_b 14.196444
_cell_length_c 8.559429
_cell_angle_alpha 125.480021
_cell_angle_beta 112.446721
_cell_angle_gamma 24.512996
_cell_volume 810.550226
_symmetry_space_group_name_H-M "P -1"
_symmetry_group_IT_number 2
_symmetry_cell_setting 'triclinic'
loop_
_space_group_symop_operation_xyz
x,y,z
-x,-y,-z
loop_
_atom_site_type_symbol
_atom_site_label
_atom_site_fract_x
_atom_site_fract_y
_atom_site_fract_z
Si Si1 0.420443 0.763744 0.986071
Si Si2 0.725675 0.151943 0.825851
Si Si3 0.237409 0.722594 0.741398
Si Si4 0.910822 0.168667 0.909847
Si Si5 0.693043 0.625838 0.667410
Si Si6 0.951411 0.852779 0.510676
Si Si7 0.583049 0.744511 0.026233
Si Si8 0.315255 0.783857 0.645714
O O1 0.580941 0.423487 0.829241
O O2 0.486171 0.783118 0.017968
O O3 0.297031 0.914673 0.880064
O O4 0.329537 0.876874 0.168846
O O5 0.898720 0.871535 0.637068
O O6 0.728102 0.255706 0.051271
O O7 0.289232 0.506702 0.568090
O O8 0.318041 0.658596 0.617227
O O9 0.043014 0.035798 0.825447
O O10 0.735294 0.506906 0.065038
O O11 0.894367 0.075476 0.709506
O O12 0.000000 0.000000 0.000000
O O13 0.660015 0.627506 0.812008
O O14 0.861344 0.430372 0.629901
O O15 0.541472 0.950273 0.793067
O O16 0.834223 0.983404 0.394311
O O17 0.500000 0.500000 0.500000
#
# Coordination Sequence:
#
# PCOD9085198 Si02
#       8
#     2   2   2   2   2   2   2   2
#     4  10  20  35  57  86 113 158 194 247 290 342
#     4  10  19  35  59  85 124 144 194 249 299 339
#     4  10  20  34  57  90 113 152 193 242 293 351
#     4  11  19  34  60  84 117 149 189 246 291 342
#     4  10  24  37  61  85 125 157 195 239 297 357
#     4  11  20  37  56  91 115 153 197 250 288 348
#     4  11  21  42  58  88 120 160 195 242 295 354
#     4  11  19  31  57  88 112 146 205 247 283 332
#
# _framework density 19.739677
#
# number of rings (size 3 to 8) (size 9 to 14) (size 15 to 20)
#    0.000    1.500    3.750    2.250    0.000    2.000 
#    0.000    6.875    0.000    3.000    0.000    0.000 
#    0.000    0.000    0.000    0.000    0.000    0.000 
#
# Total GULP energy -89113.813334 kJ/mol
# GULP energy per Si atom -5569.613333 kJ/mol
# Density = 1.969475 g / cm^3
# Si number density = 19.739677 Si / 1000 Ang^3
#
#
#
# Elastic Constant Matrix: (Units=GPa)
#
#
# Indices 1 2 3 4 5 6 
#
# 1 142.0491 53.6363 37.4552 4.9034 -30.2170 -17.0860
# 2 53.6363 115.5796 48.5242 3.6169 0.4029 -10.9803
# 3 37.4552 48.5242 66.8568 2.3659 -13.4501 -3.9126
# 4 4.9034 3.6169 2.3659 22.6847 -5.5730 -2.3201
# 5 -30.2170 0.4029 -13.4501 -5.5730 28.6894 2.6424
# 6 -17.0860 -10.9803 -3.9126 -2.3201 2.6424 31.0719
#
#
#
# Elastic Compliance Matrix: (Units=1/GPa)
#
#
# Indices 1 2 3 4 5 6 
#
# 1 0.012248 -0.005306 -0.000264 0.001776 0.012840 0.003867
# 2 -0.005306 0.015942 -0.010702 -0.002908 -0.011591 0.002137
# 3 -0.000264 -0.010702 0.025161 0.001968 0.012202 -0.001649
# 4 0.001776 -0.002908 0.001968 0.047118 0.011737 0.002717
# 5 0.012840 -0.011591 0.012202 0.011737 0.056490 0.000573
# 6 0.003867 0.002137 -0.001649 0.002717 0.000573 0.035012
#
#
# Mechanical properties :
#
#
# Convention : Reuss Voigt Hill
#
# Bulk Modulus (GPa) = 48.06002 67.07966 57.56984
# Shear Modulus (GPa) = 21.60288 28.81387 25.20837
#
# Velocity S-wave (km/s) = 3.31174 3.82474 3.57745
# Velocity P-wave (km/s) = 6.24686 7.31852 6.80382
#
# Compressibility (1/GPa) = 0.02080732
#
# Stress axis : x y z
#
# Youngs Moduli (GPa) = 81.64519 62.72858 39.74361
#
# Poissons Ratio (x) = 0.33283 0.01050
# Poissons Ratio (y) = 0.43320 0.42533
# Poissons Ratio (z) = 0.02157 0.67131
#
# Static dielectric constant tensor:
#      x y z
#    x 1.773590 -0.006810 -0.086490 
#    y -0.006810 1.714200 -0.053130 
#    z -0.086490 -0.053130 1.786180 
# 
# From -- ./inp_files/354566.got.cif
#   From: 2010.05.17/outbox.cif.g08.bks.cpg/sg2_178_cif.got.tgz:354566.got - 2010.06.03 11:33:40.
