data_PCOD9085916
_publ_section_title
;
Structure prediction by ZEFSAII (Michael W. Deem and Ramdas Pophale) SiO2 
 PCOD9085916
Probable space group: P -1
;
_chemical_formula_sum "Si O2"
_cell_formula_units_Z 15
_cell_length_a 7.947994
_cell_length_b 12.334915
_cell_length_c 11.411515
_cell_angle_alpha 44.839789
_cell_angle_beta 52.338881
_cell_angle_gamma 65.813469
_cell_volume 623.942765
_symmetry_space_group_name_H-M "P -1"
_symmetry_group_IT_number 2
_symmetry_cell_setting 'triclinic'
loop_
_space_group_symop_operation_xyz
x,y,z
-x,-y,-z
loop_
_atom_site_type_symbol
_atom_site_label
_atom_site_fract_x
_atom_site_fract_y
_atom_site_fract_z
Si Si1 0.490777 0.184831 0.378492
Si Si2 0.061195 0.704281 0.939834
Si Si3 0.159531 0.040663 0.008779
Si Si4 0.235791 0.705975 0.305925
Si Si5 0.374382 0.451781 0.813105
Si Si6 0.019151 0.540701 0.302225
Si Si7 0.610291 0.727373 0.400236
Si Si8 0.500000 0.500000 0.000000
O O1 0.345472 0.216203 0.529020
O O2 0.436737 0.306856 0.206109
O O3 0.738773 0.233679 0.264460
O O4 0.500000 0.000000 0.500000
O O5 0.963459 0.846520 0.940486
O O6 0.866770 0.611358 0.035142
O O7 0.147812 0.587589 0.094520
O O8 0.374378 0.121183 0.801042
O O9 0.209900 0.883298 0.168102
O O10 0.000000 0.000000 0.000000
O O11 0.481231 0.666313 0.229180
O O12 0.072233 0.632228 0.526262
O O13 0.153079 0.606258 0.303872
O O14 0.417405 0.604700 0.597420
O O15 0.454188 0.474755 0.894728
O O16 0.803675 0.633326 0.337484
#
# Coordination Sequence:
#
# PCOD9085916 Si02
#       8
#     2   2   2   2   2   2   2   1
#     4  11  24  42  70  97 130 174 220 274 333 399
#     4  11  23  41  64  96 133 173 214 273 332 393
#     4  11  20  36  65  96 130 168 215 270 330 394
#     4  10  19  35  64  93 130 165 220 266 323 390
#     4  10  23  41  63  93 131 169 227 271 330 392
#     4   9  19  36  63  93 124 169 217 268 317 394
#     4   9  20  36  59  92 121 167 212 261 325 390
#     4  10  24  44  68  92 124 180 224 266 326 398
#
# _framework density 24.040666999999999
#
# number of rings (size 3 to 8) (size 9 to 14) (size 15 to 20)
#    0.000    1.867    2.667    1.600    1.867    8.533 
#    0.000    0.667    0.000    4.800    0.000    0.000 
#    0.000    0.000    0.000    0.000    0.000    0.000 
#
# Total GULP energy -83531.736154 kJ/mol
# GULP energy per Si atom -5568.782410 kJ/mol
# Density = 2.398595 g / cm^3
# Si number density = 24.040667 Si / 1000 Ang^3
#
#
#
# Elastic Constant Matrix: (Units=GPa)
#
#
# Indices 1 2 3 4 5 6 
#
# 1 70.8335 -3.8415 14.7072 -11.0996 -15.7269 20.8071
# 2 -3.8415 101.8745 62.8701 -16.2323 3.4203 -9.6935
# 3 14.7072 62.8701 179.1615 -20.7833 -3.6936 -11.8017
# 4 -11.0996 -16.2323 -20.7833 50.6612 -9.1551 6.2547
# 5 -15.7269 3.4203 -3.6936 -9.1551 35.1006 -3.6090
# 6 20.8071 -9.6935 -11.8017 6.2547 -3.6090 26.3943
#
#
#
# Elastic Compliance Matrix: (Units=1/GPa)
#
#
# Indices 1 2 3 4 5 6 
#
# 1 0.024829 0.001758 -0.002707 0.009456 0.010988 -0.020876
# 2 0.001758 0.013091 -0.004381 0.002651 -0.000174 0.000811
# 3 -0.002707 -0.004381 0.007701 0.000799 0.000630 0.003865
# 4 0.009456 0.002651 0.000799 0.026104 0.009742 -0.010977
# 5 0.010988 -0.000174 0.000630 0.009742 0.035430 -0.005909
# 6 -0.020876 0.000811 0.003865 -0.010977 -0.005909 0.058163
#
#
# Mechanical properties :
#
#
# Convention : Reuss Voigt Hill
#
# Bulk Modulus (GPa) = 28.60246 55.48236 42.04241
# Shear Modulus (GPa) = 26.64804 40.97344 33.81074
#
# Velocity S-wave (km/s) = 3.33296 4.13284 3.75427
# Velocity P-wave (km/s) = 5.17058 6.77514 6.02650
#
# Compressibility (1/GPa) = 0.03496203
#
# Stress axis : x y z
#
# Youngs Moduli (GPa) = 40.27629 76.38664 129.84652
#
# Poissons Ratio (x) = -0.13429 0.35146
# Poissons Ratio (y) = -0.07081 0.56884
# Poissons Ratio (z) = 0.10902 0.33464
#
# Static dielectric constant tensor:
#      x y z
#    x 1.867210 0.051790 0.067720 
#    y 0.051790 1.921770 -0.022270 
#    z 0.067720 -0.022270 1.966590 
# 
# From -- ./inp_files/391955.got.cif
#   From: 2010.05.17/outbox.cif.g08.bks.cpg/sg2_196_cif.got.tgz:391955.got - 2010.06.03 11:33:40.
