data_PCOD9085477
_publ_section_title
;
Structure prediction by ZEFSAII (Michael W. Deem and Ramdas Pophale) SiO2 
 PCOD9085477
Probable space group: P -1
;
_chemical_formula_sum "Si O2"
_cell_formula_units_Z 16
_cell_length_a 7.991151
_cell_length_b 14.730298
_cell_length_c 10.543032
_cell_angle_alpha 119.374795
_cell_angle_beta 116.212978
_cell_angle_gamma 38.377826
_cell_volume 667.671566
_symmetry_space_group_name_H-M "P -1"
_symmetry_group_IT_number 2
_symmetry_cell_setting 'triclinic'
loop_
_space_group_symop_operation_xyz
x,y,z
-x,-y,-z
loop_
_atom_site_type_symbol
_atom_site_label
_atom_site_fract_x
_atom_site_fract_y
_atom_site_fract_z
Si Si1 0.863565 0.019188 0.135699
Si Si2 0.826752 0.899115 0.680021
Si Si3 0.639628 0.552460 0.543247
Si Si4 0.844747 0.362599 0.229029
Si Si5 0.621873 0.818198 0.416512
Si Si6 0.421454 0.736310 0.992264
Si Si7 0.712076 0.100983 0.404549
Si Si8 0.101994 0.470390 0.803624
O O1 0.748679 0.024168 0.232156
O O2 0.954950 0.099574 0.257318
O O3 0.644806 0.138259 0.036164
O O4 0.148346 0.853232 0.071589
O O5 0.857360 0.805320 0.510443
O O6 0.889010 0.812522 0.768614
O O7 0.550005 0.071458 0.682317
O O8 0.500000 0.500000 0.500000
O O9 0.796593 0.457191 0.399433
O O10 0.441975 0.727951 0.558952
O O11 0.824114 0.526362 0.703136
O O12 0.892915 0.412092 0.155428
O O13 0.614300 0.367233 0.144300
O O14 0.458162 0.890997 0.541477
O O15 0.695282 0.671108 0.321286
O O16 0.724833 0.618429 0.070919
O O17 0.000000 0.000000 0.500000
#
# Coordination Sequence:
#
# PCOD9085477 Si02
#       8
#     2   2   2   2   2   2   2   2
#     4  10  21  41  66  95 133 175 223 266 323 388
#     4  10  19  35  60  94 127 168 212 265 318 389
#     4  12  26  41  66 102 133 169 218 286 341 381
#     4  11  22  40  65 100 134 169 220 273 326 391
#     4  11  21  35  66  99 129 164 223 270 333 389
#     4  10  22  41  69  96 133 183 226 255 324 413
#     4  12  23  40  64  97 134 164 215 282 332 379
#     4  12  22  43  66 102 131 175 223 275 328 390
#
# _framework density 23.963877
#
# number of rings (size 3 to 8) (size 9 to 14) (size 15 to 20)
#    0.000    1.000    5.000    3.000    0.000    0.000 
#    0.000    2.500    0.000   13.500    0.000    0.000 
#    0.000    0.000    0.000    0.000    0.000    0.000 
#
# Total GULP energy -89140.737523 kJ/mol
# GULP energy per Si atom -5571.296095 kJ/mol
# Density = 2.390933 g / cm^3
# Si number density = 23.963877 Si / 1000 Ang^3
#
#
#
# Elastic Constant Matrix: (Units=GPa)
#
#
# Indices 1 2 3 4 5 6 
#
# 1 42.7200 42.0669 15.0083 -9.4750 4.7609 1.4884
# 2 42.0669 162.4623 35.6571 -38.0142 10.3939 9.5492
# 3 15.0083 35.6571 89.7471 -24.3125 16.9521 -11.8989
# 4 -9.4750 -38.0142 -24.3125 48.6880 -11.8399 6.8007
# 5 4.7609 10.3939 16.9521 -11.8399 38.3113 -0.3141
# 6 1.4884 9.5492 -11.8989 6.8007 -0.3141 26.4389
#
#
#
# Elastic Compliance Matrix: (Units=1/GPa)
#
#
# Indices 1 2 3 4 5 6 
#
# 1 0.031945 -0.008105 -0.002252 -0.001617 -0.001270 0.000516
# 2 -0.008105 0.010560 -0.002004 0.006763 0.001070 -0.005986
# 3 -0.002252 -0.002004 0.015015 0.003418 -0.004710 0.006673
# 4 -0.001617 0.006763 0.003418 0.029849 0.006009 -0.008420
# 5 -0.001270 0.001070 -0.004710 0.006009 0.029881 -0.003625
# 6 0.000516 -0.005986 0.006673 -0.008420 -0.003625 0.045082
#
#
# Mechanical properties :
#
#
# Convention : Reuss Voigt Hill
#
# Bulk Modulus (GPa) = 30.48807 53.37710 41.93258
# Shear Modulus (GPa) = 25.25438 36.16746 30.71092
#
# Velocity S-wave (km/s) = 3.24983 3.88912 3.58376
# Velocity P-wave (km/s) = 5.17996 6.51838 5.88733
#
# Compressibility (1/GPa) = 0.03279972
#
# Stress axis : x y z
#
# Youngs Moduli (GPa) = 31.30357 94.70091 66.59893
#
# Poissons Ratio (x) = 0.76754 0.14996
# Poissons Ratio (y) = 0.25371 0.13344
# Poissons Ratio (z) = 0.07049 0.18975
#
# Static dielectric constant tensor:
#      x y z
#    x 2.016130 -0.043560 0.024530 
#    y -0.043560 1.946190 -0.024720 
#    z 0.024530 -0.024720 2.114680 
# 
# From -- ./inp_files/399468.got.cif
#   From: 2010.05.17/outbox.cif.g08.bks.cpg/sg2_200_cif.got.tgz:399468.got - 2010.06.03 11:33:40.
