data_PCOD9085572
_publ_section_title
;
Structure prediction by ZEFSAII (Michael W. Deem and Ramdas Pophale) SiO2 
 PCOD9085572
Probable space group: P -1
;
_chemical_formula_sum "Si O2"
_cell_formula_units_Z 16
_cell_length_a 7.459141
_cell_length_b 15.315462
_cell_length_c 8.052591
_cell_angle_alpha 52.663384
_cell_angle_beta 64.228200
_cell_angle_gamma 84.896464
_cell_volume 638.753763
_symmetry_space_group_name_H-M "P -1"
_symmetry_group_IT_number 2
_symmetry_cell_setting 'triclinic'
loop_
_space_group_symop_operation_xyz
x,y,z
-x,-y,-z
loop_
_atom_site_type_symbol
_atom_site_label
_atom_site_fract_x
_atom_site_fract_y
_atom_site_fract_z
Si Si1 0.510174 0.380228 0.805299
Si Si2 0.410259 0.231637 0.696948
Si Si3 0.444771 0.163149 0.242337
Si Si4 0.075409 0.387313 0.127875
Si Si5 0.958578 0.141127 0.429137
Si Si6 0.342552 0.420468 0.284076
Si Si7 0.581172 0.971080 0.259507
Si Si8 0.008620 0.054550 0.154627
O O1 0.509162 0.316408 0.705613
O O2 0.658355 0.501626 0.643593
O O3 0.564037 0.291387 0.017195
O O4 0.279249 0.393390 0.924883
O O5 0.408591 0.310059 0.446848
O O6 0.489014 0.120636 0.749603
O O7 0.174157 0.168744 0.909280
O O8 0.207268 0.165510 0.320976
O O9 0.483867 0.105683 0.461733
O O10 0.494864 0.081227 0.175007
O O11 0.919025 0.265603 0.302571
O O12 0.139845 0.385248 0.297375
O O13 0.000000 0.500000 0.000000
O O14 0.909872 0.084396 0.334145
O O15 0.892591 0.048461 0.707881
O O16 0.500000 0.500000 0.000000
O O17 0.826617 0.013939 0.142447
#
# Coordination Sequence:
#
# PCOD9085572 Si02
#       8
#     2   2   2   2   2   2   2   2
#     4  10  21  40  61  85 122 160 204 252 307 345
#     4  12  21  38  65  89 128 155 201 256 310 358
#     4   9  18  39  58  86 122 160 202 245 287 365
#     4  10  20  39  66  90 119 159 208 251 296 363
#     4   9  18  37  61  87 122 163 197 241 305 358
#     4  10  22  40  66  86 113 162 211 246 305 367
#     4  10  21  32  61  92 122 159 203 240 298 362
#     4  10  19  35  61  88 124 163 193 245 307 370
#
# _framework density 25.048774999999999
#
# number of rings (size 3 to 8) (size 9 to 14) (size 15 to 20)
#    0.000    2.000    2.500    3.750    0.000    1.500 
#    0.000    6.875    8.250    0.000    0.000    0.000 
#    0.000    0.000    0.000    0.000    0.000    0.000 
#
# Total GULP energy -89431.259903 kJ/mol
# GULP energy per Si atom -5589.453744 kJ/mol
# Density = 2.499176 g / cm^3
# Si number density = 25.048775 Si / 1000 Ang^3
#
#
#
# Elastic Constant Matrix: (Units=GPa)
#
#
# Indices 1 2 3 4 5 6 
#
# 1 55.0182 25.1948 3.6673 0.9439 -2.0187 0.8876
# 2 25.1948 179.8387 28.4696 -30.6124 19.0050 15.4581
# 3 3.6673 28.4696 104.1679 -19.2733 13.8415 -7.7869
# 4 0.9439 -30.6124 -19.2733 46.2968 2.7626 12.6592
# 5 -2.0187 19.0050 13.8415 2.7626 20.0165 -9.4271
# 6 0.8876 15.4581 -7.7869 12.6592 -9.4271 41.6384
#
#
#
# Elastic Compliance Matrix: (Units=1/GPa)
#
#
# Indices 1 2 3 4 5 6 
#
# 1 0.021652 -0.006163 -0.001866 -0.008037 0.013748 0.007034
# 2 -0.006163 0.011632 0.001169 0.012908 -0.020118 -0.012447
# 3 -0.001866 0.001169 0.012105 0.007438 -0.012178 -0.003149
# 4 -0.008037 0.012908 0.007438 0.042070 -0.035328 -0.024018
# 5 0.013748 -0.020118 -0.012178 -0.035328 0.101983 0.038728
# 6 0.007034 -0.012447 -0.003149 -0.024018 0.038728 0.043969
#
#
# Mechanical properties :
#
#
# Convention : Reuss Voigt Hill
#
# Bulk Modulus (GPa) = 31.57778 50.40980 40.99379
# Shear Modulus (GPa) = 19.40329 40.36988 29.88658
#
# Velocity S-wave (km/s) = 2.78622 4.01889 3.45793
# Velocity P-wave (km/s) = 4.79422 6.45784 5.68719
#
# Compressibility (1/GPa) = 0.03166783
#
# Stress axis : x y z
#
# Youngs Moduli (GPa) = 46.18617 85.96892 82.60968
#
# Poissons Ratio (x) = 0.52987 0.15413
# Poissons Ratio (y) = 0.28467 -0.09655
# Poissons Ratio (z) = 0.08617 -0.10048
#
# Static dielectric constant tensor:
#      x y z
#    x 1.999660 -0.018470 -0.045460 
#    y -0.018470 2.061190 0.084170 
#    z -0.045460 0.084170 2.014030 
# 
# From -- ./inp_files/205486.got.cif
#   From: 2010.05.17/outbox.cif.g08.bks.cpg/sg2_103_cif.got.tgz:205486.got - 2010.06.03 11:33:40.
