data_PCOD9085823
_publ_section_title
;
Structure prediction by ZEFSAII (Michael W. Deem and Ramdas Pophale) SiO2 
 PCOD9085823
Probable space group: P -1
;
_chemical_formula_sum "Si O2"
_cell_formula_units_Z 14
_cell_length_a 8.954452
_cell_length_b 21.610312
_cell_length_c 13.301020
_cell_angle_alpha 30.117799
_cell_angle_beta 34.088396
_cell_angle_gamma 33.993412
_cell_volume 663.151440
_symmetry_space_group_name_H-M "P -1"
_symmetry_group_IT_number 2
_symmetry_cell_setting 'triclinic'
loop_
_space_group_symop_operation_xyz
x,y,z
-x,-y,-z
loop_
_atom_site_type_symbol
_atom_site_label
_atom_site_fract_x
_atom_site_fract_y
_atom_site_fract_z
Si Si1 0.129497 0.944050 0.371071
Si Si2 0.815635 0.597449 0.253137
Si Si3 0.390602 0.529756 0.134387
Si Si4 0.504720 0.933134 0.485160
Si Si5 0.679904 0.334789 0.421412
Si Si6 0.706022 0.886346 0.826619
Si Si7 0.155958 0.359542 0.243245
O O1 0.254541 0.823570 0.392184
O O2 0.016476 0.873664 0.623165
O O3 0.337148 0.011439 0.200780
O O4 0.822327 0.061665 0.347022
O O5 0.536167 0.593104 0.468955
O O6 0.046747 0.586103 0.229600
O O7 0.963953 0.479830 0.254944
O O8 0.727899 0.741658 0.046683
O O9 0.521692 0.399612 0.315081
O O10 0.500000 0.500000 0.000000
O O11 0.543711 0.621960 0.966692
O O12 0.748729 0.784662 0.553364
O O13 0.500000 0.000000 0.500000
O O14 0.515327 0.032548 0.251320
O O15 0.977479 0.353518 0.251871
#
# Coordination Sequence:
#
# PCOD9085823 Si02
#       7
#     2   2   2   2   2   2   2
#     4   9  19  36  64  82 125 153 217 241 306 346
#     4  11  24  41  62  92 130 162 201 253 322 364
#     4  10  23  38  64  90 119 159 215 250 297 360
#     4  10  19  35  63  92 114 155 214 254 291 352
#     4  12  23  39  62  97 127 161 197 262 316 371
#     4   9  20  38  60  89 117 165 204 254 295 362
#     4  11  22  40  66  90 124 163 209 253 304 365
#
# _framework density 21.111315000000001
#
# number of rings (size 3 to 8) (size 9 to 14) (size 15 to 20)
#    0.857    0.857    1.429    3.857    4.000    1.714 
#    0.000    0.714    0.000    0.000    0.000    0.000 
#    0.000    0.000    0.000    0.000    0.000    0.000 
#
# Total GULP energy -78015.349200 kJ/mol
# GULP energy per Si atom -5572.524943 kJ/mol
# Density = 2.106327 g / cm^3
# Si number density = 21.111315 Si / 1000 Ang^3
#
#
#
# Elastic Constant Matrix: (Units=GPa)
#
#
# Indices 1 2 3 4 5 6 
#
# 1 92.9954 -1.2232 16.0927 -7.7808 -1.8440 -0.3755
# 2 -1.2232 57.5434 21.0070 -20.2729 2.3394 11.3974
# 3 16.0927 21.0070 54.4144 -23.8201 6.8304 -8.5769
# 4 -7.7808 -20.2729 -23.8201 27.4196 -5.8730 0.5191
# 5 -1.8440 2.3394 6.8304 -5.8730 24.4646 -6.1508
# 6 -0.3755 11.3974 -8.5769 0.5191 -6.1508 29.0760
#
#
#
# Elastic Compliance Matrix: (Units=1/GPa)
#
#
# Indices 1 2 3 4 5 6 
#
# 1 0.011716 0.002831 -0.004058 0.002323 0.001849 -0.001806
# 2 0.002831 0.028196 -0.006832 0.015947 -0.000100 -0.013337
# 3 -0.004058 -0.006832 0.034447 0.023366 -0.000582 0.012246
# 4 0.002323 0.015947 0.023366 0.071245 0.009589 0.001428
# 5 0.001849 -0.000100 -0.000582 0.009589 0.045857 0.009421
# 6 -0.001806 -0.013337 0.012246 0.001428 0.009421 0.045177
#
#
# Mechanical properties :
#
#
# Convention : Reuss Voigt Hill
#
# Bulk Modulus (GPa) = 17.16930 30.74512 23.95721
# Shear Modulus (GPa) = 18.37089 27.46382 22.91736
#
# Velocity S-wave (km/s) = 2.95310 3.61072 3.29834
# Velocity P-wave (km/s) = 4.44726 5.65491 5.08705
#
# Compressibility (1/GPa) = 0.05824351
#
# Stress axis : x y z
#
# Youngs Moduli (GPa) = 85.35020 35.46571 29.03030
#
# Poissons Ratio (x) = -0.10042 0.11780
# Poissons Ratio (y) = -0.24167 0.19832
# Poissons Ratio (z) = 0.34634 0.24229
#
# Static dielectric constant tensor:
#      x y z
#    x 1.825730 0.010940 0.004230 
#    y 0.010940 1.789980 0.018190 
#    z 0.004230 0.018190 1.787940 
# 
# From -- ./inp_files/404428.got.cif
#   From: 2010.05.17/outbox.cif.g08.bks.cpg/sg2_203_cif.got.tgz:404428.got - 2010.06.03 11:33:40.
