data_PCOD9085460
_publ_section_title
;
Structure prediction by ZEFSAII (Michael W. Deem and Ramdas Pophale) SiO2 
 PCOD9085460
Probable space group: P -1
;
_chemical_formula_sum "Si O2"
_cell_formula_units_Z 15
_cell_length_a 9.316343
_cell_length_b 9.271694
_cell_length_c 9.273307
_cell_angle_alpha 86.752308
_cell_angle_beta 85.795984
_cell_angle_gamma 53.024850
_cell_volume 638.124775
_symmetry_space_group_name_H-M "P -1"
_symmetry_group_IT_number 2
_symmetry_cell_setting 'triclinic'
loop_
_space_group_symop_operation_xyz
x,y,z
-x,-y,-z
loop_
_atom_site_type_symbol
_atom_site_label
_atom_site_fract_x
_atom_site_fract_y
_atom_site_fract_z
Si Si1 0.060818 0.801522 0.976871
Si Si2 0.000000 0.000000 0.500000
Si Si3 0.805515 0.815535 0.556383
Si Si4 0.572760 0.401634 0.158626
Si Si5 0.963542 0.549609 0.310394
Si Si6 0.473049 0.136608 0.201169
Si Si7 0.786174 0.343761 0.708106
Si Si8 0.235604 0.235254 0.957682
O O1 0.140162 0.713986 0.131559
O O2 0.886116 0.814139 0.958334
O O3 0.217137 0.688202 0.854794
O O4 0.000000 0.000000 0.000000
O O5 0.884345 0.173489 0.607407
O O6 0.155737 0.038944 0.473258
O O7 0.817117 0.721092 0.409928
O O8 0.630867 0.873997 0.657710
O O9 0.978759 0.643701 0.637281
O O10 0.570047 0.231837 0.203970
O O11 0.427691 0.550056 0.273317
O O12 0.500000 0.500000 0.000000
O O13 0.890063 0.601656 0.151209
O O14 0.143967 0.535718 0.332999
O O15 0.611044 0.938519 0.135032
O O16 0.329321 0.261875 0.078226
#
# Coordination Sequence:
#
# PCOD9085460 Si02
#       8
#     2   1   2   2   2   2   2   2
#     4  10  19  35  60  92 126 167 205 256 321 387
#     4  10  22  38  64  90 122 170 216 264 314 390
#     4  10  21  38  67  89 124 169 214 262 328 379
#     4  10  20  37  60  92 131 171 208 259 323 386
#     4   9  19  41  62  92 122 169 212 261 316 401
#     4  11  22  38  63  97 130 171 210 270 318 381
#     4   9  19  36  60  88 123 166 212 252 319 377
#     4  10  23  38  62  99 132 161 216 265 321 382
#
# _framework density 23.506375999999999
#
# number of rings (size 3 to 8) (size 9 to 14) (size 15 to 20)
#    0.000    2.133    2.667    0.000    1.867    2.133 
#    0.000    0.000    0.000    1.600    0.000    0.000 
#    0.000    0.000    0.000    0.000    0.000    0.000 
#
# Total GULP energy -83513.628651 kJ/mol
# GULP energy per Si atom -5567.575243 kJ/mol
# Density = 2.345287 g / cm^3
# Si number density = 23.506376 Si / 1000 Ang^3
#
#
#
# Elastic Constant Matrix: (Units=GPa)
#
#
# Indices 1 2 3 4 5 6 
#
# 1 83.4121 14.5253 37.2418 15.4556 -31.8966 -4.7366
# 2 14.5253 43.6135 19.1044 23.2472 -3.0087 -1.2702
# 3 37.2418 19.1044 89.9907 32.8713 -26.6455 -6.7422
# 4 15.4556 23.2472 32.8713 52.4133 -13.2244 -8.8913
# 5 -31.8966 -3.0087 -26.6455 -13.2244 42.1135 7.0339
# 6 -4.7366 -1.2702 -6.7422 -8.8913 7.0339 33.2981
#
#
#
# Elastic Compliance Matrix: (Units=1/GPa)
#
#
# Indices 1 2 3 4 5 6 
#
# 1 0.018825 -0.004811 -0.003964 0.002071 0.012109 -0.000313
# 2 -0.004811 0.032126 -0.001939 -0.013612 -0.006497 -0.002114
# 3 -0.003964 -0.001939 0.017604 -0.007638 0.005650 -0.000306
# 4 0.002071 -0.013612 -0.007638 0.031436 0.004694 0.005631
# 5 0.012109 -0.006497 0.005650 0.004694 0.038203 -0.004198
# 6 -0.000313 -0.002114 -0.000306 0.005631 -0.004198 0.032235
#
#
# Mechanical properties :
#
#
# Convention : Reuss Voigt Hill
#
# Bulk Modulus (GPa) = 21.21859 39.86215 30.54037
# Shear Modulus (GPa) = 24.08869 35.30797 29.69833
#
# Velocity S-wave (km/s) = 3.20468 3.87985 3.55831
# Velocity P-wave (km/s) = 4.76861 6.08817 5.46834
#
# Compressibility (1/GPa) = 0.04712848
#
# Stress axis : x y z
#
# Youngs Moduli (GPa) = 53.12036 31.12712 56.80416
#
# Poissons Ratio (x) = 0.14975 0.22516
# Poissons Ratio (y) = 0.25555 0.11015
# Poissons Ratio (z) = 0.21055 0.06036
#
# Static dielectric constant tensor:
#      x y z
#    x 1.951890 0.004350 -0.085260 
#    y 0.004350 1.935370 -0.074780 
#    z -0.085260 -0.074780 1.997740 
# 
# From -- ./inp_files/382270.got.cif
#   From: 2010.05.17/outbox.cif.g08.bks.cpg/sg2_192_cif.got.tgz:382270.got - 2010.06.03 11:33:40.
