data_PCOD9085851
_publ_section_title
;
Structure prediction by ZEFSAII (Michael W. Deem and Ramdas Pophale) SiO2 
 PCOD9085851
Probable space group: P -1
;
_chemical_formula_sum "Si O2"
_cell_formula_units_Z 16
_cell_length_a 19.583006
_cell_length_b 7.640839
_cell_length_c 5.530028
_cell_angle_alpha 59.571665
_cell_angle_beta 88.473256
_cell_angle_gamma 116.222951
_cell_volume 605.585449
_symmetry_space_group_name_H-M "P -1"
_symmetry_group_IT_number 2
_symmetry_cell_setting 'triclinic'
loop_
_space_group_symop_operation_xyz
x,y,z
-x,-y,-z
loop_
_atom_site_type_symbol
_atom_site_label
_atom_site_fract_x
_atom_site_fract_y
_atom_site_fract_z
Si Si1 0.926502 0.217765 0.081554
Si Si2 0.907724 0.753139 0.941010
Si Si3 0.427620 0.511494 0.743519
Si Si4 0.698077 0.940904 0.686238
Si Si5 0.884812 0.197173 0.600759
Si Si6 0.588855 0.874149 0.360313
Si Si7 0.825902 0.665953 0.510182
Si Si8 0.645779 0.266111 0.747087
O O1 0.922633 0.334712 0.250757
O O2 0.851008 0.942519 0.297725
O O3 0.002132 0.186246 0.097971
O O4 0.915611 0.327735 0.761834
O O5 0.859151 0.625476 0.281709
O O6 0.911846 0.004878 0.753534
O O7 0.863127 0.635953 0.774986
O O8 0.517640 0.717549 0.669104
O O9 0.431030 0.312809 0.720749
O O10 0.400281 0.649917 0.475235
O O11 0.356249 0.341632 0.050702
O O12 0.789156 0.053369 0.679176
O O13 0.676137 0.955753 0.401212
O O14 0.668019 0.096923 0.715911
O O15 0.594234 0.107875 0.091006
O O16 0.730883 0.493859 0.652146
#
# Coordination Sequence:
#
# PCOD9085851 Si02
#       8
#     2   2   2   2   2   2   2   2
#     4  10  19  36  63  96 126 175 231 280 334 407
#     4  10  19  35  63  96 126 173 234 278 333 410
#     4  10  22  45  68  96 129 180 228 276 339 409
#     4  11  25  40  65  98 136 176 223 284 341 407
#     4  10  20  33  61  91 130 169 217 279 337 391
#     4  10  24  42  68  97 135 173 224 284 339 408
#     4  10  20  33  59  93 129 170 219 279 332 399
#     4  11  25  40  65  97 139 175 225 281 343 410
#
# _framework density 26.420714
#
# number of rings (size 3 to 8) (size 9 to 14) (size 15 to 20)
#    0.000    1.750    0.000    6.000    8.750    1.500 
#    0.000    0.000    0.000    8.250    0.000    0.000 
#    0.000    0.000    0.000    0.000    0.000    0.000 
#
# Total GULP energy -89655.224544 kJ/mol
# GULP energy per Si atom -5603.451534 kJ/mol
# Density = 2.636058 g / cm^3
# Si number density = 26.420714 Si / 1000 Ang^3
#
#
#
# Elastic Constant Matrix: (Units=GPa)
#
#
# Indices 1 2 3 4 5 6 
#
# 1 91.2423 38.5996 30.2673 -4.9196 7.2061 16.2081
# 2 38.5996 100.2199 30.8995 6.0981 2.7652 15.7736
# 3 30.2673 30.8995 144.1890 16.4956 13.4055 8.8320
# 4 -4.9196 6.0981 16.4956 62.2168 -2.7755 9.3053
# 5 7.2061 2.7652 13.4055 -2.7755 38.9585 8.5408
# 6 16.2081 15.7736 8.8320 9.3053 8.5408 45.4771
#
#
#
# Elastic Compliance Matrix: (Units=1/GPa)
#
#
# Indices 1 2 3 4 5 6 
#
# 1 0.014372 -0.004472 -0.002079 0.002633 -0.000652 -0.003583
# 2 -0.004472 0.012610 -0.001617 -0.000743 0.000983 -0.002499
# 3 -0.002079 -0.001617 0.008196 -0.002401 -0.002645 0.000698
# 4 0.002633 -0.000743 -0.002401 0.017756 0.002608 -0.004337
# 5 -0.000652 0.000983 -0.002645 0.002608 0.027996 -0.005386
# 6 -0.003583 -0.002499 0.000698 -0.004337 -0.005386 0.025896
#
#
# Mechanical properties :
#
#
# Convention : Reuss Voigt Hill
#
# Bulk Modulus (GPa) = 53.07623 59.46489 56.27056
# Shear Modulus (GPa) = 38.62681 45.05613 41.84147
#
# Velocity S-wave (km/s) = 3.82775 4.13405 3.98384
# Velocity P-wave (km/s) = 6.29825 6.73372 6.51962
#
# Compressibility (1/GPa) = 0.01884082
#
# Stress axis : x y z
#
# Youngs Moduli (GPa) = 69.58151 79.29936 122.00723
#
# Poissons Ratio (x) = 0.35465 0.25371
# Poissons Ratio (y) = 0.31119 0.19728
# Poissons Ratio (z) = 0.14469 0.12822
#
# Static dielectric constant tensor:
#      x y z
#    x 2.032090 -0.052540 -0.059660 
#    y -0.052540 2.086130 0.059480 
#    z -0.059660 0.059480 2.149590 
# 
# From -- ./inp_files/116678.got.cif
#   From: 2010.05.17/outbox.cif.g08.bks.cpg/sg2_59_cif.got.tgz:116678.got - 2010.06.03 11:33:40.
