data_PCOD9085439
_publ_section_title
;
Structure prediction by ZEFSAII (Michael W. Deem and Ramdas Pophale) SiO2 
 PCOD9085439
Probable space group: P -1
;
_chemical_formula_sum "Si O2"
_cell_formula_units_Z 16
_cell_length_a 12.450781
_cell_length_b 7.894265
_cell_length_c 12.355354
_cell_angle_alpha 54.802045
_cell_angle_beta 66.132387
_cell_angle_gamma 104.300732
_cell_volume 695.297592
_symmetry_space_group_name_H-M "P -1"
_symmetry_group_IT_number 2
_symmetry_cell_setting 'triclinic'
loop_
_space_group_symop_operation_xyz
x,y,z
-x,-y,-z
loop_
_atom_site_type_symbol
_atom_site_label
_atom_site_fract_x
_atom_site_fract_y
_atom_site_fract_z
Si Si1 0.643009 0.045949 0.818765
Si Si2 0.650507 0.388667 0.018008
Si Si3 0.758777 0.612831 0.654502
Si Si4 0.945669 0.198352 0.627926
Si Si5 0.888278 0.319241 0.014443
Si Si6 0.957954 0.767801 0.186587
Si Si7 0.326323 0.319943 0.676963
Si Si8 0.549013 0.581258 0.176687
O O1 0.711485 0.338844 0.721617
O O2 0.773168 0.043130 0.716627
O O3 0.500116 0.906979 0.849438
O O4 0.586961 0.855108 0.017425
O O5 0.779456 0.388221 0.012377
O O6 0.593628 0.484311 0.095449
O O7 0.719223 0.561321 0.816146
O O8 0.939175 0.817896 0.479276
O O9 0.634765 0.632423 0.648246
O O10 0.954425 0.125845 0.774474
O O11 0.000000 0.500000 0.500000
O O12 0.775280 0.994689 0.199320
O O13 0.000000 0.500000 0.000000
O O14 0.989349 0.375943 0.846335
O O15 0.777175 0.599361 0.344276
O O16 0.000000 0.000000 0.000000
O O17 0.500000 0.500000 0.500000
O O18 0.349833 0.350329 0.785603
#
# Coordination Sequence:
#
# PCOD9085439 Si02
#       8
#     2   2   2   2   2   2   2   2
#     4  10  19  35  61  87 117 162 208 257 315 384
#     4  11  22  38  59  88 120 162 211 259 315 387
#     4  10  19  35  60  90 122 159 204 262 320 377
#     4  10  20  35  59  93 124 156 201 262 322 373
#     4  11  23  42  65  91 123 166 215 265 320 388
#     4  10  21  39  63  92 126 173 218 257 316 398
#     4  11  23  42  66  92 122 165 215 270 320 378
#     4  11  21  38  59  85 122 165 210 258 316 387
#
# _framework density 23.011728000000002
#
# number of rings (size 3 to 8) (size 9 to 14) (size 15 to 20)
#    0.000    1.500    0.000    9.000    0.000    2.000 
#    0.000    8.750    0.000    3.000    0.000    0.000 
#    0.000    0.000    0.000    0.000    0.000    0.000 
#
# Total GULP energy -89425.282720 kJ/mol
# GULP energy per Si atom -5589.080170 kJ/mol
# Density = 2.295935 g / cm^3
# Si number density = 23.011728 Si / 1000 Ang^3
#
#
#
# Elastic Constant Matrix: (Units=GPa)
#
#
# Indices 1 2 3 4 5 6 
#
# 1 162.2657 41.4754 28.9669 14.8238 -44.1249 11.8407
# 2 41.4754 128.3557 34.8792 21.7292 -15.1856 7.5746
# 3 28.9669 34.8792 78.9280 16.3182 -34.6915 1.2956
# 4 14.8238 21.7292 16.3182 28.6819 -4.1536 -6.8983
# 5 -44.1249 -15.1856 -34.6915 -4.1536 55.1336 5.9340
# 6 11.8407 7.5746 1.2956 -6.8983 5.9340 37.5086
#
#
#
# Elastic Compliance Matrix: (Units=1/GPa)
#
#
# Indices 1 2 3 4 5 6 
#
# 1 0.009271 -0.001440 0.002034 -0.004818 0.008471 -0.004933
# 2 -0.001440 0.010151 -0.002804 -0.006009 -0.000298 -0.002556
# 3 0.002034 -0.002804 0.021644 -0.010379 0.014229 -0.004983
# 4 -0.004818 -0.006009 -0.010379 0.049711 -0.009780 0.013782
# 5 0.008471 -0.000298 0.014229 -0.009780 0.034161 -0.010308
# 6 -0.004933 -0.002556 -0.004983 0.013782 -0.010308 0.033072
#
#
# Mechanical properties :
#
#
# Convention : Reuss Voigt Hill
#
# Bulk Modulus (GPa) = 27.28764 64.46583 45.87674
# Shear Modulus (GPa) = 28.62939 41.88000 35.25470
#
# Velocity S-wave (km/s) = 3.53104 4.27071 3.91836
# Velocity P-wave (km/s) = 5.33931 7.23835 6.36011
#
# Compressibility (1/GPa) = 0.03664662
#
# Stress axis : x y z
#
# Youngs Moduli (GPa) = 107.86022 98.51395 46.20151
#
# Poissons Ratio (x) = 0.14182 -0.09398
# Poissons Ratio (y) = 0.15528 0.12956
# Poissons Ratio (z) = -0.21940 0.27627
#
# Static dielectric constant tensor:
#      x y z
#    x 1.598690 -0.208100 0.268160 
#    y -0.208100 1.699320 0.199290 
#    z 0.268160 0.199290 1.615160 
# 
# From -- ./inp_files/416546.got.cif
#   From: 2010.05.17/outbox.cif.g08.bks.cpg/sg2_209_cif.got.tgz:416546.got - 2010.06.03 11:33:40.
