data_PCOD9085013
_publ_section_title
;
Structure prediction by ZEFSAII (Michael W. Deem and Ramdas Pophale) SiO2 
 PCOD9085013
Probable space group: P -1
;
_chemical_formula_sum "Si O2"
_cell_formula_units_Z 16
_cell_length_a 8.749035
_cell_length_b 15.222248
_cell_length_c 8.858976
_cell_angle_alpha 115.811561
_cell_angle_beta 80.202898
_cell_angle_gamma 55.326673
_cell_volume 721.072487
_symmetry_space_group_name_H-M "P -1"
_symmetry_group_IT_number 2
_symmetry_cell_setting 'triclinic'
loop_
_space_group_symop_operation_xyz
x,y,z
-x,-y,-z
loop_
_atom_site_type_symbol
_atom_site_label
_atom_site_fract_x
_atom_site_fract_y
_atom_site_fract_z
Si Si1 0.797329 0.330763 0.281238
Si Si2 0.306700 0.071248 0.885984
Si Si3 0.443335 0.707991 0.471892
Si Si4 0.677784 0.444334 0.054941
Si Si5 0.065054 0.138434 0.678181
Si Si6 0.753768 0.572783 0.569718
Si Si7 0.457097 0.861636 0.952685
Si Si8 0.952917 0.986475 0.686270
O O1 0.679337 0.309241 0.398261
O O2 0.684223 0.388675 0.177212
O O3 0.774289 0.447534 0.450205
O O4 0.058274 0.191084 0.095152
O O5 0.259409 0.065672 0.715618
O O6 0.449992 0.927006 0.847801
O O7 0.426259 0.119947 0.932225
O O8 0.587872 0.590998 0.229912
O O9 0.638627 0.666236 0.506648
O O10 0.222792 0.862088 0.564515
O O11 0.500000 0.500000 0.000000
O O12 0.916668 0.304491 0.837121
O O13 0.120167 0.070252 0.452878
O O14 0.908524 0.117159 0.737909
O O15 0.591178 0.698866 0.811041
O O16 0.000000 0.500000 0.500000
O O17 0.196748 0.958297 0.100939
#
# Coordination Sequence:
#
# PCOD9085013 Si02
#       8
#     2   2   2   2   2   2   2   2
#     4  10  21  38  59  90 117 148 199 241 290 352
#     4  10  21  40  59  86 118 157 196 240 296 354
#     4  11  22  38  61  90 115 153 196 244 295 346
#     4  10  19  35  58  84 114 155 188 235 291 346
#     4  10  23  39  58  87 122 151 201 246 290 351
#     4  11  22  36  55  88 121 149 186 241 294 346
#     4  11  23  37  62  86 119 158 195 243 296 348
#     4  11  23  39  60  92 116 154 200 248 295 339
#
# _framework density 22.189169
#
# number of rings (size 3 to 8) (size 9 to 14) (size 15 to 20)
#    0.000    1.500    3.750    2.250    5.250    1.500 
#    0.000    0.000    0.000    0.000    0.000   12.250 
#    0.000    0.000    0.000    0.000    0.000    0.000 
#
# Total GULP energy -89093.696842 kJ/mol
# GULP energy per Si atom -5568.356053 kJ/mol
# Density = 2.213867 g / cm^3
# Si number density = 22.189169 Si / 1000 Ang^3
#
#
#
# Elastic Constant Matrix: (Units=GPa)
#
#
# Indices 1 2 3 4 5 6 
#
# 1 57.0446 40.4037 37.6356 5.8021 19.3698 -30.2107
# 2 40.4037 65.7919 18.6471 14.6589 11.3763 -21.3626
# 3 37.6356 18.6471 76.9744 31.7427 17.3193 -2.2099
# 4 5.8021 14.6589 31.7427 30.6153 -3.5990 4.1070
# 5 19.3698 11.3763 17.3193 -3.5990 28.7469 -2.8119
# 6 -30.2107 -21.3626 -2.2099 4.1070 -2.8119 35.8867
#
#
#
# Elastic Compliance Matrix: (Units=1/GPa)
#
#
# Indices 1 2 3 4 5 6 
#
# 1 0.171203 -0.067675 -0.101278 0.092486 -0.007525 0.086428
# 2 -0.067675 0.054904 0.049446 -0.064527 -0.015471 -0.015071
# 3 -0.101278 0.049446 0.099058 -0.105135 -0.028071 -0.039893
# 4 0.092486 -0.064527 -0.105135 0.158203 0.048189 0.018643
# 5 -0.007525 -0.015471 -0.028071 0.048189 0.067210 -0.017521
# 6 0.086428 -0.015071 -0.039893 0.018643 -0.017521 0.085690
#
#
# Mechanical properties :
#
#
# Convention : Reuss Voigt Hill
#
# Bulk Modulus (GPa) = 11.60760 43.68707 27.64733
# Shear Modulus (GPa) = 5.53099 25.92474 15.72786
#
# Velocity S-wave (km/s) = 1.58053 3.42182 2.66523
# Velocity P-wave (km/s) = 2.92802 5.94500 4.68595
#
# Compressibility (1/GPa) = 0.08615047
#
# Stress axis : x y z
#
# Youngs Moduli (GPa) = 5.84103 18.21356 10.09512
#
# Poissons Ratio (x) = 1.23261 1.02241
# Poissons Ratio (y) = 0.39529 -0.49917
# Poissons Ratio (z) = 0.59157 -0.90059
#
# Static dielectric constant tensor:
#      x y z
#    x 1.824260 0.006920 0.063710 
#    y 0.006920 1.869910 0.015400 
#    z 0.063710 0.015400 2.029180 
# 
# From -- ./inp_files/215508.got.cif
#   From: 2010.05.17/outbox.cif.g08.bks.cpg/sg2_108_cif.got.tgz:215508.got - 2010.06.03 11:33:40.
