data_PCOD9085349
_publ_section_title
;
Structure prediction by ZEFSAII (Michael W. Deem and Ramdas Pophale) SiO2 
 PCOD9085349
Probable space group: P -1
;
_chemical_formula_sum "Si O2"
_cell_formula_units_Z 14
_cell_length_a 8.797389
_cell_length_b 12.205006
_cell_length_c 17.136465
_cell_angle_alpha 160.006932
_cell_angle_beta 121.839355
_cell_angle_gamma 54.297911
_cell_volume 509.424980
_symmetry_space_group_name_H-M "P -1"
_symmetry_group_IT_number 2
_symmetry_cell_setting 'triclinic'
loop_
_space_group_symop_operation_xyz
x,y,z
-x,-y,-z
loop_
_atom_site_type_symbol
_atom_site_label
_atom_site_fract_x
_atom_site_fract_y
_atom_site_fract_z
Si Si1 0.147192 0.229072 0.803818
Si Si2 0.432374 0.582393 0.721398
Si Si3 0.175903 0.538494 0.851947
Si Si4 0.713061 0.960644 0.599615
Si Si5 0.811644 0.504459 0.680544
Si Si6 0.508517 0.270431 0.990927
Si Si7 0.103723 0.674165 0.584747
O O1 0.182837 0.375089 0.828393
O O2 0.088362 0.897762 0.548251
O O3 0.350743 0.095340 0.811991
O O4 0.000000 0.500000 0.000000
O O5 0.400387 0.224834 0.498795
O O6 0.625926 0.566086 0.721696
O O7 0.431638 0.761639 0.924305
O O8 0.267277 0.750975 0.729208
O O9 0.252428 0.268972 0.622654
O O10 0.305183 0.782455 0.045390
O O11 0.958889 0.692097 0.873457
O O12 0.916584 0.938438 0.675553
O O13 0.606971 0.339821 0.801000
O O14 0.795422 0.535846 0.603859
O O15 0.000000 0.500000 0.500000
#
# Coordination Sequence:
#
# PCOD9085349 Si02
#       7
#     2   2   2   2   2   2   2
#     4  12  23  34  52  86 122 149 181 233 285 327
#     4  10  19  35  60  85 111 146 190 235 277 326
#     4  10  20  35  55  80 115 152 185 222 273 333
#     4   9  18  35  59  85 112 147 188 229 275 335
#     4  11  21  36  57  84 112 148 190 235 277 328
#     4  11  21  36  58  87 117 149 182 225 282 340
#     4   9  19  35  57  83 110 145 190 233 276 331
#
# _framework density 27.481966
#
# number of rings (size 3 to 8) (size 9 to 14) (size 15 to 20)
#    0.000    1.714    0.000    8.143    0.000    0.000 
#    0.000    0.714    0.000    3.429    0.000   38.000 
#    0.000    0.000    0.000    0.000    0.000    0.000 
#
# Total GULP energy -78479.726562 kJ/mol
# GULP energy per Si atom -5605.694754 kJ/mol
# Density = 2.741942 g / cm^3
# Si number density = 27.481966 Si / 1000 Ang^3
#
#
#
# Elastic Constant Matrix: (Units=GPa)
#
#
# Indices 1 2 3 4 5 6 
#
# 1 234.7313 53.4217 39.5852 -24.2997 -8.0792 6.6954
# 2 53.4217 135.4951 33.3424 -44.6395 -4.3141 6.9053
# 3 39.5852 33.3424 66.4914 -10.4065 -12.4164 -7.8591
# 4 -24.2997 -44.6395 -10.4065 58.9589 -4.5962 16.7007
# 5 -8.0792 -4.3141 -12.4164 -4.5962 48.2592 -17.4435
# 6 6.6954 6.9053 -7.8591 16.7007 -17.4435 64.8412
#
#
#
# Elastic Compliance Matrix: (Units=1/GPa)
#
#
# Indices 1 2 3 4 5 6 
#
# 1 0.005045 -0.000911 -0.002511 0.001243 -0.000159 -0.001091
# 2 -0.000911 0.012123 -0.004824 0.009120 -0.001035 -0.004409
# 3 -0.002511 -0.004824 0.020414 -0.002150 0.006170 0.005461
# 4 0.001243 0.009120 -0.002150 0.026303 0.000039 -0.008124
# 5 -0.000159 -0.001035 0.006170 0.000039 0.024930 0.007571
# 6 -0.001091 -0.004409 0.005461 -0.008124 0.007571 0.020796
#
#
# Mechanical properties :
#
#
# Convention : Reuss Voigt Hill
#
# Bulk Modulus (GPa) = 47.41337 76.60183 62.00760
# Shear Modulus (GPa) = 37.55639 55.10311 46.32975
#
# Velocity S-wave (km/s) = 3.70074 4.48265 4.11033
# Velocity P-wave (km/s) = 5.96244 7.39772 6.71852
#
# Compressibility (1/GPa) = 0.02109110
#
# Stress axis : x y z
#
# Youngs Moduli (GPa) = 198.20237 82.48809 48.98533
#
# Poissons Ratio (x) = 0.07517 0.12299
# Poissons Ratio (y) = 0.18063 0.23629
# Poissons Ratio (z) = 0.49765 0.39789
#
# Static dielectric constant tensor:
#      x y z
#    x 2.103020 -0.035110 0.003240 
#    y -0.035110 2.176290 0.042230 
#    z 0.003240 0.042230 2.179030 
# 
# From -- ./inp_files/499592.got.cif
#   From: 2010.05.17/outbox.cif.g08.bks.cpg/sg2_250_cif.got.tgz:499592.got - 2010.06.03 11:33:40.
