data_PCOD9085977
_publ_section_title
;
Structure prediction by ZEFSAII (Michael W. Deem and Ramdas Pophale) SiO2 
 PCOD9085977
Probable space group: P -1
;
_chemical_formula_sum "Si O2"
_cell_formula_units_Z 16
_cell_length_a 9.693133
_cell_length_b 16.790811
_cell_length_c 16.195603
_cell_angle_alpha 33.975970
_cell_angle_beta 37.017149
_cell_angle_gamma 59.961986
_cell_volume 777.930964
_symmetry_space_group_name_H-M "P -1"
_symmetry_group_IT_number 2
_symmetry_cell_setting 'triclinic'
loop_
_space_group_symop_operation_xyz
x,y,z
-x,-y,-z
loop_
_atom_site_type_symbol
_atom_site_label
_atom_site_fract_x
_atom_site_fract_y
_atom_site_fract_z
Si Si1 0.690484 0.651655 0.662580
Si Si2 0.095725 0.978050 0.735971
Si Si3 0.277164 0.609936 0.011043
Si Si4 0.130113 0.260466 0.677945
Si Si5 0.433763 0.029359 0.383291
Si Si6 0.413401 0.057393 0.774274
Si Si7 0.752173 0.513747 0.413299
Si Si8 0.506875 0.845627 0.168103
O O1 0.866629 0.840316 0.439104
O O2 0.734767 0.534193 0.803567
O O3 0.755285 0.640178 0.546594
O O4 0.397273 0.614918 0.859465
O O5 0.182882 0.940111 0.638855
O O6 0.319055 0.984280 0.685036
O O7 0.800781 0.869871 0.998587
O O8 0.990691 0.589206 0.170027
O O9 0.471081 0.779649 0.816954
O O10 0.286684 0.161014 0.706225
O O11 0.168405 0.374222 0.640109
O O12 0.828215 0.120526 0.935116
O O13 0.407052 0.967409 0.356834
O O14 0.552943 0.149039 0.711640
O O15 0.500000 0.500000 0.500000
O O16 0.684424 0.329837 0.626487
O O17 0.500000 0.000000 0.000000
#
# Coordination Sequence:
#
# PCOD9085977 Si02
#       8
#     2   2   2   2   2   2   2   2
#     4  10  20  38  63  89 120 152 204 253 295 346
#     4  10  19  37  61  91 115 158 203 244 298 350
#     4  10  22  37  58  93 124 155 192 253 307 344
#     4  11  21  38  65  90 118 156 209 253 287 353
#     4  10  19  35  66  90 114 148 211 260 280 340
#     4  11  20  39  62  93 116 154 214 247 289 353
#     4  12  24  40  58  90 130 160 194 245 307 363
#     4  12  25  40  60  88 128 164 192 242 312 367
#
# _framework density 20.567377
#
# number of rings (size 3 to 8) (size 9 to 14) (size 15 to 20)
#    0.000    1.250    5.000    2.250    0.000    1.500 
#    0.000    2.500    0.000    0.000    0.000    0.000 
#    0.000    0.000    0.000    0.000    0.000    0.000 
#
# Total GULP energy -89370.859607 kJ/mol
# GULP energy per Si atom -5585.678725 kJ/mol
# Density = 2.052056 g / cm^3
# Si number density = 20.567377 Si / 1000 Ang^3
#
#
#
# Elastic Constant Matrix: (Units=GPa)
#
#
# Indices 1 2 3 4 5 6 
#
# 1 24.7733 16.3012 13.9187 11.8252 5.8122 9.0638
# 2 16.3012 92.4697 32.5762 9.0429 -4.1171 17.8437
# 3 13.9187 32.5762 80.8172 9.9809 6.6375 13.0588
# 4 11.8252 9.0429 9.9809 54.8652 -1.8738 6.3745
# 5 5.8122 -4.1171 6.6375 -1.8738 27.1060 -0.2394
# 6 9.0638 17.8437 13.0588 6.3745 -0.2394 26.1507
#
#
#
# Elastic Compliance Matrix: (Units=1/GPa)
#
#
# Indices 1 2 3 4 5 6 
#
# 1 0.058892 -0.006561 -0.003190 -0.010103 -0.013648 -0.012004
# 2 -0.006561 0.014761 -0.004355 0.000600 0.004706 -0.005726
# 3 -0.003190 -0.004355 0.015716 -0.001179 -0.003939 -0.003519
# 4 -0.010103 0.000600 -0.001179 0.020813 0.003973 -0.001356
# 5 -0.013648 0.004706 -0.003939 0.003973 0.041798 0.002900
# 6 -0.012004 -0.005726 -0.003519 -0.001356 0.002900 0.048422
#
#
# Mechanical properties :
#
#
# Convention : Reuss Voigt Hill
#
# Bulk Modulus (GPa) = 16.35136 35.96138 26.15637
# Shear Modulus (GPa) = 20.08021 30.64199 25.36110
#
# Velocity S-wave (km/s) = 3.12799 3.86403 3.51533
# Velocity P-wave (km/s) = 4.58401 6.11802 5.40571
#
# Compressibility (1/GPa) = 0.06115698
#
# Stress axis : x y z
#
# Youngs Moduli (GPa) = 16.98021 67.74480 63.62814
#
# Poissons Ratio (x) = 0.44451 0.20295
# Poissons Ratio (y) = 0.11142 0.27712
# Poissons Ratio (z) = 0.05416 0.29505
#
# Static dielectric constant tensor:
#      x y z
#    x 1.731830 -0.038160 0.011990 
#    y -0.038160 1.773050 0.004110 
#    z 0.011990 0.004110 1.761940 
# 
# From -- ./inp_files/570326.got.cif
#   From: 2010.05.17/outbox.cif.g08.bks.cpg/sg2_286_cif.got.tgz:570326.got - 2010.06.03 11:33:40.
