data_PCOD9085242
_publ_section_title
;
Structure prediction by ZEFSAII (Michael W. Deem and Ramdas Pophale) SiO2 
 PCOD9085242
Probable space group: P -1
;
_chemical_formula_sum "Si O2"
_cell_formula_units_Z 16
_cell_length_a 22.460275
_cell_length_b 8.420701
_cell_length_c 7.892768
_cell_angle_alpha 96.529731
_cell_angle_beta 128.729397
_cell_angle_gamma 125.644669
_cell_volume 621.089426
_symmetry_space_group_name_H-M "P -1"
_symmetry_group_IT_number 2
_symmetry_cell_setting 'triclinic'
loop_
_space_group_symop_operation_xyz
x,y,z
-x,-y,-z
loop_
_atom_site_type_symbol
_atom_site_label
_atom_site_fract_x
_atom_site_fract_y
_atom_site_fract_z
Si Si1 0.914260 0.393138 0.509035
Si Si2 0.685633 0.913340 0.656735
Si Si3 0.194721 0.312240 0.395200
Si Si4 0.200679 0.698393 0.378265
Si Si5 0.205426 0.131945 0.871414
Si Si6 0.978005 0.851534 0.661225
Si Si7 0.511203 0.203554 0.504982
Si Si8 0.482078 0.664698 0.849275
O O1 0.915928 0.441279 0.717805
O O2 0.000000 0.500000 0.500000
O O3 0.881048 0.522118 0.417957
O O4 0.829799 0.076147 0.339008
O O5 0.755152 0.900223 0.892451
O O6 0.612786 0.910870 0.649361
O O7 0.565237 0.602107 0.302111
O O8 0.803141 0.218213 0.797765
O O9 0.198552 0.501993 0.353548
O O10 0.351378 0.514551 0.699101
O O11 0.124078 0.195399 0.442348
O O12 0.091493 0.040840 0.045133
O O13 0.361004 0.028429 0.763426
O O14 0.344846 0.474879 0.119476
O O15 0.081760 0.029385 0.705116
O O16 0.516315 0.245750 0.319902
O O17 0.500000 0.000000 0.500000
#
# Coordination Sequence:
#
# PCOD9085242 Si02
#       8
#     2   2   2   2   2   2   2   2
#     4   9  19  37  63  87 113 162 206 247 295 361
#     4  11  22  35  58  90 124 159 202 252 301 364
#     4  10  19  35  59  88 118 156 201 252 305 362
#     4  11  22  36  59  93 123 159 204 255 306 360
#     4  10  19  39  63  86 122 164 206 247 307 362
#     4   9  18  35  63  86 115 159 209 244 304 363
#     4  11  22  36  58  89 124 165 199 247 309 373
#     4  11  21  39  60  87 125 165 205 249 310 364
#
# _framework density 25.761185999999999
#
# number of rings (size 3 to 8) (size 9 to 14) (size 15 to 20)
#    0.000    1.750    2.500    4.500    0.000    0.000 
#    0.000    5.625    0.000    0.750    0.000    0.000 
#    0.000    0.000    0.000    0.000    0.000    0.000 
#
# Total GULP energy -89257.112876 kJ/mol
# GULP energy per Si atom -5578.569555 kJ/mol
# Density = 2.570255 g / cm^3
# Si number density = 25.761186 Si / 1000 Ang^3
#
#
#
# Elastic Constant Matrix: (Units=GPa)
#
#
# Indices 1 2 3 4 5 6 
#
# 1 199.3168 34.1760 46.0380 10.0824 11.9434 6.2329
# 2 34.1760 89.1589 28.6231 19.4348 -1.1724 4.6329
# 3 46.0380 28.6231 81.8730 21.8683 4.4394 -23.5052
# 4 10.0824 19.4348 21.8683 40.2193 -8.9844 -2.2799
# 5 11.9434 -1.1724 4.4394 -8.9844 43.5997 14.7717
# 6 6.2329 4.6329 -23.5052 -2.2799 14.7717 44.5489
#
#
#
# Elastic Compliance Matrix: (Units=1/GPa)
#
#
# Indices 1 2 3 4 5 6 
#
# 1 0.006227 -0.001118 -0.004229 0.001092 -0.000098 -0.002898
# 2 -0.001118 0.014296 -0.004809 -0.003837 0.001990 -0.004724
# 3 -0.004229 -0.004809 0.024493 -0.011085 -0.009356 0.016550
# 4 0.001092 -0.003837 -0.011085 0.034352 0.010260 -0.007247
# 5 -0.000098 0.001990 -0.009356 0.010260 0.031142 -0.014931
# 6 -0.002898 -0.004724 0.016550 -0.007247 -0.014931 0.036656
#
#
# Mechanical properties :
#
#
# Convention : Reuss Voigt Hill
#
# Bulk Modulus (GPa) = 40.47832 65.33587 52.90709
# Shear Modulus (GPa) = 28.45561 43.10770 35.78165
#
# Velocity S-wave (km/s) = 3.32715 4.09511 3.73094
# Velocity P-wave (km/s) = 5.52330 6.91210 6.25636
#
# Compressibility (1/GPa) = 0.02470458
#
# Stress axis : x y z
#
# Youngs Moduli (GPa) = 160.59364 69.94897 40.82843
#
# Poissons Ratio (x) = 0.07821 0.17266
# Poissons Ratio (y) = 0.17956 0.19633
# Poissons Ratio (z) = 0.67914 0.33635
#
# Static dielectric constant tensor:
#      x y z
#    x 2.095330 -0.056070 0.080710 
#    y -0.056070 2.193320 -0.138400 
#    z 0.080710 -0.138400 2.245450 
# 
# From -- ./inp_files/351790.got.cif
#   From: 2010.05.17/outbox.cif.g08.bks.cpg/sg2_176_cif.got.tgz:351790.got - 2010.06.03 11:33:40.
