data_PCOD9085192
_publ_section_title
;
Structure prediction by ZEFSAII (Michael W. Deem and Ramdas Pophale) SiO2 
 PCOD9085192
Probable space group: P -1
;
_chemical_formula_sum "Si O2"
_cell_formula_units_Z 14
_cell_length_a 10.939980
_cell_length_b 22.885388
_cell_length_c 10.744055
_cell_angle_alpha 26.428294
_cell_angle_beta 55.648713
_cell_angle_gamma 40.828131
_cell_volume 720.936391
_symmetry_space_group_name_H-M "P -1"
_symmetry_group_IT_number 2
_symmetry_cell_setting 'triclinic'
loop_
_space_group_symop_operation_xyz
x,y,z
-x,-y,-z
loop_
_atom_site_type_symbol
_atom_site_label
_atom_site_fract_x
_atom_site_fract_y
_atom_site_fract_z
Si Si1 0.912576 0.357679 0.594746
Si Si2 0.489294 0.661962 0.853015
Si Si3 0.155182 0.518527 0.336336
Si Si4 0.907506 0.061162 0.073654
Si Si5 0.512851 0.640979 0.173017
Si Si6 0.826402 0.282839 0.248715
Si Si7 0.638783 0.794877 0.350652
O O1 0.819407 0.417065 0.674530
O O2 0.746149 0.535130 0.268887
O O3 0.132657 0.292200 0.591879
O O4 0.935039 0.194099 0.851308
O O5 0.294456 0.734741 0.746738
O O6 0.553251 0.767569 0.568949
O O7 0.466625 0.673681 0.991175
O O8 0.664593 0.453508 0.106343
O O9 0.346655 0.325114 0.537759
O O10 0.000000 0.500000 0.500000
O O11 0.078826 0.659935 0.000931
O O12 0.666761 0.176876 0.998117
O O13 0.022629 0.893117 0.420201
O O14 0.000000 0.000000 0.000000
O O15 0.500000 0.500000 0.500000
O O16 0.500000 0.000000 0.000000
#
# Coordination Sequence:
#
# PCOD9085192 Si02
#       7
#     2   2   2   2   2   2   2
#     4  10  21  38  58  82 123 162 187 239 300 341
#     4  10  21  36  58  86 116 153 194 239 296 350
#     4   9  20  37  58  84 118 155 191 236 295 349
#     4  11  23  37  60  89 116 151 201 245 286 350
#     4  10  21  36  54  80 115 152 190 235 292 347
#     4  10  19  35  59  85 115 151 193 244 290 339
#     4  10  21  37  61  89 116 151 199 245 286 348
#
# _framework density 19.41919
#
# number of rings (size 3 to 8) (size 9 to 14) (size 15 to 20)
#    0.000    2.000    0.000    4.286    0.000    8.571 
#    0.000    1.429    0.000    9.429    0.000    0.000 
#    0.000    0.000    0.000    0.000    0.000    0.000 
#
# Total GULP energy -78103.070880 kJ/mol
# GULP energy per Si atom -5578.790777 kJ/mol
# Density = 1.937499 g / cm^3
# Si number density = 19.419190 Si / 1000 Ang^3
#
#
#
# Elastic Constant Matrix: (Units=GPa)
#
#
# Indices 1 2 3 4 5 6 
#
# 1 69.7035 40.2692 48.4246 -5.0196 4.4598 -6.3756
# 2 40.2692 118.9913 72.3163 15.2857 7.0887 14.8954
# 3 48.4246 72.3163 164.1445 -0.5965 15.2678 -4.6283
# 4 -5.0196 15.2857 -0.5965 31.5602 -5.6128 1.0111
# 5 4.4598 7.0887 15.2678 -5.6128 30.6290 -4.4347
# 6 -6.3756 14.8954 -4.6283 1.0111 -4.4347 40.9465
#
#
#
# Elastic Compliance Matrix: (Units=1/GPa)
#
#
# Indices 1 2 3 4 5 6 
#
# 1 0.021569 -0.007035 -0.003286 0.006991 0.002220 0.005614
# 2 -0.007035 0.016171 -0.005016 -0.009341 -0.003036 -0.007643
# 3 -0.003286 -0.005016 0.009573 0.001569 -0.002544 0.002081
# 4 0.006991 -0.009341 0.001569 0.038646 0.008108 0.004588
# 5 0.002220 -0.003036 -0.002544 0.008108 0.036494 0.004915
# 6 0.005614 -0.007643 0.002081 0.004588 0.004915 0.028731
#
#
# Mechanical properties :
#
#
# Convention : Reuss Voigt Hill
#
# Bulk Modulus (GPa) = 60.10566 74.98437 67.54501
# Shear Modulus (GPa) = 26.68047 33.41576 30.04811
#
# Velocity S-wave (km/s) = 3.71067 4.15270 3.93789
# Velocity P-wave (km/s) = 7.02692 7.85434 7.45212
#
# Compressibility (1/GPa) = 0.01663737
#
# Stress axis : x y z
#
# Youngs Moduli (GPa) = 46.36321 61.84022 104.46588
#
# Poissons Ratio (x) = 0.43505 0.34332
# Poissons Ratio (y) = 0.32617 0.52399
# Poissons Ratio (z) = 0.15237 0.31018
#
# Static dielectric constant tensor:
#      x y z
#    x 1.744030 -0.015450 0.002320 
#    y -0.015450 1.713880 -0.015070 
#    z 0.002320 -0.015070 1.651530 
# 
# From -- ./inp_files/201374.got.cif
#   From: 2010.05.17/outbox.cif.g08.bks.cpg/sg2_101_cif.got.tgz:201374.got - 2010.06.03 11:33:40.
