data_PCOD9085934
_publ_section_title
;
Structure prediction by ZEFSAII (Michael W. Deem and Ramdas Pophale) SiO2 
 PCOD9085934
Probable space group: P -1
;
_chemical_formula_sum "Si O2"
_cell_formula_units_Z 16
_cell_length_a 5.443012
_cell_length_b 28.929571
_cell_length_c 8.442663
_cell_angle_alpha 32.299393
_cell_angle_beta 73.595521
_cell_angle_gamma 65.328314
_cell_volume 638.695151
_symmetry_space_group_name_H-M "P -1"
_symmetry_group_IT_number 2
_symmetry_cell_setting 'triclinic'
loop_
_space_group_symop_operation_xyz
x,y,z
-x,-y,-z
loop_
_atom_site_type_symbol
_atom_site_label
_atom_site_fract_x
_atom_site_fract_y
_atom_site_fract_z
Si Si1 0.164712 0.425111 0.315034
Si Si2 0.218160 0.581401 0.335186
Si Si3 0.630170 0.745160 0.453057
Si Si4 0.188987 0.284503 0.158241
Si Si5 0.988006 0.973974 0.265606
Si Si6 0.424055 0.082757 0.644481
Si Si7 0.602896 0.306800 0.770220
Si Si8 0.927767 0.163477 0.879520
O O1 0.205083 0.328925 0.493202
O O2 0.476153 0.393459 0.419347
O O3 0.985461 0.453816 0.423792
O O4 0.000000 0.500000 0.000000
O O5 0.500000 0.500000 0.500000
O O6 0.245620 0.660698 0.214260
O O7 0.095215 0.632790 0.047157
O O8 0.668577 0.702702 0.743924
O O9 0.312387 0.784594 0.353296
O O10 0.783234 0.820026 0.217797
O O11 0.200279 0.179196 0.459487
O O12 0.350149 0.292007 0.948704
O O13 0.719169 0.945761 0.396936
O O14 0.966349 0.058217 0.142000
O O15 0.286588 0.901604 0.462002
O O16 0.000000 0.000000 0.000000
O O17 0.500000 0.000000 0.000000
O O18 0.781028 0.215174 0.914110
#
# Coordination Sequence:
#
# PCOD9085934 Si02
#       8
#     2   2   2   2   2   2   2   2
#     4  10  24  43  65  98 133 177 236 294 344 418
#     4  11  26  45  69  97 141 186 230 289 354 425
#     4  11  23  40  69 102 132 185 232 285 347 411
#     4  11  26  42  69 102 140 185 231 292 354 418
#     4  10  19  35  64  96 130 169 226 284 333 399
#     4  10  21  39  63 101 136 174 229 286 336 407
#     4  10  25  45  65  95 144 185 228 284 363 417
#     4  11  22  44  68 100 140 183 231 288 348 414
#
# _framework density 25.051076999999999
#
# number of rings (size 3 to 8) (size 9 to 14) (size 15 to 20)
#    0.000    1.500    1.250    3.750    7.000    2.500 
#    0.000    1.250    0.000    0.000    0.000    0.000 
#    0.000    0.000    0.000    0.000    0.000    0.000 
#
# Total GULP energy -89297.287742 kJ/mol
# GULP energy per Si atom -5581.080484 kJ/mol
# Density = 2.499406 g / cm^3
# Si number density = 25.051077 Si / 1000 Ang^3
#
#
#
# Elastic Constant Matrix: (Units=GPa)
#
#
# Indices 1 2 3 4 5 6 
#
# 1 123.8911 18.6872 21.8303 -8.0941 11.9333 17.5342
# 2 18.6872 98.5062 6.2763 -14.4973 7.7820 0.0321
# 3 21.8303 6.2763 80.2576 0.4760 28.2931 -5.9092
# 4 -8.0941 -14.4973 0.4760 33.9054 1.4619 2.7493
# 5 11.9333 7.7820 28.2931 1.4619 24.9220 -6.8523
# 6 17.5342 0.0321 -5.9092 2.7493 -6.8523 45.8051
#
#
#
# Elastic Compliance Matrix: (Units=1/GPa)
#
#
# Indices 1 2 3 4 5 6 
#
# 1 0.009702 -0.001066 -0.001485 0.002433 -0.004050 -0.004657
# 2 -0.001066 0.011359 0.000923 0.004819 -0.004488 -0.000441
# 3 -0.001485 0.000923 0.021109 0.000788 -0.023670 -0.000297
# 4 0.002433 0.004819 0.000788 0.032711 -0.006520 -0.003772
# 5 -0.004050 -0.004488 -0.023670 -0.006520 0.073435 0.009877
# 6 -0.004657 -0.000441 -0.000297 -0.003772 0.009877 0.025280
#
#
# Mechanical properties :
#
#
# Convention : Reuss Voigt Hill
#
# Bulk Modulus (GPa) = 25.69851 44.02695 34.86273
# Shear Modulus (GPa) = 26.33994 37.98390 32.16192
#
# Velocity S-wave (km/s) = 3.24612 3.89814 3.58698
# Velocity P-wave (km/s) = 4.93259 6.15416 5.57692
#
# Compressibility (1/GPa) = 0.03891276
#
# Stress axis : x y z
#
# Youngs Moduli (GPa) = 103.06854 88.03586 47.37222
#
# Poissons Ratio (x) = 0.09388 0.07037
# Poissons Ratio (y) = 0.10991 -0.04372
# Poissons Ratio (z) = 0.15310 -0.08124
#
# Static dielectric constant tensor:
#      x y z
#    x 2.096870 -0.062750 -0.085540 
#    y -0.062750 1.992210 0.058910 
#    z -0.085540 0.058910 2.082380 
# 
# From -- ./inp_files/38044.got.cif
#   From: 2010.05.17/outbox.cif.g08.bks.cpg/sg2_20_cif.got.tgz:38044.got - 2010.06.03 11:33:40.
