data_PCOD9085281
_publ_section_title
;
Structure prediction by ZEFSAII (Michael W. Deem and Ramdas Pophale) SiO2 
 PCOD9085281
Probable space group: P -1
;
_chemical_formula_sum "Si O2"
_cell_formula_units_Z 15
_cell_length_a 10.893079
_cell_length_b 15.419879
_cell_length_c 7.510666
_cell_angle_alpha 55.726164
_cell_angle_beta 89.371848
_cell_angle_gamma 47.252431
_cell_volume 605.547064
_symmetry_space_group_name_H-M "P -1"
_symmetry_group_IT_number 2
_symmetry_cell_setting 'triclinic'
loop_
_space_group_symop_operation_xyz
x,y,z
-x,-y,-z
loop_
_atom_site_type_symbol
_atom_site_label
_atom_site_fract_x
_atom_site_fract_y
_atom_site_fract_z
Si Si1 0.281924 0.893655 0.183782
Si Si2 0.334822 0.258851 0.064459
Si Si3 0.979366 0.953031 0.336359
Si Si4 0.993713 0.263341 0.188580
Si Si5 0.453355 0.675401 0.952928
Si Si6 0.557992 0.042063 0.649089
Si Si7 0.000000 0.500000 0.000000
Si Si8 0.410475 0.475670 0.277714
O O1 0.391126 0.921259 0.228154
O O2 0.468814 0.679403 0.405651
O O3 0.143939 0.004937 0.883726
O O4 0.130138 0.938955 0.274999
O O5 0.442221 0.082921 0.178120
O O6 0.354864 0.221959 0.327699
O O7 0.440510 0.296125 0.996023
O O8 0.084610 0.430473 0.866037
O O9 0.070608 0.787341 0.622823
O O10 0.796784 0.128661 0.259297
O O11 0.239488 0.081042 0.341656
O O12 0.961053 0.398152 0.122710
O O13 0.841904 0.357410 0.910956
O O14 0.485962 0.542429 0.202833
O O15 0.527145 0.611208 0.821260
#
# Coordination Sequence:
#
# PCOD9085281 Si02
#       8
#     2   2   2   2   2   2   1   2
#     4  11  23  41  56  91 123 161 198 243 298 362
#     4  10  19  35  59  91 115 153 196 255 289 348
#     4  11  24  38  61  85 126 163 195 240 306 357
#     4  11  20  37  63  91 113 158 197 253 291 350
#     4  11  20  37  58  90 116 153 204 246 294 350
#     4  10  20  36  63  83 123 152 209 240 295 352
#     4  10  20  32  60  88 120 142 196 244 302 334
#     4  11  22  35  64  89 120 149 205 256 295 342
#
# _framework density 24.770990000000001
#
# number of rings (size 3 to 8) (size 9 to 14) (size 15 to 20)
#    0.000    1.333    4.000    2.400    0.000    2.133 
#    0.000    2.000    0.000    1.600    0.000    0.000 
#    0.000    0.000    0.000    0.000    0.000    0.000 
#
# Total GULP energy -83693.794314 kJ/mol
# GULP energy per Si atom -5579.586288 kJ/mol
# Density = 2.471461 g / cm^3
# Si number density = 24.770990 Si / 1000 Ang^3
#
#
#
# Elastic Constant Matrix: (Units=GPa)
#
#
# Indices 1 2 3 4 5 6 
#
# 1 169.4900 30.3350 24.8878 -2.2099 -24.2125 37.3063
# 2 30.3350 52.0584 12.1721 1.5578 -17.8650 9.6418
# 3 24.8878 12.1721 57.0946 -2.8192 -7.0487 12.6344
# 4 -2.2099 1.5578 -2.8192 23.2013 10.9250 1.9337
# 5 -24.2125 -17.8650 -7.0487 10.9250 38.4868 -17.2877
# 6 37.3063 9.6418 12.6344 1.9337 -17.2877 53.6323
#
#
#
# Elastic Compliance Matrix: (Units=1/GPa)
#
#
# Indices 1 2 3 4 5 6 
#
# 1 0.007758 -0.002971 -0.001667 0.000507 0.001212 -0.004097
# 2 -0.002971 0.026168 -0.003712 -0.009083 0.013483 0.002911
# 3 -0.001667 -0.003712 0.019775 0.003617 -0.001762 -0.003530
# 4 0.000507 -0.009083 0.003617 0.055856 -0.023155 -0.009049
# 5 0.001212 0.013483 -0.001762 -0.023155 0.044841 0.012437
# 6 -0.004097 0.002911 -0.003530 -0.009049 0.012437 0.026139
#
#
# Mechanical properties :
#
#
# Convention : Reuss Voigt Hill
#
# Bulk Modulus (GPa) = 27.02593 45.93697 36.48145
# Shear Modulus (GPa) = 23.85825 37.14730 30.50278
#
# Velocity S-wave (km/s) = 3.10684 3.87671 3.51293
# Velocity P-wave (km/s) = 4.87893 6.21477 5.58692
#
# Compressibility (1/GPa) = 0.03700150
#
# Stress axis : x y z
#
# Youngs Moduli (GPa) = 128.89501 38.21415 50.56898
#
# Poissons Ratio (x) = 0.11355 0.08430
# Poissons Ratio (y) = 0.38301 0.18769
# Poissons Ratio (z) = 0.21487 0.14183
#
# Static dielectric constant tensor:
#      x y z
#    x 1.798770 0.237520 -0.202920 
#    y 0.237520 1.652720 0.297620 
#    z -0.202920 0.297620 1.726990 
# 
# From -- ./inp_files/276237.got.cif
#   From: 2010.05.17/outbox.cif.g08.bks.cpg/sg2_139_cif.got.tgz:276237.got - 2010.06.03 11:33:40.
