data_PCOD9085900
_publ_section_title
;
Structure prediction by ZEFSAII (Michael W. Deem and Ramdas Pophale) SiO2 
 PCOD9085900
Probable space group: P -1
;
_chemical_formula_sum "Si O2"
_cell_formula_units_Z 12
_cell_length_a 14.404809
_cell_length_b 11.170128
_cell_length_c 14.863643
_cell_angle_alpha 150.304662
_cell_angle_beta 151.061642
_cell_angle_gamma 28.047054
_cell_volume 492.970655
_symmetry_space_group_name_H-M "P -1"
_symmetry_group_IT_number 2
_symmetry_cell_setting 'triclinic'
loop_
_space_group_symop_operation_xyz
x,y,z
-x,-y,-z
loop_
_atom_site_type_symbol
_atom_site_label
_atom_site_fract_x
_atom_site_fract_y
_atom_site_fract_z
Si Si1 0.165666 0.224889 0.560351
Si Si2 0.770207 0.847500 0.634175
Si Si3 0.039409 0.622515 0.022259
Si Si4 0.493371 0.517914 0.398076
Si Si5 0.188568 0.069660 0.681514
Si Si6 0.347129 0.037667 0.204065
O O1 0.156884 0.122433 0.384500
O O2 0.206754 0.066968 0.587417
O O3 0.931611 0.511917 0.562244
O O4 0.400824 0.226894 0.757563
O O5 0.784481 0.965524 0.820981
O O6 0.500000 0.000000 0.500000
O O7 0.117967 0.377679 0.855343
O O8 0.811832 0.891701 0.970510
O O9 0.248421 0.654246 0.240454
O O10 0.000000 0.500000 0.000000
O O11 0.500000 0.500000 0.500000
O O12 0.609753 0.693722 0.580291
O O13 0.608822 0.184537 0.258418
O O14 0.000000 0.000000 0.500000
#
# Coordination Sequence:
#
# PCOD9085900 Si02
#       6
#     2   2   2   2   2   2
#     4  10  19  35  64  91 120 164 208 255 312 369
#     4   9  19  36  62  93 116 161 214 256 309 368
#     4  12  23  37  58  91 130 168 207 254 309 372
#     4  12  22  38  59  91 130 167 203 254 311 372
#     4  12  21  37  62  94 130 163 206 253 314 374
#     4  11  21  39  62  91 128 162 208 255 309 371
#
# _framework density 24.342220000000001
#
# number of rings (size 3 to 8) (size 9 to 14) (size 15 to 20)
#    0.000    1.000    6.667    0.500    0.000    0.000 
#    0.000    0.000    0.000   10.000    0.000    0.000 
#    0.000    0.000    0.000    0.000    0.000    0.000 
#
# Total GULP energy -66855.865611 kJ/mol
# GULP energy per Si atom -5571.322134 kJ/mol
# Density = 2.428682 g / cm^3
# Si number density = 24.342220 Si / 1000 Ang^3
#
#
#
# Elastic Constant Matrix: (Units=GPa)
#
#
# Indices 1 2 3 4 5 6 
#
# 1 134.3151 18.4993 30.3860 -13.1394 -15.1337 -10.9436
# 2 18.4993 121.4209 18.1091 -34.5241 1.3851 -0.4988
# 3 30.3860 18.1091 99.6370 -22.9233 -1.3948 2.8293
# 4 -13.1394 -34.5241 -22.9233 43.8657 1.4080 -11.1932
# 5 -15.1337 1.3851 -1.3948 1.4080 34.6223 -5.1702
# 6 -10.9436 -0.4988 2.8293 -11.1932 -5.1702 37.8217
#
#
#
# Elastic Compliance Matrix: (Units=1/GPa)
#
#
# Indices 1 2 3 4 5 6 
#
# 1 0.009039 -0.000505 -0.002255 0.002004 0.004392 0.003971
# 2 -0.000505 0.010931 0.000213 0.009256 -0.000632 0.002635
# 3 -0.002255 0.000213 0.012010 0.005810 -0.000736 0.000071
# 4 0.002004 0.009256 0.005810 0.036549 0.000928 0.011211
# 5 0.004392 -0.000632 -0.000736 0.000928 0.031645 0.005918
# 6 0.003971 0.002635 0.000071 0.011211 0.005918 0.031745
#
#
# Mechanical properties :
#
#
# Convention : Reuss Voigt Hill
#
# Bulk Modulus (GPa) = 37.19394 54.37353 45.78373
# Shear Modulus (GPa) = 34.25264 42.48717 38.36991
#
# Velocity S-wave (km/s) = 3.75524 4.18234 3.97453
# Velocity P-wave (km/s) = 5.84082 6.76079 6.31757
#
# Compressibility (1/GPa) = 0.02688610
#
# Stress axis : x y z
#
# Youngs Moduli (GPa) = 110.62737 91.48549 83.26512
#
# Poissons Ratio (x) = 0.04618 0.18777
# Poissons Ratio (y) = 0.05585 -0.01774
# Poissons Ratio (z) = 0.24948 -0.01949
#
# Static dielectric constant tensor:
#      x y z
#    x 1.935120 -0.124340 -0.000670 
#    y -0.124340 1.697920 0.220550 
#    z -0.000670 0.220550 1.869860 
# 
# From -- ./inp_files/453662.got.cif
#   From: 2010.05.17/outbox.cif.g08.bks.cpg/sg2_227_cif.got.tgz:453662.got - 2010.06.03 11:33:40.
