data_PCOD9085753
_publ_section_title
;
Structure prediction by ZEFSAII (Michael W. Deem and Ramdas Pophale) SiO2 
 PCOD9085753
Probable space group: P -1
;
_chemical_formula_sum "Si O2"
_cell_formula_units_Z 14
_cell_length_a 5.266849
_cell_length_b 14.825425
_cell_length_c 11.659913
_cell_angle_alpha 54.896131
_cell_angle_beta 49.387409
_cell_angle_gamma 64.445616
_cell_volume 563.042749
_symmetry_space_group_name_H-M "P -1"
_symmetry_group_IT_number 2
_symmetry_cell_setting 'triclinic'
loop_
_space_group_symop_operation_xyz
x,y,z
-x,-y,-z
loop_
_atom_site_type_symbol
_atom_site_label
_atom_site_fract_x
_atom_site_fract_y
_atom_site_fract_z
Si Si1 0.269271 0.285470 0.817303
Si Si2 0.642901 0.950034 0.152152
Si Si3 0.801866 0.844617 0.848258
Si Si4 0.459798 0.350133 0.313590
Si Si5 0.541272 0.099951 0.500299
Si Si6 0.738894 0.649281 0.887477
Si Si7 0.291563 0.574726 0.265580
O O1 0.379598 0.171169 0.803919
O O2 0.568678 0.355296 0.722911
O O3 0.021013 0.361803 0.754390
O O4 0.097971 0.242480 0.015812
O O5 0.553345 0.939418 0.319268
O O6 0.372415 0.047597 0.118364
O O7 0.000000 0.000000 0.000000
O O8 0.581597 0.772389 0.884220
O O9 0.077771 0.880169 0.654772
O O10 0.359507 0.224142 0.448158
O O11 0.369304 0.377689 0.188015
O O12 0.266798 0.443595 0.383054
O O13 0.857538 0.349453 0.225710
O O14 0.500000 0.000000 0.500000
O O15 0.594729 0.573375 0.082090
#
# Coordination Sequence:
#
# PCOD9085753 Si02
#       7
#     2   2   2   2   2   2   2
#     4  11  24  41  66  98 134 177 223 268 326 400
#     4  12  24  43  68  99 135 180 224 276 339 402
#     4  10  22  42  68 100 134 172 221 282 336 394
#     4  11  22  38  62  95 132 173 217 273 334 390
#     4  11  24  42  68 102 134 172 223 282 338 398
#     4  10  19  35  62  97 130 167 216 273 332 393
#     4  11  21  39  62  93 133 177 220 268 323 397
#
# _framework density 24.864895000000001
#
# number of rings (size 3 to 8) (size 9 to 14) (size 15 to 20)
#    0.000    1.143    0.000    8.571    0.000    2.286 
#    0.000    1.429    0.000    0.000    0.000    0.000 
#    0.000    0.000    0.000    0.000    0.000    0.000 
#
# Total GULP energy -78285.885891 kJ/mol
# GULP energy per Si atom -5591.848992 kJ/mol
# Density = 2.480830 g / cm^3
# Si number density = 24.864895 Si / 1000 Ang^3
#
#
#
# Elastic Constant Matrix: (Units=GPa)
#
#
# Indices 1 2 3 4 5 6 
#
# 1 154.7007 75.0928 29.2494 -10.3379 1.5680 23.7221
# 2 75.0928 231.6347 24.8758 -28.5618 5.6024 27.2171
# 3 29.2494 24.8758 101.6139 -6.0469 1.5637 4.8666
# 4 -10.3379 -28.5618 -6.0469 42.1845 6.9921 2.0139
# 5 1.5680 5.6024 1.5637 6.9921 24.3256 -0.2398
# 6 23.7221 27.2171 4.8666 2.0139 -0.2398 48.6134
#
#
#
# Elastic Compliance Matrix: (Units=1/GPa)
#
#
# Indices 1 2 3 4 5 6 
#
# 1 0.008260 -0.002115 -0.001700 0.000495 -0.000105 -0.002697
# 2 -0.002115 0.005866 -0.000446 0.003889 -0.002327 -0.002380
# 3 -0.001700 -0.000446 0.010505 0.000908 -0.000724 -0.000014
# 4 0.000495 0.003889 0.000908 0.028285 -0.009153 -0.003727
# 5 -0.000105 -0.002327 -0.000724 -0.009153 0.044349 0.002025
# 6 -0.002697 -0.002380 -0.000014 -0.003727 0.002025 0.023385
#
#
# Mechanical properties :
#
#
# Convention : Reuss Voigt Hill
#
# Bulk Modulus (GPa) = 62.07132 82.93173 72.50152
# Shear Modulus (GPa) = 37.16332 46.94012 42.05172
#
# Velocity S-wave (km/s) = 3.87021 4.34960 4.11689
# Velocity P-wave (km/s) = 6.70739 7.65838 7.19860
#
# Compressibility (1/GPa) = 0.01611050
#
# Stress axis : x y z
#
# Youngs Moduli (GPa) = 121.07018 170.47137 95.18867
#
# Poissons Ratio (x) = 0.36048 0.16178
# Poissons Ratio (y) = 0.25602 0.04247
# Poissons Ratio (z) = 0.20577 0.07605
#
# Static dielectric constant tensor:
#      x y z
#    x 2.269520 0.451700 -0.502920 
#    y 0.451700 2.831290 -0.808540 
#    z -0.502920 -0.808540 2.813690 
# 
# From -- ./inp_files/367430.got.cif
#   From: 2010.05.17/outbox.cif.g08.bks.cpg/sg2_184_cif.got.tgz:367430.got - 2010.06.03 11:33:40.
