data_PCOD9085323
_publ_section_title
;
Structure prediction by ZEFSAII (Michael W. Deem and Ramdas Pophale) SiO2 
 PCOD9085323
Probable space group: P -1
;
_chemical_formula_sum "Si O2"
_cell_formula_units_Z 14
_cell_length_a 7.203143
_cell_length_b 7.900590
_cell_length_c 9.785117
_cell_angle_alpha 75.748411
_cell_angle_beta 101.193198
_cell_angle_gamma 80.961370
_cell_volume 517.018114
_symmetry_space_group_name_H-M "P -1"
_symmetry_group_IT_number 2
_symmetry_cell_setting 'triclinic'
loop_
_space_group_symop_operation_xyz
x,y,z
-x,-y,-z
loop_
_atom_site_type_symbol
_atom_site_label
_atom_site_fract_x
_atom_site_fract_y
_atom_site_fract_z
Si Si1 0.067798 0.161753 0.897679
Si Si2 0.692130 0.679782 0.648372
Si Si3 0.614095 0.107381 0.124433
Si Si4 0.120990 0.683081 0.406035
Si Si5 0.638548 0.383204 0.861491
Si Si6 0.559077 0.139770 0.666286
Si Si7 0.046557 0.831147 0.642363
O O1 0.066473 0.252290 0.727025
O O2 0.878524 0.314842 0.899218
O O3 0.296271 0.052962 0.940973
O O4 0.000000 0.000000 0.000000
O O5 0.767086 0.506083 0.596714
O O6 0.601902 0.591945 0.778914
O O7 0.559613 0.812841 0.498799
O O8 0.867242 0.769001 0.698541
O O9 0.800426 0.132808 0.235347
O O10 0.482723 0.032023 0.230734
O O11 0.565107 0.295042 0.999992
O O12 0.225133 0.845826 0.347193
O O13 0.114160 0.677432 0.568042
O O14 0.530773 0.297417 0.742621
O O15 0.000000 0.000000 0.500000
#
# Coordination Sequence:
#
# PCOD9085323 Si02
#       7
#     2   2   2   2   2   2   2
#     4   8  15  30  51  76 106 138 176 221 262 314
#     4  10  20  38  58  80 107 149 184 224 269 324
#     4  11  20  34  54  84 115 141 179 226 277 322
#     4  10  20  35  55  83 108 142 191 221 268 325
#     4   9  20  35  57  81 108 145 185 223 271 322
#     4  10  19  35  60  81 108 145 185 227 265 324
#     4  12  22  35  55  84 113 144 179 230 274 323
#
# _framework density 27.078358000000001
#
# number of rings (size 3 to 8) (size 9 to 14) (size 15 to 20)
#    0.000    2.286    2.857    2.571    0.000    2.286 
#    0.000    0.000    0.000    3.429    0.000    0.000 
#    0.000    0.000    0.000    0.000    0.000    0.000 
#
# Total GULP energy -77937.786272 kJ/mol
# GULP energy per Si atom -5566.984734 kJ/mol
# Density = 2.701673 g / cm^3
# Si number density = 27.078358 Si / 1000 Ang^3
#
#
#
# Elastic Constant Matrix: (Units=GPa)
#
#
# Indices 1 2 3 4 5 6 
#
# 1 97.4618 38.2428 30.2373 -15.8578 -37.1594 20.2898
# 2 38.2428 129.8487 50.9318 -41.4724 -16.2859 16.7510
# 3 30.2373 50.9318 178.0664 -36.2811 -22.0889 16.7096
# 4 -15.8578 -41.4724 -36.2811 41.7793 6.4723 -10.8133
# 5 -37.1594 -16.2859 -22.0889 6.4723 48.3401 -13.9347
# 6 20.2898 16.7510 16.7096 -10.8133 -13.9347 53.0395
#
#
#
# Elastic Compliance Matrix: (Units=1/GPa)
#
#
# Indices 1 2 3 4 5 6 
#
# 1 0.016037 -0.002707 -0.000231 0.000988 0.010533 -0.002238
# 2 -0.002707 0.012157 -0.000898 0.010132 0.000126 -0.000422
# 3 -0.000231 -0.000898 0.007189 0.004852 0.002050 -0.000365
# 4 0.000988 0.010132 0.004852 0.039138 0.002140 0.003435
# 5 0.010533 0.000126 0.002050 0.002140 0.030557 0.003749
# 6 -0.002238 -0.000422 -0.000365 0.003435 0.003749 0.021644
#
#
# Mechanical properties :
#
#
# Convention : Reuss Voigt Hill
#
# Bulk Modulus (GPa) = 36.08706 71.57787 53.83246
# Shear Modulus (GPa) = 34.81136 47.69612 41.25374
#
# Velocity S-wave (km/s) = 3.58939 4.20147 3.90743
# Velocity P-wave (km/s) = 5.52577 7.07301 6.34671
#
# Compressibility (1/GPa) = 0.02771077
#
# Stress axis : x y z
#
# Youngs Moduli (GPa) = 62.35627 82.25708 139.09966
#
# Poissons Ratio (x) = 0.22269 0.03213
# Poissons Ratio (y) = 0.16881 0.12490
# Poissons Ratio (z) = 0.01440 0.07386
#
# Static dielectric constant tensor:
#      x y z
#    x 2.226680 -0.085790 -0.002360 
#    y -0.085790 2.246530 0.130430 
#    z -0.002360 0.130430 2.170700 
# 
# From -- ./inp_files/207360.got.cif
#   From: 2010.05.17/outbox.cif.g08.bks.cpg/sg2_104_cif.got.tgz:207360.got - 2010.06.03 11:33:40.
