data_PCOD9085779
_publ_section_title
;
Structure prediction by ZEFSAII (Michael W. Deem and Ramdas Pophale) SiO2 
 PCOD9085779
Probable space group: P -1
;
_chemical_formula_sum "Si O2"
_cell_formula_units_Z 14
_cell_length_a 8.854276
_cell_length_b 11.330134
_cell_length_c 11.661019
_cell_angle_alpha 126.098477
_cell_angle_beta 44.693050
_cell_angle_gamma 132.385762
_cell_volume 593.936759
_symmetry_space_group_name_H-M "P -1"
_symmetry_group_IT_number 2
_symmetry_cell_setting 'triclinic'
loop_
_space_group_symop_operation_xyz
x,y,z
-x,-y,-z
loop_
_atom_site_type_symbol
_atom_site_label
_atom_site_fract_x
_atom_site_fract_y
_atom_site_fract_z
Si Si1 0.131570 0.992119 0.257911
Si Si2 0.851729 0.864136 0.905899
Si Si3 0.973064 0.392288 0.340580
Si Si4 0.788081 0.626040 0.157344
Si Si5 0.548259 0.320089 0.808888
Si Si6 0.130709 0.514072 0.762660
Si Si7 0.813509 0.143093 0.633318
O O1 0.290464 0.974623 0.266470
O O2 0.951650 0.806574 0.218780
O O3 0.224950 0.073544 0.131107
O O4 0.978671 0.079035 0.441771
O O5 0.015662 0.774348 0.734723
O O6 0.613061 0.734551 0.022618
O O7 0.000000 0.000000 0.000000
O O8 0.218464 0.508871 0.208600
O O9 0.000000 0.500000 0.500000
O O10 0.778490 0.381249 0.343645
O O11 0.593060 0.650070 0.201366
O O12 0.693782 0.498221 0.241174
O O13 0.963174 0.576647 0.958950
O O14 0.628381 0.174927 0.671315
O O15 0.981796 0.326356 0.693622
#
# Coordination Sequence:
#
# PCOD9085779 Si02
#       7
#     2   2   2   2   2   2   2
#     4  10  20  40  57  88 121 162 185 247 304 355
#     4  12  22  37  63  90 124 153 201 247 297 349
#     4  11  23  41  62  87 121 160 201 241 299 357
#     4  10  19  35  63  86 119 149 202 239 295 348
#     4  11  22  39  62  94 113 160 203 250 287 354
#     4   9  18  36  60  86 112 163 189 241 295 352
#     4   9  21  36  61  84 122 156 199 236 303 351
#
# _framework density 23.571531
#
# number of rings (size 3 to 8) (size 9 to 14) (size 15 to 20)
#    0.000    1.714    2.857    2.143    2.000    1.143 
#    2.571    0.714    3.143    0.000    0.000    0.000 
#    0.000    0.000    0.000    0.000    0.000    0.000 
#
# Total GULP energy -78080.090668 kJ/mol
# GULP energy per Si atom -5577.149333 kJ/mol
# Density = 2.351788 g / cm^3
# Si number density = 23.571531 Si / 1000 Ang^3
#
#
#
# Elastic Constant Matrix: (Units=GPa)
#
#
# Indices 1 2 3 4 5 6 
#
# 1 148.5784 14.5096 14.3402 2.0168 -6.0038 -52.8751
# 2 14.5096 46.7715 22.6142 10.8810 1.1748 -16.4489
# 3 14.3402 22.6142 115.2108 37.6635 5.3807 0.1595
# 4 2.0168 10.8810 37.6635 48.9436 -18.2007 -0.0039
# 5 -6.0038 1.1748 5.3807 -18.2007 42.3703 8.8094
# 6 -52.8751 -16.4489 0.1595 -0.0039 8.8094 37.0353
#
#
#
# Elastic Compliance Matrix: (Units=1/GPa)
#
#
# Indices 1 2 3 4 5 6 
#
# 1 0.015215 0.005671 -0.002465 -0.001270 -0.003447 0.025071
# 2 0.005671 0.031992 -0.004518 -0.006601 -0.007351 0.024073
# 3 -0.002465 -0.004518 0.014157 -0.012170 -0.006404 -0.004065
# 4 -0.001270 -0.006601 -0.012170 0.038828 0.020202 -0.009494
# 5 -0.003447 -0.007351 -0.006404 0.020202 0.036299 -0.016790
# 6 0.025071 0.024073 -0.004065 -0.009494 -0.016790 0.077497
#
#
# Mechanical properties :
#
#
# Convention : Reuss Voigt Hill
#
# Bulk Modulus (GPa) = 17.02421 45.94319 31.48370
# Shear Modulus (GPa) = 21.16931 42.94293 32.05612
#
# Velocity S-wave (km/s) = 3.00006 4.27290 3.69175
# Velocity P-wave (km/s) = 4.38618 6.62396 5.61762
#
# Compressibility (1/GPa) = 0.05873987
#
# Stress axis : x y z
#
# Youngs Moduli (GPa) = 65.72594 31.25791 70.63884
#
# Poissons Ratio (x) = -0.17728 0.17416
# Poissons Ratio (y) = -0.37276 0.31911
# Poissons Ratio (z) = 0.16205 0.14121
#
# Static dielectric constant tensor:
#      x y z
#    x 2.103340 -0.055110 0.005620 
#    y -0.055110 1.892270 -0.057510 
#    z 0.005620 -0.057510 2.029610 
# 
# From -- ./inp_files/386796.got.cif
#   From: 2010.05.17/outbox.cif.g08.bks.cpg/sg2_194_cif.got.tgz:386796.got - 2010.06.03 11:33:40.
