data_PCOD9085938
_publ_section_title
;
Structure prediction by ZEFSAII (Michael W. Deem and Ramdas Pophale) SiO2 
 PCOD9085938
Probable space group: P -1
;
_chemical_formula_sum "Si O2"
_cell_formula_units_Z 14
_cell_length_a 24.618709
_cell_length_b 9.854055
_cell_length_c 19.167675
_cell_angle_alpha 30.809392
_cell_angle_beta 163.043964
_cell_angle_gamma 141.460090
_cell_volume 670.021261
_symmetry_space_group_name_H-M "P -1"
_symmetry_group_IT_number 2
_symmetry_cell_setting 'triclinic'
loop_
_space_group_symop_operation_xyz
x,y,z
-x,-y,-z
loop_
_atom_site_type_symbol
_atom_site_label
_atom_site_fract_x
_atom_site_fract_y
_atom_site_fract_z
Si Si1 0.599618 0.820016 0.636786
Si Si2 0.610662 0.231068 0.945107
Si Si3 0.246254 0.135222 0.843498
Si Si4 0.367499 0.794881 0.857442
Si Si5 0.034441 0.173896 0.700712
Si Si6 0.584885 0.206041 0.320566
Si Si7 0.003298 0.738262 0.234278
O O1 0.538660 0.537111 0.692332
O O2 0.500000 0.000000 0.500000
O O3 0.552402 0.989138 0.433209
O O4 0.832443 0.754647 0.962777
O O5 0.461362 0.047733 0.855256
O O6 0.688270 0.249438 0.110955
O O7 0.743079 0.064582 0.120210
O O8 0.164313 0.033585 0.858113
O O9 0.107073 0.424608 0.520975
O O10 0.451766 0.184773 0.099336
O O11 0.175446 0.870735 0.543231
O O12 0.504739 0.508804 0.123466
O O13 0.000000 0.500000 0.500000
O O14 0.097954 0.118220 0.882608
O O15 0.812798 0.153521 0.609357
#
# Coordination Sequence:
#
# PCOD9085938 Si02
#       7
#     2   2   2   2   2   2   2
#     4  12  26  43  64  93 140 174 209 263 339 387
#     4  11  24  41  63 100 132 168 213 279 319 376
#     4  11  22  39  72  98 127 163 227 268 318 373
#     4  11  21  40  66  99 127 168 219 267 313 381
#     4  10  19  35  65 100 124 161 217 267 312 372
#     4  12  22  43  68  97 128 174 213 266 326 395
#     4  11  22  40  68  98 124 173 222 262 313 393
#
# _framework density 20.894857999999999
#
# number of rings (size 3 to 8) (size 9 to 14) (size 15 to 20)
#    0.000    0.857    5.714    4.286    0.000    2.857 
#    0.000    0.000    0.000    3.429    0.000    0.000 
#    0.000    0.000    0.000    0.000    0.000    0.000 
#
# Total GULP energy -78174.191202 kJ/mol
# GULP energy per Si atom -5583.870800 kJ/mol
# Density = 2.084730 g / cm^3
# Si number density = 20.894858 Si / 1000 Ang^3
#
#
#
# Elastic Constant Matrix: (Units=GPa)
#
#
# Indices 1 2 3 4 5 6 
#
# 1 126.6193 13.7814 21.0434 -19.7696 3.2731 -6.7857
# 2 13.7814 47.4942 27.0358 -17.2909 -10.2991 5.1676
# 3 21.0434 27.0358 75.9460 7.9534 -12.1657 4.3480
# 4 -19.7696 -17.2909 7.9534 35.5271 0.0013 -3.0968
# 5 3.2731 -10.2991 -12.1657 0.0013 32.5776 0.3553
# 6 -6.7857 5.1676 4.3480 -3.0968 0.3553 36.2268
#
#
#
# Elastic Compliance Matrix: (Units=1/GPa)
#
#
# Indices 1 2 3 4 5 6 
#
# 1 0.009893 0.001828 -0.004714 0.007698 -0.002208 0.002838
# 2 0.001828 0.039992 -0.016138 0.023968 0.006448 -0.001440
# 3 -0.004714 -0.016138 0.022643 -0.015781 0.003857 -0.002685
# 4 0.007698 0.023968 -0.015781 0.047978 0.000865 0.004010
# 5 -0.002208 0.006448 0.003857 0.000865 0.034419 -0.002060
# 6 0.002838 -0.001440 -0.002685 0.004010 -0.002060 0.029026
#
#
# Mechanical properties :
#
#
# Convention : Reuss Voigt Hill
#
# Bulk Modulus (GPa) = 29.00302 41.53117 35.26709
# Shear Modulus (GPa) = 21.41396 33.41290 27.41343
#
# Velocity S-wave (km/s) = 3.20479 4.00321 3.62604
# Velocity P-wave (km/s) = 5.25403 6.42550 5.86906
#
# Compressibility (1/GPa) = 0.03447917
#
# Stress axis : x y z
#
# Youngs Moduli (GPa) = 101.07919 25.00508 44.16472
#
# Poissons Ratio (x) = -0.04570 0.20820
# Poissons Ratio (y) = -0.18473 0.71272
# Poissons Ratio (z) = 0.47650 0.40352
#
# Static dielectric constant tensor:
#      x y z
#    x 1.802060 -0.007690 0.029580 
#    y -0.007690 1.760530 0.031880 
#    z 0.029580 0.031880 1.735010 
# 
# From -- ./inp_files/184468.got.cif
#   From: 2010.05.17/outbox.cif.g08.bks.cpg/sg2_93_cif.got.tgz:184468.got - 2010.06.03 11:33:40.
