data_PCOD9085503
_publ_section_title
;
Structure prediction by ZEFSAII (Michael W. Deem and Ramdas Pophale) SiO2 
 PCOD9085503
Probable space group: P -1
;
_chemical_formula_sum "Si O2"
_cell_formula_units_Z 16
_cell_length_a 8.252463
_cell_length_b 17.376856
_cell_length_c 6.747288
_cell_angle_alpha 43.789631
_cell_angle_beta 71.982667
_cell_angle_gamma 88.067009
_cell_volume 609.753485
_symmetry_space_group_name_H-M "P -1"
_symmetry_group_IT_number 2
_symmetry_cell_setting 'triclinic'
loop_
_space_group_symop_operation_xyz
x,y,z
-x,-y,-z
loop_
_atom_site_type_symbol
_atom_site_label
_atom_site_fract_x
_atom_site_fract_y
_atom_site_fract_z
Si Si1 0.178512 0.405761 0.599510
Si Si2 0.925418 0.044286 0.748391
Si Si3 0.700464 0.533861 0.959281
Si Si4 0.735368 0.755562 0.726861
Si Si5 0.588547 0.151348 0.303269
Si Si6 0.707300 0.805907 0.170359
Si Si7 0.805067 0.373653 0.994774
Si Si8 0.388632 0.900621 0.013784
O O1 0.147088 0.398296 0.383747
O O2 0.273253 0.303492 0.763734
O O3 0.265681 0.546096 0.290348
O O4 0.007290 0.389463 0.829048
O O5 0.078602 0.160940 0.421074
O O6 0.752796 0.078017 0.822772
O O7 0.857670 0.929778 0.849833
O O8 0.000000 0.000000 0.000000
O O9 0.708681 0.616249 0.990156
O O10 0.756830 0.415477 0.150705
O O11 0.500000 0.500000 0.000000
O O12 0.579729 0.804428 0.776254
O O13 0.719792 0.777337 0.452790
O O14 0.702010 0.151217 0.062961
O O15 0.512807 0.025923 0.660246
O O16 0.701932 0.243435 0.237989
O O17 0.519551 0.830578 0.168751
#
# Coordination Sequence:
#
# PCOD9085503 Si02
#       8
#     2   2   2   2   2   2   2   2
#     4   8  18  32  56  79 108 141 191 225 276 328
#     4  10  20  34  59  80 110 148 191 228 267 342
#     4   9  15  29  55  88 104 139 187 232 268 320
#     4  10  19  35  61  83 112 142 196 228 272 337
#     4  11  22  35  54  84 116 144 191 230 283 329
#     4  10  20  37  59  81 113 148 191 228 283 336
#     4   9  18  32  55  83 107 146 185 235 269 335
#     4  11  24  36  55  82 119 150 184 231 288 335
#
# _framework density 26.240113000000001
#
# number of rings (size 3 to 8) (size 9 to 14) (size 15 to 20)
#    0.750    1.500    3.750    0.375    5.250    0.000 
#    0.000    3.125    0.000    0.000    0.000    6.125 
#    0.000    0.000    0.000    0.000    0.000    0.000 
#
# Total GULP energy -89246.810739 kJ/mol
# GULP energy per Si atom -5577.925671 kJ/mol
# Density = 2.618039 g / cm^3
# Si number density = 26.240113 Si / 1000 Ang^3
#
#
#
# Elastic Constant Matrix: (Units=GPa)
#
#
# Indices 1 2 3 4 5 6 
#
# 1 94.8025 38.4490 28.9197 -6.4741 10.6042 -15.9747
# 2 38.4490 167.1600 23.8904 -25.2738 0.2040 -12.8411
# 3 28.9197 23.8904 84.2223 -20.4491 5.2719 -1.0690
# 4 -6.4741 -25.2738 -20.4491 35.8985 -11.5356 -1.7222
# 5 10.6042 0.2040 5.2719 -11.5356 28.5581 -9.8065
# 6 -15.9747 -12.8411 -1.0690 -1.7222 -9.8065 28.8036
#
#
#
# Elastic Compliance Matrix: (Units=1/GPa)
#
#
# Indices 1 2 3 4 5 6 
#
# 1 0.014053 -0.002638 -0.004468 -0.002856 -0.003817 0.004981
# 2 -0.002638 0.007970 0.000090 0.007078 0.005242 0.004301
# 3 -0.004468 0.000090 0.015340 0.008639 0.002097 -0.000638
# 4 -0.002856 0.007078 0.008639 0.044753 0.021584 0.011916
# 5 -0.003817 0.005242 0.002097 0.021584 0.051267 0.019043
# 6 0.004981 0.004301 -0.000638 0.011916 0.019043 0.046570
#
#
# Mechanical properties :
#
#
# Convention : Reuss Voigt Hill
#
# Bulk Modulus (GPa) = 42.86256 58.74479 50.80368
# Shear Modulus (GPa) = 24.78153 35.64707 30.21430
#
# Velocity S-wave (km/s) = 3.07647 3.68978 3.39699
# Velocity P-wave (km/s) = 5.38421 6.37092 5.89823
#
# Compressibility (1/GPa) = 0.02333038
#
# Stress axis : x y z
#
# Youngs Moduli (GPa) = 71.16124 125.46411 65.18769
#
# Poissons Ratio (x) = 0.33100 0.29127
# Poissons Ratio (y) = 0.18774 -0.00586
# Poissons Ratio (z) = 0.31796 -0.01128
#
# Static dielectric constant tensor:
#      x y z
#    x 2.075610 0.035840 0.077830 
#    y 0.035840 2.158140 -0.037200 
#    z 0.077830 -0.037200 2.215050 
# 
# From -- ./inp_files/216435.got.cif
#   From: 2010.05.17/outbox.cif.g08.bks.cpg/sg2_109_cif.got.tgz:216435.got - 2010.06.03 11:33:40.
