data_PCOD9085793
_publ_section_title
;
Structure prediction by ZEFSAII (Michael W. Deem and Ramdas Pophale) SiO2 
 PCOD9085793
Probable space group: P -1
;
_chemical_formula_sum "Si O2"
_cell_formula_units_Z 16
_cell_length_a 7.853146
_cell_length_b 5.429103
_cell_length_c 22.177012
_cell_angle_alpha 59.714958
_cell_angle_beta 131.152690
_cell_angle_gamma 119.577052
_cell_volume 595.461173
_symmetry_space_group_name_H-M "P -1"
_symmetry_group_IT_number 2
_symmetry_cell_setting 'triclinic'
loop_
_space_group_symop_operation_xyz
x,y,z
-x,-y,-z
loop_
_atom_site_type_symbol
_atom_site_label
_atom_site_fract_x
_atom_site_fract_y
_atom_site_fract_z
Si Si1 0.295678 0.191842 0.176053
Si Si2 0.265356 0.871869 0.501410
Si Si3 0.446929 0.538828 0.678536
Si Si4 0.621464 0.139746 0.072610
Si Si5 0.779097 0.531433 0.561502
Si Si6 0.737001 0.021984 0.236482
Si Si7 0.815423 0.688828 0.989042
Si Si8 0.862171 0.388606 0.725895
O O1 0.394348 0.364650 0.237564
O O2 0.509618 0.093306 0.205770
O O3 0.209645 0.372888 0.080594
O O4 0.118621 0.889936 0.194787
O O5 0.348496 0.794927 0.595688
O O6 0.158326 0.576764 0.475119
O O7 0.500000 0.000000 0.500000
O O8 0.126192 0.123224 0.443562
O O9 0.614720 0.451281 0.678825
O O10 0.247005 0.262271 0.687615
O O11 0.697679 0.942621 0.166039
O O12 0.426475 0.257225 0.048767
O O13 0.833274 0.411162 0.067778
O O14 0.500000 0.000000 0.000000
O O15 0.500000 0.500000 0.500000
O O16 0.844911 0.344485 0.655363
O O17 0.939850 0.317727 0.250753
O O18 0.000000 0.000000 0.000000
#
# Coordination Sequence:
#
# PCOD9085793 Si02
#       8
#     2   2   2   2   2   2   2   2
#     4  10  22  39  60  87 123 160 199 255 314 371
#     4  10  19  35  63  88 121 165 213 260 319 377
#     4  11  22  38  63  85 120 160 204 256 311 376
#     4  10  21  39  61  83 125 160 195 255 308 367
#     4  10  19  36  62  90 121 167 214 260 322 379
#     4  10  24  40  56  93 121 156 205 253 314 373
#     4  10  21  37  60  90 118 157 205 249 305 373
#     4  11  22  38  63  85 122 160 205 258 310 376
#
# _framework density 26.86993
#
# number of rings (size 3 to 8) (size 9 to 14) (size 15 to 20)
#    0.000    1.750    2.500    3.000    1.750    2.500 
#    0.000    1.250    0.000    0.000    0.000    0.000 
#    0.000    0.000    0.000    0.000    0.000    0.000 
#
# Total GULP energy -89635.554228 kJ/mol
# GULP energy per Si atom -5602.222139 kJ/mol
# Density = 2.680877 g / cm^3
# Si number density = 26.869930 Si / 1000 Ang^3
#
#
#
# Elastic Constant Matrix: (Units=GPa)
#
#
# Indices 1 2 3 4 5 6 
#
# 1 132.2049 17.3140 18.1695 -1.9718 -30.3455 10.4920
# 2 17.3140 142.3864 38.3291 -9.0054 -26.4277 22.3999
# 3 18.1695 38.3291 150.8749 -12.3977 -36.6942 11.1996
# 4 -1.9718 -9.0054 -12.3977 55.2187 -5.7582 -15.3023
# 5 -30.3455 -26.4277 -36.6942 -5.7582 34.1601 2.7707
# 6 10.4920 22.3999 11.1996 -15.3023 2.7707 48.0953
#
#
#
# Elastic Compliance Matrix: (Units=1/GPa)
#
#
# Indices 1 2 3 4 5 6 
#
# 1 0.010368 0.001239 0.001911 0.001334 0.012737 -0.003593
# 2 0.001239 0.009351 0.000139 0.001219 0.009078 -0.004793
# 3 0.001911 0.000139 0.010042 0.003005 0.013312 -0.002631
# 4 0.001334 0.001219 0.003005 0.021226 0.008552 0.004702
# 5 0.012737 0.009078 0.013312 0.008552 0.064253 -0.011087
# 6 -0.003593 -0.004793 -0.002631 0.004702 -0.011087 0.026556
#
#
# Mechanical properties :
#
#
# Convention : Reuss Voigt Hill
#
# Bulk Modulus (GPa) = 27.51886 63.67682 45.59784
# Shear Modulus (GPa) = 33.93702 50.93841 42.43772
#
# Velocity S-wave (km/s) = 3.55774 4.35873 3.97845
# Velocity P-wave (km/s) = 5.20965 7.00579 6.17339
#
# Compressibility (1/GPa) = 0.03633871
#
# Stress axis : x y z
#
# Youngs Moduli (GPa) = 96.45216 106.93802 99.57696
#
# Poissons Ratio (x) = -0.13245 -0.19028
# Poissons Ratio (y) = -0.11946 -0.01385
# Poissons Ratio (z) = -0.18431 -0.01488
#
# Static dielectric constant tensor:
#      x y z
#    x 2.090030 -0.054250 0.053950 
#    y -0.054250 2.039450 0.055480 
#    z 0.053950 0.055480 2.048540 
# 
# From -- ./inp_files/112398.got.cif
#   From: 2010.05.17/outbox.cif.g08.bks.cpg/sg2_57_cif.got.tgz:112398.got - 2010.06.03 11:33:40.
