data_PCOD9085805
_publ_section_title
;
Structure prediction by ZEFSAII (Michael W. Deem and Ramdas Pophale) SiO2 
 PCOD9085805
Probable space group: P -1
;
_chemical_formula_sum "Si O2"
_cell_formula_units_Z 16
_cell_length_a 11.579544
_cell_length_b 22.244084
_cell_length_c 5.169842
_cell_angle_alpha 92.850282
_cell_angle_beta 95.117478
_cell_angle_gamma 35.131413
_cell_volume 762.609627
_symmetry_space_group_name_H-M "P -1"
_symmetry_group_IT_number 2
_symmetry_cell_setting 'triclinic'
loop_
_space_group_symop_operation_xyz
x,y,z
-x,-y,-z
loop_
_atom_site_type_symbol
_atom_site_label
_atom_site_fract_x
_atom_site_fract_y
_atom_site_fract_z
Si Si1 0.654318 0.670158 0.899084
Si Si2 0.649835 0.499708 0.201689
Si Si3 0.604289 0.822107 0.008299
Si Si4 0.933686 0.478486 0.286218
Si Si5 0.004781 0.191500 0.445578
Si Si6 0.574325 0.037428 0.499323
Si Si7 0.991102 0.277997 0.974830
Si Si8 0.550350 0.359840 0.323042
O O1 0.547088 0.666686 0.689723
O O2 0.855758 0.618145 0.831295
O O3 0.542774 0.777174 0.994052
O O4 0.752987 0.585516 0.115479
O O5 0.842877 0.454632 0.346579
O O6 0.508681 0.569091 0.439648
O O7 0.773770 0.393144 0.065490
O O8 0.532271 0.577595 0.948985
O O9 0.496342 0.899582 0.243247
O O10 0.841762 0.741409 0.052741
O O11 0.523024 0.886276 0.743214
O O12 0.000000 0.500000 0.500000
O O13 0.975483 0.246682 0.701444
O O14 0.790073 0.253156 0.351642
O O15 0.066746 0.204236 0.209453
O O16 0.185185 0.069004 0.507454
O O17 0.500000 0.000000 0.500000
#
# Coordination Sequence:
#
# PCOD9085805 Si02
#       8
#     2   2   2   2   2   2   2   2
#     4  10  23  38  61  96 127 165 206 256 310 368
#     4  11  23  38  63  96 128 167 206 248 309 370
#     4  12  24  40  69 100 122 154 211 277 316 359
#     4  10  19  35  63  89 130 167 204 248 306 370
#     4  12  26  43  64  87 126 171 211 256 317 370
#     4  12  24  44  67  93 124 159 214 269 324 362
#     4  12  23  39  66  96 124 159 211 262 307 377
#     4  11  25  43  60  89 134 175 201 243 308 389
#
# _framework density 20.980591
#
# number of rings (size 3 to 8) (size 9 to 14) (size 15 to 20)
#    0.000    0.750    5.000    2.625    1.750    4.000 
#    0.000    1.250    0.000    0.000    0.000    0.000 
#    0.000    0.000    0.000    0.000    0.000    0.000 
#
# Total GULP energy -89143.588320 kJ/mol
# GULP energy per Si atom -5571.474270 kJ/mol
# Density = 2.093284 g / cm^3
# Si number density = 20.980591 Si / 1000 Ang^3
#
#
#
# Elastic Constant Matrix: (Units=GPa)
#
#
# Indices 1 2 3 4 5 6 
#
# 1 86.0090 44.0165 24.2888 6.9397 22.1528 -7.8263
# 2 44.0165 118.6181 57.8870 -0.8743 18.5427 5.0375
# 3 24.2888 57.8870 163.0725 1.5783 17.9443 17.2773
# 4 6.9397 -0.8743 1.5783 40.1299 5.3970 -0.2709
# 5 22.1528 18.5427 17.9443 5.3970 21.3073 0.8753
# 6 -7.8263 5.0375 17.2773 -0.2709 0.8753 45.2221
#
#
#
# Elastic Compliance Matrix: (Units=1/GPa)
#
#
# Indices 1 2 3 4 5 6 
#
# 1 0.018284 -0.004723 0.000193 -0.001241 -0.014907 0.003898
# 2 -0.004723 0.012353 -0.003217 0.001680 -0.003520 -0.000886
# 3 0.000193 -0.003217 0.007960 0.000108 -0.004026 -0.002571
# 4 -0.001241 0.001680 0.000108 0.026088 -0.006864 -0.000154
# 5 -0.014907 -0.003520 -0.004026 -0.006864 0.070708 -0.002059
# 6 0.003898 -0.000886 -0.002571 -0.000154 -0.002059 0.023908
#
#
# Mechanical properties :
#
#
# Convention : Reuss Voigt Hill
#
# Bulk Modulus (GPa) = 43.28526 68.89823 56.09175
# Shear Modulus (GPa) = 27.39801 37.43234 32.41518
#
# Velocity S-wave (km/s) = 3.61761 4.22849 3.93492
# Velocity P-wave (km/s) = 6.17457 7.53329 6.88752
#
# Compressibility (1/GPa) = 0.02310255
#
# Stress axis : x y z
#
# Youngs Moduli (GPa) = 54.69342 80.95171 125.63261
#
# Poissons Ratio (x) = 0.38234 -0.02421
# Poissons Ratio (y) = 0.25832 0.40411
# Poissons Ratio (z) = -0.01054 0.26039
#
# Static dielectric constant tensor:
#      x y z
#    x 1.051450 0.120090 -0.184520 
#    y 0.120090 1.725710 0.010810 
#    z -0.184520 0.010810 1.699280 
# 
# From -- ./inp_files/83309.got.cif
#   From: 2010.05.17/outbox.cif.g08.bks.cpg/sg2_42_cif.got.tgz:83309.got - 2010.06.03 11:33:40.
