data_PCOD9085736
_publ_section_title
;
Structure prediction by ZEFSAII (Michael W. Deem and Ramdas Pophale) SiO2 
 PCOD9085736
Probable space group: P -1
;
_chemical_formula_sum "Si O2"
_cell_formula_units_Z 16
_cell_length_a 7.769685
_cell_length_b 5.564328
_cell_length_c 22.411465
_cell_angle_alpha 91.921898
_cell_angle_beta 131.164727
_cell_angle_gamma 62.252876
_cell_volume 588.901288
_symmetry_space_group_name_H-M "P -1"
_symmetry_group_IT_number 2
_symmetry_cell_setting 'triclinic'
loop_
_space_group_symop_operation_xyz
x,y,z
-x,-y,-z
loop_
_atom_site_type_symbol
_atom_site_label
_atom_site_fract_x
_atom_site_fract_y
_atom_site_fract_z
Si Si1 0.213653 0.269822 0.680859
Si Si2 0.767470 0.211818 0.525591
Si Si3 0.914865 0.317101 0.829642
Si Si4 0.478428 0.434419 0.642554
Si Si5 0.169180 0.663820 0.921357
Si Si6 0.123721 0.144445 0.345744
Si Si7 0.354080 0.008563 0.117682
Si Si8 0.520841 0.394618 0.156566
O O1 0.310567 0.411652 0.657461
O O2 0.482336 0.054632 0.781892
O O3 0.061364 0.157776 0.609197
O O4 0.971765 0.521172 0.672430
O O5 0.500000 0.500000 0.500000
O O6 0.702310 0.297423 0.442639
O O7 0.794099 0.951731 0.566954
O O8 0.099411 0.442419 0.878085
O O9 0.716149 0.448142 0.727947
O O10 0.711967 0.443907 0.842448
O O11 0.057655 0.964158 0.860656
O O12 0.628518 0.120749 0.638984
O O13 0.500000 0.500000 0.000000
O O14 0.975454 0.796734 0.938777
O O15 0.833841 0.197481 0.255788
O O16 0.475426 0.682940 0.118622
O O17 0.443230 0.193434 0.104574
#
# Coordination Sequence:
#
# PCOD9085736 Si02
#       8
#     2   2   2   2   2   2   2   2
#     4  11  20  41  58  83 126 165 218 269 315 380
#     4  10  23  39  57  87 124 165 227 260 322 375
#     4  10  20  38  56  95 126 160 217 254 321 396
#     4  11  22  39  57  91 124 166 215 276 311 377
#     4  10  19  35  62  93 128 159 204 267 319 392
#     4  10  21  38  58  82 120 170 220 254 324 363
#     4   9  17  31  61  82 117 156 207 245 312 374
#     4   9  16  34  57  79 116 159 200 255 294 378
#
# _framework density 27.169238
#
# number of rings (size 3 to 8) (size 9 to 14) (size 15 to 20)
#    0.000    2.000    5.000    0.750    0.000    2.500 
#    6.750    0.000    0.000    0.000    0.000   33.250 
#    0.000    0.000    0.000    0.000    0.000    0.000 
#
# Total GULP energy -89592.554309 kJ/mol
# GULP energy per Si atom -5599.534644 kJ/mol
# Density = 2.710740 g / cm^3
# Si number density = 27.169238 Si / 1000 Ang^3
#
#
#
# Elastic Constant Matrix: (Units=GPa)
#
#
# Indices 1 2 3 4 5 6 
#
# 1 115.8676 32.2023 24.3463 9.2935 10.2322 3.1417
# 2 32.2023 131.4086 39.5368 -4.1180 3.6513 23.5336
# 3 24.3463 39.5368 135.6464 3.3512 15.7670 13.2184
# 4 9.2935 -4.1180 3.3512 45.4876 -0.0760 9.3938
# 5 10.2322 3.6513 15.7670 -0.0760 33.6839 8.7358
# 6 3.1417 23.5336 13.2184 9.3938 8.7358 37.4274
#
#
#
# Elastic Compliance Matrix: (Units=1/GPa)
#
#
# Indices 1 2 3 4 5 6 
#
# 1 0.009957 -0.002637 -0.000847 -0.002733 -0.002999 0.002507
# 2 -0.002637 0.010143 -0.002191 0.003009 0.002475 -0.006716
# 3 -0.000847 -0.002191 0.008634 -0.000526 -0.003371 -0.000682
# 4 -0.002733 0.003009 -0.000526 0.024581 0.002969 -0.008339
# 5 -0.002999 0.002475 -0.003371 0.002969 0.034209 -0.008844
# 6 0.002507 -0.006716 -0.000682 -0.008339 -0.008844 0.035129
#
#
# Mechanical properties :
#
#
# Convention : Reuss Voigt Hill
#
# Bulk Modulus (GPa) = 57.51784 63.89928 60.70856
# Shear Modulus (GPa) = 35.76607 42.44226 39.10417
#
# Velocity S-wave (km/s) = 3.63218 3.95668 3.79790
# Velocity P-wave (km/s) = 6.22949 6.66662 6.45176
#
# Compressibility (1/GPa) = 0.01738591
#
# Stress axis : x y z
#
# Youngs Moduli (GPa) = 100.42814 98.58594 115.82171
#
# Poissons Ratio (x) = 0.25994 0.09809
# Poissons Ratio (y) = 0.26479 0.25375
# Poissons Ratio (z) = 0.08505 0.21599
#
# Static dielectric constant tensor:
#      x y z
#    x 2.120960 0.042660 -0.010160 
#    y 0.042660 2.177160 0.001130 
#    z -0.010160 0.001130 2.089300 
# 
# From -- ./inp_files/547323.got.cif
#   From: 2010.05.17/outbox.cif.g08.bks.cpg/sg2_274_cif.got.tgz:547323.got - 2010.06.03 11:33:40.
