data_PCOD9085727
_publ_section_title
;
Structure prediction by ZEFSAII (Michael W. Deem and Ramdas Pophale) SiO2 
 PCOD9085727
Probable space group: P -1
;
_chemical_formula_sum "Si O2"
_cell_formula_units_Z 14
_cell_length_a 7.473653
_cell_length_b 10.227456
_cell_length_c 10.151107
_cell_angle_alpha 121.151589
_cell_angle_beta 80.732881
_cell_angle_gamma 75.351230
_cell_volume 601.208136
_symmetry_space_group_name_H-M "P -1"
_symmetry_group_IT_number 2
_symmetry_cell_setting 'triclinic'
loop_
_space_group_symop_operation_xyz
x,y,z
-x,-y,-z
loop_
_atom_site_type_symbol
_atom_site_label
_atom_site_fract_x
_atom_site_fract_y
_atom_site_fract_z
Si Si1 0.423420 0.075221 0.255864
Si Si2 0.258863 0.243001 0.094632
Si Si3 0.633164 0.708249 0.363771
Si Si4 0.962843 0.792989 0.277163
Si Si5 0.724776 0.100054 0.640884
Si Si6 0.490232 0.563148 0.881679
Si Si7 0.072696 0.826568 0.985224
O O1 0.430676 0.188926 0.438998
O O2 0.614406 0.920654 0.095947
O O3 0.260767 0.003134 0.282528
O O4 0.337975 0.194418 0.206244
O O5 0.028120 0.278402 0.138116
O O6 0.319956 0.392189 0.125939
O O7 0.556774 0.562319 0.276396
O O8 0.857117 0.675384 0.279010
O O9 0.505254 0.829356 0.326033
O O10 0.829930 0.971782 0.447455
O O11 0.695386 0.265537 0.054249
O O12 0.978105 0.820352 0.136165
O O13 0.821956 0.232763 0.706503
O O14 0.500000 0.500000 0.000000
O O15 0.000000 0.000000 0.000000
#
# Coordination Sequence:
#
# PCOD9085727 Si02
#       7
#     2   2   2   2   2   2   2
#     4  10  20  41  66  93 126 168 218 265 315 379
#     4  11  23  41  66  91 127 171 214 265 316 376
#     4  11  23  39  61  92 131 168 208 261 322 382
#     4  10  20  35  61  93 123 164 214 262 311 372
#     4  10  19  35  62  92 124 163 213 264 311 376
#     4  12  27  43  63  97 135 168 209 265 325 382
#     4  12  24  41  67  95 125 170 220 260 312 384
#
# _framework density 23.286443999999999
#
# number of rings (size 3 to 8) (size 9 to 14) (size 15 to 20)
#    0.000    1.143    0.000    9.429    0.000    4.000 
#    0.000    0.714    0.000    0.000    0.000    0.000 
#    0.000    0.000    0.000    0.000    0.000    0.000 
#
# Total GULP energy -78010.926098 kJ/mol
# GULP energy per Si atom -5572.209007 kJ/mol
# Density = 2.323344 g / cm^3
# Si number density = 23.286444 Si / 1000 Ang^3
#
#
#
# Elastic Constant Matrix: (Units=GPa)
#
#
# Indices 1 2 3 4 5 6 
#
# 1 104.9475 18.7426 5.8320 5.5415 27.7834 16.0235
# 2 18.7426 91.2474 35.9898 8.0852 18.1512 10.6110
# 3 5.8320 35.9898 108.5328 5.6843 15.6421 3.9679
# 4 5.5415 8.0852 5.6843 43.5176 8.4450 9.1984
# 5 27.7834 18.1512 15.6421 8.4450 32.9517 7.9031
# 6 16.0235 10.6110 3.9679 9.1984 7.9031 35.7467
#
#
#
# Elastic Compliance Matrix: (Units=1/GPa)
#
#
# Indices 1 2 3 4 5 6 
#
# 1 0.012839 -0.000682 0.001108 0.001139 -0.010387 -0.003672
# 2 -0.000682 0.013804 -0.003772 -0.000637 -0.004547 -0.002204
# 3 0.001108 -0.003772 0.010994 -0.000151 -0.004121 0.000353
# 4 0.001139 -0.000637 -0.000151 0.025246 -0.005678 -0.005546
# 5 -0.010387 -0.004547 -0.004121 -0.005678 0.045535 -0.002143
# 6 -0.003672 -0.002204 0.000353 -0.005546 -0.002143 0.032137
#
#
# Mechanical properties :
#
#
# Convention : Reuss Voigt Hill
#
# Bulk Modulus (GPa) = 32.31462 47.31739 39.81600
# Shear Modulus (GPa) = 31.73358 38.72076 35.22717
#
# Velocity S-wave (km/s) = 3.69555 4.08217 3.89366
# Velocity P-wave (km/s) = 5.66715 6.52554 6.11143
#
# Compressibility (1/GPa) = 0.03094575
#
# Stress axis : x y z
#
# Youngs Moduli (GPa) = 77.88713 72.44233 90.95934
#
# Poissons Ratio (x) = 0.04939 -0.10076
# Poissons Ratio (y) = 0.05311 0.34306
# Poissons Ratio (z) = -0.08628 0.27322
#
# Static dielectric constant tensor:
#      x y z
#    x 1.974160 -0.015320 -0.012160 
#    y -0.015320 1.892280 0.057410 
#    z -0.012160 0.057410 1.899330 
# 
# From -- ./inp_files/250725.got.cif
#   From: 2010.05.17/outbox.cif.g08.bks.cpg/sg2_126_cif.got.tgz:250725.got - 2010.06.03 11:33:40.
