data_PCOD9085966
_publ_section_title
;
Structure prediction by ZEFSAII (Michael W. Deem and Ramdas Pophale) SiO2 
 PCOD9085966
Probable space group: P -1
;
_chemical_formula_sum "Si O2"
_cell_formula_units_Z 16
_cell_length_a 11.746787
_cell_length_b 16.402179
_cell_length_c 8.683953
_cell_angle_alpha 148.707333
_cell_angle_beta 126.721551
_cell_angle_gamma 52.883106
_cell_volume 679.182843
_symmetry_space_group_name_H-M "P -1"
_symmetry_group_IT_number 2
_symmetry_cell_setting 'triclinic'
loop_
_space_group_symop_operation_xyz
x,y,z
-x,-y,-z
loop_
_atom_site_type_symbol
_atom_site_label
_atom_site_fract_x
_atom_site_fract_y
_atom_site_fract_z
Si Si1 0.181138 0.230396 0.272189
Si Si2 0.327172 0.701809 0.802870
Si Si3 0.135722 0.261921 0.789347
Si Si4 0.606489 0.799474 0.889211
Si Si5 0.932582 0.071596 0.898334
Si Si6 0.579131 0.984626 0.703457
Si Si7 0.113042 0.498677 0.863277
Si Si8 0.400299 0.552818 0.305299
O O1 0.278565 0.211128 0.169545
O O2 0.297278 0.168754 0.405149
O O3 0.105921 0.408389 0.552337
O O4 0.063165 0.121296 0.992679
O O5 0.323166 0.588636 0.469418
O O6 0.474993 0.611689 0.861180
O O7 0.189911 0.765134 0.903446
O O8 0.343322 0.866684 0.003722
O O9 0.103591 0.367146 0.777784
O O10 0.127178 0.075901 0.459298
O O11 0.295130 0.265150 0.986287
O O12 0.015326 0.349528 0.955676
O O13 0.492295 0.690460 0.579961
O O14 0.525888 0.975217 0.168716
O O15 0.000000 0.000000 0.000000
O O16 0.500000 0.000000 0.500000
O O17 0.268111 0.548503 0.079524
#
# Coordination Sequence:
#
# PCOD9085966 Si02
#       8
#     2   2   2   2   2   2   2   2
#     4  12  26  42  67 100 141 178 217 279 348 401
#     4  10  19  35  65  96 124 167 221 283 321 380
#     4  11  24  42  68 100 133 174 231 281 332 401
#     4  11  26  43  65 100 143 179 216 275 347 408
#     4  12  22  40  68 100 132 173 231 284 331 394
#     4  11  21  41  69  96 127 173 234 273 323 394
#     4  11  23  41  69  98 128 179 230 282 327 394
#     4  10  22  39  65  98 135 172 224 276 334 394
#
# _framework density 23.557721000000001
#
# number of rings (size 3 to 8) (size 9 to 14) (size 15 to 20)
#    0.000    1.000    2.500    5.625    5.250    1.500 
#    0.000    0.000    0.000    0.000    0.000    0.000 
#    0.000    0.000    0.000    0.000    0.000    0.000 
#
# Total GULP energy -89441.368754 kJ/mol
# GULP energy per Si atom -5590.085547 kJ/mol
# Density = 2.350410 g / cm^3
# Si number density = 23.557721 Si / 1000 Ang^3
#
#
#
# Elastic Constant Matrix: (Units=GPa)
#
#
# Indices 1 2 3 4 5 6 
#
# 1 145.8546 13.6349 65.5409 18.7706 -11.6346 -3.4269
# 2 13.6349 68.8709 24.1654 6.7741 -9.3884 -25.9489
# 3 65.5409 24.1654 116.3633 12.1407 6.3386 -5.2047
# 4 18.7706 6.7741 12.1407 19.5960 -12.7664 -10.7559
# 5 -11.6346 -9.3884 6.3386 -12.7664 50.9150 5.1432
# 6 -3.4269 -25.9489 -5.2047 -10.7559 5.1432 28.9910
#
#
#
# Elastic Compliance Matrix: (Units=1/GPa)
#
#
# Indices 1 2 3 4 5 6 
#
# 1 0.010144 -0.000487 -0.005073 -0.007196 0.001364 -0.003060
# 2 -0.000487 0.025895 -0.005650 0.013190 0.006055 0.025925
# 3 -0.005073 -0.005650 0.013505 -0.007892 -0.005334 -0.005213
# 4 -0.007196 0.013190 -0.007892 0.094587 0.021361 0.040842
# 5 0.001364 0.006055 -0.005334 0.021361 0.026293 0.007884
# 6 -0.003060 0.025925 -0.005213 0.040842 0.007884 0.070155
#
#
# Mechanical properties :
#
#
# Convention : Reuss Voigt Hill
#
# Bulk Modulus (GPa) = 36.86707 59.75235 48.30971
# Shear Modulus (GPa) = 18.37970 35.08359 26.73165
#
# Velocity S-wave (km/s) = 2.79623 3.86328 3.37223
# Velocity P-wave (km/s) = 5.10969 6.73195 5.97612
#
# Compressibility (1/GPa) = 0.02712448
#
# Stress axis : x y z
#
# Youngs Moduli (GPa) = 98.57769 38.61781 74.04652
#
# Poissons Ratio (x) = 0.01882 0.37563
# Poissons Ratio (y) = 0.04805 0.41833
# Poissons Ratio (z) = 0.50007 0.21817
#
# Static dielectric constant tensor:
#      x y z
#    x 1.941730 -0.023170 -0.030960 
#    y -0.023170 1.930660 -0.008900 
#    z -0.030960 -0.008900 1.920240 
# 
# From -- ./inp_files/278618.got.cif
#   From: 2010.05.17/outbox.cif.g08.bks.cpg/sg2_140_cif.got.tgz:278618.got - 2010.06.03 11:33:40.
