data_PCOD9085166
_publ_section_title
;
Structure prediction by ZEFSAII (Michael W. Deem and Ramdas Pophale) SiO2 
 PCOD9085166
Probable space group: P -1
;
_chemical_formula_sum "Si O2"
_cell_formula_units_Z 16
_cell_length_a 16.084835
_cell_length_b 13.658629
_cell_length_c 13.815400
_cell_angle_alpha 45.670956
_cell_angle_beta 25.369929
_cell_angle_gamma 35.012800
_cell_volume 735.569555
_symmetry_space_group_name_H-M "P -1"
_symmetry_group_IT_number 2
_symmetry_cell_setting 'triclinic'
loop_
_space_group_symop_operation_xyz
x,y,z
-x,-y,-z
loop_
_atom_site_type_symbol
_atom_site_label
_atom_site_fract_x
_atom_site_fract_y
_atom_site_fract_z
Si Si1 0.951394 0.183967 0.519790
Si Si2 0.665660 0.330915 0.377126
Si Si3 0.704687 0.147679 0.098673
Si Si4 0.602598 0.043579 0.640296
Si Si5 0.238604 0.627906 0.237350
Si Si6 0.903382 0.244520 0.993007
Si Si7 0.184363 0.257785 0.521132
Si Si8 0.866011 0.909143 0.814930
O O1 0.771466 0.362946 0.643450
O O2 0.040544 0.191366 0.316076
O O3 0.827069 0.087655 0.710798
O O4 0.190201 0.067404 0.418146
O O5 0.500000 0.500000 0.500000
O O6 0.558447 0.224160 0.548909
O O7 0.738692 0.361005 0.175354
O O8 0.915428 0.200194 0.263815
O O9 0.749968 0.211258 0.106045
O O10 0.420579 0.245802 0.305725
O O11 0.817678 0.192376 0.864185
O O12 0.866372 0.942202 0.079470
O O13 0.689036 0.934727 0.524404
O O14 0.368290 0.063668 0.913159
O O15 0.023780 0.625633 0.422284
O O16 0.500000 0.500000 0.000000
O O17 0.025543 0.301649 0.753992
#
# Coordination Sequence:
#
# PCOD9085166 Si02
#       8
#     2   2   2   2   2   2   2   2
#     4   9  19  36  57  82 106 139 183 227 271 314
#     4  11  24  38  52  77 115 151 180 217 269 326
#     4  10  19  35  59  84 108 138 180 230 275 316
#     4  10  19  36  60  85 106 135 184 229 271 322
#     4  10  21  35  52  80 117 145 173 217 271 330
#     4  10  20  36  57  82 108 139 183 230 272 317
#     4  10  20  35  61  86 105 138 182 229 276 322
#     4  10  20  36  59  78 105 144 184 228 266 313
#
# _framework density 21.751852
#
# number of rings (size 3 to 8) (size 9 to 14) (size 15 to 20)
#    0.000    2.000    0.000    6.000    0.000    4.000 
#    0.000    1.250    0.000    0.000    0.000    0.000 
#    0.000    0.000    0.000    0.000    0.000    0.000 
#
# Total GULP energy -89344.668003 kJ/mol
# GULP energy per Si atom -5584.041750 kJ/mol
# Density = 2.170234 g / cm^3
# Si number density = 21.751852 Si / 1000 Ang^3
#
#
#
# Elastic Constant Matrix: (Units=GPa)
#
#
# Indices 1 2 3 4 5 6 
#
# 1 86.1716 10.8372 58.3878 11.6307 10.0698 11.8728
# 2 10.8372 33.2847 27.9797 12.1764 -2.2073 12.3526
# 3 58.3878 27.9797 169.0446 8.1718 -0.5673 24.8049
# 4 11.6307 12.1764 8.1718 31.2342 6.3399 6.3077
# 5 10.0698 -2.2073 -0.5673 6.3399 58.9139 7.3553
# 6 11.8728 12.3526 24.8049 6.3077 7.3553 26.1014
#
#
#
# Elastic Compliance Matrix: (Units=1/GPa)
#
#
# Indices 1 2 3 4 5 6 
#
# 1 0.016104 0.001147 -0.005389 -0.004378 -0.002155 -0.001081
# 2 0.001147 0.045075 -0.004929 -0.014674 0.004898 -0.015003
# 3 -0.005389 -0.004929 0.009197 0.002258 0.001186 -0.004836
# 4 -0.004378 -0.014674 0.002258 0.039916 -0.003854 -0.001770
# 5 -0.002155 0.004898 0.001186 -0.003854 0.018805 -0.006832
# 6 -0.001081 -0.015003 -0.004836 -0.001770 -0.006832 0.052853
#
#
# Mechanical properties :
#
#
# Convention : Reuss Voigt Hill
#
# Bulk Modulus (GPa) = 19.21876 53.65668 36.43772
# Shear Modulus (GPa) = 22.97399 36.00299 29.48849
#
# Velocity S-wave (km/s) = 3.25343 4.07279 3.68595
# Velocity P-wave (km/s) = 4.79246 6.84383 5.90786
#
# Compressibility (1/GPa) = 0.05203249
#
# Stress axis : x y z
#
# Youngs Moduli (GPa) = 62.09766 22.18527 108.72776
#
# Poissons Ratio (x) = -0.02544 0.58593
# Poissons Ratio (y) = -0.07121 0.53597
# Poissons Ratio (z) = 0.33464 0.10936
#
# Static dielectric constant tensor:
#      x y z
#    x 1.818540 0.027640 0.009220 
#    y 0.027640 1.910380 0.019380 
#    z 0.009220 0.019380 1.769210 
# 
# From -- ./inp_files/538886.got.cif
#   From: 2010.05.17/outbox.cif.g08.bks.cpg/sg2_270_cif.got.tgz:538886.got - 2010.06.03 11:33:40.
