data_PCOD9085670
_publ_section_title
;
Structure prediction by ZEFSAII (Michael W. Deem and Ramdas Pophale) SiO2 
 PCOD9085670
Probable space group: P -1
;
_chemical_formula_sum "Si O2"
_cell_formula_units_Z 14
_cell_length_a 7.867868
_cell_length_b 8.170362
_cell_length_c 17.616292
_cell_angle_alpha 124.998907
_cell_angle_beta 44.025602
_cell_angle_gamma 114.466711
_cell_volume 644.693444
_symmetry_space_group_name_H-M "P -1"
_symmetry_group_IT_number 2
_symmetry_cell_setting 'triclinic'
loop_
_space_group_symop_operation_xyz
x,y,z
-x,-y,-z
loop_
_atom_site_type_symbol
_atom_site_label
_atom_site_fract_x
_atom_site_fract_y
_atom_site_fract_z
Si Si1 0.590707 0.182339 0.884870
Si Si2 0.246131 0.179357 0.775142
Si Si3 0.643134 0.493084 0.069921
Si Si4 0.964997 0.082971 0.349165
Si Si5 0.822530 0.177538 0.583538
Si Si6 0.113855 0.399481 0.258810
Si Si7 0.085285 0.078664 0.074056
O O1 0.455509 0.327647 0.906501
O O2 0.776542 0.027086 0.747088
O O3 0.733144 0.327279 0.937055
O O4 0.378446 0.069594 0.969926
O O5 0.218384 0.403772 0.876967
O O6 0.537156 0.142361 0.684329
O O7 0.059991 0.054147 0.854304
O O8 0.194336 0.094700 0.685257
O O9 0.407052 0.392188 0.157573
O O10 0.013273 0.253832 0.316777
O O11 0.847307 0.187171 0.487149
O O12 0.926745 0.372384 0.645126
O O13 0.000000 0.000000 0.500000
O O14 0.030478 0.306390 0.179914
O O15 0.000000 0.000000 0.000000
#
# Coordination Sequence:
#
# PCOD9085670 Si02
#       7
#     2   2   2   2   2   2   2
#     4  10  20  35  62  88 119 163 197 232 301 346
#     4  10  21  37  59  90 120 154 197 249 293 341
#     4   9  18  36  58  86 123 156 198 242 281 357
#     4  11  22  38  62  87 122 156 194 246 298 353
#     4  11  23  43  66  82 115 160 206 243 292 354
#     4   9  21  37  60  87 119 155 195 242 299 346
#     4  10  19  35  62  87 124 151 189 249 288 348
#
# _framework density 21.715748000000001
#
# number of rings (size 3 to 8) (size 9 to 14) (size 15 to 20)
#    0.000    2.000    1.429    2.571    0.000    5.714 
#    0.000    4.286    3.143    0.000    0.000    0.000 
#    0.000    0.000    0.000    0.000    0.000    0.000 
#
# Total GULP energy -78015.130352 kJ/mol
# GULP energy per Si atom -5572.509311 kJ/mol
# Density = 2.166632 g / cm^3
# Si number density = 21.715748 Si / 1000 Ang^3
#
#
#
# Elastic Constant Matrix: (Units=GPa)
#
#
# Indices 1 2 3 4 5 6 
#
# 1 58.3524 38.0240 31.1705 10.9755 18.3250 20.1236
# 2 38.0240 72.8945 34.6273 5.6376 7.2021 25.0481
# 3 31.1705 34.6273 123.7800 9.6223 16.4193 11.0926
# 4 10.9755 5.6376 9.6223 47.9773 9.3015 8.1273
# 5 18.3250 7.2021 16.4193 9.3015 47.2229 12.2789
# 6 20.1236 25.0481 11.0926 8.1273 12.2789 37.6153
#
#
#
# Elastic Compliance Matrix: (Units=1/GPa)
#
#
# Indices 1 2 3 4 5 6 
#
# 1 0.031162 -0.012439 -0.002744 -0.002900 -0.007499 -0.004505
# 2 -0.012439 0.025093 -0.003670 0.001544 0.004799 -0.010873
# 3 -0.002744 -0.003670 0.009982 -0.000838 -0.002164 0.001855
# 4 -0.002900 0.001544 -0.000838 0.022518 -0.002393 -0.003314
# 5 -0.007499 0.004799 -0.002164 -0.002393 0.026297 -0.006613
# 6 -0.004505 -0.010873 0.001855 -0.003314 -0.006613 0.038563
#
#
# Mechanical properties :
#
#
# Convention : Reuss Voigt Hill
#
# Bulk Modulus (GPa) = 35.04701 51.40787 43.22744
# Shear Modulus (GPa) = 24.89659 36.64345 30.77002
#
# Velocity S-wave (km/s) = 3.38964 4.11227 3.76832
# Velocity P-wave (km/s) = 5.61191 6.80236 6.23561
#
# Compressibility (1/GPa) = 0.02853310
#
# Stress axis : x y z
#
# Youngs Moduli (GPa) = 32.09005 39.85249 100.17788
#
# Poissons Ratio (x) = 0.49571 0.27486
# Poissons Ratio (y) = 0.39916 0.36760
# Poissons Ratio (z) = 0.08805 0.14624
#
# Static dielectric constant tensor:
#      x y z
#    x 1.874430 0.004800 0.045820 
#    y 0.004800 1.811650 0.008670 
#    z 0.045820 0.008670 1.822000 
# 
# From -- ./inp_files/164622.got.cif
#   From: 2010.05.17/outbox.cif.g08.bks.cpg/sg2_83_cif.got.tgz:164622.got - 2010.06.03 11:33:40.
