data_PCOD9085589
_publ_section_title
;
Structure prediction by ZEFSAII (Michael W. Deem and Ramdas Pophale) SiO2 
 PCOD9085589
Probable space group: P -1
;
_chemical_formula_sum "Si O2"
_cell_formula_units_Z 16
_cell_length_a 12.921409
_cell_length_b 9.059876
_cell_length_c 8.838660
_cell_angle_alpha 56.847003
_cell_angle_beta 57.003473
_cell_angle_gamma 52.142631
_cell_volume 648.879943
_symmetry_space_group_name_H-M "P -1"
_symmetry_group_IT_number 2
_symmetry_cell_setting 'triclinic'
loop_
_space_group_symop_operation_xyz
x,y,z
-x,-y,-z
loop_
_atom_site_type_symbol
_atom_site_label
_atom_site_fract_x
_atom_site_fract_y
_atom_site_fract_z
Si Si1 0.487327 0.801273 0.293127
Si Si2 0.399072 0.763500 0.839896
Si Si3 0.082710 0.270770 0.017589
Si Si4 0.643212 0.371650 0.735704
Si Si5 0.289362 0.204743 0.124015
Si Si6 0.158297 0.676484 0.001051
Si Si7 0.131033 0.543921 0.395721
Si Si8 0.682481 0.795973 0.380471
O O1 0.419678 0.675293 0.337829
O O2 0.578587 0.731036 0.410398
O O3 0.369421 0.025885 0.273517
O O4 0.597539 0.804786 0.082417
O O5 0.540040 0.573698 0.792824
O O6 0.393732 0.968786 0.684093
O O7 0.359852 0.773756 0.044302
O O8 0.281341 0.733690 0.859123
O O9 0.186329 0.253237 0.808603
O O10 0.963137 0.222700 0.077382
O O11 0.172537 0.167800 0.150071
O O12 0.000000 0.500000 0.000000
O O13 0.792653 0.368240 0.594763
O O14 0.220673 0.435621 0.092668
O O15 0.103395 0.708184 0.196822
O O16 0.248950 0.318122 0.457206
O O17 0.000000 0.500000 0.500000
#
# Coordination Sequence:
#
# PCOD9085589 Si02
#       8
#     2   2   2   2   2   2   2   2
#     4  10  19  35  61  90 120 149 200 253 300 346
#     4  10  21  36  61  99 117 149 206 260 299 338
#     4   9  18  33  58  87 115 160 197 244 294 353
#     4  10  21  39  63  89 123 157 198 253 303 350
#     4   9  17  32  60  93 119 150 197 254 303 348
#     4  10  19  37  63  86 125 156 201 250 302 355
#     4  11  24  42  59  83 126 170 194 236 309 373
#     4  11  23  38  60  92 124 158 206 241 301 370
#
# _framework density 24.657875000000001
#
# number of rings (size 3 to 8) (size 9 to 14) (size 15 to 20)
#    0.000    2.000    2.500    2.250    3.500    1.500 
#    2.250    0.000    0.000    0.750    0.000    0.000 
#    0.000    0.000    0.000    0.000    0.000    0.000 
#
# Total GULP energy -89153.110208 kJ/mol
# GULP energy per Si atom -5572.069388 kJ/mol
# Density = 2.460175 g / cm^3
# Si number density = 24.657875 Si / 1000 Ang^3
#
#
#
# Elastic Constant Matrix: (Units=GPa)
#
#
# Indices 1 2 3 4 5 6 
#
# 1 235.3593 27.3799 33.3933 -14.8915 -25.5070 -8.0694
# 2 27.3799 76.6012 8.1492 -11.4829 -12.0444 8.9792
# 3 33.3933 8.1492 62.4117 -13.1566 -15.1911 -2.2782
# 4 -14.8915 -11.4829 -13.1566 28.4728 -2.0451 -0.6440
# 5 -25.5070 -12.0444 -15.1911 -2.0451 31.8143 -3.4966
# 6 -8.0694 8.9792 -2.2782 -0.6440 -3.4966 25.4051
#
#
#
# Elastic Compliance Matrix: (Units=1/GPa)
#
#
# Indices 1 2 3 4 5 6 
#
# 1 0.005147 -0.001153 -0.001253 0.001954 0.003487 0.002460
# 2 -0.001153 0.015764 0.001079 0.006532 0.005437 -0.004927
# 3 -0.001253 0.001079 0.021469 0.010530 0.010649 0.002878
# 4 0.001954 0.006532 0.010530 0.044563 0.012159 0.002059
# 5 0.003487 0.005437 0.010649 0.012159 0.042851 0.006347
# 6 0.002460 -0.004927 0.002878 0.002059 0.006347 0.043069
#
#
# Mechanical properties :
#
#
# Convention : Reuss Voigt Hill
#
# Bulk Modulus (GPa) = 25.17268 56.91299 41.04284
# Shear Modulus (GPa) = 26.48911 37.50175 31.99543
#
# Velocity S-wave (km/s) = 3.28116 3.90408 3.60609
# Velocity P-wave (km/s) = 4.95838 6.59194 5.83263
#
# Compressibility (1/GPa) = 0.03972560
#
# Stress axis : x y z
#
# Youngs Moduli (GPa) = 194.30216 63.43697 46.57942
#
# Poissons Ratio (x) = 0.07317 0.05834
# Poissons Ratio (y) = 0.22410 -0.05027
# Poissons Ratio (z) = 0.24338 -0.06846
#
# Static dielectric constant tensor:
#      x y z
#    x 1.999400 0.058410 0.029450 
#    y 0.058410 2.109770 0.081980 
#    z 0.029450 0.081980 2.049260 
# 
# From -- ./inp_files/416246.got.cif
#   From: 2010.05.17/outbox.cif.g08.bks.cpg/sg2_209_cif.got.tgz:416246.got - 2010.06.03 11:33:40.
