data_PCOD9085883
_publ_section_title
;
Structure prediction by ZEFSAII (Michael W. Deem and Ramdas Pophale) SiO2 
 PCOD9085883
Probable space group: P -1
;
_chemical_formula_sum "Si O2"
_cell_formula_units_Z 16
_cell_length_a 14.735702
_cell_length_b 9.594053
_cell_length_c 14.098146
_cell_angle_alpha 100.638733
_cell_angle_beta 151.797789
_cell_angle_gamma 90.452685
_cell_volume 861.021728
_symmetry_space_group_name_H-M "P -1"
_symmetry_group_IT_number 2
_symmetry_cell_setting 'triclinic'
loop_
_space_group_symop_operation_xyz
x,y,z
-x,-y,-z
loop_
_atom_site_type_symbol
_atom_site_label
_atom_site_fract_x
_atom_site_fract_y
_atom_site_fract_z
Si Si1 0.916423 0.628472 0.609797
Si Si2 0.088552 0.770962 0.300212
Si Si3 0.655190 0.908833 0.131257
Si Si4 0.227719 0.436296 0.147319
Si Si5 0.086111 0.062307 0.436899
Si Si6 0.441810 0.556423 0.854931
Si Si7 0.318716 0.565156 0.451875
Si Si8 0.232265 0.524910 0.963818
O O1 0.903552 0.788768 0.592074
O O2 0.797348 0.514093 0.401551
O O3 0.798564 0.553820 0.589037
O O4 0.147156 0.631559 0.838195
O O5 0.283683 0.720833 0.462763
O O6 0.939055 0.648097 0.222459
O O7 0.122805 0.937170 0.387708
O O8 0.956458 0.717168 0.074902
O O9 0.747783 0.900014 0.319916
O O10 0.532909 0.738189 0.959939
O O11 0.857698 0.990526 0.263798
O O12 0.500000 0.000000 0.000000
O O13 0.215986 0.499460 0.247835
O O14 0.443288 0.411233 0.334111
O O15 0.235278 0.553023 0.083032
O O16 0.500000 0.500000 0.000000
O O17 0.556961 0.486405 0.876715
#
# Coordination Sequence:
#
# PCOD9085883 Si02
#       8
#     2   2   2   2   2   2   2   2
#     4  11  23  36  61  87 117 153 190 245 288 335
#     4   9  19  35  58  79 116 149 187 233 285 345
#     4  11  26  40  60  79 116 160 198 237 294 342
#     4   9  18  35  63  88 112 146 202 236 275 357
#     4  11  24  41  53  88 119 151 194 244 288 349
#     4  12  23  41  58  87 115 153 199 242 282 344
#     4  10  19  35  64  88 111 151 197 235 289 341
#     4   9  21  36  61  84 114 153 193 235 286 340
#
# _framework density 18.582574000000001
#
# number of rings (size 3 to 8) (size 9 to 14) (size 15 to 20)
#    0.750    1.000    3.750    0.375    5.250    0.500 
#    0.000    0.625    0.000    1.500    0.000    0.000 
#    0.000    0.000    0.000    0.000    0.000    0.000 
#
# Total GULP energy -89189.380451 kJ/mol
# GULP energy per Si atom -5574.336278 kJ/mol
# Density = 1.854028 g / cm^3
# Si number density = 18.582574 Si / 1000 Ang^3
#
#
#
# Elastic Constant Matrix: (Units=GPa)
#
#
# Indices 1 2 3 4 5 6 
#
# 1 66.1075 41.7422 23.4272 -8.5352 -14.9372 -8.0146
# 2 41.7422 142.8625 53.3003 -12.0032 -10.3578 -12.0542
# 3 23.4272 53.3003 69.3756 -20.7876 -11.8656 -9.0284
# 4 -8.5352 -12.0032 -20.7876 29.1563 -1.9374 0.8120
# 5 -14.9372 -10.3578 -11.8656 -1.9374 30.9086 -9.0373
# 6 -8.0146 -12.0542 -9.0284 0.8120 -9.0373 24.9385
#
#
#
# Elastic Compliance Matrix: (Units=1/GPa)
#
#
# Indices 1 2 3 4 5 6 
#
# 1 0.022696 -0.004865 0.001573 0.006365 0.013301 0.010125
# 2 -0.004865 0.011046 -0.007871 -0.002614 -0.001721 0.000388
# 3 0.001573 -0.007871 0.029564 0.018906 0.014140 0.011913
# 4 0.006365 -0.002614 0.018906 0.049299 0.016005 0.011821
# 5 0.013301 -0.001721 0.014140 0.016005 0.052556 0.027086
# 6 0.010125 0.000388 0.011913 0.011821 0.027086 0.057283
#
#
# Mechanical properties :
#
#
# Convention : Reuss Voigt Hill
#
# Bulk Modulus (GPa) = 24.40155 57.25390 40.82772
# Shear Modulus (GPa) = 19.34766 27.65908 23.50337
#
# Velocity S-wave (km/s) = 3.23022 3.86222 3.56027
# Velocity P-wave (km/s) = 5.20311 7.12505 6.23854
#
# Compressibility (1/GPa) = 0.04098100
#
# Stress axis : x y z
#
# Youngs Moduli (GPa) = 44.06071 90.53051 33.82503
#
# Poissons Ratio (x) = 0.44043 -0.05322
# Poissons Ratio (y) = 0.21435 0.26623
# Poissons Ratio (z) = -0.06932 0.71255
#
# Static dielectric constant tensor:
#      x y z
#    x 1.659710 0.005430 0.003440 
#    y 0.005430 1.617540 -0.027270 
#    z 0.003440 -0.027270 1.675750 
# 
# From -- ./inp_files/527634.got.cif
#   From: 2010.05.17/outbox.cif.g08.bks.cpg/sg2_264_cif.got.tgz:527634.got - 2010.06.03 11:33:40.
