data_PCOD9085928
_publ_section_title
;
Structure prediction by ZEFSAII (Michael W. Deem and Ramdas Pophale) SiO2 
 PCOD9085928
Probable space group: P -1
;
_chemical_formula_sum "Si O2"
_cell_formula_units_Z 16
_cell_length_a 8.384186
_cell_length_b 15.426334
_cell_length_c 19.689020
_cell_angle_alpha 34.840423
_cell_angle_beta 55.074584
_cell_angle_gamma 32.308348
_cell_volume 713.713269
_symmetry_space_group_name_H-M "P -1"
_symmetry_group_IT_number 2
_symmetry_cell_setting 'triclinic'
loop_
_space_group_symop_operation_xyz
x,y,z
-x,-y,-z
loop_
_atom_site_type_symbol
_atom_site_label
_atom_site_fract_x
_atom_site_fract_y
_atom_site_fract_z
Si Si1 0.315644 0.095486 0.649470
Si Si2 0.610203 0.759944 0.927004
Si Si3 0.434481 0.429797 0.497230
Si Si4 0.232967 0.501807 0.693092
Si Si5 0.812978 0.965371 0.554423
Si Si6 0.431780 0.234491 0.333885
Si Si7 0.582988 0.448699 0.092905
Si Si8 0.358728 0.951754 0.206361
O O1 0.930467 0.342021 0.587945
O O2 0.472351 0.912499 0.792171
O O3 0.500210 0.139901 0.566432
O O4 0.403239 0.954145 0.648744
O O5 0.535286 0.937869 0.886331
O O6 0.491975 0.660446 0.018107
O O7 0.000000 0.500000 0.000000
O O8 0.500000 0.500000 0.500000
O O9 0.654551 0.395706 0.416011
O O10 0.498190 0.230759 0.647278
O O11 0.040334 0.672116 0.699473
O O12 0.924742 0.610763 0.662299
O O13 0.525223 0.208721 0.787376
O O14 0.659168 0.072684 0.447598
O O15 0.000000 0.000000 0.500000
O O16 0.418447 0.414269 0.195531
O O17 0.973616 0.184227 0.164555
O O18 0.500000 0.500000 0.000000
#
# Coordination Sequence:
#
# PCOD9085928 Si02
#       8
#     2   2   2   2   2   2   2   2
#     4  11  22  41  68  96 128 174 211 256 326 393
#     4  10  24  40  65  93 126 166 229 263 299 370
#     4  10  19  35  64  95 125 158 205 262 322 377
#     4  10  21  39  61  92 128 164 198 263 329 374
#     4  11  24  38  63  97 134 166 208 264 330 384
#     4  11  21  41  65  90 129 168 215 256 320 392
#     4  11  22  41  69  90 117 176 227 257 306 379
#     4  10  21  40  63  91 133 161 212 271 314 371
#
# _framework density 22.417967000000001
#
# number of rings (size 3 to 8) (size 9 to 14) (size 15 to 20)
#    0.000    1.500    1.250    6.750    5.250    0.500 
#    2.250    1.250    0.000    0.000    0.000    0.000 
#    0.000    0.000    0.000    0.000    0.000    0.000 
#
# Total GULP energy -89078.872855 kJ/mol
# GULP energy per Si atom -5567.429553 kJ/mol
# Density = 2.236694 g / cm^3
# Si number density = 22.417967 Si / 1000 Ang^3
#
#
#
# Elastic Constant Matrix: (Units=GPa)
#
#
# Indices 1 2 3 4 5 6 
#
# 1 83.3678 32.1874 38.7302 -7.4590 -25.0281 -20.4418
# 2 32.1874 82.2485 29.4539 -11.5561 -10.9922 -19.5315
# 3 38.7302 29.4539 109.8824 -6.0724 -15.5667 -19.9237
# 4 -7.4590 -11.5561 -6.0724 29.5454 -5.1509 -10.3882
# 5 -25.0281 -10.9922 -15.5667 -5.1509 58.4392 -1.6877
# 6 -20.4418 -19.5315 -19.9237 -10.3882 -1.6877 52.9459
#
#
#
# Elastic Compliance Matrix: (Units=1/GPa)
#
#
# Indices 1 2 3 4 5 6 
#
# 1 0.019120 -0.002741 -0.003351 0.006731 0.007566 0.006672
# 2 -0.002741 0.016744 -0.001605 0.008128 0.002443 0.006187
# 3 -0.003351 -0.001605 0.011607 0.002244 0.001639 0.002975
# 4 0.006731 0.008128 0.002244 0.046427 0.009559 0.015855
# 5 0.007566 0.002443 0.001639 0.009559 0.022294 0.007025
# 6 0.006672 0.006187 0.002975 0.015855 0.007025 0.028200
#
#
# Mechanical properties :
#
#
# Convention : Reuss Voigt Hill
#
# Bulk Modulus (GPa) = 31.17505 52.91575 42.04540
# Shear Modulus (GPa) = 29.32954 39.86126 34.59540
#
# Velocity S-wave (km/s) = 3.62097 4.22132 3.93262
# Velocity P-wave (km/s) = 5.60521 6.88584 6.27826
#
# Compressibility (1/GPa) = 0.03207693
#
# Stress axis : x y z
#
# Youngs Moduli (GPa) = 52.30232 59.72466 86.15249
#
# Poissons Ratio (x) = 0.16372 0.28868
# Poissons Ratio (y) = 0.14337 0.13826
# Poissons Ratio (z) = 0.17525 0.09584
#
# Static dielectric constant tensor:
#      x y z
#    x 1.919950 -0.022290 -0.078780 
#    y -0.022290 2.008060 0.053310 
#    z -0.078780 0.053310 1.902290 
# 
# From -- ./inp_files/608448.got.cif
#   From: 2010.05.17/outbox.cif.g08.bks.cpg/sg2_305_cif.got.tgz:608448.got - 2010.06.03 11:33:40.
