data_PCOD9085339
_publ_section_title
;
Structure prediction by ZEFSAII (Michael W. Deem and Ramdas Pophale) SiO2 
 PCOD9085339
Probable space group: P -1
;
_chemical_formula_sum "Si O2"
_cell_formula_units_Z 14
_cell_length_a 13.136325
_cell_length_b 8.222340
_cell_length_c 7.010416
_cell_angle_alpha 72.108963
_cell_angle_beta 92.645183
_cell_angle_gamma 130.616966
_cell_volume 534.434676
_symmetry_space_group_name_H-M "P -1"
_symmetry_group_IT_number 2
_symmetry_cell_setting 'triclinic'
loop_
_space_group_symop_operation_xyz
x,y,z
-x,-y,-z
loop_
_atom_site_type_symbol
_atom_site_label
_atom_site_fract_x
_atom_site_fract_y
_atom_site_fract_z
Si Si1 0.744138 0.979820 0.075368
Si Si2 0.203222 0.060526 0.344185
Si Si3 0.485903 0.499819 0.228312
Si Si4 0.194526 0.574030 0.988479
Si Si5 0.006515 0.944639 0.798687
Si Si6 0.137512 0.619562 0.578319
Si Si7 0.392062 0.726421 0.620429
O O1 0.587622 0.766181 0.197129
O O2 0.773404 0.213792 0.983344
O O3 0.766633 0.936661 0.879060
O O4 0.847445 0.986307 0.216768
O O5 0.325641 0.320862 0.327948
O O6 0.047755 0.956525 0.365544
O O7 0.214514 0.887102 0.499663
O O8 0.547442 0.392449 0.355412
O O9 0.500000 0.500000 0.000000
O O10 0.096612 0.516367 0.822956
O O11 0.331101 0.667193 0.853717
O O12 0.110608 0.326961 0.159420
O O13 0.000000 0.000000 0.000000
O O14 0.253672 0.614350 0.528446
O O15 0.000000 0.500000 0.500000
O O16 0.500000 0.000000 0.500000
#
# Coordination Sequence:
#
# PCOD9085339 Si02
#       7
#     2   2   2   2   2   2   2
#     4  10  21  35  62  84 117 150 189 247 293 323
#     4  10  20  37  58  85 114 151 200 232 275 353
#     4  10  19  36  59  83 111 153 198 229 275 350
#     4  10  21  37  60  85 118 144 195 244 292 328
#     4  10  19  35  60  84 111 153 192 230 285 345
#     4  10  21  35  62  82 114 148 198 231 285 344
#     4  10  20  38  60  81 114 155 192 232 287 346
#
# _framework density 26.195907999999999
#
# number of rings (size 3 to 8) (size 9 to 14) (size 15 to 20)
#    0.857    1.143    1.429    4.714    2.000    0.000 
#    0.000   10.000    6.286    0.000    0.000    0.000 
#    0.000    0.000    0.000    0.000    0.000    0.000 
#
# Total GULP energy -78272.919042 kJ/mol
# GULP energy per Si atom -5590.922789 kJ/mol
# Density = 2.613629 g / cm^3
# Si number density = 26.195908 Si / 1000 Ang^3
#
#
#
# Elastic Constant Matrix: (Units=GPa)
#
#
# Indices 1 2 3 4 5 6 
#
# 1 99.8022 44.9380 31.0088 11.8519 15.7456 14.5884
# 2 44.9380 135.3142 3.9574 -20.0828 3.4261 12.6303
# 3 31.0088 3.9574 67.3552 -14.9661 11.4412 3.1600
# 4 11.8519 -20.0828 -14.9661 36.2916 -1.8662 -0.4697
# 5 15.7456 3.4261 11.4412 -1.8662 49.8969 -3.9552
# 6 14.5884 12.6303 3.1600 -0.4697 -3.9552 31.8147
#
#
#
# Elastic Compliance Matrix: (Units=1/GPa)
#
#
# Indices 1 2 3 4 5 6 
#
# 1 0.021114 -0.008494 -0.011926 -0.016819 -0.004444 -0.005926
# 2 -0.008494 0.011864 0.005717 0.011729 0.000907 -0.001097
# 3 -0.011926 0.005717 0.023949 0.016873 -0.001419 0.000893
# 4 -0.016819 0.011729 0.016873 0.046659 0.002567 0.002388
# 5 -0.004444 0.000907 -0.001419 0.002567 0.022168 0.004613
# 6 -0.005926 -0.001097 0.000893 0.002388 0.004613 0.035105
#
#
# Mechanical properties :
#
#
# Convention : Reuss Voigt Hill
#
# Bulk Modulus (GPa) = 36.33380 51.36444 43.84912
# Shear Modulus (GPa) = 25.07028 38.43847 31.75438
#
# Velocity S-wave (km/s) = 3.09695 3.83475 3.48543
# Velocity P-wave (km/s) = 5.16607 6.26558 5.74220
#
# Compressibility (1/GPa) = 0.02752258
#
# Stress axis : x y z
#
# Youngs Moduli (GPa) = 47.36121 84.28822 41.75474
#
# Poissons Ratio (x) = 0.71593 0.49795
# Poissons Ratio (y) = 0.40228 -0.23871
# Poissons Ratio (z) = 0.56482 -0.48187
#
# Static dielectric constant tensor:
#      x y z
#    x 2.065130 -0.018670 -0.034130 
#    y -0.018670 2.066290 0.038310 
#    z -0.034130 0.038310 2.122130 
# 
# From -- ./inp_files/291921.got.cif
#   From: 2010.05.17/outbox.cif.g08.bks.cpg/sg2_146_cif.got.tgz:291921.got - 2010.06.03 11:33:40.
