data_PCOD9085155
_publ_section_title
;
Structure prediction by ZEFSAII (Michael W. Deem and Ramdas Pophale) SiO2 
 PCOD9085155
Probable space group: P -1
;
_chemical_formula_sum "Si O2"
_cell_formula_units_Z 16
_cell_length_a 6.486947
_cell_length_b 11.087321
_cell_length_c 12.803913
_cell_angle_alpha 60.375027
_cell_angle_beta 115.547020
_cell_angle_gamma 82.030625
_cell_volume 645.503811
_symmetry_space_group_name_H-M "P -1"
_symmetry_group_IT_number 2
_symmetry_cell_setting 'triclinic'
loop_
_space_group_symop_operation_xyz
x,y,z
-x,-y,-z
loop_
_atom_site_type_symbol
_atom_site_label
_atom_site_fract_x
_atom_site_fract_y
_atom_site_fract_z
Si Si1 0.767327 0.019732 0.783430
Si Si2 0.651975 0.545385 0.110841
Si Si3 0.704205 0.580757 0.878355
Si Si4 0.000208 0.194243 0.368739
Si Si5 0.555181 0.102175 0.371364
Si Si6 0.215089 0.022506 0.947603
Si Si7 0.948459 0.650411 0.289468
Si Si8 0.725092 0.693224 0.452867
O O1 0.566598 0.193406 0.631134
O O2 0.075473 0.953224 0.865656
O O3 0.622772 0.927296 0.740566
O O4 0.766054 0.020104 0.908674
O O5 0.416125 0.535758 0.121784
O O6 0.772401 0.621704 0.180302
O O7 0.856625 0.364098 0.213379
O O8 0.595894 0.630460 0.951720
O O9 0.618068 0.716508 0.715495
O O10 0.000000 0.500000 0.000000
O O11 0.098499 0.240700 0.477308
O O12 0.791951 0.128933 0.361725
O O13 0.267833 0.049170 0.452723
O O14 0.024433 0.204056 0.810687
O O15 0.500000 0.000000 0.000000
O O16 0.799427 0.693532 0.348281
O O17 0.192629 0.484845 0.424813
#
# Coordination Sequence:
#
# PCOD9085155 Si02
#       8
#     2   2   2   2   2   2   2   2
#     4  10  21  37  57  82 115 145 192 236 272 343
#     4   9  19  36  56  81 109 144 184 225 278 333
#     4  10  20  35  56  82 111 141 183 230 276 332
#     4   8  16  33  61  81 110 148 182 229 280 328
#     4   9  17  34  59  81 107 148 180 225 285 321
#     4  11  22  36  54  81 113 151 187 231 284 331
#     4  10  19  35  59  83 112 152 186 228 288 330
#     4   9  18  35  60  85 112 149 191 232 280 335
#
# _framework density 24.786843000000001
#
# number of rings (size 3 to 8) (size 9 to 14) (size 15 to 20)
#    0.000    2.500    1.250    0.750    0.000    1.500 
#    2.250    0.625   22.000    0.000    0.000    0.000 
#    0.000    0.000    0.000    0.000    0.000    0.000 
#
# Total GULP energy -89119.168606 kJ/mol
# GULP energy per Si atom -5569.948038 kJ/mol
# Density = 2.473043 g / cm^3
# Si number density = 24.786843 Si / 1000 Ang^3
#
#
#
# Elastic Constant Matrix: (Units=GPa)
#
#
# Indices 1 2 3 4 5 6 
#
# 1 42.6542 19.4285 17.4883 15.3814 35.2242 17.5482
# 2 19.4285 63.1245 31.6058 1.1027 5.1657 19.8235
# 3 17.4883 31.6058 121.6540 3.3363 3.0773 19.5197
# 4 15.3814 1.1027 3.3363 44.9248 12.2249 4.0505
# 5 35.2242 5.1657 3.0773 12.2249 52.1068 4.3370
# 6 17.5482 19.8235 19.5197 4.0505 4.3370 30.5774
#
#
#
# Elastic Compliance Matrix: (Units=1/GPa)
#
#
# Indices 1 2 3 4 5 6 
#
# 1 0.100390 -0.012432 -0.003355 -0.014143 -0.060033 -0.037023
# 2 -0.012432 0.022922 -0.003300 0.002865 0.006227 -0.006882
# 3 -0.003355 -0.003300 0.009917 0.000130 0.002195 -0.002595
# 4 -0.014143 0.002865 0.000130 0.026004 0.002976 0.002310
# 5 -0.060033 0.006227 0.002195 0.002976 0.056615 0.020590
# 6 -0.037023 -0.006882 -0.002595 0.002310 0.020590 0.056843
#
#
# Mechanical properties :
#
#
# Convention : Reuss Voigt Hill
#
# Bulk Modulus (GPa) = 10.52015 40.49754 25.50884
# Shear Modulus (GPa) = 14.59649 36.11582 25.35615
#
# Velocity S-wave (km/s) = 2.42932 3.82128 3.20186
# Velocity P-wave (km/s) = 3.48170 5.98693 4.89722
#
# Compressibility (1/GPa) = 0.09505570
#
# Stress axis : x y z
#
# Youngs Moduli (GPa) = 9.96114 43.62663 100.83887
#
# Poissons Ratio (x) = 0.54236 0.33829
# Poissons Ratio (y) = 0.12384 0.33275
# Poissons Ratio (z) = 0.03342 0.14396
#
# Static dielectric constant tensor:
#      x y z
#    x 2.164000 0.017160 0.048160 
#    y 0.017160 1.981410 -0.059660 
#    z 0.048160 -0.059660 1.985970 
# 
# From -- ./inp_files/482763.got.cif
#   From: 2010.05.17/outbox.cif.g08.bks.cpg/sg2_242_cif.got.tgz:482763.got - 2010.06.03 11:33:40.
