data_PCOD9085008
_publ_section_title
;
Structure prediction by ZEFSAII (Michael W. Deem and Ramdas Pophale) SiO2 
 PCOD9085008
Probable space group: P -1
;
_chemical_formula_sum "Si O2"
_cell_formula_units_Z 16
_cell_length_a 15.945552
_cell_length_b 11.566520
_cell_length_c 5.477657
_cell_angle_alpha 99.804214
_cell_angle_beta 131.625660
_cell_angle_gamma 61.641481
_cell_volume 648.150195
_symmetry_space_group_name_H-M "P -1"
_symmetry_group_IT_number 2
_symmetry_cell_setting 'triclinic'
loop_
_space_group_symop_operation_xyz
x,y,z
-x,-y,-z
loop_
_atom_site_type_symbol
_atom_site_label
_atom_site_fract_x
_atom_site_fract_y
_atom_site_fract_z
Si Si1 0.317492 0.912355 0.071315
Si Si2 0.288303 0.683602 0.125813
Si Si3 0.929527 0.305650 0.012557
Si Si4 0.216007 0.200771 0.025794
Si Si5 0.076418 0.572408 0.455339
Si Si6 0.526503 0.126304 0.133237
Si Si7 0.203681 0.259538 0.522854
Si Si8 0.541159 0.577244 0.904721
O O1 0.275002 0.800260 0.964906
O O2 0.414821 0.887666 0.481101
O O3 0.372823 0.904958 0.906965
O O4 0.206721 0.065839 0.951016
O O5 0.162675 0.747076 0.078258
O O6 0.416285 0.638692 0.513868
O O7 0.331531 0.542749 0.017524
O O8 0.888665 0.361289 0.681537
O O9 0.896384 0.416135 0.203525
O O10 0.085908 0.223590 0.287697
O O11 0.280997 0.208768 0.905031
O O12 0.078504 0.334064 0.813731
O O13 0.280305 0.202075 0.402760
O O14 0.129868 0.419648 0.433967
O O15 0.440817 0.291700 0.974689
O O16 0.500000 0.000000 0.000000
O O17 0.500000 0.500000 0.000000
#
# Coordination Sequence:
#
# PCOD9085008 Si02
#       8
#     2   2   2   2   2   2   2   2
#     4  11  23  42  65  86 125 164 203 252 310 377
#     4  10  23  40  64  90 119 161 215 252 305 370
#     4  10  20  34  58  89 114 154 207 248 291 359
#     4  10  19  35  58  84 112 162 200 229 306 359
#     4  10  20  37  56  83 132 159 192 254 304 353
#     4  11  24  45  64  93 127 158 203 263 317 365
#     4  10  19  38  56  82 131 162 193 248 307 357
#     4  10  21  44  67  86 124 167 200 262 317 359
#
# _framework density 24.685638000000001
#
# number of rings (size 3 to 8) (size 9 to 14) (size 15 to 20)
#    0.000    1.750    1.250    4.875    1.750    0.000 
#    9.000    5.000    0.000    0.000    0.000    0.000 
#    0.000    0.000    0.000    0.000    0.000    0.000 
#
# Total GULP energy -89159.636499 kJ/mol
# GULP energy per Si atom -5572.477281 kJ/mol
# Density = 2.462945 g / cm^3
# Si number density = 24.685638 Si / 1000 Ang^3
#
#
#
# Elastic Constant Matrix: (Units=GPa)
#
#
# Indices 1 2 3 4 5 6 
#
# 1 108.0729 9.0054 16.7921 1.2031 -24.3450 20.5268
# 2 9.0054 137.3890 10.9200 -5.7992 -2.6089 0.2665
# 3 16.7921 10.9200 79.2229 1.9784 -10.2584 -8.0876
# 4 1.2031 -5.7992 1.9784 33.3119 -2.4742 -9.6320
# 5 -24.3450 -2.6089 -10.2584 -2.4742 40.3751 7.4940
# 6 20.5268 0.2665 -8.0876 -9.6320 7.4940 33.3231
#
#
#
# Elastic Compliance Matrix: (Units=1/GPa)
#
#
# Indices 1 2 3 4 5 6 
#
# 1 0.014554 -0.000650 -0.002913 -0.003455 0.010186 -0.012956
# 2 -0.000650 0.007452 -0.000886 0.001537 -0.000153 0.000604
# 3 -0.002913 -0.000886 0.013982 0.000688 0.000814 0.005210
# 4 -0.003455 0.001537 0.000688 0.033840 -0.002061 0.012528
# 5 0.010186 -0.000153 0.000814 -0.002061 0.033622 -0.014233
# 6 -0.012956 0.000604 0.005210 0.012528 -0.014233 0.046072
#
#
# Mechanical properties :
#
#
# Convention : Reuss Voigt Hill
#
# Bulk Modulus (GPa) = 36.91185 44.23553 40.57369
# Shear Modulus (GPa) = 29.85968 40.59985 35.22977
#
# Velocity S-wave (km/s) = 3.48170 4.05986 3.78184
# Velocity P-wave (km/s) = 5.58106 6.31942 5.96168
#
# Compressibility (1/GPa) = 0.02709157
#
# Stress axis : x y z
#
# Youngs Moduli (GPa) = 68.71119 134.18493 71.51924
#
# Poissons Ratio (x) = 0.08719 0.20831
# Poissons Ratio (y) = 0.04464 0.06337
# Poissons Ratio (z) = 0.20013 0.11890
#
# Static dielectric constant tensor:
#      x y z
#    x 2.056450 0.033890 0.040520 
#    y 0.033890 1.946280 0.053360 
#    z 0.040520 0.053360 2.076970 
# 
# From -- ./inp_files/85401.got.cif
#   From: 2010.05.17/outbox.cif.g08.bks.cpg/sg2_43_cif.got.tgz:85401.got - 2010.06.03 11:33:40.
