data_PCOD9085953
_publ_section_title
;
Structure prediction by ZEFSAII (Michael W. Deem and Ramdas Pophale) SiO2 
 PCOD9085953
Probable space group: P -1
;
_chemical_formula_sum "Si O2"
_cell_formula_units_Z 12
_cell_length_a 13.437508
_cell_length_b 6.999020
_cell_length_c 7.815612
_cell_angle_alpha 87.903646
_cell_angle_beta 55.250214
_cell_angle_gamma 87.537426
_cell_volume 603.332847
_symmetry_space_group_name_H-M "P -1"
_symmetry_group_IT_number 2
_symmetry_cell_setting 'triclinic'
loop_
_space_group_symop_operation_xyz
x,y,z
-x,-y,-z
loop_
_atom_site_type_symbol
_atom_site_label
_atom_site_fract_x
_atom_site_fract_y
_atom_site_fract_z
Si Si1 0.213212 0.690244 0.035392
Si Si2 0.796620 0.688378 0.461080
Si Si3 0.994953 0.984677 0.299763
Si Si4 0.363079 0.552482 0.578763
Si Si5 0.633419 0.446278 0.808924
Si Si6 0.011565 0.418320 0.182402
O O1 0.298317 0.687607 0.117562
O O2 0.136336 0.496608 0.127389
O O3 0.110643 0.856495 0.130495
O O4 0.294327 0.676433 0.785705
O O5 0.871319 0.878883 0.377009
O O6 0.718763 0.634754 0.370934
O O7 0.703341 0.646311 0.705603
O O8 0.900040 0.520857 0.386726
O O9 0.000000 0.000000 0.500000
O O10 0.000696 0.193752 0.208561
O O11 0.500000 0.500000 0.500000
O O12 0.634156 0.360840 0.618531
O O13 0.500000 0.500000 0.000000
O O14 0.000000 0.500000 0.000000
#
# Coordination Sequence:
#
# PCOD9085953 Si02
#       6
#     2   2   2   2   2   2
#     4  11  21  39  64  96 129 169 216 265 331 393
#     4   9  21  38  60  96 127 163 220 259 327 394
#     4  11  24  38  65  99 136 172 212 271 331 395
#     4  10  20  39  65  95 125 170 220 269 319 386
#     4  10  19  35  65  91 125 173 216 265 325 380
#     4  11  21  40  63  96 129 170 211 270 330 391
#
# _framework density 19.889519
#
# number of rings (size 3 to 8) (size 9 to 14) (size 15 to 20)
#    1.000    0.667    3.333    2.000    0.000    5.333 
#    0.000    0.000    0.000   24.000    0.000    0.000 
#    0.000    0.000    0.000    0.000    0.000    0.000 
#
# Total GULP energy -66917.919107 kJ/mol
# GULP energy per Si atom -5576.493259 kJ/mol
# Density = 1.984425 g / cm^3
# Si number density = 19.889519 Si / 1000 Ang^3
#
#
#
# Elastic Constant Matrix: (Units=GPa)
#
#
# Indices 1 2 3 4 5 6 
#
# 1 113.5962 26.4536 56.3462 -1.7597 3.5073 3.6165
# 2 26.4536 121.1259 48.5130 -14.2459 -5.2225 -2.9713
# 3 56.3462 48.5130 161.6737 5.0830 -7.9111 -2.2658
# 4 -1.7597 -14.2459 5.0830 17.8810 -0.8856 9.4021
# 5 3.5073 -5.2225 -7.9111 -0.8856 46.3658 0.0419
# 6 3.6165 -2.9713 -2.2658 9.4021 0.0419 11.1582
#
#
#
# Elastic Compliance Matrix: (Units=1/GPa)
#
#
# Indices 1 2 3 4 5 6 
#
# 1 0.011632 -0.000068 -0.004544 0.008588 -0.001488 -0.011941
# 2 -0.000068 0.011626 -0.004107 0.016646 0.000942 -0.011746
# 3 -0.004544 -0.004107 0.009689 -0.013722 0.001260 0.013904
# 4 0.008588 0.016646 -0.013722 0.133966 0.001546 -0.114026
# 5 -0.001488 0.000942 0.001260 0.001546 0.022031 -0.000396
# 6 -0.011941 -0.011746 0.013904 -0.114026 -0.000396 0.189268
#
#
# Mechanical properties :
#
#
# Convention : Reuss Voigt Hill
#
# Bulk Modulus (GPa) = 64.47292 73.22461 68.84877
# Shear Modulus (GPa) = 12.47448 32.75321 22.61384
#
# Velocity S-wave (km/s) = 2.50709 4.06243 3.37556
# Velocity P-wave (km/s) = 6.39270 7.67464 7.06281
#
# Compressibility (1/GPa) = 0.01551039
#
# Stress axis : x y z
#
# Youngs Moduli (GPa) = 85.97121 86.01611 103.20854
#
# Poissons Ratio (x) = 0.00581 0.46896
# Poissons Ratio (y) = 0.00581 0.42386
# Poissons Ratio (z) = 0.39063 0.35325
#
# Static dielectric constant tensor:
#      x y z
#    x 1.736410 0.034500 0.025220 
#    y 0.034500 1.690640 0.003450 
#    z 0.025220 0.003450 1.752000 
# 
# From -- ./inp_files/133971.got.cif
#   From: 2010.05.17/outbox.cif.g08.bks.cpg/sg2_67_cif.got.tgz:133971.got - 2010.06.03 11:33:40.
