data_PCOD9085102
_publ_section_title
;
Structure prediction by ZEFSAII (Michael W. Deem and Ramdas Pophale) SiO2 
 PCOD9085102
Probable space group: P -1
;
_chemical_formula_sum "Si O2"
_cell_formula_units_Z 16
_cell_length_a 9.340148
_cell_length_b 7.712989
_cell_length_c 10.896793
_cell_angle_alpha 68.341227
_cell_angle_beta 110.573810
_cell_angle_gamma 100.308241
_cell_volume 681.959338
_symmetry_space_group_name_H-M "P -1"
_symmetry_group_IT_number 2
_symmetry_cell_setting 'triclinic'
loop_
_space_group_symop_operation_xyz
x,y,z
-x,-y,-z
loop_
_atom_site_type_symbol
_atom_site_label
_atom_site_fract_x
_atom_site_fract_y
_atom_site_fract_z
Si Si1 0.117115 0.587000 0.688853
Si Si2 0.113965 0.233602 0.619404
Si Si3 0.599219 0.148887 0.708397
Si Si4 0.556292 0.255284 0.186307
Si Si5 0.332685 0.224555 0.470549
Si Si6 0.132114 0.427915 0.181158
Si Si7 0.609094 0.368783 0.900025
Si Si8 0.136386 0.016974 0.272158
O O1 0.008851 0.688595 0.534055
O O2 0.018585 0.545851 0.792638
O O3 0.156213 0.393011 0.688982
O O4 0.269793 0.712261 0.726116
O O5 0.257178 0.195592 0.588589
O O6 0.024676 0.061103 0.703462
O O7 0.512568 0.241034 0.544321
O O8 0.564480 0.250124 0.797938
O O9 0.528446 0.935904 0.746788
O O10 0.780719 0.129545 0.748668
O O11 0.466748 0.431313 0.163069
O O12 0.562927 0.264278 0.038369
O O13 0.262202 0.399022 0.334699
O O14 0.259136 0.056497 0.409540
O O15 0.208665 0.581235 0.075079
O O16 0.119257 0.225926 0.163172
#
# Coordination Sequence:
#
# PCOD9085102 Si02
#       8
#     2   2   2   2   2   2   2   2
#     4  10  21  36  60  86 119 153 195 237 292 355
#     4  10  19  35  58  91 119 152 189 236 295 355
#     4  12  22  38  64  88 114 159 198 235 297 350
#     4  11  24  42  61  86 115 156 201 245 291 337
#     4   9  20  33  59  91 121 150 187 240 294 351
#     4   9  21  38  56  88 118 158 181 242 300 335
#     4  11  24  43  61  81 121 154 202 249 280 345
#     4  10  20  34  56  86 123 149 187 234 292 347
#
# _framework density 23.461808999999999
#
# number of rings (size 3 to 8) (size 9 to 14) (size 15 to 20)
#    0.750    1.000    1.250    3.375    1.750    2.000 
#    0.000    0.000    0.000    1.500    0.000    0.000 
#    0.000    0.000    0.000    0.000    0.000    0.000 
#
# Total GULP energy -89437.396472 kJ/mol
# GULP energy per Si atom -5589.837280 kJ/mol
# Density = 2.340841 g / cm^3
# Si number density = 23.461809 Si / 1000 Ang^3
#
#
#
# Elastic Constant Matrix: (Units=GPa)
#
#
# Indices 1 2 3 4 5 6 
#
# 1 78.4921 11.5683 20.1642 -0.2073 -30.9673 -0.5210
# 2 11.5683 51.9886 14.1643 11.0203 1.5460 1.6380
# 3 20.1642 14.1643 55.7751 10.3323 -2.4987 -5.6064
# 4 -0.2073 11.0203 10.3323 25.0150 -0.0439 -14.1636
# 5 -30.9673 1.5460 -2.4987 -0.0439 26.9803 1.3713
# 6 -0.5210 1.6380 -5.6064 -14.1636 1.3713 34.5850
#
#
#
# Elastic Compliance Matrix: (Units=1/GPa)
#
#
# Indices 1 2 3 4 5 6 
#
# 1 0.028797 -0.006652 -0.008515 0.007361 0.032601 0.001090
# 2 -0.006652 0.024829 -0.002416 -0.014002 -0.008946 -0.007047
# 3 -0.008515 -0.002416 0.022846 -0.008067 -0.007567 0.000686
# 4 0.007361 -0.014002 -0.008067 0.063901 0.007319 0.025346
# 5 0.032601 -0.008946 -0.007567 0.007319 0.074320 -0.000261
# 6 0.001090 -0.007047 0.000686 0.025346 -0.000261 0.039766
#
#
# Mechanical properties :
#
#
# Convention : Reuss Voigt Hill
#
# Bulk Modulus (GPa) = 24.20966 30.89437 27.55201
# Shear Modulus (GPa) = 16.48028 26.67333 21.57681
#
# Velocity S-wave (km/s) = 2.65321 3.37543 3.03587
# Velocity P-wave (km/s) = 4.44153 5.32803 4.90485
#
# Compressibility (1/GPa) = 0.04130583
#
# Stress axis : x y z
#
# Youngs Moduli (GPa) = 34.72615 40.27485 43.77225
#
# Poissons Ratio (x) = 0.26790 0.37272
# Poissons Ratio (y) = 0.23099 0.10576
# Poissons Ratio (z) = 0.29569 0.09731
#
# Static dielectric constant tensor:
#      x y z
#    x 1.904660 -0.023750 0.010430 
#    y -0.023750 1.871110 -0.003760 
#    z 0.010430 -0.003760 1.883830 
# 
# From -- ./inp_files/378764.got.cif
#   From: 2010.05.17/outbox.cif.g08.bks.cpg/sg2_190_cif.got.tgz:378764.got - 2010.06.03 11:33:40.
