data_PCOD9085829
_publ_section_title
;
Structure prediction by ZEFSAII (Michael W. Deem and Ramdas Pophale) SiO2 
 PCOD9085829
Probable space group: P -1
;
_chemical_formula_sum "Si O2"
_cell_formula_units_Z 16
_cell_length_a 16.546403
_cell_length_b 9.024891
_cell_length_c 5.325991
_cell_angle_alpha 81.650599
_cell_angle_beta 91.521786
_cell_angle_gamma 127.583242
_cell_volume 621.638193
_symmetry_space_group_name_H-M "P -1"
_symmetry_group_IT_number 2
_symmetry_cell_setting 'triclinic'
loop_
_space_group_symop_operation_xyz
x,y,z
-x,-y,-z
loop_
_atom_site_type_symbol
_atom_site_label
_atom_site_fract_x
_atom_site_fract_y
_atom_site_fract_z
Si Si1 0.024626 0.623076 0.226417
Si Si2 0.557123 0.347706 0.373794
Si Si3 0.744447 0.990017 0.841717
Si Si4 0.909571 0.808384 0.176336
Si Si5 0.725337 0.283906 0.789728
Si Si6 0.264035 0.212250 0.606110
Si Si7 0.477315 0.798227 0.093456
Si Si8 0.245596 0.581824 0.752162
O O1 0.140935 0.812615 0.202803
O O2 0.000000 0.500000 0.500000
O O3 0.960904 0.704386 0.229180
O O4 0.000000 0.500000 0.000000
O O5 0.637128 0.567638 0.403108
O O6 0.484732 0.222813 0.630602
O O7 0.633675 0.295047 0.328137
O O8 0.506277 0.300319 0.107066
O O9 0.679642 0.069391 0.784497
O O10 0.729021 0.862752 0.639418
O O11 0.733274 0.895309 0.128881
O O12 0.850579 0.837808 0.378618
O O13 0.802597 0.626470 0.091192
O O14 0.000000 0.000000 0.000000
O O15 0.644324 0.323681 0.825899
O O16 0.790866 0.413295 0.529359
O O17 0.775197 0.323508 0.058303
O O18 0.500000 0.000000 0.000000
#
# Coordination Sequence:
#
# PCOD9085829 Si02
#       8
#     2   2   2   2   2   2   2   2
#     4  12  26  42  60  86 120 157 204 266 317 348
#     4   9  19  35  57  85 118 147 187 238 287 349
#     4  12  23  39  59  83 117 159 206 242 298 369
#     4  11  23  42  61  87 120 157 209 257 304 354
#     4  10  20  38  59  84 117 153 195 239 302 353
#     4  11  24  40  60  86 117 163 205 241 291 363
#     4  10  19  35  63  93 115 144 189 244 299 353
#     4   9  19  36  57  81 110 156 194 242 293 350
#
# _framework density 25.738448000000002
#
# number of rings (size 3 to 8) (size 9 to 14) (size 15 to 20)
#    0.000    1.500    1.250    4.125    0.000    4.500 
#    0.000    0.000    0.000    4.500    0.000    0.000 
#    0.000    0.000    0.000    0.000    0.000    0.000 
#
# Total GULP energy -89198.162266 kJ/mol
# GULP energy per Si atom -5574.885142 kJ/mol
# Density = 2.567987 g / cm^3
# Si number density = 25.738448 Si / 1000 Ang^3
#
#
#
# Elastic Constant Matrix: (Units=GPa)
#
#
# Indices 1 2 3 4 5 6 
#
# 1 71.9630 9.3703 15.2509 5.7614 -12.5468 -15.0830
# 2 9.3703 154.7851 91.6314 -3.7183 -3.7124 -2.2828
# 3 15.2509 91.6314 229.6739 13.5919 -1.3899 -11.3218
# 4 5.7614 -3.7183 13.5919 54.5161 -12.5360 -1.2727
# 5 -12.5468 -3.7124 -1.3899 -12.5360 19.9560 -2.0878
# 6 -15.0830 -2.2828 -11.3218 -1.2727 -2.0878 43.8963
#
#
#
# Elastic Compliance Matrix: (Units=1/GPa)
#
#
# Indices 1 2 3 4 5 6 
#
# 1 0.017490 -0.000172 -0.000780 0.001342 0.012426 0.006430
# 2 -0.000172 0.008698 -0.003584 0.002078 0.002529 -0.000351
# 3 -0.000780 -0.003584 0.005993 -0.002083 -0.001950 0.000938
# 4 0.001342 0.002078 -0.002083 0.022417 0.015315 0.001410
# 5 0.012426 0.002529 -0.001950 0.015315 0.068674 0.007608
# 6 0.006430 -0.000351 0.000938 0.001410 0.007608 0.025617
#
#
# Mechanical properties :
#
#
# Convention : Reuss Voigt Hill
#
# Bulk Modulus (GPa) = 43.27114 76.54747 59.90930
# Shear Modulus (GPa) = 30.18167 46.35165 38.26666
#
# Velocity S-wave (km/s) = 3.42808 4.24827 3.86002
# Velocity P-wave (km/s) = 5.70240 7.33954 6.57215
#
# Compressibility (1/GPa) = 0.02311009
#
# Stress axis : x y z
#
# Youngs Moduli (GPa) = 57.17444 114.97014 166.85399
#
# Poissons Ratio (x) = 0.01977 0.13015
# Poissons Ratio (y) = 0.00983 0.59795
# Poissons Ratio (z) = 0.04460 0.41202
#
# Static dielectric constant tensor:
#      x y z
#    x 2.340970 0.064220 0.063180 
#    y 0.064220 2.062830 0.091400 
#    z 0.063180 0.091400 2.127350 
# 
# From -- ./inp_files/117036.got.cif
#   From: 2010.05.17/outbox.cif.g08.bks.cpg/sg2_59_cif.got.tgz:117036.got - 2010.06.03 11:33:40.
