data_PCOD9085009
_publ_section_title
;
Structure prediction by ZEFSAII (Michael W. Deem and Ramdas Pophale) SiO2 
 PCOD9085009
Probable space group: P -1
;
_chemical_formula_sum "Si O2"
_cell_formula_units_Z 16
_cell_length_a 11.253779
_cell_length_b 14.273996
_cell_length_c 12.268559
_cell_angle_alpha 31.811731
_cell_angle_beta 95.211722
_cell_angle_gamma 117.565129
_cell_volume 702.085046
_symmetry_space_group_name_H-M "P -1"
_symmetry_group_IT_number 2
_symmetry_cell_setting 'triclinic'
loop_
_space_group_symop_operation_xyz
x,y,z
-x,-y,-z
loop_
_atom_site_type_symbol
_atom_site_label
_atom_site_fract_x
_atom_site_fract_y
_atom_site_fract_z
Si Si1 0.290395 0.259235 0.717596
Si Si2 0.207548 0.565176 0.375380
Si Si3 0.202328 0.838667 0.274326
Si Si4 0.619947 0.004948 0.409122
Si Si5 0.294969 0.214929 0.513586
Si Si6 0.606207 0.547987 0.069209
Si Si7 0.779973 0.473995 0.831243
Si Si8 0.186490 0.891151 0.462047
O O1 0.211959 0.369815 0.613988
O O2 0.247773 0.144190 0.705551
O O3 0.499483 0.523453 0.757166
O O4 0.230515 0.057621 0.002622
O O5 0.285924 0.783024 0.256515
O O6 0.283428 0.634617 0.190832
O O7 0.008847 0.414172 0.489606
O O8 0.257471 0.900810 0.342386
O O9 0.731967 0.994006 0.349762
O O10 0.426748 0.700375 0.692678
O O11 0.706588 0.076148 0.462932
O O12 0.649702 0.231538 0.140858
O O13 0.500000 0.500000 0.500000
O O14 0.210752 0.303510 0.374997
O O15 0.500000 0.500000 0.000000
O O16 0.779055 0.856242 0.780716
O O17 0.979425 0.627487 0.713604
#
# Coordination Sequence:
#
# PCOD9085009 Si02
#       8
#     2   2   2   2   2   2   2   2
#     4  11  21  35  59  85 111 148 193 235 282 338
#     4   9  21  38  56  85 111 153 188 232 289 338
#     4  10  20  37  59  78 121 150 185 236 283 331
#     4   9  19  36  59  77 115 148 182 225 289 334
#     4   9  20  36  58  81 111 149 185 230 288 338
#     4   8  17  36  55  72 113 148 172 224 280 329
#     4  10  19  35  61  84 109 145 192 234 275 336
#     4  10  19  35  58  84 113 148 189 234 273 335
#
# _framework density 22.789263999999999
#
# number of rings (size 3 to 8) (size 9 to 14) (size 15 to 20)
#    0.750    1.750    0.000    2.250    0.000    1.000 
#    0.000    5.000    2.750    0.000    0.000    0.000 
#    0.000    0.000    0.000    0.000    0.000    0.000 
#
# Total GULP energy -89224.592937 kJ/mol
# GULP energy per Si atom -5576.537059 kJ/mol
# Density = 2.273739 g / cm^3
# Si number density = 22.789264 Si / 1000 Ang^3
#
#
#
# Elastic Constant Matrix: (Units=GPa)
#
#
# Indices 1 2 3 4 5 6 
#
# 1 48.3699 21.9235 -7.4246 -6.2385 6.5333 -18.2846
# 2 21.9235 100.8798 29.1642 -1.1456 15.5425 -10.4248
# 3 -7.4246 29.1642 69.0995 6.6888 -6.6909 5.5754
# 4 -6.2385 -1.1456 6.6888 29.4702 4.6191 -1.4905
# 5 6.5333 15.5425 -6.6909 4.6191 18.6528 -9.4283
# 6 -18.2846 -10.4248 5.5754 -1.4905 -9.4283 3.2969
#
#
#
# Elastic Compliance Matrix: (Units=1/GPa)
#
#
# Indices 1 2 3 4 5 6 
#
# 1 0.006714 -0.004487 0.004430 0.001353 -0.024271 -0.053243
# 2 -0.004487 0.016404 -0.009598 0.004320 -0.013965 0.005232
# 3 0.004430 -0.009598 0.021186 -0.006687 0.015394 -0.000610
# 4 0.001353 0.004320 -0.006687 0.038681 -0.020652 -0.009104
# 5 -0.024271 -0.013965 0.015394 -0.020652 0.053539 -0.061025
# 6 -0.053243 0.005232 -0.000610 -0.009104 -0.061025 -0.153026
#
#
# Mechanical properties :
#
#
# Convention : Reuss Voigt Hill
#
# Bulk Modulus (GPa) = 40.01021 33.96393 36.98707
# Shear Modulus (GPa) = 448.82984 21.92972 235.37978
#
# Velocity S-wave (km/s) = 14.04904 3.10543 10.17397
# Velocity P-wave (km/s) = 16.75596 5.27201 12.42087
#
# Compressibility (1/GPa) = 0.02499362
#
# Stress axis : x y z
#
# Youngs Moduli (GPa) = 148.94374 60.96022 47.20092
#
# Poissons Ratio (x) = 0.27354 -0.20911
# Poissons Ratio (y) = 0.66833 0.45305
# Poissons Ratio (z) = -0.65984 0.58511
#
# Static dielectric constant tensor:
#      x y z
#    x 1.878110 -0.036520 0.009130 
#    y -0.036520 1.866800 -0.020940 
#    z 0.009130 -0.020940 1.831160 
# 
# From -- ./inp_files/455407.got.cif
#   From: 2010.05.17/outbox.cif.g08.bks.cpg/sg2_228_cif.got.tgz:455407.got - 2010.06.03 11:33:40.
