data_PCOD9085081
_publ_section_title
;
Structure prediction by ZEFSAII (Michael W. Deem and Ramdas Pophale) SiO2 
 PCOD9085081
Probable space group: P -1
;
_chemical_formula_sum "Si O2"
_cell_formula_units_Z 12
_cell_length_a 8.507203
_cell_length_b 9.560699
_cell_length_c 10.745359
_cell_angle_alpha 51.060215
_cell_angle_beta 118.853864
_cell_angle_gamma 89.630945
_cell_volume 530.288436
_symmetry_space_group_name_H-M "P -1"
_symmetry_group_IT_number 2
_symmetry_cell_setting 'triclinic'
loop_
_space_group_symop_operation_xyz
x,y,z
-x,-y,-z
loop_
_atom_site_type_symbol
_atom_site_label
_atom_site_fract_x
_atom_site_fract_y
_atom_site_fract_z
Si Si1 0.393369 0.892900 0.097319
Si Si2 0.224690 0.939315 0.472769
Si Si3 0.735729 0.423052 0.152574
Si Si4 0.152553 0.256877 0.948949
Si Si5 0.512761 0.890418 0.406653
Si Si6 0.854299 0.283511 0.014427
O O1 0.185267 0.082219 0.960543
O O2 0.517995 0.798276 0.324629
O O3 0.339921 0.743049 0.082417
O O4 0.500000 0.000000 0.000000
O O5 0.291735 0.090936 0.485781
O O6 0.810289 0.206216 0.364859
O O7 0.412411 0.818328 0.517339
O O8 0.028261 0.066111 0.245947
O O9 0.500000 0.500000 0.000000
O O10 0.799146 0.566047 0.177425
O O11 0.819319 0.416167 0.049220
O O12 0.341393 0.123800 0.187490
O O13 0.945575 0.339836 0.898002
#
# Coordination Sequence:
#
# PCOD9085081 Si02
#       6
#     2   2   2   2   2   2
#     4  10  19  37  62  85 110 154 197 228 282 349
#     4  10  19  35  58  89 113 147 195 238 274 337
#     4  12  21  36  57  89 117 151 189 239 289 334
#     4   9  20  36  57  84 115 148 189 232 284 335
#     4   8  18  35  59  83 114 150 187 228 285 337
#     4  11  22  36  63  86 112 150 198 237 276 341
#
# _framework density 22.629192
#
# number of rings (size 3 to 8) (size 9 to 14) (size 15 to 20)
#    1.000    1.000    1.667    3.500    0.000    0.000 
#    0.000    0.833    0.000    4.000    0.000    0.000 
#    0.000    0.000    0.000    0.000    0.000    0.000 
#
# Total GULP energy -66940.031915 kJ/mol
# GULP energy per Si atom -5578.335993 kJ/mol
# Density = 2.257769 g / cm^3
# Si number density = 22.629192 Si / 1000 Ang^3
#
#
#
# Elastic Constant Matrix: (Units=GPa)
#
#
# Indices 1 2 3 4 5 6 
#
# 1 65.7743 -6.0634 1.8174 -4.0946 -0.8449 -0.1176
# 2 -6.0634 46.5542 8.1950 12.9157 -3.0564 8.6848
# 3 1.8174 8.1950 53.3421 18.5115 4.4448 10.0331
# 4 -4.0946 12.9157 18.5115 31.0595 4.8848 1.2422
# 5 -0.8449 -3.0564 4.4448 4.8848 16.1667 8.6223
# 6 -0.1176 8.6848 10.0331 1.2422 8.6223 31.1806
#
#
#
# Elastic Compliance Matrix: (Units=1/GPa)
#
#
# Indices 1 2 3 4 5 6 
#
# 1 0.015560 0.001888 -0.001548 0.002017 0.001188 -0.000378
# 2 0.001888 0.028946 0.001622 -0.014813 0.016259 -0.012483
# 3 -0.001548 0.001622 0.025609 -0.016228 0.002795 -0.008824
# 4 0.002017 -0.014813 -0.016228 0.051012 -0.020589 0.013016
# 5 0.001188 0.016259 0.002795 -0.020589 0.085510 -0.028249
# 6 -0.000378 -0.012483 -0.008824 0.013016 -0.028249 0.045679
#
#
# Mechanical properties :
#
#
# Convention : Reuss Voigt Hill
#
# Bulk Modulus (GPa) = 13.50613 19.28539 16.39576
# Shear Modulus (GPa) = 18.31011 26.46279 22.38645
#
# Velocity S-wave (km/s) = 2.84762 3.42337 3.14868
# Velocity P-wave (km/s) = 4.09797 4.91598 4.52549
#
# Compressibility (1/GPa) = 0.07404047
#
# Stress axis : x y z
#
# Youngs Moduli (GPa) = 64.26535 34.54657 39.04858
#
# Poissons Ratio (x) = -0.06522 0.06045
# Poissons Ratio (y) = -0.12133 -0.06335
# Poissons Ratio (z) = 0.09949 -0.05605
#
# Static dielectric constant tensor:
#      x y z
#    x 1.869320 -0.061990 -0.017470 
#    y -0.061990 1.817080 -0.012710 
#    z -0.017470 -0.012710 1.801830 
# 
# From -- ./inp_files/376196.got.cif
#   From: 2010.05.17/outbox.cif.g08.bks.cpg/sg2_189_cif.got.tgz:376196.got - 2010.06.03 11:33:40.
