data_PCOD9085382
_publ_section_title
;
Structure prediction by ZEFSAII (Michael W. Deem and Ramdas Pophale) SiO2 
 PCOD9085382
Probable space group: P -1
;
_chemical_formula_sum "Si O2"
_cell_formula_units_Z 16
_cell_length_a 16.841979
_cell_length_b 25.866061
_cell_length_c 26.129571
_cell_angle_alpha 11.478032
_cell_angle_beta 21.334427
_cell_angle_gamma 21.101963
_cell_volume 791.688148
_symmetry_space_group_name_H-M "P -1"
_symmetry_group_IT_number 2
_symmetry_cell_setting 'triclinic'
loop_
_space_group_symop_operation_xyz
x,y,z
-x,-y,-z
loop_
_atom_site_type_symbol
_atom_site_label
_atom_site_fract_x
_atom_site_fract_y
_atom_site_fract_z
Si Si1 0.743570 0.648250 0.921849
Si Si2 0.358002 0.306553 0.794721
Si Si3 0.728342 0.078036 0.586076
Si Si4 0.744921 0.612501 0.102462
Si Si5 0.838416 0.464477 0.926427
Si Si6 0.192878 0.089085 0.742250
Si Si7 0.579485 0.006141 0.504651
Si Si8 0.266354 0.612551 0.242268
O O1 0.777131 0.589989 0.898323
O O2 0.976992 0.487884 0.965040
O O3 0.685502 0.961320 0.669993
O O4 0.522677 0.565549 0.150908
O O5 0.500000 0.500000 0.500000
O O6 0.320513 0.358606 0.827146
O O7 0.111202 0.356202 0.868332
O O8 0.500000 0.000000 0.000000
O O9 0.651828 0.382311 0.355813
O O10 0.000000 0.000000 0.500000
O O11 0.663657 0.885973 0.853932
O O12 0.746137 0.713302 0.702289
O O13 0.710849 0.234148 0.215696
O O14 0.235263 0.323708 0.525903
O O15 0.923673 0.218257 0.768499
O O16 0.362533 0.054597 0.626166
O O17 0.232592 0.809924 0.020783
O O18 0.500000 0.000000 0.500000
#
# Coordination Sequence:
#
# PCOD9085382 Si02
#       8
#     2   2   2   2   2   2   2   2
#     4  10  19  35  60  87 118 154 204 250 295 381
#     4  11  23  43  67  91 126 172 214 269 319 373
#     4  10  20  34  54  87 125 158 186 248 314 362
#     4  10  22  36  56  87 124 160 203 246 309 374
#     4  11  24  40  65  96 118 164 226 260 317 388
#     4  10  20  37  55  84 119 153 191 248 318 355
#     4  12  23  41  64  92 130 169 216 276 317 372
#     4  10  20  34  58  84 116 150 196 251 299 367
#
# _framework density 20.209978
#
# number of rings (size 3 to 8) (size 9 to 14) (size 15 to 20)
#    0.000    1.500    2.500    3.375    0.000    9.000 
#    0.000    3.750    0.000    0.000    0.000    0.000 
#    0.000    0.000    0.000    0.000    0.000    0.000 
#
# Total GULP energy -89341.092974 kJ/mol
# GULP energy per Si atom -5583.818311 kJ/mol
# Density = 2.016398 g / cm^3
# Si number density = 20.209978 Si / 1000 Ang^3
#
#
#
# Elastic Constant Matrix: (Units=GPa)
#
#
# Indices 1 2 3 4 5 6 
#
# 1 113.8026 49.0735 57.2914 -4.6848 3.3423 0.4052
# 2 49.0735 134.1821 46.7622 8.0611 6.1652 -5.1107
# 3 57.2914 46.7622 156.9959 -6.1222 2.2934 -1.7073
# 4 -4.6848 8.0611 -6.1222 31.6935 -5.8367 1.6744
# 5 3.3423 6.1652 2.2934 -5.8367 29.5961 -1.3137
# 6 0.4052 -5.1107 -1.7073 1.6744 -1.3137 20.9700
#
#
#
# Elastic Compliance Matrix: (Units=1/GPa)
#
#
# Indices 1 2 3 4 5 6 
#
# 1 0.012018 -0.003426 -0.003300 0.002082 -0.000044 -0.001505
# 2 -0.003426 0.009737 -0.001742 -0.003847 -0.002155 0.002469
# 3 -0.003300 -0.001742 0.008151 0.001598 0.000428 0.000202
# 4 0.002082 -0.003847 0.001598 0.034627 0.007131 -0.003166
# 5 -0.000044 -0.002155 0.000428 0.007131 0.035668 0.001175
# 6 -0.001505 0.002469 0.000202 -0.003166 0.001175 0.048661
#
#
# Mechanical properties :
#
#
# Convention : Reuss Voigt Hill
#
# Bulk Modulus (GPa) = 77.09465 79.02608 78.06036
# Shear Modulus (GPa) = 29.39119 33.24215 31.31667
#
# Velocity S-wave (km/s) = 3.81765 4.06006 3.94072
# Velocity P-wave (km/s) = 7.59357 7.82088 7.70806
#
# Compressibility (1/GPa) = 0.01297107
#
# Stress axis : x y z
#
# Youngs Moduli (GPa) = 83.20939 102.70614 122.68750
#
# Poissons Ratio (x) = 0.35183 0.40485
# Poissons Ratio (y) = 0.28504 0.21368
# Poissons Ratio (z) = 0.27458 0.17888
#
# Static dielectric constant tensor:
#      x y z
#    x 1.745610 -0.024370 -0.000730 
#    y -0.024370 1.736750 -0.001460 
#    z -0.000730 -0.001460 1.758190 
# 
# From -- ./inp_files/620530.got.cif
#   From: 2010.05.17/outbox.cif.g08.bks.cpg/sg2_311_cif.got.tgz:620530.got - 2010.06.03 11:33:40.
