data_PCOD9085217
_publ_section_title
;
Structure prediction by ZEFSAII (Michael W. Deem and Ramdas Pophale) SiO2 
 PCOD9085217
Probable space group: P -1
;
_chemical_formula_sum "Si O2"
_cell_formula_units_Z 16
_cell_length_a 19.156964
_cell_length_b 17.455355
_cell_length_c 11.686891
_cell_angle_alpha 30.448614
_cell_angle_beta 42.629033
_cell_angle_gamma 21.010350
_cell_volume 656.841711
_symmetry_space_group_name_H-M "P -1"
_symmetry_group_IT_number 2
_symmetry_cell_setting 'triclinic'
loop_
_space_group_symop_operation_xyz
x,y,z
-x,-y,-z
loop_
_atom_site_type_symbol
_atom_site_label
_atom_site_fract_x
_atom_site_fract_y
_atom_site_fract_z
Si Si1 0.585221 0.486524 0.252945
Si Si2 0.679144 0.435247 0.640877
Si Si3 0.485128 0.875544 0.027709
Si Si4 0.240151 0.329099 0.529163
Si Si5 0.451389 0.841679 0.748778
Si Si6 0.712879 0.871998 0.807380
Si Si7 0.941533 0.867982 0.508337
Si Si8 0.825421 0.049672 0.158984
O O1 0.400228 0.607798 0.280994
O O2 0.801552 0.118071 0.455978
O O3 0.547263 0.628213 0.231098
O O4 0.585205 0.615050 0.988380
O O5 0.472697 0.793355 0.460303
O O6 0.828876 0.354318 0.492015
O O7 0.800403 0.223068 0.880729
O O8 0.321902 0.149958 0.778118
O O9 0.683014 0.739783 0.968666
O O10 0.367789 0.023632 0.099317
O O11 0.252723 0.183718 0.603827
O O12 0.028706 0.690896 0.340239
O O13 0.414798 0.220841 0.410835
O O14 0.373370 0.798981 0.827991
O O15 0.915387 0.719929 0.739422
O O16 0.836307 0.055528 0.273817
#
# Coordination Sequence:
#
# PCOD9085217 Si02
#       8
#     2   2   2   2   2   2   2   2
#     4   9  21  39  60  85 120 154 192 241 291 348
#     4  10  22  39  60  88 119 153 192 240 292 345
#     4  10  21  43  63  82 116 158 196 244 291 335
#     4  10  19  35  59  86 120 152 189 238 289 346
#     4   9  19  34  56  88 118 153 190 233 293 345
#     4  10  23  42  63  84 115 154 200 244 287 345
#     4  11  22  37  59  89 119 155 195 236 292 350
#     4  11  21  34  58  88 119 151 189 239 291 346
#
# _framework density 24.358988
#
# number of rings (size 3 to 8) (size 9 to 14) (size 15 to 20)
#    0.000    2.000    0.000    3.000    0.000    8.500 
#    0.000   14.375    0.000    0.000    0.000    0.000 
#    0.000    0.000    0.000    0.000    0.000    0.000 
#
# Total GULP energy -89579.972710 kJ/mol
# GULP energy per Si atom -5598.748294 kJ/mol
# Density = 2.430355 g / cm^3
# Si number density = 24.358988 Si / 1000 Ang^3
#
#
#
# Elastic Constant Matrix: (Units=GPa)
#
#
# Indices 1 2 3 4 5 6 
#
# 1 110.3327 29.0886 20.6506 13.1173 -33.5294 13.0689
# 2 29.0886 90.3297 23.5004 7.6390 -9.2355 -7.1506
# 3 20.6506 23.5004 110.4635 13.4229 0.1745 0.7734
# 4 13.1173 7.6390 13.4229 42.2754 3.9149 -15.2867
# 5 -33.5294 -9.2355 0.1745 3.9149 44.0743 9.7431
# 6 13.0689 -7.1506 0.7734 -15.2867 9.7431 30.6238
#
#
#
# Elastic Compliance Matrix: (Units=1/GPa)
#
#
# Indices 1 2 3 4 5 6 
#
# 1 0.024143 -0.005666 -0.000821 -0.019115 0.025337 -0.029208
# 2 -0.005666 0.013497 -0.002287 0.003467 -0.003666 0.008525
# 3 -0.000821 -0.002287 0.010093 -0.003176 -0.000445 -0.001882
# 4 -0.019115 0.003467 -0.003176 0.047442 -0.027162 0.041371
# 5 0.025337 -0.003666 -0.000445 -0.027162 0.052906 -0.042048
# 6 -0.029208 0.008525 -0.001882 0.041371 -0.042048 0.081186
#
#
# Mechanical properties :
#
#
# Convention : Reuss Voigt Hill
#
# Bulk Modulus (GPa) = 33.13025 50.84503 41.98764
# Shear Modulus (GPa) = 19.46457 39.25378 29.35917
#
# Velocity S-wave (km/s) = 2.82985 4.01867 3.47547
# Velocity P-wave (km/s) = 4.93029 6.51548 5.77751
#
# Compressibility (1/GPa) = 0.03018389
#
# Stress axis : x y z
#
# Youngs Moduli (GPa) = 41.41976 74.08982 99.08215
#
# Poissons Ratio (x) = 0.41982 0.08132
# Poissons Ratio (y) = 0.23470 0.22664
# Poissons Ratio (z) = 0.03400 0.16947
#
# Static dielectric constant tensor:
#      x y z
#    x 1.969650 -0.021840 -0.007300 
#    y -0.021840 1.924720 -0.016340 
#    z -0.007300 -0.016340 1.966320 
# 
# From -- ./inp_files/472329.got.cif
#   From: 2010.05.17/outbox.cif.g08.bks.cpg/sg2_237_cif.got.tgz:472329.got - 2010.06.03 11:33:40.
