data_PCOD9085997
_publ_section_title
;
Structure prediction by ZEFSAII (Michael W. Deem and Ramdas Pophale) SiO2 
 PCOD9085997
Probable space group: P -1
;
_chemical_formula_sum "Si O2"
_cell_formula_units_Z 16
_cell_length_a 14.182636
_cell_length_b 10.577657
_cell_length_c 12.122338
_cell_angle_alpha 142.183846
_cell_angle_beta 30.786570
_cell_angle_gamma 127.455351
_cell_volume 556.123289
_symmetry_space_group_name_H-M "P -1"
_symmetry_group_IT_number 2
_symmetry_cell_setting 'triclinic'
loop_
_space_group_symop_operation_xyz
x,y,z
-x,-y,-z
loop_
_atom_site_type_symbol
_atom_site_label
_atom_site_fract_x
_atom_site_fract_y
_atom_site_fract_z
Si Si1 0.777948 0.819632 0.956165
Si Si2 0.037687 0.078305 0.865435
Si Si3 0.982944 0.446151 0.639176
Si Si4 0.293504 0.414746 0.819908
Si Si5 0.727674 0.905223 0.671599
Si Si6 0.848953 0.233169 0.934190
Si Si7 0.358370 0.480247 0.371874
Si Si8 0.403877 0.842476 0.243992
O O1 0.878226 0.756661 0.692848
O O2 0.848141 0.599209 0.796379
O O3 0.556897 0.893231 0.211195
O O4 0.883331 0.981409 0.020932
O O5 0.899227 0.182985 0.975800
O O6 0.199539 0.866289 0.520502
O O7 0.188667 0.229085 0.825096
O O8 0.140814 0.565150 0.612888
O O9 0.835210 0.400861 0.846061
O O10 0.253715 0.522449 0.815338
O O11 0.510989 0.380526 0.607870
O O12 0.651457 0.715919 0.672948
O O13 0.942809 0.811910 0.358067
O O14 0.735293 0.083409 0.880073
O O15 0.631579 0.003025 0.721179
O O16 0.481654 0.382374 0.073539
#
# Coordination Sequence:
#
# PCOD9085997 Si02
#       8
#     2   2   2   2   2   2   2   2
#     4  10  23  43  69  87 122 159 210 263 300 357
#     4  11  25  40  58  92 130 167 198 246 311 373
#     4  10  23  44  65  95 114 160 216 259 302 350
#     4  12  24  39  61  90 132 165 199 248 308 374
#     4  10  19  35  66  95 120 156 206 257 308 355
#     4  10  20  38  62  92 128 160 200 256 302 367
#     4  11  21  37  65  92 120 160 204 256 304 363
#     4  10  21  38  62  92 118 157 207 252 304 357
#
# _framework density 28.770600999999999
#
# number of rings (size 3 to 8) (size 9 to 14) (size 15 to 20)
#    0.000    1.500    2.500    3.000    3.500    2.500 
#    0.000    6.250    0.000    0.000    0.000    0.000 
#    0.000    0.000    0.000    0.000    0.000    0.000 
#
# Total GULP energy -89551.151008 kJ/mol
# GULP energy per Si atom -5596.946938 kJ/mol
# Density = 2.870512 g / cm^3
# Si number density = 28.770601 Si / 1000 Ang^3
#
#
#
# Elastic Constant Matrix: (Units=GPa)
#
#
# Indices 1 2 3 4 5 6 
#
# 1 93.2439 18.9019 21.7876 -1.2056 -49.4444 27.4884
# 2 18.9019 136.2112 9.8506 -1.1109 -29.9713 28.2291
# 3 21.7876 9.8506 97.1187 -27.0726 -49.1791 10.0346
# 4 -1.2056 -1.1109 -27.0726 39.9163 14.4947 -6.9825
# 5 -49.4444 -29.9713 -49.1791 14.4947 67.5272 -7.3478
# 6 27.4884 28.2291 10.0346 -6.9825 -7.3478 38.0572
#
#
#
# Elastic Compliance Matrix: (Units=1/GPa)
#
#
# Indices 1 2 3 4 5 6 
#
# 1 0.031560 0.007259 0.008236 -0.009234 0.031485 -0.025967
# 2 0.007259 0.011509 0.003941 -0.003667 0.012661 -0.013048
# 3 0.008236 0.003941 0.021180 0.005449 0.021012 -0.009400
# 4 -0.009234 -0.003667 0.005449 0.034302 -0.010453 0.012229
# 5 0.031485 0.012661 0.021012 -0.010453 0.057938 -0.028405
# 6 -0.025967 -0.013048 -0.009400 0.012229 -0.028405 0.053948
#
#
# Mechanical properties :
#
#
# Convention : Reuss Voigt Hill
#
# Bulk Modulus (GPa) = 9.69732 47.51710 28.60721
# Shear Modulus (GPa) = 24.27913 47.50237 35.89075
#
# Velocity S-wave (km/s) = 2.90812 4.06775 3.53580
# Velocity P-wave (km/s) = 3.82807 6.21400 5.16081
#
# Compressibility (1/GPa) = 0.10312124
#
# Stress axis : x y z
#
# Youngs Moduli (GPa) = 31.68577 86.88651 47.21524
#
# Poissons Ratio (x) = -0.63070 -0.38886
# Poissons Ratio (y) = -0.23000 -0.18610
# Poissons Ratio (z) = -0.26096 -0.34246
#
# Static dielectric constant tensor:
#      x y z
#    x 2.479020 0.102610 0.229790 
#    y 0.102610 2.233450 0.133170 
#    z 0.229790 0.133170 2.264280 
# 
# From -- ./inp_files/531753.got.cif
#   From: 2010.05.17/outbox.cif.g08.bks.cpg/sg2_266_cif.got.tgz:531753.got - 2010.06.03 11:33:40.
