data_PCOD9085682
_publ_section_title
;
Structure prediction by ZEFSAII (Michael W. Deem and Ramdas Pophale) SiO2 
 PCOD9085682
Probable space group: P -1
;
_chemical_formula_sum "Si O2"
_cell_formula_units_Z 16
_cell_length_a 26.469333
_cell_length_b 10.962135
_cell_length_c 26.470558
_cell_angle_alpha 35.147301
_cell_angle_beta 11.463350
_cell_angle_gamma 35.153029
_cell_volume 869.847724
_symmetry_space_group_name_H-M "P -1"
_symmetry_group_IT_number 2
_symmetry_cell_setting 'triclinic'
loop_
_space_group_symop_operation_xyz
x,y,z
-x,-y,-z
loop_
_atom_site_type_symbol
_atom_site_label
_atom_site_fract_x
_atom_site_fract_y
_atom_site_fract_z
Si Si1 0.971619 0.358142 0.469572
Si Si2 0.892300 0.867821 0.389240
Si Si3 0.262622 0.113654 0.762338
Si Si4 0.073690 0.998132 0.573946
Si Si5 0.645382 0.098377 0.148242
Si Si6 0.603152 0.737710 0.103813
Si Si7 0.565609 0.610955 0.067471
Si Si8 0.709253 0.282620 0.208795
O O1 0.936335 0.608656 0.433764
O O2 0.711770 0.317784 0.709708
O O3 0.021061 0.212576 0.519514
O O4 0.211732 0.317634 0.209826
O O5 0.615511 0.938549 0.611395
O O6 0.905869 0.949820 0.404827
O O7 0.115702 0.938511 0.111570
O O8 0.482819 0.242584 0.482203
O O9 0.304264 0.041950 0.803415
O O10 0.281975 0.898197 0.782245
O O11 0.982584 0.242615 0.982466
O O12 0.338639 0.865923 0.339862
O O13 0.838843 0.866704 0.839240
O O14 0.610375 0.350723 0.112338
O O15 0.579781 0.695650 0.081354
O O16 0.656974 0.511799 0.156344
#
# Coordination Sequence:
#
# PCOD9085682 Si02
#       8
#     2   2   2   2   2   2   2   2
#     4  10  22  39  61  84 113 147 204 253 274 326
#     4  10  22  39  61  84 113 151 205 246 273 323
#     4  10  19  35  62  89 114 144 189 232 294 334
#     4  12  25  39  59  82 115 168 193 229 288 342
#     4  10  19  37  63  88 114 144 191 253 287 327
#     4  12  24  39  58  84 129 152 185 231 291 370
#     4  10  21  37  58  89 117 149 184 241 304 333
#     4  10  21  35  57  90 120 146 180 236 283 357
#
# _framework density 18.394024000000002
#
# number of rings (size 3 to 8) (size 9 to 14) (size 15 to 20)
#    0.000    1.500    1.250    4.125    0.000    3.000 
#    0.000    5.000    0.000   15.000    0.000    0.000 
#    0.000    0.000    0.000    0.000    0.000    0.000 
#
# Total GULP energy -89465.899782 kJ/mol
# GULP energy per Si atom -5591.618736 kJ/mol
# Density = 1.835216 g / cm^3
# Si number density = 18.394024 Si / 1000 Ang^3
#
#
#
# Elastic Constant Matrix: (Units=GPa)
#
#
# Indices 1 2 3 4 5 6 
#
# 1 108.9111 -104.6871 -24.0433 19.4699 -1.6002 57.6477
# 2 -104.6871 -219.0366 -168.9712 19.7220 -8.8701 90.2063
# 3 -24.0433 -168.9712 22.3576 32.5488 -9.4208 83.0220
# 4 19.4699 19.7220 32.5488 14.1030 -7.4968 -4.5743
# 5 -1.6002 -8.8701 -9.4208 -7.4968 27.0478 4.0351
# 6 57.6477 90.2063 83.0220 -4.5743 4.0351 -13.9845
#
#
#
# Elastic Compliance Matrix: (Units=1/GPa)
#
#
# Indices 1 2 3 4 5 6 
#
# 1 0.007569 -0.003245 -0.002293 -0.002474 -0.001651 -0.003013
# 2 -0.003245 0.012494 -0.007035 0.011085 0.001219 0.022176
# 3 -0.002293 -0.007035 0.008485 -0.008037 -0.001383 -0.002228
# 4 -0.002474 0.011085 -0.008037 0.088914 0.026504 -0.007842
# 5 -0.001651 0.001219 -0.001383 0.026504 0.044579 -0.002957
# 6 -0.003013 0.022176 -0.002228 -0.007842 -0.002957 0.047600
#
#
# Mechanical properties :
#
#
# Convention : Reuss Voigt Hill
#
# Bulk Modulus (GPa) = 293.99349 -75.90789 109.04280
# Shear Modulus (GPa) = 21.19338 19.42886 20.31112
#
# Velocity S-wave (km/s) = 3.39807 3.25354 3.32659
# Velocity P-wave (km/s) = 13.25043 5.21951 8.61193
#
# Compressibility (1/GPa) = 0.00340144
#
# Stress axis : x y z
#
# Youngs Moduli (GPa) = 132.11902 80.03691 117.85228
#
# Poissons Ratio (x) = 0.25974 0.27025
# Poissons Ratio (y) = 0.42875 0.82911
# Poissons Ratio (z) = 0.30297 0.56307
#
# Static dielectric constant tensor:
#      x y z
#    x 1.584800 0.006790 -0.003440 
#    y 0.006790 1.611040 0.000740 
#    z -0.003440 0.000740 1.611460 
# 
# From -- ./inp_files/39367.got.cif
#   From: 2010.05.17/outbox.cif.g08.bks.cpg/sg2_20_cif.got.tgz:39367.got - 2010.06.03 11:33:40.
