data_PCOD9085121
_publ_section_title
;
Structure prediction by ZEFSAII (Michael W. Deem and Ramdas Pophale) SiO2 
 PCOD9085121
Probable space group: P -1
;
_chemical_formula_sum "Si O2"
_cell_formula_units_Z 16
_cell_length_a 11.906886
_cell_length_b 11.895531
_cell_length_c 12.775152
_cell_angle_alpha 131.308196
_cell_angle_beta 60.361273
_cell_angle_gamma 144.398817
_cell_volume 787.556744
_symmetry_space_group_name_H-M "P -1"
_symmetry_group_IT_number 2
_symmetry_cell_setting 'triclinic'
loop_
_space_group_symop_operation_xyz
x,y,z
-x,-y,-z
loop_
_atom_site_type_symbol
_atom_site_label
_atom_site_fract_x
_atom_site_fract_y
_atom_site_fract_z
Si Si1 0.602220 0.872938 0.436935
Si Si2 0.615710 0.546274 0.577833
Si Si3 0.968081 0.600299 0.924820
Si Si4 0.537693 0.281095 0.174885
Si Si5 0.606128 0.070727 0.151193
Si Si6 0.026605 0.885016 0.493557
Si Si7 0.392579 0.787058 0.278928
Si Si8 0.000000 0.684102 0.181929
O O1 0.469480 0.671548 0.458420
O O2 0.494943 0.781170 0.319198
O O3 0.802387 0.955871 0.404396
O O4 0.655909 0.092663 0.573020
O O5 0.500000 0.500000 0.500000
O O6 0.582250 0.668657 0.736678
O O7 0.829563 0.692606 0.529133
O O8 0.787292 0.457273 0.841728
O O9 0.162327 0.729520 0.850997
O O10 0.912284 0.405920 0.899010
O O11 0.027558 0.758806 0.093814
O O12 0.521093 0.159073 0.209796
O O13 0.768624 0.506495 0.196085
O O14 0.474554 0.120865 0.010818
O O15 0.542558 0.962872 0.227392
O O16 0.084893 0.822228 0.335630
O O17 0.000000 0.000000 0.500000
#
# Coordination Sequence:
#
# PCOD9085121 Si02
#       8
#     2   2   2   2   2   2   2   2
#     4  11  26  42  63  93 124 172 205 253 314 379
#     4  12  23  39  62  92 127 162 209 258 311 367
#     4  10  21  35  62  92 122 158 202 263 307 362
#     4  10  20  37  61  97 123 157 204 264 315 360
#     4  10  22  36  65  92 124 161 203 261 314 367
#     4  12  24  38  64  93 130 163 204 258 312 374
#     4  11  23  43  64  88 131 164 210 252 313 379
#     4  10  19  35  58  95 125 152 206 257 310 356
#
# _framework density 20.315995999999998
#
# number of rings (size 3 to 8) (size 9 to 14) (size 15 to 20)
#    0.000    1.250    5.000    0.750    5.250    1.000 
#    0.000    3.125    0.000    1.500    0.000    0.000 
#    0.000    0.000    0.000    0.000    0.000    0.000 
#
# Total GULP energy -89115.428454 kJ/mol
# GULP energy per Si atom -5569.714278 kJ/mol
# Density = 2.026976 g / cm^3
# Si number density = 20.315996 Si / 1000 Ang^3
#
#
#
# Elastic Constant Matrix: (Units=GPa)
#
#
# Indices 1 2 3 4 5 6 
#
# 1 110.8595 21.9566 22.5698 -2.8976 37.4042 3.9285
# 2 21.9566 56.0021 -14.6305 -14.4213 11.0048 6.7265
# 3 22.5698 -14.6305 48.3870 -3.8595 12.0946 1.9848
# 4 -2.8976 -14.4213 -3.8595 26.3741 -1.2315 -0.3541
# 5 37.4042 11.0048 12.0946 -1.2315 39.2731 3.9743
# 6 3.9285 6.7265 1.9848 -0.3541 3.9743 29.7146
#
#
#
# Elastic Compliance Matrix: (Units=1/GPa)
#
#
# Indices 1 2 3 4 5 6 
#
# 1 0.015215 -0.006651 -0.006739 -0.003438 -0.010796 0.001347
# 2 -0.006651 0.031238 0.015780 0.018292 -0.006076 -0.006215
# 3 -0.006739 0.015780 0.031432 0.012114 -0.006928 -0.003710
# 4 -0.003438 0.018292 0.012114 0.049095 -0.003697 -0.003416
# 5 -0.010796 -0.006076 -0.006928 -0.003697 0.039676 -0.002085
# 6 0.001347 -0.006215 -0.003710 -0.003416 -0.002085 0.035368
#
#
# Mechanical properties :
#
#
# Convention : Reuss Voigt Hill
#
# Bulk Modulus (GPa) = 12.09718 30.56005 21.32862
# Shear Modulus (GPa) = 22.24228 31.42920 26.83574
#
# Velocity S-wave (km/s) = 3.31239 3.93748 3.63838
# Velocity P-wave (km/s) = 4.53836 5.97885 5.30770
#
# Compressibility (1/GPa) = 0.08266389
#
# Stress axis : x y z
#
# Youngs Moduli (GPa) = 65.72631 32.01265 31.81513
#
# Poissons Ratio (x) = 0.21293 0.21440
# Poissons Ratio (y) = 0.43716 -0.50205
# Poissons Ratio (z) = 0.44292 -0.50517
#
# Static dielectric constant tensor:
#      x y z
#    x 1.726440 -0.003350 0.023690 
#    y -0.003350 1.804490 0.085390 
#    z 0.023690 0.085390 1.624470 
# 
# From -- ./inp_files/427572.got.cif
#   From: 2010.05.17/outbox.cif.g08.bks.cpg/sg2_214_cif.got.tgz:427572.got - 2010.06.03 11:33:40.
