data_PCOD9085049
_publ_section_title
;
Structure prediction by ZEFSAII (Michael W. Deem and Ramdas Pophale) SiO2 
 PCOD9085049
Probable space group: P -1
;
_chemical_formula_sum "Si O2"
_cell_formula_units_Z 16
_cell_length_a 11.931784
_cell_length_b 17.053972
_cell_length_c 7.037321
_cell_angle_alpha 43.821814
_cell_angle_beta 89.691529
_cell_angle_gamma 120.039044
_cell_volume 679.150548
_symmetry_space_group_name_H-M "P -1"
_symmetry_group_IT_number 2
_symmetry_cell_setting 'triclinic'
loop_
_space_group_symop_operation_xyz
x,y,z
-x,-y,-z
loop_
_atom_site_type_symbol
_atom_site_label
_atom_site_fract_x
_atom_site_fract_y
_atom_site_fract_z
Si Si1 0.913789 0.111912 0.421947
Si Si2 0.234187 0.578828 0.167359
Si Si3 0.027108 0.204275 0.830331
Si Si4 0.985980 0.562134 0.084951
Si Si5 0.206133 0.256047 0.384447
Si Si6 0.438945 0.085443 0.355173
Si Si7 0.661737 0.401434 0.304064
Si Si8 0.673425 0.897351 0.290873
O O1 0.028179 0.111505 0.540563
O O2 0.718827 0.985462 0.634517
O O3 0.973716 0.134059 0.166508
O O4 0.970955 0.275223 0.218738
O O5 0.108904 0.386341 0.544487
O O6 0.124384 0.610253 0.130218
O O7 0.405378 0.719843 0.023298
O O8 0.290830 0.598205 0.914111
O O9 0.162187 0.241037 0.634351
O O10 0.857590 0.074294 0.938258
O O11 0.795837 0.430147 0.373098
O O12 0.000000 0.500000 0.000000
O O13 0.306258 0.215300 0.431499
O O14 0.300756 0.435211 0.982773
O O15 0.385981 0.063563 0.612545
O O16 0.500000 0.000000 0.500000
O O17 0.475231 0.226642 0.637945
#
# Coordination Sequence:
#
# PCOD9085049 Si02
#       8
#     2   2   2   2   2   2   2   2
#     4  10  21  37  61  88 116 153 201 236 293 348
#     4   9  17  33  55  80 119 156 188 235 296 342
#     4  10  22  37  57  90 118 154 195 243 292 346
#     4   9  16  31  56  84 114 150 190 234 283 346
#     4  10  20  39  63  85 116 157 197 242 289 348
#     4  10  19  35  58  86 117 154 194 243 288 345
#     4   8  17  32  58  86 111 150 196 238 289 342
#     4  10  20  36  59  85 119 157 194 240 297 341
#
# _framework density 23.558841000000001
#
# number of rings (size 3 to 8) (size 9 to 14) (size 15 to 20)
#    0.000    2.500    1.250    1.500    0.000    2.500 
#    0.000    3.125    0.000   16.500    0.000    0.000 
#    0.000    0.000    0.000    0.000    0.000    0.000 
#
# Total GULP energy -89172.265169 kJ/mol
# GULP energy per Si atom -5573.266573 kJ/mol
# Density = 2.350522 g / cm^3
# Si number density = 23.558841 Si / 1000 Ang^3
#
#
#
# Elastic Constant Matrix: (Units=GPa)
#
#
# Indices 1 2 3 4 5 6 
#
# 1 82.8646 23.4186 -12.8452 -10.0792 -1.9584 -0.3979
# 2 23.4186 58.5210 27.3496 -9.1355 -6.3940 3.6745
# 3 -12.8452 27.3496 59.1315 -10.2850 -20.1293 -5.5107
# 4 -10.0792 -9.1355 -10.2850 48.8078 5.0208 -13.8781
# 5 -1.9584 -6.3940 -20.1293 5.0208 23.3212 -18.3178
# 6 -0.3979 3.6745 -5.5107 -13.8781 -18.3178 51.7641
#
#
#
# Elastic Compliance Matrix: (Units=1/GPa)
#
#
# Indices 1 2 3 4 5 6 
#
# 1 0.024963 -0.020341 0.031643 0.010124 0.038383 0.021301
# 2 -0.020341 0.040539 -0.042875 -0.008339 -0.046436 -0.026267
# 3 0.031643 -0.042875 0.089893 0.022585 0.108696 0.057376
# 4 0.010124 -0.008339 0.022585 0.028783 0.028165 0.020758
# 5 0.038383 -0.046436 0.108696 0.028165 0.192462 0.090821
# 6 0.021301 -0.026267 0.057376 0.020758 0.090821 0.065159
#
#
# Mechanical properties :
#
#
# Convention : Reuss Voigt Hill
#
# Bulk Modulus (GPa) = 10.84019 30.70701 20.77360
# Shear Modulus (GPa) = 9.33370 35.61822 22.47596
#
# Velocity S-wave (km/s) = 1.99260 3.89251 3.09210
# Velocity P-wave (km/s) = 3.14726 5.76755 4.64596
#
# Compressibility (1/GPa) = 0.09224927
#
# Stress axis : x y z
#
# Youngs Moduli (GPa) = 40.06005 24.66749 11.12432
#
# Poissons Ratio (x) = 0.50176 -0.35201
# Poissons Ratio (y) = 0.81486 0.47695
# Poissons Ratio (z) = -1.26763 1.05762
#
# Static dielectric constant tensor:
#      x y z
#    x 1.910670 0.060860 -0.007250 
#    y 0.060860 1.955350 0.015800 
#    z -0.007250 0.015800 1.947650 
# 
# From -- ./inp_files/186565.got.cif
#   From: 2010.05.17/outbox.cif.g08.bks.cpg/sg2_94_cif.got.tgz:186565.got - 2010.06.03 11:33:40.
