data_PCOD9085781
_publ_section_title
;
Structure prediction by ZEFSAII (Michael W. Deem and Ramdas Pophale) SiO2 
 PCOD9085781
Probable space group: P -1
;
_chemical_formula_sum "Si O2"
_cell_formula_units_Z 16
_cell_length_a 8.875545
_cell_length_b 9.641116
_cell_length_c 23.787124
_cell_angle_alpha 151.364234
_cell_angle_beta 118.990321
_cell_angle_gamma 62.203355
_cell_volume 849.169578
_symmetry_space_group_name_H-M "P -1"
_symmetry_group_IT_number 2
_symmetry_cell_setting 'triclinic'
loop_
_space_group_symop_operation_xyz
x,y,z
-x,-y,-z
loop_
_atom_site_type_symbol
_atom_site_label
_atom_site_fract_x
_atom_site_fract_y
_atom_site_fract_z
Si Si1 0.675837 0.138669 0.260129
Si Si2 0.078586 0.441606 0.932163
Si Si3 0.450337 0.670677 0.378457
Si Si4 0.934313 0.252512 0.441339
Si Si5 0.196091 0.758987 0.270276
Si Si6 0.712670 0.347983 0.536921
Si Si7 0.570982 0.967090 0.679654
Si Si8 0.393260 0.768183 0.105105
O O1 0.629447 0.459296 0.340873
O O2 0.759258 0.178973 0.350950
O O3 0.804260 0.875755 0.162673
O O4 0.483824 0.034607 0.191008
O O5 0.927870 0.427968 0.854499
O O6 0.197937 0.703309 0.036431
O O7 0.000000 0.500000 0.000000
O O8 0.343668 0.598078 0.278151
O O9 0.324098 0.652206 0.403329
O O10 0.500000 0.000000 0.500000
O O11 0.889593 0.320781 0.522636
O O12 0.000000 0.500000 0.500000
O O13 0.072624 0.975325 0.363365
O O14 0.289126 0.958697 0.314258
O O15 0.629867 0.661803 0.611740
O O16 0.604866 0.087624 0.402783
O O17 0.569098 0.209807 0.813843
O O18 0.500000 0.500000 0.000000
#
# Coordination Sequence:
#
# PCOD9085781 Si02
#       8
#     2   2   2   2   2   2   2   2
#     4  10  21  38  60  86 120 160 202 251 299 369
#     4  10  21  37  64  91 110 152 216 266 302 341
#     4  12  23  39  59  91 132 167 194 243 320 383
#     4  11  20  35  59  91 117 155 209 258 299 353
#     4  11  23  36  57  90 127 152 200 266 308 355
#     4  11  21  34  62  87 121 164 210 245 307 372
#     4  11  18  36  61  89 112 162 211 254 294 369
#     4  10  19  35  63  87 112 152 215 257 292 353
#
# _framework density 18.841937999999999
#
# number of rings (size 3 to 8) (size 9 to 14) (size 15 to 20)
#    0.000    1.250    6.250    1.500    0.000    0.500 
#    0.000    1.250    0.000    0.000    0.000    0.000 
#    0.000    0.000    0.000    0.000    0.000    0.000 
#
# Total GULP energy -89080.350725 kJ/mol
# GULP energy per Si atom -5567.521920 kJ/mol
# Density = 1.879905 g / cm^3
# Si number density = 18.841938 Si / 1000 Ang^3
#
#
#
# Elastic Constant Matrix: (Units=GPa)
#
#
# Indices 1 2 3 4 5 6 
#
# 1 91.1389 18.4404 29.8111 -9.6470 -2.2110 16.4028
# 2 18.4404 72.4608 19.4143 -9.4788 -4.4999 0.2405
# 3 29.8111 19.4143 78.2229 -14.3584 -3.3816 3.5537
# 4 -9.6470 -9.4788 -14.3584 27.2075 0.1446 0.6651
# 5 -2.2110 -4.4999 -3.3816 0.1446 46.9559 -1.4785
# 6 16.4028 0.2405 3.5537 0.6651 -1.4785 28.1153
#
#
#
# Elastic Compliance Matrix: (Units=1/GPa)
#
#
# Indices 1 2 3 4 5 6 
#
# 1 0.014466 -0.002237 -0.004170 0.002344 -0.000091 -0.007954
# 2 -0.002237 0.015519 -0.002406 0.003301 0.001245 0.001464
# 3 -0.004170 -0.002406 0.016122 0.006180 0.000725 0.000308
# 4 0.002344 0.003301 0.006180 0.042071 0.000643 -0.003138
# 5 -0.000091 0.001245 0.000725 0.000643 0.021495 0.001066
# 6 -0.007954 0.001464 0.000308 -0.003138 0.001066 0.040287
#
#
# Mechanical properties :
#
#
# Convention : Reuss Voigt Hill
#
# Bulk Modulus (GPa) = 35.11085 41.90602 38.50844
# Shear Modulus (GPa) = 28.23585 32.06621 30.15103
#
# Velocity S-wave (km/s) = 3.87533 4.12983 4.00460
# Velocity P-wave (km/s) = 6.22086 6.71042 6.47027
#
# Compressibility (1/GPa) = 0.02848122
#
# Stress axis : x y z
#
# Youngs Moduli (GPa) = 69.12596 64.43843 62.02641
#
# Poissons Ratio (x) = 0.14413 0.25867
# Poissons Ratio (y) = 0.15462 0.14923
# Poissons Ratio (z) = 0.28828 0.15503
#
# Static dielectric constant tensor:
#      x y z
#    x 1.727020 0.007600 0.036740 
#    y 0.007600 1.648380 -0.005940 
#    z 0.036740 -0.005940 1.741460 
# 
# From -- ./inp_files/179901.got.cif
#   From: 2010.05.17/outbox.cif.g08.bks.cpg/sg2_90_cif.got.tgz:179901.got - 2010.06.03 11:33:40.
