data_PCOD9085243
_publ_section_title
;
Structure prediction by ZEFSAII (Michael W. Deem and Ramdas Pophale) SiO2 
 PCOD9085243
Probable space group: P -1
;
_chemical_formula_sum "Si O2"
_cell_formula_units_Z 15
_cell_length_a 20.681042
_cell_length_b 5.129313
_cell_length_c 9.452196
_cell_angle_alpha 111.430935
_cell_angle_beta 129.232538
_cell_angle_gamma 78.385203
_cell_volume 722.349149
_symmetry_space_group_name_H-M "P -1"
_symmetry_group_IT_number 2
_symmetry_cell_setting 'triclinic'
loop_
_space_group_symop_operation_xyz
x,y,z
-x,-y,-z
loop_
_atom_site_type_symbol
_atom_site_label
_atom_site_fract_x
_atom_site_fract_y
_atom_site_fract_z
Si Si1 0.500000 0.500000 0.500000
Si Si2 0.332885 0.040599 0.828840
Si Si3 0.814704 0.742009 0.817334
Si Si4 0.822405 0.097051 0.612169
Si Si5 0.995596 0.821907 0.102417
Si Si6 0.605380 0.326312 0.922020
Si Si7 0.639438 0.938403 0.657785
Si Si8 0.551364 0.012876 0.274488
O O1 0.575478 0.702578 0.579079
O O2 0.492944 0.720268 0.671479
O O3 0.247019 0.976354 0.615086
O O4 0.355395 0.367319 0.943997
O O5 0.407915 0.942079 0.811808
O O6 0.337332 0.880990 0.951173
O O7 0.818171 0.875705 0.691111
O O8 0.733385 0.860133 0.801484
O O9 0.808264 0.405800 0.720903
O O10 0.901554 0.839071 0.033507
O O11 0.917485 0.102749 0.683993
O O12 0.000000 0.500000 0.000000
O O13 0.000000 0.000000 0.000000
O O14 0.514011 0.249253 0.844062
O O15 0.607159 0.227134 0.740213
O O16 0.626951 0.965120 0.478516
#
# Coordination Sequence:
#
# PCOD9085243 Si02
#       8
#     1   2   2   2   2   2   2   2
#     4  10  22  36  60  84 110 146 198 246 294 314
#     4  12  24  41  59  86 118 158 194 237 293 355
#     4  10  19  35  61  90 112 149 197 241 288 343
#     4  10  19  35  59  88 119 148 189 241 295 344
#     4   8  16  30  54  88 118 139 181 246 292 332
#     4  11  27  39  56  84 122 155 195 243 293 341
#     4  11  24  39  62  83 118 157 200 249 289 345
#     4  11  24  40  63  80 113 158 203 247 285 346
#
# _framework density 20.765581000000001
#
# number of rings (size 3 to 8) (size 9 to 14) (size 15 to 20)
#    0.000    1.600    1.333    4.000    9.333    0.000 
#    0.000    0.000    0.000    1.600    0.000    0.000 
#    0.000    0.000    0.000    0.000    0.000    0.000 
#
# Total GULP energy -83595.653022 kJ/mol
# GULP energy per Si atom -5573.043535 kJ/mol
# Density = 2.071832 g / cm^3
# Si number density = 20.765581 Si / 1000 Ang^3
#
#
#
# Elastic Constant Matrix: (Units=GPa)
#
#
# Indices 1 2 3 4 5 6 
#
# 1 75.1306 11.6347 32.8564 5.8897 25.8153 -17.3353
# 2 11.6347 90.3958 8.4611 15.7108 4.5160 14.3586
# 3 32.8564 8.4611 91.8777 2.3969 31.5802 1.5070
# 4 5.8897 15.7108 2.3969 30.9027 1.0413 7.2158
# 5 25.8153 4.5160 31.5802 1.0413 42.8872 -14.6232
# 6 -17.3353 14.3586 1.5070 7.2158 -14.6232 29.8756
#
#
#
# Elastic Compliance Matrix: (Units=1/GPa)
#
#
# Indices 1 2 3 4 5 6 
#
# 1 0.021256 -0.003365 -0.006449 -0.005053 -0.002743 0.014154
# 2 -0.003365 0.013751 0.001426 -0.004150 -0.003569 -0.009379
# 3 -0.006449 0.001426 0.017991 0.002561 -0.013933 -0.012774
# 4 -0.005053 -0.004150 0.002561 0.038138 -0.003406 -0.011945
# 5 -0.002743 -0.003569 -0.013933 -0.003406 0.043510 0.022947
# 6 0.014154 -0.009379 -0.012774 -0.011945 0.022947 0.060954
#
#
# Mechanical properties :
#
#
# Convention : Reuss Voigt Hill
#
# Bulk Modulus (GPa) = 27.60781 40.36763 33.98772
# Shear Modulus (GPa) = 22.27655 34.36321 28.31988
#
# Velocity S-wave (km/s) = 3.27886 4.07236 3.69696
# Velocity P-wave (km/s) = 5.25913 6.44934 5.88440
#
# Compressibility (1/GPa) = 0.03622164
#
# Stress axis : x y z
#
# Youngs Moduli (GPa) = 47.04537 72.71953 55.58367
#
# Poissons Ratio (x) = 0.24473 0.35847
# Poissons Ratio (y) = 0.15832 -0.07927
# Poissons Ratio (z) = 0.30340 -0.10370
#
# Static dielectric constant tensor:
#      x y z
#    x 1.719330 0.005170 0.005330 
#    y 0.005170 1.709270 -0.040610 
#    z 0.005330 -0.040610 1.827000 
# 
# From -- ./inp_files/340714.got.cif
#   From: 2010.05.17/outbox.cif.g08.bks.cpg/sg2_171_cif.got.tgz:340714.got - 2010.06.03 11:33:40.
