data_PCOD9085233
_publ_section_title
;
Structure prediction by ZEFSAII (Michael W. Deem and Ramdas Pophale) SiO2 
 PCOD9085233
Probable space group: P -1
;
_chemical_formula_sum "Si O2"
_cell_formula_units_Z 16
_cell_length_a 9.061345
_cell_length_b 11.571431
_cell_length_c 11.696743
_cell_angle_alpha 132.992307
_cell_angle_beta 49.206713
_cell_angle_gamma 111.166457
_cell_volume 671.206532
_symmetry_space_group_name_H-M "P -1"
_symmetry_group_IT_number 2
_symmetry_cell_setting 'triclinic'
loop_
_space_group_symop_operation_xyz
x,y,z
-x,-y,-z
loop_
_atom_site_type_symbol
_atom_site_label
_atom_site_fract_x
_atom_site_fract_y
_atom_site_fract_z
Si Si1 0.228863 0.277125 0.948841
Si Si2 0.915707 0.373088 0.710788
Si Si3 0.168944 0.831729 0.596290
Si Si4 0.450777 0.975974 0.692132
Si Si5 0.183765 0.508896 0.494226
Si Si6 0.193975 0.279762 0.698633
Si Si7 0.142042 0.879551 0.968372
Si Si8 0.407539 0.572859 0.717994
O O1 0.186818 0.259965 0.824140
O O2 0.420335 0.166155 0.825049
O O3 0.232243 0.461995 0.095358
O O4 0.038952 0.205440 0.047959
O O5 0.107135 0.439447 0.602982
O O6 0.989375 0.304174 0.749571
O O7 0.850310 0.249070 0.570608
O O8 0.353744 0.921082 0.586662
O O9 0.211291 0.689476 0.573027
O O10 0.974365 0.961057 0.805552
O O11 0.663051 0.872594 0.527797
O O12 0.302183 0.933449 0.837444
O O13 0.397551 0.409434 0.295917
O O14 0.000000 0.500000 0.500000
O O15 0.293898 0.438490 0.736980
O O16 0.267193 0.739089 0.883791
O O17 0.500000 0.500000 0.500000
#
# Coordination Sequence:
#
# PCOD9085233 Si02
#       8
#     2   2   2   2   2   2   2   2
#     4  11  23  38  62  92 120 163 209 245 299 365
#     4  11  21  38  58  90 122 157 200 250 303 353
#     4  10  21  36  60  91 122 157 197 255 305 349
#     4  11  21  41  65  89 120 160 208 251 298 359
#     4  10  19  35  59  87 119 155 194 248 305 349
#     4  12  23  38  64  88 124 162 204 251 298 364
#     4  11  21  38  66  94 120 159 209 249 296 364
#     4  12  19  36  64  91 115 159 208 247 293 359
#
# _framework density 23.837671
#
# number of rings (size 3 to 8) (size 9 to 14) (size 15 to 20)
#    0.000    1.000    5.000    3.750    0.000    0.000 
#    0.000   11.250    0.000    0.000    0.000    0.000 
#    0.000    0.000    0.000    0.000    0.000    0.000 
#
# Total GULP energy -89384.389369 kJ/mol
# GULP energy per Si atom -5586.524336 kJ/mol
# Density = 2.378342 g / cm^3
# Si number density = 23.837671 Si / 1000 Ang^3
#
#
#
# Elastic Constant Matrix: (Units=GPa)
#
#
# Indices 1 2 3 4 5 6 
#
# 1 55.0959 18.3758 22.9281 20.8188 -18.2344 -12.6191
# 2 18.3758 88.6107 37.6092 9.4409 -14.2786 -23.4074
# 3 22.9281 37.6092 107.9798 35.5091 -18.8163 -11.9875
# 4 20.8188 9.4409 35.5091 52.4970 -16.3158 -10.9293
# 5 -18.2344 -14.2786 -18.8163 -16.3158 39.3511 10.0557
# 6 -12.6191 -23.4074 -11.9875 -10.9293 10.0557 30.5572
#
#
#
# Elastic Compliance Matrix: (Units=1/GPa)
#
#
# Indices 1 2 3 4 5 6 
#
# 1 0.024546 -0.001889 -0.001036 -0.005753 0.006788 0.003992
# 2 -0.001889 0.016567 -0.005227 0.004035 0.001551 0.010792
# 3 -0.001036 -0.005227 0.013977 -0.008114 0.001545 -0.002360
# 4 -0.005753 0.004035 -0.008114 0.029049 0.005392 0.006147
# 5 0.006788 0.001551 0.001545 0.005392 0.033221 -0.004406
# 6 0.003992 0.010792 -0.002360 0.006147 -0.004406 0.045364
#
#
# Mechanical properties :
#
#
# Convention : Reuss Voigt Hill
#
# Bulk Modulus (GPa) = 25.78358 45.50141 35.64250
# Shear Modulus (GPa) = 26.04747 35.99928 31.02338
#
# Velocity S-wave (km/s) = 3.30919 3.89032 3.61147
# Velocity P-wave (km/s) = 5.04389 6.26969 5.68989
#
# Compressibility (1/GPa) = 0.03878437
#
# Stress axis : x y z
#
# Youngs Moduli (GPa) = 40.73978 60.36187 71.54410
#
# Poissons Ratio (x) = 0.11405 0.07413
# Poissons Ratio (y) = 0.07697 0.37399
# Poissons Ratio (z) = 0.04221 0.31553
#
# Static dielectric constant tensor:
#      x y z
#    x 1.935980 -0.024780 0.029990 
#    y -0.024780 1.984600 -0.010200 
#    z 0.029990 -0.010200 1.996370 
# 
# From -- ./inp_files/393003.got.cif
#   From: 2010.05.17/outbox.cif.g08.bks.cpg/sg2_197_cif.got.tgz:393003.got - 2010.06.03 11:33:40.
