data_PCOD9085315
_publ_section_title
;
Structure prediction by ZEFSAII (Michael W. Deem and Ramdas Pophale) SiO2 
 PCOD9085315
Probable space group: P -1
;
_chemical_formula_sum "Si O2"
_cell_formula_units_Z 16
_cell_length_a 24.527268
_cell_length_b 7.954062
_cell_length_c 20.361863
_cell_angle_alpha 38.383383
_cell_angle_beta 162.122001
_cell_angle_gamma 147.186423
_cell_volume 657.799125
_symmetry_space_group_name_H-M "P -1"
_symmetry_group_IT_number 2
_symmetry_cell_setting 'triclinic'
loop_
_space_group_symop_operation_xyz
x,y,z
-x,-y,-z
loop_
_atom_site_type_symbol
_atom_site_label
_atom_site_fract_x
_atom_site_fract_y
_atom_site_fract_z
Si Si1 0.665615 0.183535 0.888018
Si Si2 0.594818 0.504885 0.447414
Si Si3 0.037599 0.799820 0.161031
Si Si4 0.506478 0.197782 0.570299
Si Si5 0.697368 0.401217 0.284496
Si Si6 0.980400 0.117281 0.732125
Si Si7 0.397418 0.137570 0.913136
Si Si8 0.586678 0.456319 0.903469
O O1 0.539449 0.351635 0.718724
O O2 0.651977 0.168104 0.798548
O O3 0.516321 0.835844 0.849935
O O4 0.893264 0.432222 0.095132
O O5 0.574278 0.258899 0.554028
O O6 0.507203 0.432827 0.295736
O O7 0.827360 0.778682 0.632215
O O8 0.999019 0.886743 0.163601
O O9 0.276898 0.915001 0.398188
O O10 0.000000 0.000000 0.000000
O O11 0.500000 0.500000 0.500000
O O12 0.868048 0.317048 0.525905
O O13 0.742429 0.743841 0.249099
O O14 0.622733 0.318037 0.149804
O O15 0.204312 0.270158 0.912345
O O16 0.421984 0.246844 0.832892
O O17 0.337540 0.782022 0.963119
#
# Coordination Sequence:
#
# PCOD9085315 Si02
#       8
#     2   2   2   2   2   2   2   2
#     4  10  17  29  48  76 111 140 171 224 263 317
#     4  10  17  31  49  79 114 136 171 228 269 313
#     4  12  16  24  49  84 112 138 176 219 270 311
#     4  10  16  26  45  78 112 138 172 216 273 310
#     4  10  20  39  56  78 112 146 179 226 274 318
#     4  11  19  31  56  81 111 138 179 226 269 316
#     4  10  22  39  58  75 109 150 180 225 280 316
#     4  11  21  37  57  82 107 141 184 229 270 323
#
# _framework density 24.323535
#
# number of rings (size 3 to 8) (size 9 to 14) (size 15 to 20)
#    0.000    1.500   10.000    0.000    0.000    1.000 
#    0.000    0.000    0.000    0.750    0.000    4.375 
#    0.000    0.000    0.000    0.000    0.000    0.000 
#
# Total GULP energy -89391.628792 kJ/mol
# GULP energy per Si atom -5586.976800 kJ/mol
# Density = 2.426817 g / cm^3
# Si number density = 24.323535 Si / 1000 Ang^3
#
#
#
# Elastic Constant Matrix: (Units=GPa)
#
#
# Indices 1 2 3 4 5 6 
#
# 1 53.3354 19.8234 26.5050 -13.6585 -24.6086 17.9183
# 2 19.8234 67.6186 39.6788 4.3518 8.8394 -1.2623
# 3 26.5050 39.6788 101.3153 26.0832 -17.8459 7.1992
# 4 -13.6585 4.3518 26.0832 48.6060 6.5381 -4.0065
# 5 -24.6086 8.8394 -17.8459 6.5381 34.2622 -13.5867
# 6 17.9183 -1.2623 7.1992 -4.0065 -13.5867 36.3652
#
#
#
# Elastic Compliance Matrix: (Units=1/GPa)
#
#
# Indices 1 2 3 4 5 6 
#
# 1 0.046722 -0.017448 -0.001981 0.010743 0.030795 -0.010545
# 2 -0.017448 0.031253 -0.013556 0.003456 -0.027307 0.002544
# 3 -0.001981 -0.013556 0.021928 -0.013242 0.016344 0.000812
# 4 0.010743 0.003456 -0.013242 0.031151 -0.006654 -0.001606
# 5 0.030795 -0.027307 0.016344 -0.006654 0.070631 0.006298
# 6 -0.010545 0.002544 0.000812 -0.001606 0.006298 0.034799
#
#
# Mechanical properties :
#
#
# Convention : Reuss Voigt Hill
#
# Bulk Modulus (GPa) = 29.47087 43.80930 36.64008
# Shear Modulus (GPa) = 15.93547 32.93081 24.43314
#
# Velocity S-wave (km/s) = 2.56236 3.68348 3.17283
# Velocity P-wave (km/s) = 4.57130 6.01173 5.34030
#
# Compressibility (1/GPa) = 0.03393182
#
# Stress axis : x y z
#
# Youngs Moduli (GPa) = 21.40327 31.99658 45.60456
#
# Poissons Ratio (x) = 0.55829 0.09036
# Poissons Ratio (y) = 0.37345 0.61820
# Poissons Ratio (z) = 0.04241 0.43373
#
# Static dielectric constant tensor:
#      x y z
#    x 2.009850 -0.014190 -0.019840 
#    y -0.014190 2.031500 0.004290 
#    z -0.019840 0.004290 1.900520 
# 
# From -- ./inp_files/493463.got.cif
#   From: 2010.05.17/outbox.cif.g08.bks.cpg/sg2_247_cif.got.tgz:493463.got - 2010.06.03 11:33:40.
