data_PCOD9085701
_publ_section_title
;
Structure prediction by ZEFSAII (Michael W. Deem and Ramdas Pophale) SiO2 
 PCOD9085701
Probable space group: P -1
;
_chemical_formula_sum "Si O2"
_cell_formula_units_Z 16
_cell_length_a 12.142536
_cell_length_b 9.299968
_cell_length_c 14.633925
_cell_angle_alpha 102.449215
_cell_angle_beta 149.423576
_cell_angle_gamma 93.660691
_cell_volume 709.849231
_symmetry_space_group_name_H-M "P -1"
_symmetry_group_IT_number 2
_symmetry_cell_setting 'triclinic'
loop_
_space_group_symop_operation_xyz
x,y,z
-x,-y,-z
loop_
_atom_site_type_symbol
_atom_site_label
_atom_site_fract_x
_atom_site_fract_y
_atom_site_fract_z
Si Si1 0.446358 0.119311 0.412951
Si Si2 0.975108 0.458879 0.869672
Si Si3 0.925575 0.116093 0.519706
Si Si4 0.247986 0.348236 0.348362
Si Si5 0.271021 0.504795 0.762848
Si Si6 0.142296 0.479256 0.455472
Si Si7 0.783954 0.734755 0.079131
Si Si8 0.524164 0.861293 0.767421
O O1 0.707304 0.294296 0.636802
O O2 0.242221 0.173353 0.301956
O O3 0.379930 0.057535 0.252243
O O4 0.500000 0.000000 0.500000
O O5 0.969502 0.616599 0.838340
O O6 0.160422 0.396958 0.954525
O O7 0.000000 0.500000 0.000000
O O8 0.100633 0.305353 0.632026
O O9 0.988922 0.132582 0.675951
O O10 0.636221 0.062749 0.292108
O O11 0.000000 0.000000 0.500000
O O12 0.500000 0.500000 0.500000
O O13 0.234194 0.371397 0.450117
O O14 0.217142 0.510910 0.618117
O O15 0.151771 0.584678 0.757431
O O16 0.568487 0.618634 0.983717
O O17 0.305094 0.668521 0.557310
O O18 0.698469 0.831641 0.958983
#
# Coordination Sequence:
#
# PCOD9085701 Si02
#       8
#     2   2   2   2   2   2   2   2
#     4  11  23  41  66  92 134 176 214 266 341 392
#     4  11  22  39  66  99 126 166 224 270 326 391
#     4  11  23  41  62  90 134 176 215 260 334 403
#     4  10  19  35  62  90 121 168 216 259 318 387
#     4   9  20  34  64  95 120 162 216 272 320 369
#     4   9  16  35  61  92 122 160 217 271 314 376
#     4  11  22  41  70  93 130 166 223 281 320 385
#     4  10  20  41  63  90 132 174 211 274 335 377
#
# _framework density 22.539997
#
# number of rings (size 3 to 8) (size 9 to 14) (size 15 to 20)
#    0.000    1.750    3.750    2.625    5.250    1.500 
#    0.000    2.500    0.000    0.000    0.000    0.000 
#    0.000    0.000    0.000    0.000    0.000    0.000 
#
# Total GULP energy -89128.806622 kJ/mol
# GULP energy per Si atom -5570.550414 kJ/mol
# Density = 2.248870 g / cm^3
# Si number density = 22.539997 Si / 1000 Ang^3
#
#
#
# Elastic Constant Matrix: (Units=GPa)
#
#
# Indices 1 2 3 4 5 6 
#
# 1 132.9019 49.8951 19.9694 -19.0211 -7.1821 -22.7678
# 2 49.8951 111.1136 23.6604 -43.5877 -7.0454 -11.1067
# 3 19.9694 23.6604 54.2863 -21.6499 -4.2535 -3.1467
# 4 -19.0211 -43.5877 -21.6499 31.6468 1.0726 7.9088
# 5 -7.1821 -7.0454 -4.2535 1.0726 31.4821 -12.9876
# 6 -22.7678 -11.1067 -3.1467 7.9088 -12.9876 40.1356
#
#
#
# Elastic Compliance Matrix: (Units=1/GPa)
#
#
# Indices 1 2 3 4 5 6 
#
# 1 0.010447 -0.004729 -0.002612 -0.003735 0.003720 0.006353
# 2 -0.004729 0.022660 0.004712 0.031826 0.002989 -0.001347
# 3 -0.002612 0.004712 0.026860 0.023696 0.002481 -0.001938
# 4 -0.003735 0.031826 0.023696 0.091442 0.002826 -0.008558
# 5 0.003720 0.002989 0.002481 0.002826 0.039911 0.015490
# 6 0.006353 -0.001347 -0.001938 -0.008558 0.015490 0.034693
#
#
# Mechanical properties :
#
#
# Convention : Reuss Voigt Hill
#
# Bulk Modulus (GPa) = 18.27843 53.92795 36.10319
# Shear Modulus (GPa) = 20.03957 34.30469 27.17213
#
# Velocity S-wave (km/s) = 2.98496 3.90545 3.47581
# Velocity P-wave (km/s) = 4.47291 6.65688 5.67102
#
# Compressibility (1/GPa) = 0.05470928
#
# Stress axis : x y z
#
# Youngs Moduli (GPa) = 95.72079 44.13122 37.23016
#
# Poissons Ratio (x) = 0.20871 0.09723
# Poissons Ratio (y) = 0.45270 -0.17544
# Poissons Ratio (z) = 0.24998 -0.20796
#
# Static dielectric constant tensor:
#      x y z
#    x 1.684490 -0.137170 0.370520 
#    y -0.137170 1.810530 0.119740 
#    z 0.370520 0.119740 1.527800 
# 
# From -- ./inp_files/515819.got.cif
#   From: 2010.05.17/outbox.cif.g08.bks.cpg/sg2_258_cif.got.tgz:515819.got - 2010.06.03 11:33:40.
