data_PCOD9085796
_publ_section_title
;
Structure prediction by ZEFSAII (Michael W. Deem and Ramdas Pophale) SiO2 
 PCOD9085796
Probable space group: P -1
;
_chemical_formula_sum "Si O2"
_cell_formula_units_Z 15
_cell_length_a 10.716443
_cell_length_b 8.498706
_cell_length_c 8.421426
_cell_angle_alpha 58.380973
_cell_angle_beta 109.370797
_cell_angle_gamma 119.595179
_cell_volume 565.173251
_symmetry_space_group_name_H-M "P -1"
_symmetry_group_IT_number 2
_symmetry_cell_setting 'triclinic'
loop_
_space_group_symop_operation_xyz
x,y,z
-x,-y,-z
loop_
_atom_site_type_symbol
_atom_site_label
_atom_site_fract_x
_atom_site_fract_y
_atom_site_fract_z
Si Si1 0.218436 0.668138 0.021932
Si Si2 0.629274 0.754471 0.533859
Si Si3 0.518792 0.077931 0.197685
Si Si4 0.370843 0.544206 0.723267
Si Si5 0.167116 0.392246 0.449623
Si Si6 0.269284 0.162157 0.109622
Si Si7 0.000000 0.500000 0.500000
Si Si8 0.022194 0.286097 0.936702
O O1 0.218767 0.536511 0.245074
O O2 0.108502 0.772440 0.962486
O O3 0.378277 0.811388 0.962862
O O4 0.141564 0.497771 0.945869
O O5 0.491470 0.554950 0.638585
O O6 0.751148 0.751599 0.466336
O O7 0.704727 0.826145 0.697614
O O8 0.554388 0.892768 0.360533
O O9 0.575185 0.245883 0.273218
O O10 0.349074 0.026950 0.145348
O O11 0.224209 0.510716 0.580582
O O12 0.349965 0.369055 0.932198
O O13 0.001863 0.328221 0.453081
O O14 0.108407 0.144141 0.035552
O O15 0.969207 0.333734 0.721110
#
# Coordination Sequence:
#
# PCOD9085796 Si02
#       8
#     2   2   2   2   2   2   1   2
#     4  10  20  37  62  86 117 162 201 244 292 363
#     4  11  23  37  58  91 126 157 190 251 304 357
#     4  11  22  39  60  88 126 160 197 239 309 355
#     4  11  20  36  62  90 114 155 204 249 287 346
#     4  11  20  37  62  88 117 150 213 241 292 347
#     4  11  19  37  62  88 114 159 204 244 286 357
#     4  10  20  34  62  90 112 148 198 260 286 340
#     4  10  19  35  63  89 114 149 212 247 289 341
#
# _framework density 26.540534999999998
#
# number of rings (size 3 to 8) (size 9 to 14) (size 15 to 20)
#    0.000    1.333    4.000    4.400    0.000    0.000 
#    0.000    4.667    2.933    1.600    0.000    0.000 
#    0.000    0.000    0.000    0.000    0.000    0.000 
#
# Total GULP energy -83688.025867 kJ/mol
# GULP energy per Si atom -5579.201724 kJ/mol
# Density = 2.648013 g / cm^3
# Si number density = 26.540535 Si / 1000 Ang^3
#
#
#
# Elastic Constant Matrix: (Units=GPa)
#
#
# Indices 1 2 3 4 5 6 
#
# 1 160.8770 59.6438 37.4936 -6.3226 2.2521 -50.7694
# 2 59.6438 61.2213 36.3112 6.6027 -2.5209 -9.4213
# 3 37.4936 36.3112 125.2435 5.6121 19.0083 -21.2889
# 4 -6.3226 6.6027 5.6121 26.2720 -14.4662 8.3081
# 5 2.2521 -2.5209 19.0083 -14.4662 47.6172 4.6801
# 6 -50.7694 -9.4213 -21.2889 8.3081 4.6801 56.3952
#
#
#
# Elastic Compliance Matrix: (Units=1/GPa)
#
#
# Indices 1 2 3 4 5 6 
#
# 1 0.014749 -0.014039 0.002066 0.001231 -0.003050 0.011784
# 2 -0.014039 0.033857 -0.007892 -0.004192 0.005295 -0.009784
# 3 0.002066 -0.007892 0.012387 -0.006885 -0.008232 0.006915
# 4 0.001231 -0.004192 -0.006885 0.056148 0.020723 -0.012183
# 5 -0.003050 0.005295 -0.008232 0.020723 0.032057 -0.010682
# 6 0.011784 -0.009784 0.006915 -0.012183 -0.010682 0.031998
#
#
# Mechanical properties :
#
#
# Convention : Reuss Voigt Hill
#
# Bulk Modulus (GPa) = 47.03057 68.24877 57.63967
# Shear Modulus (GPa) = 21.92835 40.31643 31.12239
#
# Velocity S-wave (km/s) = 2.87752 3.90173 3.42809
# Velocity P-wave (km/s) = 5.36646 6.78739 6.11832
#
# Compressibility (1/GPa) = 0.02126277
#
# Stress axis : x y z
#
# Youngs Moduli (GPa) = 67.79909 29.53576 80.72777
#
# Poissons Ratio (x) = 0.41467 -0.16676
# Poissons Ratio (y) = 0.95186 0.63709
# Poissons Ratio (z) = -0.14005 0.23309
#
# Static dielectric constant tensor:
#      x y z
#    x 1.242410 -0.102020 -0.177070 
#    y -0.102020 2.219170 -0.017570 
#    z -0.177070 -0.017570 1.977500 
# 
# From -- ./inp_files/233596.got.cif
#   From: 2010.05.17/outbox.cif.g08.bks.cpg/sg2_117_cif.got.tgz:233596.got - 2010.06.03 11:33:40.
