data_PCOD9085254
_publ_section_title
;
Structure prediction by ZEFSAII (Michael W. Deem and Ramdas Pophale) SiO2 
 PCOD9085254
Probable space group: P -1
;
_chemical_formula_sum "Si O2"
_cell_formula_units_Z 14
_cell_length_a 5.391756
_cell_length_b 11.550334
_cell_length_c 13.054075
_cell_angle_alpha 82.234440
_cell_angle_beta 97.502740
_cell_angle_gamma 58.666870
_cell_volume 668.377470
_symmetry_space_group_name_H-M "P -1"
_symmetry_group_IT_number 2
_symmetry_cell_setting 'triclinic'
loop_
_space_group_symop_operation_xyz
x,y,z
-x,-y,-z
loop_
_atom_site_type_symbol
_atom_site_label
_atom_site_fract_x
_atom_site_fract_y
_atom_site_fract_z
Si Si1 0.393077 0.412327 0.946099
Si Si2 0.293091 0.356791 0.161010
Si Si3 0.984361 0.773415 0.368064
Si Si4 0.687351 0.073623 0.595795
Si Si5 0.649254 0.822003 0.639651
Si Si6 0.132267 0.567070 0.568100
Si Si7 0.341696 0.594580 0.234908
O O1 0.604220 0.338503 0.869083
O O2 0.063817 0.529206 0.874266
O O3 0.500000 0.500000 0.000000
O O4 0.378504 0.325559 0.049355
O O5 0.407421 0.217521 0.247908
O O6 0.394968 0.449663 0.212947
O O7 0.099873 0.877461 0.360020
O O8 0.182886 0.660987 0.481535
O O9 0.043874 0.696186 0.271312
O O10 0.642993 0.842275 0.378402
O O11 0.619211 0.103912 0.466427
O O12 0.791823 0.914495 0.639435
O O13 0.885879 0.672959 0.621696
O O14 0.407749 0.450860 0.660830
O O15 0.000000 0.500000 0.500000
#
# Coordination Sequence:
#
# PCOD9085254 Si02
#       7
#     2   2   2   2   2   2   2
#     4   9  20  35  54  90 114 146 191 242 322 358
#     4  10  19  35  59  89 114 147 196 250 305 358
#     4  11  23  38  56  83 127 156 201 236 284 357
#     4  10  24  39  56  87 117 170 204 233 278 353
#     4  10  20  37  61  81 121 157 200 242 288 347
#     4  11  21  35  58  93 124 156 194 241 304 365
#     4  11  20  33  60  84 121 155 186 251 310 352
#
# _framework density 20.946249000000002
#
# number of rings (size 3 to 8) (size 9 to 14) (size 15 to 20)
#    0.000    1.714    1.429    3.857    2.000    6.286 
#    0.000    0.000    0.000    1.714    0.000    0.000 
#    0.000    0.000    0.000    0.000    0.000    0.000 
#
# Total GULP energy -78172.823843 kJ/mol
# GULP energy per Si atom -5583.773132 kJ/mol
# Density = 2.089857 g / cm^3
# Si number density = 20.946249 Si / 1000 Ang^3
#
#
#
# Elastic Constant Matrix: (Units=GPa)
#
#
# Indices 1 2 3 4 5 6 
#
# 1 70.8734 16.0479 39.4810 -0.2945 -3.8982 10.7711
# 2 16.0479 60.3984 24.7194 -1.5567 -9.2122 11.6455
# 3 39.4810 24.7194 126.6705 -4.1103 -28.3087 -2.2653
# 4 -0.2945 -1.5567 -4.1103 26.3131 3.8795 -10.2211
# 5 -3.8982 -9.2122 -28.3087 3.8795 39.9986 7.5438
# 6 10.7711 11.6455 -2.2653 -10.2211 7.5438 33.4930
#
#
#
# Elastic Compliance Matrix: (Units=1/GPa)
#
#
# Indices 1 2 3 4 5 6 
#
# 1 0.018743 -0.001501 -0.006049 -0.003210 -0.001241 -0.006615
# 2 -0.001501 0.020406 -0.002753 -0.003360 0.004602 -0.008861
# 3 -0.006049 -0.002753 0.011873 0.001747 0.006486 0.002778
# 4 -0.003210 -0.003360 0.001747 0.046249 -0.007765 0.018182
# 5 -0.001241 0.004602 0.006486 -0.007765 0.033288 -0.010630
# 6 -0.006615 -0.008861 0.002778 0.018182 -0.010630 0.043196
#
#
# Mechanical properties :
#
#
# Convention : Reuss Voigt Hill
#
# Bulk Modulus (GPa) = 32.87778 46.49321 39.68549
# Shear Modulus (GPa) = 24.44988 31.80722 28.12855
#
# Velocity S-wave (km/s) = 3.42024 3.90104 3.66852
# Velocity P-wave (km/s) = 5.59711 6.52192 6.07714
#
# Compressibility (1/GPa) = 0.03041568
#
# Stress axis : x y z
#
# Youngs Moduli (GPa) = 53.35389 49.00480 84.22492
#
# Poissons Ratio (x) = 0.07355 0.50945
# Poissons Ratio (y) = 0.08008 0.23191
# Poissons Ratio (z) = 0.32272 0.13493
#
# Static dielectric constant tensor:
#      x y z
#    x 1.849250 -0.019730 -0.103180 
#    y -0.019730 1.779050 -0.033630 
#    z -0.103180 -0.033630 1.695380 
# 
# From -- ./inp_files/36266.got.cif
#   From: 2010.05.17/outbox.cif.g08.bks.cpg/sg2_19_cif.got.tgz:36266.got - 2010.06.03 11:33:40.
