data_PCOD9085147
_publ_section_title
;
Structure prediction by ZEFSAII (Michael W. Deem and Ramdas Pophale) SiO2 
 PCOD9085147
Probable space group: P -1
;
_chemical_formula_sum "Si O2"
_cell_formula_units_Z 16
_cell_length_a 12.314306
_cell_length_b 11.453442
_cell_length_c 9.598537
_cell_angle_alpha 114.198273
_cell_angle_beta 33.597971
_cell_angle_gamma 123.179236
_cell_volume 623.906377
_symmetry_space_group_name_H-M "P -1"
_symmetry_group_IT_number 2
_symmetry_cell_setting 'triclinic'
loop_
_space_group_symop_operation_xyz
x,y,z
-x,-y,-z
loop_
_atom_site_type_symbol
_atom_site_label
_atom_site_fract_x
_atom_site_fract_y
_atom_site_fract_z
Si Si1 0.356053 0.807025 0.408957
Si Si2 0.723690 0.490598 0.790732
Si Si3 0.920699 0.212585 0.536828
Si Si4 0.327004 0.665441 0.959386
Si Si5 0.317968 0.676798 0.657247
Si Si6 0.690096 0.598955 0.446944
Si Si7 0.851143 0.906498 0.914890
Si Si8 0.832882 0.794936 0.164822
O O1 0.307570 0.656083 0.317984
O O2 0.233039 0.867230 0.467081
O O3 0.267561 0.770862 0.642387
O O4 0.609621 0.895172 0.171860
O O5 0.752702 0.466194 0.912766
O O6 0.916731 0.627148 0.592722
O O7 0.500000 0.500000 0.000000
O O8 0.757625 0.223540 0.831381
O O9 0.079197 0.133078 0.327712
O O10 0.243191 0.650405 0.883609
O O11 0.579823 0.687784 0.690332
O O12 0.261778 0.518865 0.580428
O O13 0.578160 0.760503 0.432430
O O14 0.500000 0.500000 0.500000
O O15 0.861880 0.689770 0.194851
O O16 0.013045 0.054748 0.869980
O O17 0.851007 0.793019 0.977444
#
# Coordination Sequence:
#
# PCOD9085147 Si02
#       8
#     2   2   2   2   2   2   2   2
#     4  10  20  37  58  89 114 154 193 235 286 346
#     4  11  20  35  56  84 120 149 191 238 292 342
#     4  11  23  35  57  88 122 148 190 241 291 339
#     4   9  18  32  54  86 115 149 185 238 285 344
#     4   9  18  35  62  84 120 152 194 239 289 338
#     4   8  15  29  56  82 111 148 190 230 284 330
#     4  10  19  35  59  82 117 155 195 235 284 338
#     4   8  17  33  56  87 110 155 198 236 277 342
#
# _framework density 25.644876
#
# number of rings (size 3 to 8) (size 9 to 14) (size 15 to 20)
#    0.000    2.750    1.250    2.250    5.250    0.000 
#    0.000   10.625    8.250   12.000    0.000    0.000 
#    0.000    0.000    0.000    0.000    0.000    0.000 
#
# Total GULP energy -89206.208558 kJ/mol
# GULP energy per Si atom -5575.388035 kJ/mol
# Density = 2.558651 g / cm^3
# Si number density = 25.644876 Si / 1000 Ang^3
#
#
#
# Elastic Constant Matrix: (Units=GPa)
#
#
# Indices 1 2 3 4 5 6 
#
# 1 90.0713 9.9938 31.0309 2.5471 5.0901 6.0464
# 2 9.9938 60.2041 35.1730 -2.5425 4.9330 16.0237
# 3 31.0309 35.1730 122.7502 14.1156 0.0519 18.0905
# 4 2.5471 -2.5425 14.1156 42.9474 10.3561 -0.4693
# 5 5.0901 4.9330 0.0519 10.3561 32.3827 2.0315
# 6 6.0464 16.0237 18.0905 -0.4693 2.0315 18.4642
#
#
#
# Elastic Compliance Matrix: (Units=1/GPa)
#
#
# Indices 1 2 3 4 5 6 
#
# 1 0.012319 0.000248 -0.003147 0.000834 -0.002179 -0.000905
# 2 0.000248 0.024199 -0.005162 0.003909 -0.003996 -0.015485
# 3 -0.003147 -0.005162 0.011973 -0.004912 0.003253 -0.006702
# 4 0.000834 0.003909 -0.004912 0.027446 -0.009679 0.002909
# 5 -0.002179 -0.003996 0.003253 -0.009679 0.035117 -0.003116
# 6 -0.000905 -0.015485 -0.006702 0.002909 -0.003116 0.074877
#
#
# Mechanical properties :
#
#
# Convention : Reuss Voigt Hill
#
# Bulk Modulus (GPa) = 30.89416 47.26899 39.08157
# Shear Modulus (GPa) = 23.49148 31.88073 27.68610
#
# Velocity S-wave (km/s) = 3.02988 3.52968 3.28929
# Velocity P-wave (km/s) = 4.93085 5.92314 5.44963
#
# Compressibility (1/GPa) = 0.03236858
#
# Stress axis : x y z
#
# Youngs Moduli (GPa) = 81.17349 41.32428 83.52357
#
# Poissons Ratio (x) = -0.01026 0.26285
# Poissons Ratio (y) = -0.02016 0.43119
# Poissons Ratio (z) = 0.25545 0.21334
#
# Static dielectric constant tensor:
#      x y z
#    x 2.167280 -0.070590 0.000130 
#    y -0.070590 2.031330 0.094130 
#    z 0.000130 0.094130 2.119290 
# 
# From -- ./inp_files/455728.got.cif
#   From: 2010.05.17/outbox.cif.g08.bks.cpg/sg2_228_cif.got.tgz:455728.got - 2010.06.03 11:33:40.
