data_PCOD9085641
_publ_section_title
;
Structure prediction by ZEFSAII (Michael W. Deem and Ramdas Pophale) SiO2 
 PCOD9085641
Probable space group: P -1
;
_chemical_formula_sum "Si O2"
_cell_formula_units_Z 15
_cell_length_a 14.448930
_cell_length_b 10.514469
_cell_length_c 10.589731
_cell_angle_alpha 135.043564
_cell_angle_beta 42.620204
_cell_angle_gamma 151.442310
_cell_volume 511.348479
_symmetry_space_group_name_H-M "P -1"
_symmetry_group_IT_number 2
_symmetry_cell_setting 'triclinic'
loop_
_space_group_symop_operation_xyz
x,y,z
-x,-y,-z
loop_
_atom_site_type_symbol
_atom_site_label
_atom_site_fract_x
_atom_site_fract_y
_atom_site_fract_z
Si Si1 0.173310 0.862993 0.855080
Si Si2 0.111674 0.833980 0.180813
Si Si3 0.500000 0.500000 0.000000
Si Si4 0.793387 0.651801 0.563722
Si Si5 0.479313 0.071475 0.428395
Si Si6 0.248100 0.417519 0.969885
Si Si7 0.859095 0.047824 0.385773
Si Si8 0.445015 0.144610 0.245269
O O1 0.356099 0.904182 0.661869
O O2 0.297605 0.171512 0.956527
O O3 0.955623 0.662384 0.860888
O O4 0.099112 0.750517 0.994466
O O5 0.197801 0.125992 0.294654
O O6 0.268861 0.887197 0.152226
O O7 0.899001 0.661990 0.345501
O O8 0.394359 0.540451 0.030335
O O9 0.565923 0.351169 0.587454
O O10 0.923183 0.720443 0.602984
O O11 0.235905 0.867865 0.522813
O O12 0.516621 0.093303 0.253908
O O13 0.153135 0.134474 0.819171
O O14 0.384467 0.613647 0.849991
O O15 0.695318 0.851598 0.529022
#
# Coordination Sequence:
#
# PCOD9085641 Si02
#       8
#     2   2   1   2   2   2   2   2
#     4  12  26  45  66  95 130 179 223 275 325 385
#     4  10  19  35  65  97 135 178 209 255 323 399
#     4  12  30  48  66  90 130 178 238 276 310 376
#     4  10  19  35  62 101 138 165 213 257 323 411
#     4  10  24  38  63 105 144 160 202 275 351 387
#     4  12  22  44  73  95 127 179 227 262 316 398
#     4   9  21  38  66 104 134 165 209 263 334 400
#     4   9  20  36  65 104 138 161 204 266 338 392
#
# _framework density 29.334202000000001
#
# number of rings (size 3 to 8) (size 9 to 14) (size 15 to 20)
#    0.800    0.800    2.667    2.400    3.733    3.733 
#    0.000    0.667    0.000    2.400    0.000    0.000 
#    0.000    0.000    0.000    0.000    0.000    0.000 
#
# Total GULP energy -83798.285729 kJ/mol
# GULP energy per Si atom -5586.552382 kJ/mol
# Density = 2.926744 g / cm^3
# Si number density = 29.334202 Si / 1000 Ang^3
#
#
#
# Elastic Constant Matrix: (Units=GPa)
#
#
# Indices 1 2 3 4 5 6 
#
# 1 194.1158 27.2500 16.1513 7.7607 -3.4003 44.8156
# 2 27.2500 102.2342 30.1427 -8.4619 -0.2355 19.0750
# 3 16.1513 30.1427 128.4994 -34.8332 -16.0251 13.6464
# 4 7.7607 -8.4619 -34.8332 46.7271 -6.2640 1.6868
# 5 -3.4003 -0.2355 -16.0251 -6.2640 20.2026 -2.5888
# 6 44.8156 19.0750 13.6464 1.6868 -2.5888 59.0607
#
#
#
# Elastic Compliance Matrix: (Units=1/GPa)
#
#
# Indices 1 2 3 4 5 6 
#
# 1 0.006395 -0.000827 -0.000634 -0.001592 -0.000496 -0.004415
# 2 -0.000827 0.011217 -0.002534 0.000059 -0.002322 -0.002514
# 3 -0.000634 -0.002534 0.013532 0.011669 0.014017 -0.001546
# 4 -0.001592 0.000059 0.011669 0.032981 0.019007 -0.001616
# 5 -0.000496 -0.002322 0.014017 0.019007 0.066433 0.000256
# 6 -0.004415 -0.002514 -0.001546 -0.001616 0.000256 0.021508
#
#
# Mechanical properties :
#
#
# Convention : Reuss Voigt Hill
#
# Bulk Modulus (GPa) = 43.18942 63.54860 53.36901
# Shear Modulus (GPa) = 29.80213 48.61845 39.21029
#
# Velocity S-wave (km/s) = 3.19086 4.07553 3.66002
# Velocity P-wave (km/s) = 5.32265 6.62248 6.00783
#
# Compressibility (1/GPa) = 0.02315382
#
# Stress axis : x y z
#
# Youngs Moduli (GPa) = 156.38135 89.14664 73.90124
#
# Poissons Ratio (x) = 0.07369 0.04687
# Poissons Ratio (y) = 0.12926 0.18727
# Poissons Ratio (z) = 0.09919 0.22591
#
# Static dielectric constant tensor:
#      x y z
#    x 2.367980 -0.168600 0.051110 
#    y -0.168600 2.257460 -0.099620 
#    z 0.051110 -0.099620 2.481290 
# 
# From -- ./inp_files/450609.got.cif
#   From: 2010.05.17/outbox.cif.g08.bks.cpg/sg2_226_cif.got.tgz:450609.got - 2010.06.03 11:33:40.
