data_PCOD9085534
_publ_section_title
;
Structure prediction by ZEFSAII (Michael W. Deem and Ramdas Pophale) SiO2 
 PCOD9085534
Probable space group: P -1
;
_chemical_formula_sum "Si O2"
_cell_formula_units_Z 16
_cell_length_a 8.222785
_cell_length_b 13.905653
_cell_length_c 9.846340
_cell_angle_alpha 137.162279
_cell_angle_beta 61.842352
_cell_angle_gamma 98.678409
_cell_volume 638.142489
_symmetry_space_group_name_H-M "P -1"
_symmetry_group_IT_number 2
_symmetry_cell_setting 'triclinic'
loop_
_space_group_symop_operation_xyz
x,y,z
-x,-y,-z
loop_
_atom_site_type_symbol
_atom_site_label
_atom_site_fract_x
_atom_site_fract_y
_atom_site_fract_z
Si Si1 0.618727 0.929632 0.738415
Si Si2 0.391073 0.724832 0.484831
Si Si3 0.413319 0.770190 0.059152
Si Si4 0.070239 0.516356 0.781204
Si Si5 0.171360 0.351546 0.320040
Si Si6 0.270908 0.545425 0.017059
Si Si7 0.814705 0.243287 0.138450
Si Si8 0.033772 0.111201 0.263243
O O1 0.520300 0.819744 0.593904
O O2 0.845159 0.866919 0.629455
O O3 0.609088 0.056644 0.762658
O O4 0.500000 0.000000 0.000000
O O5 0.524988 0.588544 0.203231
O O6 0.305152 0.669782 0.595861
O O7 0.198686 0.825301 0.586485
O O8 0.642019 0.683720 0.882895
O O9 0.304145 0.702718 0.141791
O O10 0.329135 0.743561 0.918100
O O11 0.217867 0.397807 0.501213
O O12 0.169005 0.517929 0.888197
O O13 0.033314 0.679144 0.896866
O O14 0.876863 0.470430 0.826352
O O15 0.000000 0.500000 0.500000
O O16 0.108290 0.204543 0.216422
O O17 0.897801 0.068429 0.964198
#
# Coordination Sequence:
#
# PCOD9085534 Si02
#       8
#     2   2   2   2   2   2   2   2
#     4  11  20  37  60  94 126 155 197 264 307 356
#     4  12  21  37  63  91 122 158 202 254 309 365
#     4  10  19  37  58  87 119 156 205 246 309 358
#     4  10  22  39  60  86 124 165 209 251 304 367
#     4  12  22  36  59  91 123 156 203 260 306 359
#     4  10  22  39  60  88 123 167 205 249 308 371
#     4  10  19  35  61  86 117 155 202 257 297 358
#     4  11  22  36  58  95 122 152 201 254 313 359
#
# _framework density 25.072773000000002
#
# number of rings (size 3 to 8) (size 9 to 14) (size 15 to 20)
#    0.000    1.250    3.750    4.125    0.000    3.000 
#    0.000    4.375    0.000    6.000    0.000    0.000 
#    0.000    0.000    0.000    0.000    0.000    0.000 
#
# Total GULP energy -89568.036785 kJ/mol
# GULP energy per Si atom -5598.002299 kJ/mol
# Density = 2.501571 g / cm^3
# Si number density = 25.072773 Si / 1000 Ang^3
#
#
#
# Elastic Constant Matrix: (Units=GPa)
#
#
# Indices 1 2 3 4 5 6 
#
# 1 130.1134 57.7812 38.9752 8.0644 -14.5772 6.3480
# 2 57.7812 180.1516 53.1096 21.0593 -19.0530 31.7342
# 3 38.9752 53.1096 70.7500 3.0761 -11.4144 3.4806
# 4 8.0644 21.0593 3.0761 34.9767 -4.5358 -0.9074
# 5 -14.5772 -19.0530 -11.4144 -4.5358 47.0572 3.3003
# 6 6.3480 31.7342 3.4806 -0.9074 3.3003 44.3616
#
#
#
# Elastic Compliance Matrix: (Units=1/GPa)
#
#
# Indices 1 2 3 4 5 6 
#
# 1 0.009820 -0.001830 -0.003800 -0.000656 0.001309 0.000091
# 2 -0.001830 0.009635 -0.005372 -0.004813 0.002020 -0.006458
# 3 -0.003800 -0.005372 0.020275 0.002609 0.001626 0.002728
# 4 -0.000656 -0.004813 0.002609 0.031674 0.001262 0.003886
# 5 0.001309 0.002020 0.001626 0.001262 0.023233 -0.003463
# 6 0.000091 -0.006458 0.002728 0.003886 -0.003463 0.027272
#
#
# Mechanical properties :
#
#
# Convention : Reuss Voigt Hill
#
# Bulk Modulus (GPa) = 56.41676 75.63856 66.02766
# Shear Modulus (GPa) = 33.37284 40.68903 37.03093
#
# Velocity S-wave (km/s) = 3.65230 4.03282 3.84726
# Velocity P-wave (km/s) = 6.35104 7.20541 6.79167
#
# Compressibility (1/GPa) = 0.01772523
#
# Stress axis : x y z
#
# Youngs Moduli (GPa) = 101.83699 103.78439 49.32174
#
# Poissons Ratio (x) = 0.18993 0.18744
# Poissons Ratio (y) = 0.18637 0.26495
# Poissons Ratio (z) = 0.38703 0.55752
#
# Static dielectric constant tensor:
#      x y z
#    x 2.087280 -0.015770 0.025610 
#    y -0.015770 1.988860 0.015790 
#    z 0.025610 0.015790 1.985890 
# 
# From -- ./inp_files/399740.got.cif
#   From: 2010.05.17/outbox.cif.g08.bks.cpg/sg2_200_cif.got.tgz:399740.got - 2010.06.03 11:33:40.
