data_PCOD9085075
_publ_section_title
;
Structure prediction by ZEFSAII (Michael W. Deem and Ramdas Pophale) SiO2 
 PCOD9085075
Probable space group: P -1
;
_chemical_formula_sum "Si O2"
_cell_formula_units_Z 16
_cell_length_a 10.545559
_cell_length_b 13.273616
_cell_length_c 8.264240
_cell_angle_alpha 78.129701
_cell_angle_beta 113.216682
_cell_angle_gamma 142.210049
_cell_volume 639.846212
_symmetry_space_group_name_H-M "P -1"
_symmetry_group_IT_number 2
_symmetry_cell_setting 'triclinic'
loop_
_space_group_symop_operation_xyz
x,y,z
-x,-y,-z
loop_
_atom_site_type_symbol
_atom_site_label
_atom_site_fract_x
_atom_site_fract_y
_atom_site_fract_z
Si Si1 0.207329 0.761533 0.941968
Si Si2 0.843235 0.656669 0.206825
Si Si3 0.206273 0.973104 0.068684
Si Si4 0.096764 0.156352 0.307315
Si Si5 0.711567 0.378049 0.759018
Si Si6 0.427537 0.162816 0.416538
Si Si7 0.406170 0.508389 0.169424
Si Si8 0.843848 0.156643 0.427212
O O1 0.258713 0.830955 0.765200
O O2 0.954323 0.569384 0.853631
O O3 0.232494 0.877284 0.028581
O O4 0.330269 0.742749 0.104071
O O5 0.630854 0.586964 0.200316
O O6 0.009260 0.836385 0.146176
O O7 0.989226 0.692013 0.409802
O O8 0.734869 0.532378 0.042752
O O9 0.404902 0.137479 0.220849
O O10 0.109156 0.985904 0.872871
O O11 0.249364 0.145250 0.389188
O O12 0.253231 0.334850 0.241174
O O13 0.989522 0.152952 0.408060
O O14 0.663655 0.325296 0.566031
O O15 0.543683 0.369414 0.727813
O O16 0.347532 0.010439 0.510348
#
# Coordination Sequence:
#
# PCOD9085075 Si02
#       8
#     2   2   2   2   2   2   2   2
#     4  10  22  42  66  74 119 159 201 234 291 334
#     4   9  18  32  58  84 119 149 178 235 301 336
#     4   9  19  41  58  85 122 159 179 237 297 349
#     4  10  19  35  59  86 120 158 185 230 294 357
#     4  11  22  39  62  89 106 160 204 240 273 348
#     4  11  23  33  61  89 119 144 202 236 289 345
#     4  10  19  35  58  88 123 148 185 242 292 342
#     4  10  20  37  57  84 118 158 186 241 287 346
#
# _framework density 25.00601
#
# number of rings (size 3 to 8) (size 9 to 14) (size 15 to 20)
#    0.000    2.000    3.750    1.500    1.750    3.000 
#    0.000    4.375    0.000    0.000    0.000    0.000 
#    0.000    0.000    0.000    0.000    0.000    0.000 
#
# Total GULP energy -89433.966676 kJ/mol
# GULP energy per Si atom -5589.622917 kJ/mol
# Density = 2.494910 g / cm^3
# Si number density = 25.006010 Si / 1000 Ang^3
#
#
#
# Elastic Constant Matrix: (Units=GPa)
#
#
# Indices 1 2 3 4 5 6 
#
# 1 37.6042 22.9115 18.8553 12.2478 -0.7609 -3.4985
# 2 22.9115 48.4963 51.9817 0.5554 4.8119 -12.1273
# 3 18.8553 51.9817 159.5664 35.5188 -21.5689 -19.9249
# 4 12.2478 0.5554 35.5188 40.0501 -10.7586 -0.9671
# 5 -0.7609 4.8119 -21.5689 -10.7586 22.9367 -1.9295
# 6 -3.4985 -12.1273 -19.9249 -0.9671 -1.9295 27.9684
#
#
#
# Elastic Compliance Matrix: (Units=1/GPa)
#
#
# Indices 1 2 3 4 5 6 
#
# 1 0.053239 -0.041919 0.014497 -0.025303 0.012221 -0.001221
# 2 -0.041919 0.077491 -0.030726 0.030597 -0.031740 0.005337
# 3 0.014497 -0.030726 0.021777 -0.018007 0.019356 0.004717
# 4 -0.025303 0.030597 -0.018007 0.047708 -0.001915 -0.001209
# 5 0.012221 -0.031740 0.019356 -0.001915 0.068488 0.006214
# 6 -0.001221 0.005337 0.004717 -0.001209 0.006214 0.041663
#
#
# Mechanical properties :
#
#
# Convention : Reuss Voigt Hill
#
# Bulk Modulus (GPa) = 27.61515 48.12932 37.87224
# Shear Modulus (GPa) = 11.39641 28.31893 19.85767
#
# Velocity S-wave (km/s) = 2.13714 3.36889 2.82106
# Velocity P-wave (km/s) = 4.14212 5.86698 5.07832
#
# Compressibility (1/GPa) = 0.03621200
#
# Stress axis : x y z
#
# Youngs Moduli (GPa) = 18.78310 12.90465 45.91982
#
# Poissons Ratio (x) = 0.54095 -0.66568
# Poissons Ratio (y) = 0.78737 1.41091
# Poissons Ratio (z) = -0.27229 0.39650
#
# Static dielectric constant tensor:
#      x y z
#    x 1.960050 0.017820 0.007490 
#    y 0.017820 1.963840 0.048640 
#    z 0.007490 0.048640 2.025380 
# 
# From -- ./inp_files/272999.got.cif
#   From: 2010.05.17/outbox.cif.g08.bks.cpg/sg2_137_cif.got.tgz:272999.got - 2010.06.03 11:33:40.
