data_PCOD9085296
_publ_section_title
;
Structure prediction by ZEFSAII (Michael W. Deem and Ramdas Pophale) SiO2 
 PCOD9085296
Probable space group: P -1
;
_chemical_formula_sum "Si O2"
_cell_formula_units_Z 16
_cell_length_a 15.741561
_cell_length_b 10.919419
_cell_length_c 10.632736
_cell_angle_alpha 139.923051
_cell_angle_beta 40.057075
_cell_angle_gamma 114.544223
_cell_volume 690.341626
_symmetry_space_group_name_H-M "P -1"
_symmetry_group_IT_number 2
_symmetry_cell_setting 'triclinic'
loop_
_space_group_symop_operation_xyz
x,y,z
-x,-y,-z
loop_
_atom_site_type_symbol
_atom_site_label
_atom_site_fract_x
_atom_site_fract_y
_atom_site_fract_z
Si Si1 0.298986 0.427926 0.913256
Si Si2 0.674357 0.388481 0.714087
Si Si3 0.431927 0.935522 0.146146
Si Si4 0.670805 0.961766 0.290418
Si Si5 0.549575 0.469714 0.563920
Si Si6 0.829109 0.306874 0.982813
Si Si7 0.842683 0.864304 0.521136
Si Si8 0.292825 0.235508 0.158714
O O1 0.265794 0.235033 0.841664
O O2 0.472430 0.343349 0.621765
O O3 0.269490 0.583151 0.188664
O O4 0.222931 0.541144 0.960238
O O5 0.468265 0.695061 0.893102
O O6 0.721275 0.535934 0.686866
O O7 0.500000 0.500000 0.000000
O O8 0.297919 0.843519 0.544200
O O9 0.264848 0.084093 0.435790
O O10 0.537260 0.912021 0.122894
O O11 0.500000 0.000000 0.000000
O O12 0.500000 0.000000 0.500000
O O13 0.745502 0.873577 0.001813
O O14 0.500000 0.500000 0.500000
O O15 0.719872 0.385415 0.286149
O O16 0.991337 0.266842 0.801473
O O17 0.826519 0.089259 0.768931
O O18 0.789794 0.765948 0.620326
#
# Coordination Sequence:
#
# PCOD9085296 Si02
#       8
#     2   2   2   2   2   2   2   2
#     4  10  21  38  62  95 131 167 208 266 317 378
#     4  11  21  38  59  97 130 156 213 276 318 368
#     4  10  20  36  60  93 123 167 205 259 315 376
#     4  11  23  35  62  96 127 159 214 271 324 368
#     4  10  19  35  59  92 124 159 207 254 311 372
#     4  10  22  38  63  97 133 171 208 260 317 394
#     4  10  21  39  64  95 132 173 207 254 332 379
#     4  10  23  38  62  95 130 166 210 266 320 378
#
# _framework density 23.176931
#
# number of rings (size 3 to 8) (size 9 to 14) (size 15 to 20)
#    0.000    1.750    5.000    0.750    1.750    1.000 
#    0.000    5.000    0.000    6.000    0.000    5.250 
#    0.000    0.000    0.000    0.000    0.000    0.000 
#
# Total GULP energy -89385.038148 kJ/mol
# GULP energy per Si atom -5586.564884 kJ/mol
# Density = 2.312418 g / cm^3
# Si number density = 23.176931 Si / 1000 Ang^3
#
#
#
# Elastic Constant Matrix: (Units=GPa)
#
#
# Indices 1 2 3 4 5 6 
#
# 1 87.2661 46.6652 53.0493 7.3421 4.1882 2.0024
# 2 46.6652 163.9603 49.1410 13.5071 13.3302 15.6634
# 3 53.0493 49.1410 92.6729 -3.8328 -11.0355 3.3776
# 4 7.3421 13.5071 -3.8328 27.4838 8.6746 14.1104
# 5 4.1882 13.3302 -11.0355 8.6746 50.5138 9.8224
# 6 2.0024 15.6634 3.3776 14.1104 9.8224 36.8772
#
#
#
# Elastic Compliance Matrix: (Units=1/GPa)
#
#
# Indices 1 2 3 4 5 6 
#
# 1 0.019984 -0.001861 -0.011297 -0.007217 -0.003243 0.004365
# 2 -0.001861 0.008236 -0.003601 -0.002625 -0.002061 -0.001514
# 3 -0.011297 -0.003601 0.020347 0.008020 0.005797 -0.004334
# 4 -0.007217 -0.002625 0.008020 0.050662 -0.002149 -0.018040
# 5 -0.003243 -0.002061 0.005797 -0.002149 0.023185 -0.004833
# 6 0.004365 -0.001514 -0.004334 -0.018040 -0.004833 0.036110
#
#
# Mechanical properties :
#
#
# Convention : Reuss Voigt Hill
#
# Bulk Modulus (GPa) = 66.44417 71.29005 68.86711
# Shear Modulus (GPa) = 25.37326 35.97787 30.67556
#
# Velocity S-wave (km/s) = 3.31231 3.94422 3.64199
# Velocity P-wave (km/s) = 6.58476 7.18111 6.88939
#
# Compressibility (1/GPa) = 0.01505023
#
# Stress axis : x y z
#
# Youngs Moduli (GPa) = 50.03918 121.41289 49.14761
#
# Poissons Ratio (x) = 0.22592 0.55521
# Poissons Ratio (y) = 0.09311 0.17698
# Poissons Ratio (z) = 0.56529 0.43721
#
# Static dielectric constant tensor:
#      x y z
#    x 1.910340 -0.010410 0.041730 
#    y -0.010410 1.833110 0.028370 
#    z 0.041730 0.028370 1.909490 
# 
# From -- ./inp_files/305652.got.cif
#   From: 2010.05.17/outbox.cif.g08.bks.cpg/sg2_153_cif.got.tgz:305652.got - 2010.06.03 11:33:40.
