data_PCOD9085432
_publ_section_title
;
Structure prediction by ZEFSAII (Michael W. Deem and Ramdas Pophale) SiO2 
 PCOD9085432
Probable space group: P -1
;
_chemical_formula_sum "Si O2"
_cell_formula_units_Z 16
_cell_length_a 8.970068
_cell_length_b 9.111164
_cell_length_c 12.229294
_cell_angle_alpha 64.960753
_cell_angle_beta 57.024647
_cell_angle_gamma 75.384307
_cell_volume 759.344646
_symmetry_space_group_name_H-M "P -1"
_symmetry_group_IT_number 2
_symmetry_cell_setting 'triclinic'
loop_
_space_group_symop_operation_xyz
x,y,z
-x,-y,-z
loop_
_atom_site_type_symbol
_atom_site_label
_atom_site_fract_x
_atom_site_fract_y
_atom_site_fract_z
Si Si1 0.437721 0.102597 0.623044
Si Si2 0.487646 0.244589 0.024118
Si Si3 0.740285 0.531723 0.799427
Si Si4 0.759969 0.615794 0.511929
Si Si5 0.926159 0.164904 0.625623
Si Si6 0.494255 0.865416 0.173933
Si Si7 0.782343 0.100102 0.359772
Si Si8 0.120424 0.635606 0.624805
O O1 0.369376 0.241139 0.523459
O O2 0.439844 0.177166 0.718404
O O3 0.636340 0.048865 0.525337
O O4 0.308200 0.953888 0.700011
O O5 0.650865 0.365216 0.920003
O O6 0.419963 0.234771 0.928514
O O7 0.353013 0.321810 0.141318
O O8 0.531178 0.056773 0.089879
O O9 0.718471 0.562247 0.668462
O O10 0.946301 0.535920 0.745597
O O11 0.755740 0.472056 0.470854
O O12 0.958514 0.691077 0.412886
O O13 0.719773 0.154777 0.741973
O O14 0.934253 0.210693 0.479721
O O15 0.035651 0.002718 0.665149
O O16 0.805487 0.287644 0.319165
#
# Coordination Sequence:
#
# PCOD9085432 Si02
#       8
#     2   2   2   2   2   2   2   2
#     4  10  23  37  56  92 125 151 183 246 310 349
#     4  10  23  37  58  87 116 164 196 240 275 337
#     4  10  21  39  59  89 119 152 199 240 288 352
#     4  10  22  37  61  94 123 148 181 249 317 347
#     4  10  19  35  60  90 114 148 193 253 295 333
#     4  11  21  39  63  86 116 153 207 239 278 350
#     4  10  21  34  55  92 119 150 182 235 320 341
#     4  11  19  34  62  88 120 150 192 247 299 346
#
# _framework density 21.070803000000002
#
# number of rings (size 3 to 8) (size 9 to 14) (size 15 to 20)
#    0.000    1.750    1.250    4.125    7.000    0.500 
#    0.000    0.000    0.000   28.500    0.000    0.000 
#    0.000    0.000    0.000    0.000    0.000    0.000 
#
# Total GULP energy -89297.761400 kJ/mol
# GULP energy per Si atom -5581.110088 kJ/mol
# Density = 2.102284 g / cm^3
# Si number density = 21.070803 Si / 1000 Ang^3
#
#
#
# Elastic Constant Matrix: (Units=GPa)
#
#
# Indices 1 2 3 4 5 6 
#
# 1 61.5418 28.1870 14.5730 6.0717 0.1654 8.9224
# 2 28.1870 118.8710 24.4253 15.0789 -13.7243 16.7697
# 3 14.5730 24.4253 58.1410 4.8524 -11.2845 -1.7571
# 4 6.0717 15.0789 4.8524 29.5714 1.9730 -1.5676
# 5 0.1654 -13.7243 -11.2845 1.9730 12.2406 -0.8335
# 6 8.9224 16.7697 -1.7571 -1.5676 -0.8335 18.2326
#
#
#
# Elastic Compliance Matrix: (Units=1/GPa)
#
#
# Indices 1 2 3 4 5 6 
#
# 1 0.020520 -0.003572 -0.005695 -0.001215 -0.009872 -0.007861
# 2 -0.003572 0.013818 -0.001839 -0.007556 0.014306 -0.011134
# 3 -0.005695 -0.001839 0.023951 -0.002830 0.021062 0.007506
# 4 -0.001215 -0.007556 -0.002830 0.040034 -0.016840 0.009943
# 5 -0.009872 0.014306 0.021062 -0.016840 0.119845 -0.002267
# 6 -0.007861 -0.011134 0.007506 0.009943 -0.002267 0.070409
#
#
# Mechanical properties :
#
#
# Convention : Reuss Voigt Hill
#
# Bulk Modulus (GPa) = 27.71876 41.43603 34.57739
# Shear Modulus (GPa) = 15.48877 23.43348 19.46112
#
# Velocity S-wave (km/s) = 2.71418 3.33848 3.04239
# Velocity P-wave (km/s) = 4.79646 5.87949 5.36537
#
# Compressibility (1/GPa) = 0.03607666
#
# Stress axis : x y z
#
# Youngs Moduli (GPa) = 48.73334 72.36773 41.75275
#
# Poissons Ratio (x) = 0.25851 0.23777
# Poissons Ratio (y) = 0.17409 0.07679
# Poissons Ratio (z) = 0.27752 0.13309
#
# Static dielectric constant tensor:
#      x y z
#    x 1.788310 0.032850 -0.002860 
#    y 0.032850 1.831370 -0.000100 
#    z -0.002860 -0.000100 1.771830 
# 
# From -- ./inp_files/378248.got.cif
#   From: 2010.05.17/outbox.cif.g08.bks.cpg/sg2_190_cif.got.tgz:378248.got - 2010.06.03 11:33:40.
