data_PCOD9085371
_publ_section_title
;
Structure prediction by ZEFSAII (Michael W. Deem and Ramdas Pophale) SiO2 
 PCOD9085371
Probable space group: P -1
;
_chemical_formula_sum "Si O2"
_cell_formula_units_Z 16
_cell_length_a 11.528252
_cell_length_b 20.734232
_cell_length_c 19.644461
_cell_angle_alpha 160.929901
_cell_angle_beta 154.371955
_cell_angle_gamma 28.961507
_cell_volume 654.872432
_symmetry_space_group_name_H-M "P -1"
_symmetry_group_IT_number 2
_symmetry_cell_setting 'triclinic'
loop_
_space_group_symop_operation_xyz
x,y,z
-x,-y,-z
loop_
_atom_site_type_symbol
_atom_site_label
_atom_site_fract_x
_atom_site_fract_y
_atom_site_fract_z
Si Si1 0.349295 0.262768 0.361977
Si Si2 0.892264 0.237002 0.179610
Si Si3 0.961609 0.546929 0.337370
Si Si4 0.321479 0.823497 0.853866
Si Si5 0.470064 0.430987 0.040978
Si Si6 0.946941 0.794814 0.359893
Si Si7 0.738260 0.529627 0.707291
Si Si8 0.138070 0.759541 0.290609
O O1 0.192335 0.412449 0.371752
O O2 0.635536 0.227385 0.517955
O O3 0.167113 0.317665 0.388968
O O4 0.322670 0.052415 0.101160
O O5 0.724452 0.277535 0.199248
O O6 0.702272 0.312549 0.093117
O O7 0.000000 0.000000 0.000000
O O8 0.067112 0.763303 0.615388
O O9 0.009227 0.463842 0.202925
O O10 0.658906 0.530291 0.186622
O O11 0.607648 0.724833 0.874355
O O12 0.262894 0.596004 0.138531
O O13 0.290328 0.252435 0.761606
O O14 0.197884 0.656781 0.393524
O O15 0.906802 0.725366 0.189796
O O16 0.935746 0.030709 0.578536
O O17 0.500000 0.500000 0.500000
#
# Coordination Sequence:
#
# PCOD9085371 Si02
#       8
#     2   2   2   2   2   2   2   2
#     4  10  20  35  60  93 122 152 196 246 297 358
#     4   9  17  31  56  90 120 148 189 238 293 351
#     4  10  22  38  59  89 122 161 206 244 285 347
#     4  10  19  35  60  86 119 157 196 248 302 342
#     4  11  22  38  60  88 126 165 195 239 304 361
#     4  11  24  40  60  87 122 157 199 250 300 361
#     4  10  22  42  63  84 116 158 207 255 293 346
#     4  11  23  39  63  93 124 155 195 247 308 364
#
# _framework density 24.432241000000001
#
# number of rings (size 3 to 8) (size 9 to 14) (size 15 to 20)
#    0.000    1.750    0.000    5.625    0.000    7.000 
#    0.000    3.125    0.000    0.000    0.000    0.000 
#    0.000    0.000    0.000    0.000    0.000    0.000 
#
# Total GULP energy -89107.434538 kJ/mol
# GULP energy per Si atom -5569.214659 kJ/mol
# Density = 2.437663 g / cm^3
# Si number density = 24.432241 Si / 1000 Ang^3
#
#
#
# Elastic Constant Matrix: (Units=GPa)
#
#
# Indices 1 2 3 4 5 6 
#
# 1 152.9662 16.6397 36.0281 10.5013 2.1784 -17.1983
# 2 16.6397 81.3212 24.4172 8.2451 6.1828 5.1556
# 3 36.0281 24.4172 88.3289 10.9693 -1.8220 3.8751
# 4 10.5013 8.2451 10.9693 30.9497 -1.4791 2.1084
# 5 2.1784 6.1828 -1.8220 -1.4791 25.8160 -3.0672
# 6 -17.1983 5.1556 3.8751 2.1084 -3.0672 34.9304
#
#
#
# Elastic Compliance Matrix: (Units=1/GPa)
#
#
# Indices 1 2 3 4 5 6 
#
# 1 0.007957 -0.000812 -0.003007 -0.001734 -0.000259 0.004453
# 2 -0.000812 0.014130 -0.003261 -0.002364 -0.003958 -0.002329
# 3 -0.003007 -0.003261 0.013930 -0.002820 0.001591 -0.002234
# 4 -0.001734 -0.002364 -0.002820 0.034778 0.002257 -0.002093
# 5 -0.000259 -0.003958 0.001591 0.002257 0.040385 0.003690
# 6 0.004453 -0.002329 -0.002234 -0.002093 0.003690 0.031863
#
#
# Mechanical properties :
#
#
# Convention : Reuss Voigt Hill
#
# Bulk Modulus (GPa) = 45.74861 52.97627 49.36244
# Shear Modulus (GPa) = 30.39703 34.70796 32.55249
#
# Velocity S-wave (km/s) = 3.53106 3.77315 3.65411
# Velocity P-wave (km/s) = 5.94894 6.38061 6.16855
#
# Compressibility (1/GPa) = 0.02185859
#
# Stress axis : x y z
#
# Youngs Moduli (GPa) = 125.67127 70.76953 71.78698
#
# Poissons Ratio (x) = 0.05749 0.21583
# Poissons Ratio (y) = 0.10208 0.23408
# Poissons Ratio (z) = 0.37783 0.23076
#
# Static dielectric constant tensor:
#      x y z
#    x 2.097380 -0.120060 0.062650 
#    y -0.120060 2.144870 -0.037390 
#    z 0.062650 -0.037390 2.095680 
# 
# From -- ./inp_files/596200.got.cif
#   From: 2010.05.17/outbox.cif.g08.bks.cpg/sg2_299_cif.got.tgz:596200.got - 2010.06.03 11:33:40.
