data_PCOD9085608
_publ_section_title
;
Structure prediction by ZEFSAII (Michael W. Deem and Ramdas Pophale) SiO2 
 PCOD9085608
Probable space group: P -1
;
_chemical_formula_sum "Si O2"
_cell_formula_units_Z 14
_cell_length_a 11.443136
_cell_length_b 14.659748
_cell_length_c 7.717202
_cell_angle_alpha 114.546228
_cell_angle_beta 136.446483
_cell_angle_gamma 43.514649
_cell_volume 597.403770
_symmetry_space_group_name_H-M "P -1"
_symmetry_group_IT_number 2
_symmetry_cell_setting 'triclinic'
loop_
_space_group_symop_operation_xyz
x,y,z
-x,-y,-z
loop_
_atom_site_type_symbol
_atom_site_label
_atom_site_fract_x
_atom_site_fract_y
_atom_site_fract_z
Si Si1 0.218721 0.324530 0.757981
Si Si2 0.650132 0.845105 0.910093
Si Si3 0.853921 0.042959 0.550080
Si Si4 0.790662 0.276529 0.868692
Si Si5 0.299778 0.026216 0.209796
Si Si6 0.979930 0.621315 0.800918
Si Si7 0.323887 0.791641 0.006289
O O1 0.118534 0.333960 0.468666
O O2 0.058588 0.474975 0.783491
O O3 0.245987 0.224171 0.845970
O O4 0.470303 0.276961 0.963210
O O5 0.383742 0.921208 0.682284
O O6 0.684813 0.944028 0.950800
O O7 0.786682 0.725845 0.817284
O O8 0.787036 0.182600 0.658911
O O9 0.000000 0.000000 0.500000
O O10 0.055891 0.899434 0.750374
O O11 0.630549 0.312039 0.885801
O O12 0.056914 0.160606 0.118548
O O13 0.802870 0.390165 0.931767
O O14 0.500000 0.000000 0.500000
O O15 0.327876 0.899710 0.181525
#
# Coordination Sequence:
#
# PCOD9085608 Si02
#       7
#     2   2   2   2   2   2   2
#     4  11  23  42  68  91 122 170 219 261 307 375
#     4  11  22  42  67  90 129 166 209 262 315 377
#     4  11  21  38  60  93 128 159 200 255 318 382
#     4  10  21  39  61  86 128 168 201 260 317 366
#     4  10  19  35  61  92 123 166 203 249 316 379
#     4  10  24  45  64  91 124 167 222 263 309 360
#     4  11  21  38  60  92 128 161 202 254 322 374
#
# _framework density 23.434736999999998
#
# number of rings (size 3 to 8) (size 9 to 14) (size 15 to 20)
#    0.000    1.429    1.429    6.429    0.000    1.143 
#   10.286    0.714    0.000    0.000    0.000    0.000 
#    0.000    0.000    0.000    0.000    0.000    0.000 
#
# Total GULP energy -78033.524475 kJ/mol
# GULP energy per Si atom -5573.823177 kJ/mol
# Density = 2.338140 g / cm^3
# Si number density = 23.434737 Si / 1000 Ang^3
#
#
#
# Elastic Constant Matrix: (Units=GPa)
#
#
# Indices 1 2 3 4 5 6 
#
# 1 134.0939 4.0901 19.6516 8.6570 -7.9045 10.4991
# 2 4.0901 64.2955 -0.7181 16.4693 -10.5964 -12.5847
# 3 19.6516 -0.7181 38.4029 -2.0378 -5.4767 7.6726
# 4 8.6570 16.4693 -2.0378 16.1843 2.1295 -4.0776
# 5 -7.9045 -10.5964 -5.4767 2.1295 32.7696 1.2380
# 6 10.4991 -12.5847 7.6726 -4.0776 1.2380 35.9584
#
#
#
# Elastic Compliance Matrix: (Units=1/GPa)
#
#
# Indices 1 2 3 4 5 6 
#
# 1 0.008807 0.001251 -0.004096 -0.007365 0.002405 -0.002178
# 2 0.001251 0.024701 -0.001243 -0.025890 0.009564 0.005280
# 3 -0.004096 -0.001243 0.029918 0.005479 0.003448 -0.005120
# 4 -0.007365 -0.025890 0.005479 0.095644 -0.015572 0.003302
# 5 0.002405 0.009564 0.003448 -0.015572 0.035818 -0.001090
# 6 -0.002178 0.005280 -0.005120 0.003302 -0.001090 0.031798
#
#
# Mechanical properties :
#
#
# Convention : Reuss Voigt Hill
#
# Bulk Modulus (GPa) = 18.09971 31.42661 24.76316
# Shear Modulus (GPa) = 19.74096 31.23370 25.48733
#
# Velocity S-wave (km/s) = 2.90553 3.65471 3.30144
# Velocity P-wave (km/s) = 4.35848 5.59004 5.01223
#
# Compressibility (1/GPa) = 0.05524951
#
# Stress axis : x y z
#
# Youngs Moduli (GPa) = 113.54140 40.48396 33.42477
#
# Poissons Ratio (x) = -0.05063 0.13692
# Poissons Ratio (y) = -0.14199 0.04154
# Poissons Ratio (z) = 0.46509 0.05031
#
# Static dielectric constant tensor:
#      x y z
#    x 1.992130 0.074080 -0.091340 
#    y 0.074080 1.951100 -0.002790 
#    z -0.091340 -0.002790 1.943550 
# 
# From -- ./inp_files/273921.got.cif
#   From: 2010.05.17/outbox.cif.g08.bks.cpg/sg2_137_cif.got.tgz:273921.got - 2010.06.03 11:33:40.
