data_PCOD9085505
_publ_section_title
;
Structure prediction by ZEFSAII (Michael W. Deem and Ramdas Pophale) SiO2 
 PCOD9085505
Probable space group: P -1
;
_chemical_formula_sum "Si O2"
_cell_formula_units_Z 13
_cell_length_a 13.998381
_cell_length_b 13.844396
_cell_length_c 8.004617
_cell_angle_alpha 60.583299
_cell_angle_beta 38.550444
_cell_angle_gamma 32.571468
_cell_volume 450.598558
_symmetry_space_group_name_H-M "P -1"
_symmetry_group_IT_number 2
_symmetry_cell_setting 'triclinic'
loop_
_space_group_symop_operation_xyz
x,y,z
-x,-y,-z
loop_
_atom_site_type_symbol
_atom_site_label
_atom_site_fract_x
_atom_site_fract_y
_atom_site_fract_z
Si Si1 0.584549 0.111374 0.378532
Si Si2 0.961814 0.615554 0.598284
Si Si3 0.500000 0.500000 0.000000
Si Si4 0.050938 0.067587 0.499556
Si Si5 0.345185 0.364893 0.785922
Si Si6 0.384404 0.014683 0.887041
Si Si7 0.209053 0.633586 0.011253
O O1 0.387496 0.125757 0.687469
O O2 0.916064 0.880082 0.169504
O O3 0.438191 0.298498 0.522411
O O4 0.573305 0.112405 0.193674
O O5 0.664447 0.854469 0.751954
O O6 0.000000 0.500000 0.500000
O O7 0.191229 0.570090 0.269831
O O8 0.883714 0.591790 0.887224
O O9 0.781018 0.244002 0.836885
O O10 0.494118 0.498218 0.223426
O O11 0.000000 0.000000 0.500000
O O12 0.350886 0.856080 0.358609
O O13 0.119589 0.142663 0.251285
O O14 0.247201 0.532234 0.883248
#
# Coordination Sequence:
#
# PCOD9085505 Si02
#       7
#     2   2   1   2   2   2   2
#     4  10  20  39  60  87 121 149 185 241 295 348
#     4   8  17  33  56  86 111 140 192 242 278 329
#     4  12  22  34  60  86 114 154 200 236 282 334
#     4  11  22  39  59  85 116 152 200 241 276 342
#     4  10  19  35  61  83 114 150 194 242 288 332
#     4   9  21  38  60  87 119 151 189 238 296 339
#     4  10  20  34  56  86 117 148 194 239 281 346
#
# _framework density 28.850511999999998
#
# number of rings (size 3 to 8) (size 9 to 14) (size 15 to 20)
#    0.000    2.154    3.077    0.000    2.154    1.846 
#    0.000   15.385    0.000    0.000    0.000    0.000 
#    0.000    0.000    0.000    0.000    0.000    0.000 
#
# Total GULP energy -72520.838051 kJ/mol
# GULP energy per Si atom -5578.526004 kJ/mol
# Density = 2.878485 g / cm^3
# Si number density = 28.850512 Si / 1000 Ang^3
#
#
#
# Elastic Constant Matrix: (Units=GPa)
#
#
# Indices 1 2 3 4 5 6 
#
# 1 130.0413 43.5568 27.1220 20.2248 12.8056 -3.6712
# 2 43.5568 89.5673 40.1940 30.7572 -13.7542 -0.0911
# 3 27.1220 40.1940 147.3210 24.9375 7.0877 -4.2171
# 4 20.2248 30.7572 24.9375 52.3758 6.6920 -12.9982
# 5 12.8056 -13.7542 7.0877 6.6920 58.4822 24.6816
# 6 -3.6712 -0.0911 -4.2171 -12.9982 24.6816 54.3257
#
#
#
# Elastic Compliance Matrix: (Units=1/GPa)
#
#
# Indices 1 2 3 4 5 6 
#
# 1 0.010174 -0.006121 -0.000058 0.001180 -0.005194 0.003315
# 2 -0.006121 0.022009 -0.003581 -0.012743 0.012337 -0.009309
# 3 -0.000058 -0.003581 0.008111 -0.001102 -0.002273 0.001389
# 4 0.001180 -0.012743 -0.001102 0.031447 -0.012229 0.013053
# 5 -0.005194 0.012337 -0.002273 -0.012229 0.030017 -0.017070
# 6 0.003315 -0.009309 0.001389 0.013053 -0.017070 0.029602
#
#
# Mechanical properties :
#
#
# Convention : Reuss Voigt Hill
#
# Bulk Modulus (GPa) = 48.13615 65.40835 56.77225
# Shear Modulus (GPa) = 31.68477 50.10720 40.89598
#
# Velocity S-wave (km/s) = 3.31756 4.17200 3.76907
# Velocity P-wave (km/s) = 5.60320 6.77703 6.21788
#
# Compressibility (1/GPa) = 0.02077441
#
# Stress axis : x y z
#
# Youngs Moduli (GPa) = 98.29253 45.43538 123.28716
#
# Poissons Ratio (x) = 0.27811 0.00714
# Poissons Ratio (y) = 0.60164 0.44149
# Poissons Ratio (z) = 0.00569 0.16270
#
# Static dielectric constant tensor:
#      x y z
#    x 2.034910 0.002890 0.382430 
#    y 0.002890 2.375380 0.023220 
#    z 0.382430 0.023220 1.783410 
# 
# From -- ./inp_files/161553.got.cif
#   From: 2010.05.17/outbox.cif.g08.bks.cpg/sg2_81_cif.got.tgz:161553.got - 2010.06.03 11:33:40.
