data_PCOD9085320
_publ_section_title
;
Structure prediction by ZEFSAII (Michael W. Deem and Ramdas Pophale) SiO2 
 PCOD9085320
Probable space group: P -1
;
_chemical_formula_sum "Si O2"
_cell_formula_units_Z 14
_cell_length_a 15.503770
_cell_length_b 7.403166
_cell_length_c 14.828564
_cell_angle_alpha 71.538379
_cell_angle_beta 29.121969
_cell_angle_gamma 53.206479
_cell_volume 562.484595
_symmetry_space_group_name_H-M "P -1"
_symmetry_group_IT_number 2
_symmetry_cell_setting 'triclinic'
loop_
_space_group_symop_operation_xyz
x,y,z
-x,-y,-z
loop_
_atom_site_type_symbol
_atom_site_label
_atom_site_fract_x
_atom_site_fract_y
_atom_site_fract_z
Si Si1 0.499990 0.278904 0.159229
Si Si2 0.569873 0.671621 0.259430
Si Si3 0.899362 0.823027 0.164261
Si Si4 0.049040 0.686677 0.407143
Si Si5 0.457224 0.924538 0.145255
Si Si6 0.957821 0.978876 0.270836
Si Si7 0.566447 0.834973 0.584337
O O1 0.316891 0.540213 0.222936
O O2 0.477252 0.089408 0.166519
O O3 0.382410 0.351954 0.354003
O O4 0.790734 0.096853 0.929135
O O5 0.599595 0.671332 0.122033
O O6 0.317064 0.742658 0.495238
O O7 0.509030 0.908897 0.336317
O O8 0.839246 0.403467 0.086745
O O9 0.941406 0.938778 0.188073
O O10 0.792230 0.714855 0.330753
O O11 0.673778 0.047306 0.270576
O O12 0.000000 0.500000 0.500000
O O13 0.818801 0.953857 0.626070
O O14 0.006190 0.763686 0.329167
O O15 0.500000 0.000000 0.000000
#
# Coordination Sequence:
#
# PCOD9085320 Si02
#       7
#     2   2   2   2   2   2   2
#     4  10  20  36  53  74 117 136 168 227 268 313
#     4   9  19  35  54  77 109 134 178 224 259 307
#     4  10  19  35  60  76 104 139 184 220 258 319
#     4   9  18  34  55  74 104 141 175 215 259 310
#     4   9  19  32  53  80  99 139 182 216 257 316
#     4  10  21  36  51  83 111 140 170 216 276 317
#     4   9  20  36  55  82  99 140 185 220 260 304
#
# _framework density 24.889572000000001
#
# number of rings (size 3 to 8) (size 9 to 14) (size 15 to 20)
#    0.000    2.571    0.000    3.429    6.000    0.571 
#    2.571    2.143    0.000    0.000    0.000    0.000 
#    0.000    0.000    0.000    0.000    0.000    0.000 
#
# Total GULP energy -78023.732140 kJ/mol
# GULP energy per Si atom -5573.123724 kJ/mol
# Density = 2.483292 g / cm^3
# Si number density = 24.889572 Si / 1000 Ang^3
#
#
#
# Elastic Constant Matrix: (Units=GPa)
#
#
# Indices 1 2 3 4 5 6 
#
# 1 111.3844 10.7989 49.3167 5.8852 -22.5374 -17.8842
# 2 10.7989 23.4054 12.9430 -2.1535 -7.1675 -2.0354
# 3 49.3167 12.9430 133.5845 7.5288 -46.0321 2.8968
# 4 5.8852 -2.1535 7.5288 29.0774 -12.7210 0.9113
# 5 -22.5374 -7.1675 -46.0321 -12.7210 49.2538 8.5988
# 6 -17.8842 -2.0354 2.8968 0.9113 8.5988 22.1510
#
#
#
# Elastic Compliance Matrix: (Units=1/GPa)
#
#
# Indices 1 2 3 4 5 6 
#
# 1 0.013391 -0.003034 -0.005601 -0.002950 -0.002465 0.012343
# 2 -0.003034 0.047545 -0.001956 0.007094 0.005585 -0.000285
# 3 -0.005601 -0.001956 0.014563 0.003644 0.013820 -0.012121
# 4 -0.002950 0.007094 0.003644 0.041709 0.015603 -0.009979
# 5 -0.002465 0.005585 0.013820 0.015603 0.040354 -0.019591
# 6 0.012343 -0.000285 -0.012121 -0.009979 -0.019591 0.064685
#
#
# Mechanical properties :
#
#
# Convention : Reuss Voigt Hill
#
# Bulk Modulus (GPa) = 18.41038 46.05462 32.23250
# Shear Modulus (GPa) = 19.11810 33.11747 26.11779
#
# Velocity S-wave (km/s) = 2.77450 3.65166 3.24288
# Velocity P-wave (km/s) = 4.20436 6.02688 5.19615
#
# Compressibility (1/GPa) = 0.05431719
#
# Stress axis : x y z
#
# Youngs Moduli (GPa) = 74.67855 21.03288 68.66843
#
# Poissons Ratio (x) = 0.06382 0.38458
# Poissons Ratio (y) = 0.22659 0.13429
# Poissons Ratio (z) = 0.41824 0.04113
#
# Static dielectric constant tensor:
#      x y z
#    x 1.984110 -0.052520 0.031070 
#    y -0.052520 2.168300 0.011520 
#    z 0.031070 0.011520 2.075290 
# 
# From -- ./inp_files/251291.got.cif
#   From: 2010.05.17/outbox.cif.g08.bks.cpg/sg2_126_cif.got.tgz:251291.got - 2010.06.03 11:33:40.
