data_PCOD9085426
_publ_section_title
;
Structure prediction by ZEFSAII (Michael W. Deem and Ramdas Pophale) SiO2 
 PCOD9085426
Probable space group: P -1
;
_chemical_formula_sum "Si O2"
_cell_formula_units_Z 14
_cell_length_a 6.828109
_cell_length_b 21.135591
_cell_length_c 9.752845
_cell_angle_alpha 35.693906
_cell_angle_beta 59.787638
_cell_angle_gamma 44.653171
_cell_volume 567.542536
_symmetry_space_group_name_H-M "P -1"
_symmetry_group_IT_number 2
_symmetry_cell_setting 'triclinic'
loop_
_space_group_symop_operation_xyz
x,y,z
-x,-y,-z
loop_
_atom_site_type_symbol
_atom_site_label
_atom_site_fract_x
_atom_site_fract_y
_atom_site_fract_z
Si Si1 0.604054 0.314327 0.569410
Si Si2 0.418083 0.444673 0.823281
Si Si3 0.653624 0.171561 0.056496
Si Si4 0.393673 0.713153 0.697999
Si Si5 0.876042 0.711260 0.494079
Si Si6 0.187849 0.043019 0.427521
Si Si7 0.240861 0.100569 0.012613
O O1 0.477454 0.463560 0.411910
O O2 0.552255 0.228740 0.838442
O O3 0.527860 0.326374 0.417761
O O4 0.942154 0.245719 0.573880
O O5 0.551483 0.304858 0.945881
O O6 0.082880 0.549442 0.727800
O O7 0.486624 0.407205 0.024706
O O8 0.993934 0.086544 0.084459
O O9 0.603458 0.077608 0.326914
O O10 0.573816 0.771864 0.559487
O O11 0.059039 0.818763 0.652214
O O12 0.862713 0.754073 0.266261
O O13 0.295584 0.076139 0.197461
O O14 0.000000 0.000000 0.500000
O O15 0.500000 0.000000 0.000000
#
# Coordination Sequence:
#
# PCOD9085426 Si02
#       7
#     2   2   2   2   2   2   2
#     4   9  23  36  63  94 124 168 199 259 302 364
#     4  10  20  37  63  89 128 163 206 250 307 364
#     4  10  19  39  62  89 124 168 206 249 313 367
#     4  12  20  40  65  92 126 162 208 252 310 360
#     4   9  22  36  62  92 122 162 206 245 310 364
#     4  10  20  34  64  92 116 169 205 251 311 369
#     4  10  19  35  60  89 119 157 207 250 302 367
#
# _framework density 24.667752
#
# number of rings (size 3 to 8) (size 9 to 14) (size 15 to 20)
#    0.857    1.143    2.857    3.000    0.000    0.571 
#    0.000    0.714    3.143    8.571    0.000    0.000 
#    0.000    0.000    0.000    0.000    0.000    0.000 
#
# Total GULP energy -78105.078697 kJ/mol
# GULP energy per Si atom -5578.934193 kJ/mol
# Density = 2.461161 g / cm^3
# Si number density = 24.667752 Si / 1000 Ang^3
#
#
#
# Elastic Constant Matrix: (Units=GPa)
#
#
# Indices 1 2 3 4 5 6 
#
# 1 48.1342 14.7317 41.4533 6.9992 3.2379 1.6120
# 2 14.7317 105.8112 62.0569 3.2758 9.5403 -9.9249
# 3 41.4533 62.0569 259.0492 14.8654 16.9669 1.4152
# 4 6.9992 3.2758 14.8654 33.5080 1.8813 5.0440
# 5 3.2379 9.5403 16.9669 1.8813 48.5208 9.9615
# 6 1.6120 -9.9249 1.4152 5.0440 9.9615 19.5320
#
#
#
# Elastic Compliance Matrix: (Units=1/GPa)
#
#
# Indices 1 2 3 4 5 6 
#
# 1 0.024695 -0.001555 -0.003408 -0.003223 0.000373 -0.001939
# 2 -0.001555 0.012200 -0.002467 -0.000850 -0.003105 0.008309
# 3 -0.003408 -0.002467 0.005128 -0.001185 -0.000918 -0.000570
# 4 -0.003223 -0.000850 -0.001185 0.032427 0.001424 -0.009180
# 5 0.000373 -0.003105 -0.000918 0.001424 0.024409 -0.014359
# 6 -0.001939 0.008309 -0.000570 -0.009180 -0.014359 0.065315
#
#
# Mechanical properties :
#
#
# Convention : Reuss Voigt Hill
#
# Bulk Modulus (GPa) = 36.81567 72.16424 54.48996
# Shear Modulus (GPa) = 26.58322 39.96234 33.27278
#
# Velocity S-wave (km/s) = 3.28632 4.02932 3.67664
# Velocity P-wave (km/s) = 5.41820 7.13899 6.33727
#
# Compressibility (1/GPa) = 0.02716235
#
# Stress axis : x y z
#
# Youngs Moduli (GPa) = 40.49441 81.96821 195.01606
#
# Poissons Ratio (x) = 0.12747 0.66461
# Poissons Ratio (y) = 0.06297 0.48109
# Poissons Ratio (z) = 0.13800 0.20221
#
# Static dielectric constant tensor:
#      x y z
#    x 2.060280 -0.023800 0.014300 
#    y -0.023800 1.972350 -0.046000 
#    z 0.014300 -0.046000 2.015820 
# 
# From -- ./inp_files/224462.got.cif
#   From: 2010.05.17/outbox.cif.g08.bks.cpg/sg2_113_cif.got.tgz:224462.got - 2010.06.03 11:33:40.
