data_PCOD9085651
_publ_section_title
;
Structure prediction by ZEFSAII (Michael W. Deem and Ramdas Pophale) SiO2 
 PCOD9085651
Probable space group: P -1
;
_chemical_formula_sum "Si O2"
_cell_formula_units_Z 16
_cell_length_a 12.214081
_cell_length_b 9.537945
_cell_length_c 23.379435
_cell_angle_alpha 55.079872
_cell_angle_beta 28.351723
_cell_angle_gamma 44.144327
_cell_volume 886.331112
_symmetry_space_group_name_H-M "P -1"
_symmetry_group_IT_number 2
_symmetry_cell_setting 'triclinic'
loop_
_space_group_symop_operation_xyz
x,y,z
-x,-y,-z
loop_
_atom_site_type_symbol
_atom_site_label
_atom_site_fract_x
_atom_site_fract_y
_atom_site_fract_z
Si Si1 0.491971 0.915033 0.461430
Si Si2 0.802901 0.347565 0.922557
Si Si3 0.001749 0.860123 0.691428
Si Si4 0.250251 0.906917 0.778886
Si Si5 0.987638 0.478573 0.300398
Si Si6 0.499688 0.608053 0.838440
Si Si7 0.053456 0.189913 0.145378
Si Si8 0.544651 0.207885 0.883331
O O1 0.203244 0.939523 0.576867
O O2 0.724174 0.673042 0.405410
O O3 0.500000 0.000000 0.500000
O O4 0.569010 0.029400 0.353660
O O5 0.967835 0.441360 0.799455
O O6 0.500000 0.500000 0.000000
O O7 0.746649 0.342932 0.016176
O O8 0.967105 0.117710 0.877262
O O9 0.035905 0.710311 0.660537
O O10 0.062353 0.746229 0.752064
O O11 0.689394 0.056183 0.798370
O O12 0.398406 0.776940 0.797134
O O13 0.169595 0.785395 0.802174
O O14 0.251501 0.413690 0.233770
O O15 0.587845 0.391507 0.821018
O O16 0.720466 0.055315 0.891049
O O17 0.232189 0.275504 0.020824
#
# Coordination Sequence:
#
# PCOD9085651 Si02
#       8
#     2   2   2   2   2   2   2   2
#     4  11  20  39  61  82 111 148 203 239 271 334
#     4   9  19  33  58  81 113 147 189 228 276 336
#     4  10  19  35  62  83 108 145 198 241 273 321
#     4  11  22  35  56  89 116 152 184 238 286 344
#     4  10  21  35  60  86 109 150 193 233 282 339
#     4  11  21  36  55  86 123 148 183 228 300 344
#     4   9  18  34  60  82 113 142 199 228 286 326
#     4   9  19  34  58  85 109 148 189 235 279 338
#
# _framework density 18.051945
#
# number of rings (size 3 to 8) (size 9 to 14) (size 15 to 20)
#    0.750    1.250    1.250    4.500    3.500    0.500 
#    0.000    3.125    2.750    0.000    0.000    0.000 
#    0.000    0.000    0.000    0.000    0.000    0.000 
#
# Total GULP energy -89116.134135 kJ/mol
# GULP energy per Si atom -5569.758383 kJ/mol
# Density = 1.801086 g / cm^3
# Si number density = 18.051945 Si / 1000 Ang^3
#
#
#
# Elastic Constant Matrix: (Units=GPa)
#
#
# Indices 1 2 3 4 5 6 
#
# 1 72.1221 49.4804 29.8382 -10.8691 3.7851 5.4261
# 2 49.4804 76.5845 28.8926 -11.0919 9.2531 15.3087
# 3 29.8382 28.8926 81.0808 -2.8865 3.6361 4.2917
# 4 -10.8691 -11.0919 -2.8865 15.8971 8.5529 1.3038
# 5 3.7851 9.2531 3.6361 8.5529 25.2877 -3.5829
# 6 5.4261 15.3087 4.2917 1.3038 -3.5829 29.2597
#
#
#
# Elastic Compliance Matrix: (Units=1/GPa)
#
#
# Indices 1 2 3 4 5 6 
#
# 1 0.027125 -0.015914 -0.004347 0.005829 0.000954 0.003791
# 2 -0.015914 0.034561 -0.003654 0.025309 -0.020889 -0.018281
# 3 -0.004347 -0.003654 0.015020 -0.003459 0.001112 0.000805
# 4 0.005829 0.025309 -0.003459 0.113804 -0.051700 -0.025217
# 5 0.000954 -0.020889 0.001112 -0.051700 0.067368 0.021142
# 6 0.003791 -0.018281 0.000805 -0.025217 0.021142 0.046633
#
#
# Mechanical properties :
#
#
# Convention : Reuss Voigt Hill
#
# Bulk Modulus (GPa) = 34.63083 49.57885 42.10484
# Shear Modulus (GPa) = 13.81343 22.19398 18.00370
#
# Velocity S-wave (km/s) = 2.76923 3.51016 3.16148
# Velocity P-wave (km/s) = 5.42683 6.62966 6.05817
#
# Compressibility (1/GPa) = 0.02887601
#
# Stress axis : x y z
#
# Youngs Moduli (GPa) = 36.86635 28.93407 66.57966
#
# Poissons Ratio (x) = 0.46045 0.28944
# Poissons Ratio (y) = 0.58668 0.24328
# Poissons Ratio (z) = 0.16027 0.10572
#
# Static dielectric constant tensor:
#      x y z
#    x 1.609930 0.013970 0.007280 
#    y 0.013970 1.636550 0.013010 
#    z 0.007280 0.013010 1.644070 
# 
# From -- ./inp_files/609813.got.cif
#   From: 2010.05.17/outbox.cif.g08.bks.cpg/sg2_305_cif.got.tgz:609813.got - 2010.06.03 11:33:40.
