data_PCOD9085348
_publ_section_title
;
Structure prediction by ZEFSAII (Michael W. Deem and Ramdas Pophale) SiO2 
 PCOD9085348
Probable space group: P -1
;
_chemical_formula_sum "Si O2"
_cell_formula_units_Z 16
_cell_length_a 8.209507
_cell_length_b 19.285921
_cell_length_c 17.531482
_cell_angle_alpha 156.601178
_cell_angle_beta 47.136019
_cell_angle_gamma 133.360394
_cell_volume 789.265461
_symmetry_space_group_name_H-M "P -1"
_symmetry_group_IT_number 2
_symmetry_cell_setting 'triclinic'
loop_
_space_group_symop_operation_xyz
x,y,z
-x,-y,-z
loop_
_atom_site_type_symbol
_atom_site_label
_atom_site_fract_x
_atom_site_fract_y
_atom_site_fract_z
Si Si1 0.237973 0.462078 0.751268
Si Si2 0.744397 0.098056 0.988963
Si Si3 0.319852 0.203402 0.713583
Si Si4 0.775404 0.206853 0.631094
Si Si5 0.094083 0.848749 0.643697
Si Si6 0.429300 0.183340 0.489870
Si Si7 0.813063 0.169663 0.862674
Si Si8 0.753972 0.493656 0.389184
O O1 0.412547 0.339771 0.594232
O O2 0.232350 0.487306 0.687591
O O3 0.989345 0.345867 0.736911
O O4 0.285068 0.664854 0.970634
O O5 0.728109 0.105799 0.909791
O O6 0.801218 0.303074 0.204268
O O7 0.941872 0.996144 0.845540
O O8 0.500000 0.000000 0.000000
O O9 0.539828 0.273011 0.766194
O O10 0.375574 0.259093 0.665405
O O11 0.084382 0.243282 0.856594
O O12 0.280355 0.986223 0.506625
O O13 0.842433 0.167348 0.482408
O O14 0.329692 0.874010 0.639183
O O15 0.935127 0.662196 0.531891
O O16 0.245650 0.005346 0.347160
O O17 0.500000 0.500000 0.500000
#
# Coordination Sequence:
#
# PCOD9085348 Si02
#       8
#     2   2   2   2   2   2   2   2
#     4  10  22  37  57  84 117 153 185 233 285 334
#     4  11  21  37  66  86 105 145 197 239 282 325
#     4  10  19  35  60  85 110 157 192 229 281 328
#     4   9  18  36  59  83 114 146 198 237 270 326
#     4  10  20  38  59  86 114 149 184 240 281 329
#     4  11  23  38  56  82 127 153 179 225 294 345
#     4  11  22  38  59  85 117 150 192 232 278 342
#     4  10  20  37  64  84 104 144 199 236 276 331
#
# _framework density 20.272015
#
# number of rings (size 3 to 8) (size 9 to 14) (size 15 to 20)
#    0.000    1.750    3.750    1.125    0.000    2.000 
#    0.000    1.250    0.000    0.000    0.000    0.000 
#    0.000    0.000    0.000    0.000    0.000    0.000 
#
# Total GULP energy -89319.294039 kJ/mol
# GULP energy per Si atom -5582.455877 kJ/mol
# Density = 2.022587 g / cm^3
# Si number density = 20.272015 Si / 1000 Ang^3
#
#
#
# Elastic Constant Matrix: (Units=GPa)
#
#
# Indices 1 2 3 4 5 6 
#
# 1 58.5898 16.3294 29.8735 4.1510 -27.5320 13.9684
# 2 16.3294 77.5398 17.6549 0.4125 -16.7469 17.9443
# 3 29.8735 17.6549 98.7565 17.7720 -36.7643 -0.7664
# 4 4.1510 0.4125 17.7720 29.5749 -1.5047 -7.9534
# 5 -27.5320 -16.7469 -36.7643 -1.5047 29.3673 -5.8261
# 6 13.9684 17.9443 -0.7664 -7.9534 -5.8261 15.0527
#
#
#
# Elastic Compliance Matrix: (Units=1/GPa)
#
#
# Indices 1 2 3 4 5 6 
#
# 1 0.044411 0.009652 0.002951 -0.018631 0.040617 -0.046692
# 2 0.009652 0.022179 -0.000036 -0.010468 0.014076 -0.035482
# 3 0.002951 -0.000036 0.023450 -0.011507 0.032505 0.004999
# 4 -0.018631 -0.010468 -0.011507 0.055255 -0.025378 0.048555
# 5 0.040617 0.014076 0.032505 -0.025378 0.115261 -0.021614
# 6 -0.046692 -0.035482 0.004999 0.048555 -0.021614 0.169604
#
#
# Mechanical properties :
#
#
# Convention : Reuss Voigt Hill
#
# Bulk Modulus (GPa) = 8.68246 40.28908 24.48577
# Shear Modulus (GPa) = 11.27610 26.20084 18.73847
#
# Velocity S-wave (km/s) = 2.36103 3.59898 3.04361
# Velocity P-wave (km/s) = 3.42416 6.09817 4.94533
#
# Compressibility (1/GPa) = 0.11517478
#
# Stress axis : x y z
#
# Youngs Moduli (GPa) = 22.51696 45.08742 42.64432
#
# Poissons Ratio (x) = -0.43520 -0.12586
# Poissons Ratio (y) = -0.21734 0.00154
# Poissons Ratio (z) = -0.06646 0.00163
#
# Static dielectric constant tensor:
#      x y z
#    x 1.722370 0.008380 -0.002330 
#    y 0.008380 1.719410 -0.007280 
#    z -0.002330 -0.007280 1.754450 
# 
# From -- ./inp_files/267516.got.cif
#   From: 2010.05.17/outbox.cif.g08.bks.cpg/sg2_134_cif.got.tgz:267516.got - 2010.06.03 11:33:40.
