data_PCOD9085442
_publ_section_title
;
Structure prediction by ZEFSAII (Michael W. Deem and Ramdas Pophale) SiO2 
 PCOD9085442
Probable space group: P -1
;
_chemical_formula_sum "Si O2"
_cell_formula_units_Z 14
_cell_length_a 11.143585
_cell_length_b 8.840611
_cell_length_c 16.824694
_cell_angle_alpha 38.422468
_cell_angle_beta 38.143656
_cell_angle_gamma 41.291720
_cell_volume 595.427546
_symmetry_space_group_name_H-M "P -1"
_symmetry_group_IT_number 2
_symmetry_cell_setting 'triclinic'
loop_
_space_group_symop_operation_xyz
x,y,z
-x,-y,-z
loop_
_atom_site_type_symbol
_atom_site_label
_atom_site_fract_x
_atom_site_fract_y
_atom_site_fract_z
Si Si1 0.505066 0.012301 0.087399
Si Si2 0.100976 0.298996 0.265122
Si Si3 0.130083 0.511024 0.850250
Si Si4 0.248742 0.936501 0.812602
Si Si5 0.325461 0.480254 0.538581
Si Si6 0.216896 0.741281 0.084988
Si Si7 0.437561 0.744734 0.638102
O O1 0.672070 0.750197 0.142107
O O2 0.289320 0.069609 0.222496
O O3 0.601245 0.231688 0.968407
O O4 0.500000 0.000000 0.000000
O O5 0.894080 0.298459 0.417325
O O6 0.197692 0.460059 0.206203
O O7 0.990311 0.947395 0.141285
O O8 0.224090 0.743645 0.708566
O O9 0.998465 0.530689 0.831814
O O10 0.000000 0.500000 0.000000
O O11 0.254848 0.819605 0.943890
O O12 0.388722 0.726953 0.763417
O O13 0.309306 0.195156 0.679553
O O14 0.500000 0.500000 0.500000
O O15 0.388594 0.463435 0.419856
O O16 0.500000 0.000000 0.500000
#
# Coordination Sequence:
#
# PCOD9085442 Si02
#       7
#     2   2   2   2   2   2   2
#     4  12  25  38  62 101 131 166 207 269 328 388
#     4  11  23  41  64  93 130 169 211 265 321 383
#     4  12  22  40  69  98 128 164 218 270 319 379
#     4   9  19  35  63  96 118 167 214 253 320 385
#     4  10  19  35  60  90 124 166 214 260 310 379
#     4  10  20  38  61  93 132 159 204 269 330 378
#     4  10  21  37  64  95 128 173 217 258 319 389
#
# _framework density 23.512516999999999
#
# number of rings (size 3 to 8) (size 9 to 14) (size 15 to 20)
#    0.000    1.429    2.857    4.714    0.000    0.000 
#    0.000    0.714    0.000    1.714    0.000    0.000 
#    0.000    0.000    0.000    0.000    0.000    0.000 
#
# Total GULP energy -78246.043583 kJ/mol
# GULP energy per Si atom -5589.003113 kJ/mol
# Density = 2.345900 g / cm^3
# Si number density = 23.512517 Si / 1000 Ang^3
#
#
#
# Elastic Constant Matrix: (Units=GPa)
#
#
# Indices 1 2 3 4 5 6 
#
# 1 84.5873 53.0879 28.9952 11.7720 -20.5267 16.8431
# 2 53.0879 155.4186 59.1435 53.5164 -3.5171 -1.5413
# 3 28.9952 59.1435 110.4507 35.5444 -25.6427 12.7327
# 4 11.7720 53.5164 35.5444 62.6739 13.2207 0.0291
# 5 -20.5267 -3.5171 -25.6427 13.2207 38.4029 0.2734
# 6 16.8431 -1.5413 12.7327 0.0291 0.2734 40.4620
#
#
#
# Elastic Compliance Matrix: (Units=1/GPa)
#
#
# Indices 1 2 3 4 5 6 
#
# 1 0.021105 -0.007523 0.003840 -0.002700 0.014159 -0.010374
# 2 -0.007523 0.012764 -0.004192 -0.006375 -0.003492 0.004965
# 3 0.003840 -0.004192 0.019572 -0.012249 0.019012 -0.008037
# 4 -0.002700 -0.006375 -0.012249 0.033439 -0.021753 0.004859
# 5 0.014159 -0.003492 0.019012 -0.021753 0.053560 -0.012356
# 6 -0.010374 0.004965 -0.008037 0.004859 -0.012356 0.031831
#
#
# Mechanical properties :
#
#
# Convention : Reuss Voigt Hill
#
# Bulk Modulus (GPa) = 26.53032 70.32328 48.42680
# Shear Modulus (GPa) = 24.92715 42.25643 33.59179
#
# Velocity S-wave (km/s) = 3.25955 4.24393 3.78388
# Velocity P-wave (km/s) = 5.04720 7.34768 6.30327
#
# Compressibility (1/GPa) = 0.03769272
#
# Stress axis : x y z
#
# Youngs Moduli (GPa) = 47.38269 78.34336 51.09223
#
# Poissons Ratio (x) = 0.58938 -0.19620
# Poissons Ratio (y) = 0.35646 0.21416
# Poissons Ratio (z) = -0.18196 0.32838
#
# Static dielectric constant tensor:
#      x y z
#    x 1.840110 0.013540 -0.036770 
#    y 0.013540 1.964850 -0.024030 
#    z -0.036770 -0.024030 1.968440 
# 
# From -- ./inp_files/597105.got.cif
#   From: 2010.05.17/outbox.cif.g08.bks.cpg/sg2_299_cif.got.tgz:597105.got - 2010.06.03 11:33:40.
