data_PCOD9085191
_publ_section_title
;
Structure prediction by ZEFSAII (Michael W. Deem and Ramdas Pophale) SiO2 
 PCOD9085191
Probable space group: P -1
;
_chemical_formula_sum "Si O2"
_cell_formula_units_Z 16
_cell_length_a 15.477517
_cell_length_b 11.803358
_cell_length_c 7.967187
_cell_angle_alpha 106.709888
_cell_angle_beta 66.492064
_cell_angle_gamma 50.195177
_cell_volume 653.458990
_symmetry_space_group_name_H-M "P -1"
_symmetry_group_IT_number 2
_symmetry_cell_setting 'triclinic'
loop_
_space_group_symop_operation_xyz
x,y,z
-x,-y,-z
loop_
_atom_site_type_symbol
_atom_site_label
_atom_site_fract_x
_atom_site_fract_y
_atom_site_fract_z
Si Si1 0.778110 0.224629 0.764922
Si Si2 0.289443 0.975707 0.221325
Si Si3 0.738451 0.272089 0.177704
Si Si4 0.830910 0.769966 0.256468
Si Si5 0.679379 0.074426 0.208310
Si Si6 0.323887 0.306868 0.198166
Si Si7 0.530921 0.923322 0.660591
Si Si8 0.845231 0.281459 0.419366
O O1 0.698353 0.360985 0.058938
O O2 0.731905 0.333183 0.671031
O O3 0.723152 0.148107 0.779257
O O4 0.000000 0.000000 0.500000
O O5 0.166680 0.171977 0.538607
O O6 0.247936 0.033599 0.081267
O O7 0.493815 0.808206 0.013076
O O8 0.749347 0.358439 0.349296
O O9 0.948671 0.991649 0.875377
O O10 0.637414 0.260149 0.312203
O O11 0.813500 0.889035 0.176371
O O12 0.650492 0.879687 0.433479
O O13 0.000000 0.500000 0.000000
O O14 0.508897 0.167723 0.399300
O O15 0.349965 0.214476 0.316789
O O16 0.160976 0.576290 0.456297
O O17 0.343834 0.191346 0.983721
#
# Coordination Sequence:
#
# PCOD9085191 Si02
#       8
#     2   2   2   2   2   2   2   2
#     4   9  18  36  55  80 116 148 184 237 287 336
#     4   9  20  40  58  79 119 152 188 237 289 346
#     4   9  20  36  58  85 117 149 190 239 287 342
#     4  11  23  37  60  89 111 150 201 240 284 343
#     4  10  20  40  63  80 119 160 181 241 301 334
#     4   9  19  37  63  81 113 163 190 234 290 343
#     4   9  20  41  57  83 123 151 194 240 286 345
#     4  10  19  35  59  85 115 151 193 235 287 340
#
# _framework density 24.485084000000001
#
# number of rings (size 3 to 8) (size 9 to 14) (size 15 to 20)
#    0.000    2.500    0.000    1.875    1.750    1.000 
#    6.750   10.625    0.000    0.000    0.000    0.000 
#    0.000    0.000    0.000    0.000    0.000    0.000 
#
# Total GULP energy -89401.625323 kJ/mol
# GULP energy per Si atom -5587.601583 kJ/mol
# Density = 2.442936 g / cm^3
# Si number density = 24.485084 Si / 1000 Ang^3
#
#
#
# Elastic Constant Matrix: (Units=GPa)
#
#
# Indices 1 2 3 4 5 6 
#
# 1 73.3999 1.2842 13.7340 -6.3724 3.9666 17.9522
# 2 1.2842 85.2394 33.9739 -18.8388 12.1755 23.1188
# 3 13.7340 33.9739 84.2402 -7.3102 20.3780 -4.0040
# 4 -6.3724 -18.8388 -7.3102 29.1414 0.8889 1.3909
# 5 3.9666 12.1755 20.3780 0.8889 39.7618 -6.0831
# 6 17.9522 23.1188 -4.0040 1.3909 -6.0831 31.5601
#
#
#
# Elastic Compliance Matrix: (Units=1/GPa)
#
#
# Indices 1 2 3 4 5 6 
#
# 1 0.022542 0.013449 -0.007551 0.013151 -0.006693 -0.025503
# 2 0.013449 0.033364 -0.012648 0.023441 -0.011245 -0.036896
# 3 -0.007551 -0.012648 0.019089 -0.005709 -0.002623 0.015728
# 4 0.013151 0.023441 -0.005709 0.052684 -0.011313 -0.029879
# 5 -0.006693 -0.011245 -0.002623 -0.011313 0.033720 0.018709
# 6 -0.025503 -0.036896 0.015728 -0.029879 0.018709 0.080138
#
#
# Mechanical properties :
#
#
# Convention : Reuss Voigt Hill
#
# Bulk Modulus (GPa) = 16.26101 37.87374 27.06738
# Shear Modulus (GPa) = 18.14651 33.01849 25.58250
#
# Velocity S-wave (km/s) = 2.72531 3.67620 3.23587
# Velocity P-wave (km/s) = 4.06924 5.78972 5.00398
#
# Compressibility (1/GPa) = 0.06149679
#
# Stress axis : x y z
#
# Youngs Moduli (GPa) = 44.36077 29.97265 52.38517
#
# Poissons Ratio (x) = -0.40312 0.39557
# Poissons Ratio (y) = -0.59663 0.66255
# Poissons Ratio (z) = 0.33498 0.37908
#
# Static dielectric constant tensor:
#      x y z
#    x 1.998110 -0.043900 -0.009380 
#    y -0.043900 2.006810 0.035930 
#    z -0.009380 0.035930 2.008330 
# 
# From -- ./inp_files/332145.got.cif
#   From: 2010.05.17/outbox.cif.g08.bks.cpg/sg2_167_cif.got.tgz:332145.got - 2010.06.03 11:33:40.
