data_PCOD9085425
_publ_section_title
;
Structure prediction by ZEFSAII (Michael W. Deem and Ramdas Pophale) SiO2 
 PCOD9085425
Probable space group: P -1
;
_chemical_formula_sum "Si O2"
_cell_formula_units_Z 16
_cell_length_a 13.986107
_cell_length_b 12.605187
_cell_length_c 7.796763
_cell_angle_alpha 148.095557
_cell_angle_beta 69.984145
_cell_angle_gamma 120.475905
_cell_volume 614.219063
_symmetry_space_group_name_H-M "P -1"
_symmetry_group_IT_number 2
_symmetry_cell_setting 'triclinic'
loop_
_space_group_symop_operation_xyz
x,y,z
-x,-y,-z
loop_
_atom_site_type_symbol
_atom_site_label
_atom_site_fract_x
_atom_site_fract_y
_atom_site_fract_z
Si Si1 0.013224 0.778736 0.483105
Si Si2 0.872500 0.852880 0.438293
Si Si3 0.704474 0.024810 0.895389
Si Si4 0.884283 0.703199 0.768795
Si Si5 0.730748 0.441434 0.763894
Si Si6 0.516315 0.405598 0.678423
Si Si7 0.679870 0.823403 0.994099
Si Si8 0.751283 0.192098 0.732087
O O1 0.115675 0.750541 0.295074
O O2 0.898627 0.690813 0.324651
O O3 0.971116 0.670299 0.543396
O O4 0.049409 0.043229 0.853668
O O5 0.818676 0.995248 0.757046
O O6 0.779488 0.701058 0.151475
O O7 0.000000 0.000000 0.500000
O O8 0.592627 0.804084 0.606294
O O9 0.692571 0.999399 0.076661
O O10 0.716727 0.188779 0.948355
O O11 0.834525 0.493242 0.640124
O O12 0.776582 0.732910 0.793738
O O13 0.620845 0.350541 0.587758
O O14 0.714120 0.322427 0.792265
O O15 0.562296 0.605028 0.785626
O O16 0.500000 0.500000 0.000000
O O17 0.694771 0.949541 0.339653
#
# Coordination Sequence:
#
# PCOD9085425 Si02
#       8
#     2   2   2   2   2   2   2   2
#     4  10  19  35  60  89 118 161 204 249 300 349
#     4  12  20  37  64  90 117 157 216 256 287 358
#     4  12  22  41  68  93 118 161 213 255 299 357
#     4   9  18  36  61  86 119 157 208 253 288 354
#     4  11  24  40  60  91 127 165 197 249 320 366
#     4  11  21  43  69  89 116 160 215 261 296 351
#     4  10  21  40  66  93 118 157 211 258 299 354
#     4  11  24  40  58  92 138 163 188 247 322 377
#
# _framework density 26.049339
#
# number of rings (size 3 to 8) (size 9 to 14) (size 15 to 20)
#    0.000    1.250    6.250    1.125    0.000    1.500 
#    2.250    0.625    0.000    0.000    0.000    0.000 
#    0.000    0.000    0.000    0.000    0.000    0.000 
#
# Total GULP energy -89184.515024 kJ/mol
# GULP energy per Si atom -5574.032189 kJ/mol
# Density = 2.599005 g / cm^3
# Si number density = 26.049339 Si / 1000 Ang^3
#
#
#
# Elastic Constant Matrix: (Units=GPa)
#
#
# Indices 1 2 3 4 5 6 
#
# 1 64.3290 27.3510 18.2953 11.7959 14.9775 -7.8469
# 2 27.3510 190.1453 13.0834 9.3700 -4.5801 -23.7813
# 3 18.2953 13.0834 29.7995 6.7777 5.0368 -2.6360
# 4 11.7959 9.3700 6.7777 37.8184 -7.7325 3.9168
# 5 14.9775 -4.5801 5.0368 -7.7325 23.1571 6.7050
# 6 -7.8469 -23.7813 -2.6360 3.9168 6.7050 42.3413
#
#
#
# Elastic Compliance Matrix: (Units=1/GPa)
#
#
# Indices 1 2 3 4 5 6 
#
# 1 0.027345 -0.002315 -0.008574 -0.011841 -0.022519 0.007895
# 2 -0.002315 0.006076 -0.001278 -0.000398 0.002088 0.002610
# 3 -0.008574 -0.001278 0.042006 -0.006042 -0.006406 0.001881
# 4 -0.011841 -0.000398 -0.006042 0.037326 0.024280 -0.010092
# 5 -0.022519 0.002088 -0.006406 0.024280 0.072627 -0.017146
# 6 0.007895 0.002610 0.001881 -0.010092 -0.017146 0.030313
#
#
# Mechanical properties :
#
#
# Convention : Reuss Voigt Hill
#
# Bulk Modulus (GPa) = 19.57208 44.63702 32.10455
# Shear Modulus (GPa) = 19.45068 35.69963 27.57516
#
# Velocity S-wave (km/s) = 2.73552 3.70599 3.25710
# Velocity P-wave (km/s) = 4.18416 5.95695 5.14745
#
# Compressibility (1/GPa) = 0.05109318
#
# Stress axis : x y z
#
# Youngs Moduli (GPa) = 36.56927 164.56960 23.80588
#
# Poissons Ratio (x) = 0.38096 0.20412
# Poissons Ratio (y) = 0.08465 0.03043
# Poissons Ratio (z) = 0.31356 0.21036
#
# Static dielectric constant tensor:
#      x y z
#    x 2.277410 -0.122140 -0.033090 
#    y -0.122140 2.275070 -0.064130 
#    z -0.033090 -0.064130 2.184930 
# 
# From -- ./inp_files/308770.got.cif
#   From: 2010.05.17/outbox.cif.g08.bks.cpg/sg2_155_cif.got.tgz:308770.got - 2010.06.03 11:33:40.
