data_PCOD9085991
_publ_section_title
;
Structure prediction by ZEFSAII (Michael W. Deem and Ramdas Pophale) SiO2 
 PCOD9085991
Probable space group: P -1
;
_chemical_formula_sum "Si O2"
_cell_formula_units_Z 12
_cell_length_a 17.354379
_cell_length_b 11.874039
_cell_length_c 8.880962
_cell_angle_alpha 138.089472
_cell_angle_beta 27.616667
_cell_angle_gamma 146.661728
_cell_volume 466.173633
_symmetry_space_group_name_H-M "P -1"
_symmetry_group_IT_number 2
_symmetry_cell_setting 'triclinic'
loop_
_space_group_symop_operation_xyz
x,y,z
-x,-y,-z
loop_
_atom_site_type_symbol
_atom_site_label
_atom_site_fract_x
_atom_site_fract_y
_atom_site_fract_z
Si Si1 0.771966 0.324331 0.257657
Si Si2 0.745145 0.108773 0.674658
Si Si3 0.713765 0.436876 0.146157
Si Si4 0.255198 0.239137 0.755788
Si Si5 0.197889 0.018664 0.234039
Si Si6 0.411108 0.550978 0.064327
O O1 0.679157 0.357683 0.300881
O O2 0.715325 0.375769 0.563537
O O3 0.000000 0.500000 0.000000
O O4 0.742920 0.107085 0.097240
O O5 0.815723 0.996372 0.332153
O O6 0.830781 0.086123 0.660467
O O7 0.813717 0.342094 0.784872
O O8 0.500000 0.000000 0.000000
O O9 0.482052 0.328639 0.392226
O O10 0.824182 0.675089 0.148600
O O11 0.286243 0.365078 0.979411
O O12 0.388053 0.249921 0.152056
O O13 0.000000 0.000000 0.500000
O O14 0.500000 0.500000 0.000000
#
# Coordination Sequence:
#
# PCOD9085991 Si02
#       6
#     2   2   2   2   2   2
#     4  11  24  42  66  93 134 173 221 275 332 396
#     4   9  19  36  64  98 126 174 222 263 332 399
#     4   9  18  36  61  94 123 169 212 265 324 397
#     4  10  19  35  66  93 127 165 221 268 327 393
#     4  11  24  41  68  99 135 173 219 276 334 398
#     4  12  23  40  64 101 131 173 222 271 333 396
#
# _framework density 25.741481
#
# number of rings (size 3 to 8) (size 9 to 14) (size 15 to 20)
#    0.000    1.667    1.667    4.500    2.333    0.000 
#    3.000    0.833    0.000    5.000    0.000    0.000 
#    0.000    0.000    0.000    0.000    0.000    0.000 
#
# Total GULP energy -66983.155075 kJ/mol
# GULP energy per Si atom -5581.929590 kJ/mol
# Density = 2.568289 g / cm^3
# Si number density = 25.741481 Si / 1000 Ang^3
#
#
#
# Elastic Constant Matrix: (Units=GPa)
#
#
# Indices 1 2 3 4 5 6 
#
# 1 113.9272 13.0417 59.8136 22.6511 -3.1108 -0.3345
# 2 13.0417 70.3454 51.7826 26.2995 8.8874 -15.0090
# 3 59.8136 51.7826 169.6268 53.1057 21.7029 0.5978
# 4 22.6511 26.2995 53.1057 59.7996 7.0814 -4.7489
# 5 -3.1108 8.8874 21.7029 7.0814 43.7357 16.5421
# 6 -0.3345 -15.0090 0.5978 -4.7489 16.5421 30.1829
#
#
#
# Elastic Compliance Matrix: (Units=1/GPa)
#
#
# Indices 1 2 3 4 5 6 
#
# 1 0.011278 0.000744 -0.004216 -0.001406 0.003577 -0.001603
# 2 0.000744 0.023651 -0.005423 -0.003805 -0.007205 0.015227
# 3 -0.004216 -0.005423 0.011255 -0.005838 -0.002988 -0.002247
# 4 -0.001406 -0.003805 -0.005838 0.024519 -0.001490 0.002882
# 5 0.003577 -0.007205 -0.002988 -0.001490 0.034961 -0.022879
# 6 -0.001603 0.015227 -0.002247 0.002882 -0.022879 0.053723
#
#
# Mechanical properties :
#
#
# Convention : Reuss Voigt Hill
#
# Bulk Modulus (GPa) = 35.21662 67.01948 51.11805
# Shear Modulus (GPa) = 26.78932 42.02771 34.40852
#
# Velocity S-wave (km/s) = 3.22950 4.04503 3.66005
# Velocity P-wave (km/s) = 5.25517 6.92160 6.14513
#
# Compressibility (1/GPa) = 0.02839568
#
# Stress axis : x y z
#
# Youngs Moduli (GPa) = 88.66575 42.28080 88.84618
#
# Poissons Ratio (x) = -0.03147 0.37457
# Poissons Ratio (y) = -0.06599 0.48182
# Poissons Ratio (z) = 0.37381 0.22929
#
# Static dielectric constant tensor:
#      x y z
#    x 2.193380 0.121070 -0.039450 
#    y 0.121070 2.071180 0.093840 
#    z -0.039450 0.093840 2.131830 
# 
# From -- ./inp_files/332503.got.cif
#   From: 2010.05.17/outbox.cif.g08.bks.cpg/sg2_167_cif.got.tgz:332503.got - 2010.06.03 11:33:40.
