data_PCOD9085105
_publ_section_title
;
Structure prediction by ZEFSAII (Michael W. Deem and Ramdas Pophale) SiO2 
 PCOD9085105
Probable space group: P -1
;
_chemical_formula_sum "Si O2"
_cell_formula_units_Z 16
_cell_length_a 10.767510
_cell_length_b 13.207660
_cell_length_c 15.150710
_cell_angle_alpha 61.245724
_cell_angle_beta 45.519234
_cell_angle_gamma 31.490059
_cell_volume 762.820721
_symmetry_space_group_name_H-M "P -1"
_symmetry_group_IT_number 2
_symmetry_cell_setting 'triclinic'
loop_
_space_group_symop_operation_xyz
x,y,z
-x,-y,-z
loop_
_atom_site_type_symbol
_atom_site_label
_atom_site_fract_x
_atom_site_fract_y
_atom_site_fract_z
Si Si1 0.850050 0.771841 0.442098
Si Si2 0.284720 0.816866 0.872368
Si Si3 0.672527 0.048164 0.801524
Si Si4 0.283121 0.547091 0.966767
Si Si5 0.945071 0.682213 0.897287
Si Si6 0.790649 0.649159 0.228651
Si Si7 0.103329 0.877081 0.218366
Si Si8 0.064284 0.439804 0.353763
O O1 0.906093 0.689025 0.546083
O O2 0.038631 0.784232 0.323582
O O3 0.955375 0.609202 0.394955
O O4 0.500000 0.000000 0.500000
O O5 0.339969 0.649396 0.916320
O O6 0.592939 0.716789 0.784543
O O7 0.173156 0.920203 0.787502
O O8 0.000000 0.000000 0.000000
O O9 0.544109 0.134000 0.731050
O O10 0.824381 0.077262 0.756375
O O11 0.887512 0.820833 0.803536
O O12 0.374898 0.181369 0.955434
O O13 0.592356 0.302771 0.918616
O O14 0.161878 0.602132 0.903335
O O15 0.011857 0.640760 0.121642
O O16 0.077590 0.505611 0.848762
O O17 0.831284 0.562985 0.336604
#
# Coordination Sequence:
#
# PCOD9085105 Si02
#       8
#     2   2   2   2   2   2   2   2
#     4  11  25  46  68  85 119 177 224 259 308 363
#     4  12  26  37  63 103 133 161 206 263 323 385
#     4  10  20  34  60  94 123 169 206 249 313 387
#     4  11  21  37  61  96 132 168 202 253 318 390
#     4  10  19  35  58  91 132 167 200 243 320 391
#     4  11  22  37  62  92 133 161 198 259 327 375
#     4  12  21  40  66  88 122 167 217 259 306 370
#     4  11  26  44  63  94 125 167 216 263 313 377
#
# _framework density 20.974785000000001
#
# number of rings (size 3 to 8) (size 9 to 14) (size 15 to 20)
#    0.000    1.000    6.250    1.500    1.750    2.000 
#    0.000    0.625    0.000    1.500    0.000    0.000 
#    0.000    0.000    0.000    0.000    0.000    0.000 
#
# Total GULP energy -89464.074851 kJ/mol
# GULP energy per Si atom -5591.504678 kJ/mol
# Density = 2.092705 g / cm^3
# Si number density = 20.974785 Si / 1000 Ang^3
#
#
#
# Elastic Constant Matrix: (Units=GPa)
#
#
# Indices 1 2 3 4 5 6 
#
# 1 47.7659 12.6053 10.8401 -20.9207 -1.2188 -18.6317
# 2 12.6053 112.0714 12.2348 -25.9657 3.7406 -18.8880
# 3 10.8401 12.2348 40.9800 -14.2351 6.4462 -6.0065
# 4 -20.9207 -25.9657 -14.2351 34.1391 -6.2954 6.1780
# 5 -1.2188 3.7406 6.4462 -6.2954 21.7331 -11.6119
# 6 -18.6317 -18.8880 -6.0065 6.1780 -11.6119 44.3071
#
#
#
# Elastic Compliance Matrix: (Units=1/GPa)
#
#
# Indices 1 2 3 4 5 6 
#
# 1 0.041238 0.004964 -0.003007 0.028008 0.021576 0.020799
# 2 0.004964 0.012157 -0.000708 0.011749 0.005532 0.006985
# 3 -0.003007 -0.000708 0.029404 0.008773 -0.006497 -0.000506
# 4 0.028008 0.011749 0.008773 0.060437 0.022739 0.015508
# 5 0.021576 0.005532 -0.006497 0.022739 0.068290 0.025277
# 6 0.020799 0.006985 -0.000506 0.015508 0.025277 0.038687
#
#
# Mechanical properties :
#
#
# Convention : Reuss Voigt Hill
#
# Bulk Modulus (GPa) = 11.72351 30.24195 20.98273
# Shear Modulus (GPa) = 18.10634 31.04499 24.57566
#
# Velocity S-wave (km/s) = 2.94129 3.85139 3.42669
# Velocity P-wave (km/s) = 4.13961 5.85040 5.06772
#
# Compressibility (1/GPa) = 0.08529866
#
# Stress axis : x y z
#
# Youngs Moduli (GPa) = 24.24932 82.26003 34.00873
#
# Poissons Ratio (x) = -0.40836 0.10226
# Poissons Ratio (y) = -0.12038 0.02406
# Poissons Ratio (z) = 0.07292 0.05820
#
# Static dielectric constant tensor:
#      x y z
#    x 1.746040 -0.033010 0.014400 
#    y -0.033010 1.760490 -0.007430 
#    z 0.014400 -0.007430 1.776850 
# 
# From -- ./inp_files/436076.got.cif
#   From: 2010.05.17/outbox.cif.g08.bks.cpg/sg2_219_cif.got.tgz:436076.got - 2010.06.03 11:33:40.
