data_PCOD9085804
_publ_section_title
;
Structure prediction by ZEFSAII (Michael W. Deem and Ramdas Pophale) SiO2 
 PCOD9085804
Probable space group: P -1
;
_chemical_formula_sum "Si O2"
_cell_formula_units_Z 14
_cell_length_a 20.576918
_cell_length_b 20.754755
_cell_length_c 9.207120
_cell_angle_alpha 27.599037
_cell_angle_beta 156.276009
_cell_angle_gamma 161.061946
_cell_volume 507.204121
_symmetry_space_group_name_H-M "P -1"
_symmetry_group_IT_number 2
_symmetry_cell_setting 'triclinic'
loop_
_space_group_symop_operation_xyz
x,y,z
-x,-y,-z
loop_
_atom_site_type_symbol
_atom_site_label
_atom_site_fract_x
_atom_site_fract_y
_atom_site_fract_z
Si Si1 0.855137 0.030479 0.059495
Si Si2 0.612492 0.463048 0.181165
Si Si3 0.241617 0.510702 0.884216
Si Si4 0.364339 0.784813 0.081574
Si Si5 0.960544 0.889292 0.999140
Si Si6 0.691139 0.953006 0.165101
Si Si7 0.953172 0.580418 0.037771
O O1 0.651568 0.928235 0.960922
O O2 0.825443 0.972133 0.949730
O O3 0.000000 0.000000 0.500000
O O4 0.021919 0.266953 0.914410
O O5 0.586504 0.435352 0.003447
O O6 0.575020 0.294649 0.517438
O O7 0.500000 0.500000 0.000000
O O8 0.879849 0.686754 0.282670
O O9 0.256736 0.520998 0.072039
O O10 0.147604 0.603174 0.463158
O O11 0.479142 0.875528 0.976481
O O12 0.128501 0.560050 0.986814
O O13 0.500000 0.000000 0.000000
O O14 0.756745 0.843444 0.585733
O O15 0.000000 0.000000 0.000000
O O16 0.917107 0.192569 0.179739
#
# Coordination Sequence:
#
# PCOD9085804 Si02
#       7
#     2   2   2   2   2   2   2
#     4   8  17  34  60  84 117 159 205 255 313 377
#     4  11  22  42  61  94 137 164 211 276 325 388
#     4   9  20  41  68  89 127 175 215 271 326 383
#     4  12  26  41  65  98 132 173 218 270 328 391
#     4  10  19  35  63  89 121 166 208 257 322 379
#     4  10  20  40  61  89 125 166 212 260 316 381
#     4  10  22  44  67  93 129 174 223 267 325 388
#
# _framework density 27.6023
#
# number of rings (size 3 to 8) (size 9 to 14) (size 15 to 20)
#    0.000    2.000    1.429    1.714    0.000    4.571 
#    2.571   10.714    0.000    0.000    0.000    0.000 
#    0.000    0.000    0.000    0.000    0.000    0.000 
#
# Total GULP energy -77977.672238 kJ/mol
# GULP energy per Si atom -5569.833731 kJ/mol
# Density = 2.753948 g / cm^3
# Si number density = 27.602300 Si / 1000 Ang^3
#
#
#
# Elastic Constant Matrix: (Units=GPa)
#
#
# Indices 1 2 3 4 5 6 
#
# 1 226.9140 38.5358 19.2852 -14.3320 -35.9367 -11.6750
# 2 38.5358 99.9834 42.9138 -25.7593 -7.8763 -13.1958
# 3 19.2852 42.9138 98.6702 -34.3952 -6.2112 -16.0714
# 4 -14.3320 -25.7593 -34.3952 58.1428 -8.4411 -10.0193
# 5 -35.9367 -7.8763 -6.2112 -8.4411 32.7663 -10.8415
# 6 -11.6750 -13.1958 -16.0714 -10.0193 -10.8415 57.7924
#
#
#
# Elastic Compliance Matrix: (Units=1/GPa)
#
#
# Indices 1 2 3 4 5 6 
#
# 1 0.006454 -0.000820 0.002032 0.004613 0.009890 0.004337
# 2 -0.000820 0.013939 -0.003024 0.005548 0.004633 0.004007
# 3 0.002032 -0.003024 0.017644 0.012744 0.011079 0.008914
# 4 0.004613 0.005548 0.012744 0.034430 0.022980 0.016022
# 5 0.009890 0.004633 0.011079 0.022980 0.057413 0.020891
# 6 0.004337 0.004007 0.008914 0.016022 0.020891 0.028270
#
#
# Mechanical properties :
#
#
# Convention : Reuss Voigt Hill
#
# Bulk Modulus (GPa) = 29.05777 69.67079 49.36428
# Shear Modulus (GPa) = 28.86097 51.39582 40.12840
#
# Velocity S-wave (km/s) = 3.23708 4.31979 3.81702
# Velocity P-wave (km/s) = 4.95194 7.08353 6.11139
#
# Compressibility (1/GPa) = 0.03441420
#
# Stress axis : x y z
#
# Youngs Moduli (GPa) = 154.93473 71.74335 56.67518
#
# Poissons Ratio (x) = 0.05882 -0.11517
# Poissons Ratio (y) = 0.12702 0.17138
# Poissons Ratio (z) = -0.31485 0.21694
#
# Static dielectric constant tensor:
#      x y z
#    x 2.330180 -0.123470 -0.006560 
#    y -0.123470 2.161420 -0.118430 
#    z -0.006560 -0.118430 1.873950 
# 
# From -- ./inp_files/349678.got.cif
#   From: 2010.05.17/outbox.cif.g08.bks.cpg/sg2_175_cif.got.tgz:349678.got - 2010.06.03 11:33:40.
