data_PCOD9085775
_publ_section_title
;
Structure prediction by ZEFSAII (Michael W. Deem and Ramdas Pophale) SiO2 
 PCOD9085775
Probable space group: P -1
;
_chemical_formula_sum "Si O2"
_cell_formula_units_Z 16
_cell_length_a 19.453635
_cell_length_b 12.103255
_cell_length_c 7.993553
_cell_angle_alpha 78.481507
_cell_angle_beta 64.147220
_cell_angle_gamma 29.527366
_cell_volume 763.118007
_symmetry_space_group_name_H-M "P -1"
_symmetry_group_IT_number 2
_symmetry_cell_setting 'triclinic'
loop_
_space_group_symop_operation_xyz
x,y,z
-x,-y,-z
loop_
_atom_site_type_symbol
_atom_site_label
_atom_site_fract_x
_atom_site_fract_y
_atom_site_fract_z
Si Si1 0.023665 0.234409 0.649129
Si Si2 0.937605 0.340186 0.344635
Si Si3 0.917270 0.616473 0.306239
Si Si4 0.828362 0.264462 0.327647
Si Si5 0.514244 0.351987 0.969690
Si Si6 0.185215 0.685412 0.065619
Si Si7 0.794779 0.877388 0.034052
Si Si8 0.649977 0.286677 0.530379
O O1 0.048722 0.335070 0.604426
O O2 0.029476 0.187757 0.464436
O O3 0.860420 0.387484 0.845974
O O4 0.180127 0.975972 0.657551
O O5 0.856693 0.567448 0.409399
O O6 0.823982 0.390501 0.383434
O O7 0.076727 0.186370 0.104503
O O8 0.099583 0.356548 0.107603
O O9 0.794959 0.833933 0.235189
O O10 0.704371 0.338323 0.523256
O O11 0.784798 0.329200 0.157501
O O12 0.019105 0.969439 0.216658
O O13 0.606642 0.250017 0.724453
O O14 0.627412 0.132590 0.043388
O O15 0.500000 0.500000 0.000000
O O16 0.339925 0.522701 0.059942
O O17 0.500000 0.500000 0.500000
#
# Coordination Sequence:
#
# PCOD9085775 Si02
#       8
#     2   2   2   2   2   2   2   2
#     4  11  22  37  63  90 122 153 210 249 297 356
#     4  10  19  35  63  86 111 153 206 248 285 347
#     4   9  20  39  65  88 116 164 205 246 294 356
#     4  10  21  39  60  85 125 157 207 238 299 365
#     4  12  24  38  60  91 127 155 199 250 307 359
#     4  10  23  36  57  90 122 165 191 249 305 355
#     4   9  20  38  60  90 115 159 207 239 298 351
#     4  11  23  39  58  90 120 164 191 249 310 356
#
# _framework density 20.966614
#
# number of rings (size 3 to 8) (size 9 to 14) (size 15 to 20)
#    0.750    1.000    2.500    1.875    3.500    1.000 
#    0.000    0.625    0.000    1.500    0.000    0.000 
#    0.000    0.000    0.000    0.000    0.000    0.000 
#
# Total GULP energy -89176.244189 kJ/mol
# GULP energy per Si atom -5573.515262 kJ/mol
# Density = 2.091889 g / cm^3
# Si number density = 20.966614 Si / 1000 Ang^3
#
#
#
# Elastic Constant Matrix: (Units=GPa)
#
#
# Indices 1 2 3 4 5 6 
#
# 1 150.1416 58.2121 15.7880 -1.2189 -19.3419 -3.0104
# 2 58.2121 130.4591 18.8014 -20.4370 -11.0938 -27.3015
# 3 15.7880 18.8014 38.6487 -9.6126 -13.7473 -4.6816
# 4 -1.2189 -20.4370 -9.6126 25.6295 -0.6805 -6.0179
# 5 -19.3419 -11.0938 -13.7473 -0.6805 32.7083 1.7735
# 6 -3.0104 -27.3015 -4.6816 -6.0179 1.7735 25.7680
#
#
#
# Elastic Compliance Matrix: (Units=1/GPa)
#
#
# Indices 1 2 3 4 5 6 
#
# 1 0.009636 -0.006676 -0.002735 -0.007806 0.002580 -0.008446
# 2 -0.006676 0.019131 0.002932 0.021974 0.002877 0.024957
# 3 -0.002735 0.002932 0.037297 0.019674 0.014749 0.013143
# 4 -0.007806 0.021974 0.019674 0.073793 0.010339 0.042466
# 5 0.002580 0.002877 0.014749 0.010339 0.039177 0.005748
# 6 -0.008446 0.024957 0.013143 0.042466 0.005748 0.076173
#
#
# Mechanical properties :
#
#
# Convention : Reuss Voigt Hill
#
# Bulk Modulus (GPa) = 18.83059 56.09472 37.46266
# Shear Modulus (GPa) = 17.49056 31.91769 24.70413
#
# Velocity S-wave (km/s) = 2.89140 3.90591 3.43630
# Velocity P-wave (km/s) = 4.48862 6.86687 5.80093
#
# Compressibility (1/GPa) = 0.05310508
#
# Stress axis : x y z
#
# Youngs Moduli (GPa) = 103.77552 52.26999 26.81199
#
# Poissons Ratio (x) = 0.34898 0.07334
# Poissons Ratio (y) = 0.69285 -0.07862
# Poissons Ratio (z) = 0.28387 -0.15327
#
# Static dielectric constant tensor:
#      x y z
#    x 1.770840 0.041780 -0.003770 
#    y 0.041780 1.771960 -0.018490 
#    z -0.003770 -0.018490 1.837250 
# 
# From -- ./inp_files/331816.got.cif
#   From: 2010.05.17/outbox.cif.g08.bks.cpg/sg2_166_cif.got.tgz:331816.got - 2010.06.03 11:33:40.
