data_PCOD9085092
_publ_section_title
;
Structure prediction by ZEFSAII (Michael W. Deem and Ramdas Pophale) SiO2 
 PCOD9085092
Probable space group: P -1
;
_chemical_formula_sum "Si O2"
_cell_formula_units_Z 12
_cell_length_a 12.170869
_cell_length_b 20.017018
_cell_length_c 10.009979
_cell_angle_alpha 32.067315
_cell_angle_beta 146.288726
_cell_angle_gamma 159.157838
_cell_volume 450.279282
_symmetry_space_group_name_H-M "P -1"
_symmetry_group_IT_number 2
_symmetry_cell_setting 'triclinic'
loop_
_space_group_symop_operation_xyz
x,y,z
-x,-y,-z
loop_
_atom_site_type_symbol
_atom_site_label
_atom_site_fract_x
_atom_site_fract_y
_atom_site_fract_z
Si Si1 0.312787 0.114505 0.889974
Si Si2 0.054289 0.811704 0.675232
Si Si3 0.497718 0.840527 0.277650
Si Si4 0.678809 0.712603 0.859048
Si Si5 0.337156 0.775181 0.502259
Si Si6 0.798466 0.413525 0.077486
O O1 0.156919 0.172620 0.601411
O O2 0.540813 0.195201 0.857543
O O3 0.461768 0.200618 0.039494
O O4 0.031610 0.873459 0.999139
O O5 0.841473 0.583767 0.856359
O O6 0.238224 0.925368 0.809428
O O7 0.364198 0.980842 0.603024
O O8 0.667425 0.795388 0.576046
O O9 0.238150 0.725853 0.328943
O O10 0.501324 0.716546 0.776643
O O11 0.500000 0.500000 0.000000
O O12 0.103822 0.638650 0.619861
O O13 0.000000 0.500000 0.000000
#
# Coordination Sequence:
#
# PCOD9085092 Si02
#       6
#     2   2   2   2   2   2
#     4  10  19  35  58  90 108 137 189 228 276 337
#     4   8  19  38  62  75 114 144 179 237 284 312
#     4   7  17  33  57  83 105 138 180 235 276 326
#     4   8  16  29  59  86 109 131 179 241 280 313
#     4   7  20  34  54  80 110 142 187 222 276 328
#     4  12  24  37  54  80 118 156 183 220 274 327
#
# _framework density 26.650126
#
# number of rings (size 3 to 8) (size 9 to 14) (size 15 to 20)
#    2.000    1.333    0.000    2.500    4.667    3.333 
#    3.000    1.667    0.000    0.000    0.000    0.000 
#    0.000    0.000    0.000    0.000    0.000    0.000 
#
# Total GULP energy -66869.106821 kJ/mol
# GULP energy per Si atom -5572.425568 kJ/mol
# Density = 2.658947 g / cm^3
# Si number density = 26.650126 Si / 1000 Ang^3
#
#
#
# Elastic Constant Matrix: (Units=GPa)
#
#
# Indices 1 2 3 4 5 6 
#
# 1 36.9438 17.0933 39.6939 -3.7343 -13.8267 -13.8875
# 2 17.0933 137.2301 54.0148 -28.9761 3.6843 -34.2607
# 3 39.6939 54.0148 164.2935 -38.3642 -31.1152 -28.3873
# 4 -3.7343 -28.9761 -38.3642 49.9310 -3.7449 3.2057
# 5 -13.8267 3.6843 -31.1152 -3.7449 40.2132 -1.1616
# 6 -13.8875 -34.2607 -28.3873 3.2057 -1.1616 41.3883
#
#
#
# Elastic Compliance Matrix: (Units=1/GPa)
#
#
# Indices 1 2 3 4 5 6 
#
# 1 0.041532 -0.001038 -0.007246 -0.002959 0.008741 0.008581
# 2 -0.001038 0.010747 -0.001276 0.004585 -0.001692 0.007270
# 3 -0.007246 -0.001276 0.012755 0.008843 0.008458 0.004813
# 4 -0.002959 0.004585 0.008843 0.029450 0.008345 0.006821
# 5 0.008741 -0.001692 0.008458 0.008345 0.035571 0.007685
# 6 0.008581 0.007270 0.004813 0.006821 0.007685 0.036048
#
#
# Mechanical properties :
#
#
# Convention : Reuss Voigt Hill
#
# Bulk Modulus (GPa) = 21.77987 62.23015 42.00501
# Shear Modulus (GPa) = 24.93423 41.48420 33.20921
#
# Velocity S-wave (km/s) = 3.06210 3.94969 3.53387
# Velocity P-wave (km/s) = 4.54887 6.64842 5.69621
#
# Compressibility (1/GPa) = 0.04591395
#
# Stress axis : x y z
#
# Youngs Moduli (GPa) = 24.07798 93.04676 78.39935
#
# Poissons Ratio (x) = 0.09661 0.56805
# Poissons Ratio (y) = 0.02500 0.10005
# Poissons Ratio (z) = 0.17446 0.11874
#
# Static dielectric constant tensor:
#      x y z
#    x 2.349340 0.035050 -0.076900 
#    y 0.035050 2.122400 0.030610 
#    z -0.076900 0.030610 2.316050 
# 
# From -- ./inp_files/457087.got.cif
#   From: 2010.05.17/outbox.cif.g08.bks.cpg/sg2_229_cif.got.tgz:457087.got - 2010.06.03 11:33:40.
