data_PCOD9085338
_publ_section_title
;
Structure prediction by ZEFSAII (Michael W. Deem and Ramdas Pophale) SiO2 
 PCOD9085338
Probable space group: P -1
;
_chemical_formula_sum "Si O2"
_cell_formula_units_Z 16
_cell_length_a 12.374955
_cell_length_b 7.375035
_cell_length_c 9.941880
_cell_angle_alpha 61.622384
_cell_angle_beta 63.352584
_cell_angle_gamma 80.213009
_cell_volume 712.449013
_symmetry_space_group_name_H-M "P -1"
_symmetry_group_IT_number 2
_symmetry_cell_setting 'triclinic'
loop_
_space_group_symop_operation_xyz
x,y,z
-x,-y,-z
loop_
_atom_site_type_symbol
_atom_site_label
_atom_site_fract_x
_atom_site_fract_y
_atom_site_fract_z
Si Si1 0.483784 0.309123 0.391221
Si Si2 0.863428 0.357598 0.479515
Si Si3 0.015063 0.963051 0.343988
Si Si4 0.775980 0.775354 0.476656
Si Si5 0.518292 0.204812 0.099896
Si Si6 0.935527 0.607956 0.876973
Si Si7 0.592447 0.239655 0.640677
Si Si8 0.705118 0.532189 0.871880
O O1 0.355366 0.176924 0.518841
O O2 0.529619 0.257475 0.235575
O O3 0.564682 0.261301 0.489819
O O4 0.449610 0.548858 0.342385
O O5 0.822409 0.587474 0.432843
O O6 0.737124 0.223417 0.577537
O O7 0.925336 0.257679 0.610761
O O8 0.962710 0.372930 0.302204
O O9 0.881779 0.949302 0.360970
O O10 0.000000 0.000000 0.500000
O O11 0.090843 0.151613 0.168610
O O12 0.759472 0.672950 0.670130
O O13 0.405533 0.332239 0.065865
O O14 0.482247 0.963501 0.191430
O O15 0.641403 0.314866 0.934512
O O16 0.810985 0.502348 0.929104
O O17 0.000000 0.500000 0.000000
#
# Coordination Sequence:
#
# PCOD9085338 Si02
#       8
#     2   2   2   2   2   2   2   2
#     4   9  21  35  57  87 117 149 196 249 275 357
#     4  10  21  36  65  85 113 155 193 244 280 349
#     4  10  19  35  60  84 109 152 196 232 277 354
#     4  10  19  38  62  84 113 148 204 238 282 340
#     4  10  21  37  61  81 117 158 189 244 293 338
#     4  11  24  37  56  87 121 148 187 243 295 345
#     4  10  20  37  58  89 115 152 200 229 302 345
#     4  10  21  38  56  86 117 146 200 240 286 348
#
# _framework density 22.457747000000001
#
# number of rings (size 3 to 8) (size 9 to 14) (size 15 to 20)
#    0.000    2.000    2.500    1.500    7.000    1.000 
#    0.000   11.875    0.000    0.000    0.000    0.000 
#    0.000    0.000    0.000    0.000    0.000    0.000 
#
# Total GULP energy -89312.543752 kJ/mol
# GULP energy per Si atom -5582.033985 kJ/mol
# Density = 2.240663 g / cm^3
# Si number density = 22.457747 Si / 1000 Ang^3
#
#
#
# Elastic Constant Matrix: (Units=GPa)
#
#
# Indices 1 2 3 4 5 6 
#
# 1 127.7550 -4.4919 39.0475 -7.4030 -8.9164 15.6686
# 2 -4.4919 48.2457 12.0552 -16.2812 -7.1730 2.9050
# 3 39.0475 12.0552 61.0978 -19.0874 -9.3505 -1.2337
# 4 -7.4030 -16.2812 -19.0874 32.3875 10.0553 -5.5698
# 5 -8.9164 -7.1730 -9.3505 10.0553 36.6065 -9.8263
# 6 15.6686 2.9050 -1.2337 -5.5698 -9.8263 24.8808
#
#
#
# Elastic Compliance Matrix: (Units=1/GPa)
#
#
# Indices 1 2 3 4 5 6 
#
# 1 0.011604 0.002927 -0.009067 -0.002565 -0.000604 -0.008911
# 2 0.002927 0.025849 -0.003405 0.010879 0.001369 -0.002054
# 3 -0.009067 -0.003405 0.027882 0.013549 0.003747 0.012003
# 4 -0.002565 0.010879 0.013549 0.047047 -0.005431 0.009404
# 5 -0.000604 0.001369 0.003747 -0.005431 0.033189 0.012298
# 6 -0.008911 -0.002054 0.012003 0.009404 0.012298 0.053600
#
#
# Mechanical properties :
#
#
# Convention : Reuss Voigt Hill
#
# Bulk Modulus (GPa) = 21.62336 36.70223 29.16279
# Shear Modulus (GPa) = 21.39717 31.47414 26.43565
#
# Velocity S-wave (km/s) = 3.09005 3.74770 3.43465
# Velocity P-wave (km/s) = 4.73081 5.92497 5.36124
#
# Compressibility (1/GPa) = 0.04624628
#
# Stress axis : x y z
#
# Youngs Moduli (GPa) = 86.17756 38.68646 35.86483
#
# Poissons Ratio (x) = -0.11325 0.32520
# Poissons Ratio (y) = -0.25227 0.12210
# Poissons Ratio (z) = 0.78140 0.13171
#
# Static dielectric constant tensor:
#      x y z
#    x 1.850970 -0.014950 -0.018630 
#    y -0.014950 1.977470 -0.006050 
#    z -0.018630 -0.006050 1.840800 
# 
# From -- ./inp_files/189252.got.cif
#   From: 2010.05.17/outbox.cif.g08.bks.cpg/sg2_95_cif.got.tgz:189252.got - 2010.06.03 11:33:40.
