data_PCOD9085303
_publ_section_title
;
Structure prediction by ZEFSAII (Michael W. Deem and Ramdas Pophale) SiO2 
 PCOD9085303
Probable space group: P -1
;
_chemical_formula_sum "Si O2"
_cell_formula_units_Z 16
_cell_length_a 11.988780
_cell_length_b 9.515505
_cell_length_c 23.193410
_cell_angle_alpha 140.989080
_cell_angle_beta 28.028787
_cell_angle_gamma 138.407954
_cell_volume 765.259568
_symmetry_space_group_name_H-M "P -1"
_symmetry_group_IT_number 2
_symmetry_cell_setting 'triclinic'
loop_
_space_group_symop_operation_xyz
x,y,z
-x,-y,-z
loop_
_atom_site_type_symbol
_atom_site_label
_atom_site_fract_x
_atom_site_fract_y
_atom_site_fract_z
Si Si1 0.084082 0.261537 0.387655
Si Si2 0.498335 0.501304 0.205144
Si Si3 0.686585 0.797996 0.113749
Si Si4 0.210601 0.490316 0.122356
Si Si5 0.098215 0.878984 0.778385
Si Si6 0.695647 0.097860 0.991041
Si Si7 0.601637 0.012106 0.791713
Si Si8 0.454865 0.945794 0.436674
O O1 0.263560 0.304719 0.264547
O O2 0.000000 0.500000 0.500000
O O3 0.833037 0.078858 0.447434
O O4 0.259442 0.196480 0.336342
O O5 0.497093 0.615788 0.179996
O O6 0.719422 0.370477 0.064285
O O7 0.509913 0.703329 0.311052
O O8 0.543017 0.942187 0.184389
O O9 0.842967 0.957450 0.140447
O O10 0.842010 0.658057 0.959205
O O11 0.202870 0.754775 0.209119
O O12 0.057039 0.356807 0.201746
O O13 0.500000 0.500000 0.000000
O O14 0.354286 0.873052 0.629868
O O15 0.938623 0.000598 0.847217
O O16 0.583245 0.021299 0.080820
O O17 0.500000 0.000000 0.000000
O O18 0.500000 0.000000 0.500000
#
# Coordination Sequence:
#
# PCOD9085303 Si02
#       8
#     2   2   2   2   2   2   2   2
#     4   9  20  43  62  85 119 164 219 250 294 372
#     4   9  21  39  64  93 124 162 216 255 316 374
#     4  10  20  37  61  97 132 158 197 262 327 377
#     4  10  19  35  59  93 125 163 197 249 321 388
#     4  11  23  39  61  94 133 160 208 264 320 370
#     4  11  22  36  63  99 126 165 208 258 323 383
#     4  10  21  37  64  93 122 165 213 246 315 382
#     4  10  23  40  59  86 125 172 207 261 312 352
#
# _framework density 20.907938000000001
#
# number of rings (size 3 to 8) (size 9 to 14) (size 15 to 20)
#    0.000    2.000    2.500    1.125    5.250    2.000 
#    2.250    7.500    0.000    3.000    0.000    0.000 
#    0.000    0.000    0.000    0.000    0.000    0.000 
#
# Total GULP energy -89127.978065 kJ/mol
# GULP energy per Si atom -5570.498629 kJ/mol
# Density = 2.086035 g / cm^3
# Si number density = 20.907938 Si / 1000 Ang^3
#
#
#
# Elastic Constant Matrix: (Units=GPa)
#
#
# Indices 1 2 3 4 5 6 
#
# 1 110.2955 28.0156 23.8354 1.0897 1.4571 -13.2366
# 2 28.0156 78.7075 36.4337 -18.9217 -5.4735 -19.3596
# 3 23.8354 36.4337 63.3273 -13.7911 -0.7000 -4.9358
# 4 1.0897 -18.9217 -13.7911 50.4434 1.2033 -3.6348
# 5 1.4571 -5.4735 -0.7000 1.2033 34.5055 3.1393
# 6 -13.2366 -19.3596 -4.9358 -3.6348 3.1393 31.6006
#
#
#
# Elastic Compliance Matrix: (Units=1/GPa)
#
#
# Indices 1 2 3 4 5 6 
#
# 1 0.010598 -0.002324 -0.002834 -0.001671 -0.001041 0.002484
# 2 -0.002324 0.022805 -0.009818 0.006734 0.002188 0.012022
# 3 -0.002834 -0.009818 0.022759 0.002381 -0.000759 -0.003298
# 4 -0.001671 0.006734 0.002381 0.023513 -0.000226 0.006525
# 5 -0.001041 0.002188 -0.000759 -0.000226 0.029563 -0.002177
# 6 0.002484 0.012022 -0.003298 0.006525 -0.002177 0.040502
#
#
# Mechanical properties :
#
#
# Convention : Reuss Voigt Hill
#
# Bulk Modulus (GPa) = 38.15180 47.65551 42.90366
# Shear Modulus (GPa) = 26.53537 34.24626 30.39081
#
# Velocity S-wave (km/s) = 3.56638 4.05156 3.81669
# Velocity P-wave (km/s) = 5.93683 6.68800 6.32358
#
# Compressibility (1/GPa) = 0.02621108
#
# Stress axis : x y z
#
# Youngs Moduli (GPa) = 94.36147 43.84954 43.93808
#
# Poissons Ratio (x) = 0.10189 0.12451
# Poissons Ratio (y) = 0.21926 0.43139
# Poissons Ratio (z) = 0.26740 0.43052
#
# Static dielectric constant tensor:
#      x y z
#    x 1.764800 0.043250 -0.008720 
#    y 0.043250 1.866260 0.018520 
#    z -0.008720 0.018520 1.828390 
# 
# From -- ./inp_files/594176.got.cif
#   From: 2010.05.17/outbox.cif.g08.bks.cpg/sg2_298_cif.got.tgz:594176.got - 2010.06.03 11:33:40.
