data_PCOD9085661
_publ_section_title
;
Structure prediction by ZEFSAII (Michael W. Deem and Ramdas Pophale) SiO2 
 PCOD9085661
Probable space group: P -1
;
_chemical_formula_sum "Si O2"
_cell_formula_units_Z 14
_cell_length_a 15.408416
_cell_length_b 8.280804
_cell_length_c 14.683975
_cell_angle_alpha 121.767324
_cell_angle_beta 148.713677
_cell_angle_gamma 80.904038
_cell_volume 620.767743
_symmetry_space_group_name_H-M "P -1"
_symmetry_group_IT_number 2
_symmetry_cell_setting 'triclinic'
loop_
_space_group_symop_operation_xyz
x,y,z
-x,-y,-z
loop_
_atom_site_type_symbol
_atom_site_label
_atom_site_fract_x
_atom_site_fract_y
_atom_site_fract_z
Si Si1 0.511781 0.586416 0.933376
Si Si2 0.071600 0.306729 0.737557
Si Si3 0.134665 0.575860 0.549307
Si Si4 0.631165 0.686544 0.589368
Si Si5 0.180818 0.014458 0.406445
Si Si6 0.993684 0.155739 0.153572
Si Si7 0.552945 0.186604 0.681416
O O1 0.385038 0.690927 0.832794
O O2 0.346750 0.315512 0.656353
O O3 0.500000 0.500000 0.000000
O O4 0.757501 0.722778 0.157154
O O5 0.906822 0.266820 0.501204
O O6 0.223556 0.594994 0.998622
O O7 0.934705 0.123872 0.645103
O O8 0.000000 0.500000 0.500000
O O9 0.023267 0.329352 0.311893
O O10 0.500000 0.500000 0.500000
O O11 0.481427 0.645321 0.359376
O O12 0.810937 0.686078 0.699731
O O13 0.767816 0.966731 0.838510
O O14 0.353712 0.992779 0.516485
O O15 0.016224 0.965033 0.166061
O O16 0.500000 0.000000 0.500000
#
# Coordination Sequence:
#
# PCOD9085661 Si02
#       7
#     2   2   2   2   2   2   2
#     4  10  21  42  62  83 120 156 201 252 300 354
#     4  11  22  40  64  87 123 161 204 253 300 363
#     4  11  22  40  64  90 123 166 202 249 311 364
#     4  10  19  35  62  86 114 158 202 245 301 358
#     4   9  21  38  59  87 122 161 202 248 307 359
#     4   9  20  37  57  87 123 154 198 252 299 358
#     4  10  21  36  57  89 125 159 196 251 306 358
#
# _framework density 22.552717999999999
#
# number of rings (size 3 to 8) (size 9 to 14) (size 15 to 20)
#    0.000    2.000    1.429    2.571    0.000    2.286 
#    0.000    6.429    0.000    0.000    0.000    0.000 
#    0.000    0.000    0.000    0.000    0.000    0.000 
#
# Total GULP energy -78031.765859 kJ/mol
# GULP energy per Si atom -5573.697561 kJ/mol
# Density = 2.250139 g / cm^3
# Si number density = 22.552718 Si / 1000 Ang^3
#
#
#
# Elastic Constant Matrix: (Units=GPa)
#
#
# Indices 1 2 3 4 5 6 
#
# 1 190.8016 55.3902 38.4999 0.3210 22.8796 28.5417
# 2 55.3902 73.7489 46.4924 -22.8748 17.8960 22.6981
# 3 38.4999 46.4924 89.6383 -32.0405 4.4407 10.6846
# 4 0.3210 -22.8748 -32.0405 38.6798 5.2525 -11.9342
# 5 22.8796 17.8960 4.4407 5.2525 45.1786 8.5652
# 6 28.5417 22.6981 10.6846 -11.9342 8.5652 51.1500
#
#
#
# Elastic Compliance Matrix: (Units=1/GPa)
#
#
# Indices 1 2 3 4 5 6 
#
# 1 0.007695 -0.005131 -0.002396 -0.005898 -0.000408 -0.002825
# 2 -0.005131 0.029356 -0.008419 0.010164 -0.008511 -0.004609
# 3 -0.002396 -0.008419 0.020920 0.013524 0.000194 0.003826
# 4 -0.005898 0.010164 0.013524 0.047024 -0.009449 0.008510
# 5 -0.000408 -0.008511 0.000194 -0.009449 0.027326 -0.002816
# 6 -0.002825 -0.004609 0.003826 0.008510 -0.002816 0.024830
#
#
# Mechanical properties :
#
#
# Convention : Reuss Voigt Hill
#
# Bulk Modulus (GPa) = 38.34089 70.55044 54.44567
# Shear Modulus (GPa) = 25.28638 41.25543 33.27090
#
# Velocity S-wave (km/s) = 3.35208 4.28166 3.84507
# Velocity P-wave (km/s) = 5.65857 7.46953 6.62621
#
# Compressibility (1/GPa) = 0.02608181
#
# Stress axis : x y z
#
# Youngs Moduli (GPa) = 129.95057 34.06405 47.80155
#
# Poissons Ratio (x) = 0.17477 0.11451
# Poissons Ratio (y) = 0.66673 0.40243
# Poissons Ratio (z) = 0.31130 0.28678
#
# Static dielectric constant tensor:
#      x y z
#    x 1.944000 -0.165940 -0.002800 
#    y -0.165940 2.002860 -0.075200 
#    z -0.002800 -0.075200 1.901800 
# 
# From -- ./inp_files/39525.got.cif
#   From: 2010.05.17/outbox.cif.g08.bks.cpg/sg2_20_cif.got.tgz:39525.got - 2010.06.03 11:33:40.
