data_PCOD9085173
_publ_section_title
;
Structure prediction by ZEFSAII (Michael W. Deem and Ramdas Pophale) SiO2 
 PCOD9085173
Probable space group: P -1
;
_chemical_formula_sum "Si O2"
_cell_formula_units_Z 16
_cell_length_a 20.327202
_cell_length_b 16.255187
_cell_length_c 9.138064
_cell_angle_alpha 45.961709
_cell_angle_beta 143.377015
_cell_angle_gamma 160.032281
_cell_volume 588.563714
_symmetry_space_group_name_H-M "P -1"
_symmetry_group_IT_number 2
_symmetry_cell_setting 'triclinic'
loop_
_space_group_symop_operation_xyz
x,y,z
-x,-y,-z
loop_
_atom_site_type_symbol
_atom_site_label
_atom_site_fract_x
_atom_site_fract_y
_atom_site_fract_z
Si Si1 0.314679 0.925791 0.435720
Si Si2 0.534255 0.747553 0.890885
Si Si3 0.121066 0.577033 0.875442
Si Si4 0.704149 0.905534 0.589078
Si Si5 0.151360 0.252890 0.138673
Si Si6 0.164872 0.525645 0.327726
Si Si7 0.541719 0.245469 0.930127
Si Si8 0.609962 0.585041 0.361438
O O1 0.279557 0.009039 0.174103
O O2 0.290607 0.959602 0.509458
O O3 0.601457 0.169322 0.620845
O O4 0.117667 0.655433 0.365344
O O5 0.276063 0.524483 0.622463
O O6 0.519693 0.802234 0.950920
O O7 0.614176 0.691530 0.123168
O O8 0.068001 0.641488 0.796323
O O9 0.121490 0.485861 0.125164
O O10 0.349497 0.765109 0.943964
O O11 0.668328 0.887790 0.374590
O O12 0.469468 0.615008 0.582297
O O13 0.926430 0.045767 0.884895
O O14 0.230522 0.457758 0.044802
O O15 0.374873 0.403652 0.262890
O O16 0.165721 0.212278 0.376279
#
# Coordination Sequence:
#
# PCOD9085173 Si02
#       8
#     2   2   2   2   2   2   2   2
#     4  10  21  38  55  84 113 142 186 231 275 330
#     4   9  21  40  50  85 125 138 174 246 280 310
#     4  11  19  39  66  78 103 155 192 221 272 346
#     4  11  19  34  61  82 109 154 193 215 268 339
#     4   9  18  34  54  84 109 150 190 225 263 330
#     4   9  22  39  60  81 112 144 186 231 285 324
#     4  10  19  35  59  84 114 143 189 231 267 330
#     4   9  19  34  54  80 118 146 185 225 274 324
#
# _framework density 27.184825
#
# number of rings (size 3 to 8) (size 9 to 14) (size 15 to 20)
#    0.750    1.500    2.500    1.500    0.000    1.000 
#    6.750    0.625    0.000    2.250    0.000    0.000 
#    0.000    0.000    0.000    0.000    0.000    0.000 
#
# Total GULP energy -89342.392200 kJ/mol
# GULP energy per Si atom -5583.899513 kJ/mol
# Density = 2.712295 g / cm^3
# Si number density = 27.184825 Si / 1000 Ang^3
#
#
#
# Elastic Constant Matrix: (Units=GPa)
#
#
# Indices 1 2 3 4 5 6 
#
# 1 110.7521 6.8323 27.5040 9.7258 -4.4015 2.8156
# 2 6.8323 50.4855 39.0791 7.0287 -3.8365 -7.6009
# 3 27.5040 39.0791 175.6766 18.5188 -14.1623 0.0945
# 4 9.7258 7.0287 18.5188 43.0425 -2.9155 4.0197
# 5 -4.4015 -3.8365 -14.1623 -2.9155 48.7870 -0.8245
# 6 2.8156 -7.6009 0.0945 4.0197 -0.8245 36.0005
#
#
#
# Elastic Compliance Matrix: (Units=1/GPa)
#
#
# Indices 1 2 3 4 5 6 
#
# 1 0.009515 -0.000161 -0.001265 -0.001498 0.000379 -0.000599
# 2 -0.000161 0.025116 -0.005293 -0.002284 0.000382 0.005593
# 3 -0.001265 -0.005293 0.007383 -0.001851 0.001489 -0.000797
# 4 -0.001498 -0.002284 -0.001851 0.025075 0.000593 -0.003146
# 5 0.000379 0.000382 0.001489 0.000593 0.021037 0.000463
# 6 -0.000599 0.005593 -0.000797 -0.003146 0.000463 0.029369
#
#
# Mechanical properties :
#
#
# Convention : Reuss Voigt Hill
#
# Bulk Modulus (GPa) = 34.99536 53.74943 44.37239
# Shear Modulus (GPa) = 35.59747 43.13257 39.36502
#
# Velocity S-wave (km/s) = 3.62257 3.98759 3.80946
# Velocity P-wave (km/s) = 5.51348 6.40437 5.97555
#
# Compressibility (1/GPa) = 0.02857522
#
# Stress axis : x y z
#
# Youngs Moduli (GPa) = 105.09609 39.81547 135.43913
#
# Poissons Ratio (x) = 0.00642 0.17134
# Poissons Ratio (y) = 0.01696 0.71691
# Poissons Ratio (z) = 0.13295 0.21075
#
# Static dielectric constant tensor:
#      x y z
#    x 2.218110 -0.061940 0.075240 
#    y -0.061940 2.167740 -0.064830 
#    z 0.075240 -0.064830 2.151070 
# 
# From -- ./inp_files/348052.got.cif
#   From: 2010.05.17/outbox.cif.g08.bks.cpg/sg2_175_cif.got.tgz:348052.got - 2010.06.03 11:33:40.
