data_PCOD9085229
_publ_section_title
;
Structure prediction by ZEFSAII (Michael W. Deem and Ramdas Pophale) SiO2 
 PCOD9085229
Probable space group: P -1
;
_chemical_formula_sum "Si O2"
_cell_formula_units_Z 11
_cell_length_a 10.315096
_cell_length_b 11.929135
_cell_length_c 8.263012
_cell_angle_alpha 42.172257
_cell_angle_beta 112.532969
_cell_angle_gamma 140.165146
_cell_volume 394.308296
_symmetry_space_group_name_H-M "P -1"
_symmetry_group_IT_number 2
_symmetry_cell_setting 'triclinic'
loop_
_space_group_symop_operation_xyz
x,y,z
-x,-y,-z
loop_
_atom_site_type_symbol
_atom_site_label
_atom_site_fract_x
_atom_site_fract_y
_atom_site_fract_z
Si Si1 0.574597 0.711109 0.937168
Si Si2 0.825423 0.242667 0.997582
Si Si3 0.303865 0.721574 0.401904
Si Si4 0.743964 0.687485 0.335383
Si Si5 0.500000 0.000000 0.500000
Si Si6 0.094993 0.323498 0.286295
O O1 0.629246 0.936624 0.638233
O O2 0.500000 0.500000 0.000000
O O3 0.749509 0.816137 0.047333
O O4 0.346478 0.543816 0.102926
O O5 0.934883 0.188794 0.198866
O O6 0.567569 0.005618 0.189963
O O7 0.821879 0.253725 0.789742
O O8 0.915579 0.503443 0.824220
O O9 0.262606 0.501972 0.545658
O O10 0.299621 0.729952 0.582205
O O11 0.500000 0.500000 0.500000
O O12 0.915048 0.826485 0.419525
#
# Coordination Sequence:
#
# PCOD9085229 Si02
#       6
#     2   2   2   2   1   2
#     4  11  21  37  59  84 119 156 193 229 291 351
#     4   9  18  34  60  89 113 145 203 235 288 337
#     4  10  19  35  59  87 114 157 186 239 287 347
#     4   9  19  35  58  84 111 149 195 236 287 333
#     4  12  22  36  58  86 116 160 192 228 288 360
#     4   9  18  36  59  88 114 148 192 250 281 333
#
# _framework density 27.896955999999999
#
# number of rings (size 3 to 8) (size 9 to 14) (size 15 to 20)
#    0.000    2.182    3.636    0.000    2.545    0.000 
#    0.000    6.364    0.000    2.182    0.000    0.000 
#    0.000    0.000    0.000    0.000    0.000    0.000 
#
# Total GULP energy -61328.503503 kJ/mol
# GULP energy per Si atom -5575.318500 kJ/mol
# Density = 2.783346 g / cm^3
# Si number density = 27.896956 Si / 1000 Ang^3
#
#
#
# Elastic Constant Matrix: (Units=GPa)
#
#
# Indices 1 2 3 4 5 6 
#
# 1 99.7136 37.1495 46.1612 7.6779 16.1967 -15.1525
# 2 37.1495 121.2248 87.6724 40.5089 52.4251 -4.0874
# 3 46.1612 87.6724 178.9281 58.3784 36.8362 -6.3547
# 4 7.6779 40.5089 58.3784 80.8960 16.6687 26.8167
# 5 16.1967 52.4251 36.8362 16.6687 58.9199 -5.3270
# 6 -15.1525 -4.0874 -6.3547 26.8167 -5.3270 58.8246
#
#
#
# Elastic Compliance Matrix: (Units=1/GPa)
#
#
# Indices 1 2 3 4 5 6 
#
# 1 0.012214 -0.002423 -0.002168 0.000795 0.000145 0.002394
# 2 -0.002423 0.019050 -0.005120 -0.003307 -0.012097 0.000559
# 3 -0.002168 -0.005120 0.010619 -0.005989 0.000479 0.003006
# 4 0.000795 -0.003307 -0.005989 0.021979 -0.000722 -0.010757
# 5 0.000145 -0.012097 0.000479 -0.000722 0.027790 0.002094
# 6 0.002394 0.000559 0.003006 -0.010757 0.002094 0.023074
#
#
# Mechanical properties :
#
#
# Convention : Reuss Voigt Hill
#
# Bulk Modulus (GPa) = 44.52037 82.42585 63.47311
# Shear Modulus (GPa) = 35.30225 54.98700 45.14462
#
# Velocity S-wave (km/s) = 3.56118 4.44450 4.02713
# Velocity P-wave (km/s) = 5.73610 7.47989 6.66527
#
# Compressibility (1/GPa) = 0.02246163
#
# Stress axis : x y z
#
# Youngs Moduli (GPa) = 81.87246 52.49410 94.16984
#
# Poissons Ratio (x) = 0.12717 0.20419
# Poissons Ratio (y) = 0.19834 0.48214
# Poissons Ratio (z) = 0.17752 0.26876
#
# Static dielectric constant tensor:
#      x y z
#    x 2.245760 0.035220 -0.183030 
#    y 0.035220 2.171940 0.127290 
#    z -0.183030 0.127290 2.346580 
# 
# From -- ./inp_files/144859.got.cif
#   From: 2010.05.17/outbox.cif.g08.bks.cpg/sg2_73_cif.got.tgz:144859.got - 2010.06.03 11:33:40.
