data_PCOD9085154
_publ_section_title
;
Structure prediction by ZEFSAII (Michael W. Deem and Ramdas Pophale) SiO2 
 PCOD9085154
Probable space group: P -1
;
_chemical_formula_sum "Si O2"
_cell_formula_units_Z 16
_cell_length_a 8.869629
_cell_length_b 11.949491
_cell_length_c 9.709364
_cell_angle_alpha 95.963318
_cell_angle_beta 82.300402
_cell_angle_gamma 39.436411
_cell_volume 611.637264
_symmetry_space_group_name_H-M "P -1"
_symmetry_group_IT_number 2
_symmetry_cell_setting 'triclinic'
loop_
_space_group_symop_operation_xyz
x,y,z
-x,-y,-z
loop_
_atom_site_type_symbol
_atom_site_label
_atom_site_fract_x
_atom_site_fract_y
_atom_site_fract_z
Si Si1 0.743209 0.446006 0.170774
Si Si2 0.532932 0.596173 0.675163
Si Si3 0.600491 0.172405 0.045264
Si Si4 0.925697 0.188981 0.892403
Si Si5 0.703079 0.756658 0.424242
Si Si6 0.010096 0.642540 0.610758
Si Si7 0.264314 0.307254 0.874986
Si Si8 0.174365 0.956064 0.584070
O O1 0.546906 0.473132 0.257029
O O2 0.974161 0.308420 0.235467
O O3 0.641420 0.631386 0.198436
O O4 0.808536 0.367278 0.999553
O O5 0.758754 0.449697 0.522733
O O6 0.293202 0.789810 0.647852
O O7 0.578832 0.660093 0.799187
O O8 0.453389 0.178374 0.960699
O O9 0.747275 0.187969 0.952258
O O10 0.814524 0.982131 0.078540
O O11 0.997539 0.141185 0.719725
O O12 0.904838 0.535381 0.387826
O O13 0.742979 0.772413 0.263486
O O14 0.420512 0.877420 0.493072
O O15 0.772769 0.787380 0.556236
O O16 0.000000 0.500000 0.000000
O O17 0.000000 0.000000 0.500000
#
# Coordination Sequence:
#
# PCOD9085154 Si02
#       8
#     2   2   2   2   2   2   2   2
#     4  10  21  35  56  87 114 144 188 236 285 330
#     4   9  18  33  57  85 110 145 185 228 281 330
#     4   9  18  35  57  79 111 148 184 224 273 338
#     4   9  19  35  57  84 110 144 185 228 279 330
#     4   9  19  33  54  79 105 147 190 223 271 331
#     4   9  17  34  54  78 111 141 181 231 277 329
#     4  11  22  37  57  82 112 148 189 235 284 332
#     4  10  19  35  59  83 112 150 189 225 268 333
#
# _framework density 26.159295
#
# number of rings (size 3 to 8) (size 9 to 14) (size 15 to 20)
#    0.000    2.500    0.000    2.625    0.000    5.000 
#    0.000    5.000    0.000    2.250    0.000    0.000 
#    0.000    0.000    0.000    0.000    0.000    0.000 
#
# Total GULP energy -89555.837527 kJ/mol
# GULP energy per Si atom -5597.239845 kJ/mol
# Density = 2.609975 g / cm^3
# Si number density = 26.159295 Si / 1000 Ang^3
#
#
#
# Elastic Constant Matrix: (Units=GPa)
#
#
# Indices 1 2 3 4 5 6 
#
# 1 62.5529 40.3027 34.4702 -7.4258 10.7429 -16.6314
# 2 40.3027 82.6880 43.0836 -12.9366 13.5810 -27.8483
# 3 34.4702 43.0836 165.9860 -4.5772 33.4523 -33.8844
# 4 -7.4258 -12.9366 -4.5772 38.6343 -14.9550 12.1015
# 5 10.7429 13.5810 33.4523 -14.9550 45.5812 -16.5537
# 6 -16.6314 -27.8483 -33.8844 12.1015 -16.5537 49.5528
#
#
#
# Elastic Compliance Matrix: (Units=1/GPa)
#
#
# Indices 1 2 3 4 5 6 
#
# 1 0.024073 -0.010286 -0.002058 0.000485 -0.000749 0.000523
# 2 -0.010286 0.020622 -0.002063 0.003134 0.001123 0.006336
# 3 -0.002058 -0.002063 0.008541 -0.002977 -0.005044 0.003032
# 4 0.000485 0.003134 -0.002977 0.031966 0.009957 -0.004592
# 5 -0.000749 0.001123 -0.005044 0.009957 0.030445 0.004670
# 6 0.000523 0.006336 0.003032 -0.004592 0.004670 0.028672
#
#
# Mechanical properties :
#
#
# Convention : Reuss Voigt Hill
#
# Bulk Modulus (GPa) = 40.94778 60.77112 50.85945
# Shear Modulus (GPa) = 27.58254 39.64501 33.61378
#
# Velocity S-wave (km/s) = 3.25069 3.89720 3.58853
# Velocity P-wave (km/s) = 5.45679 6.59791 6.05429
#
# Compressibility (1/GPa) = 0.02442135
#
# Stress axis : x y z
#
# Youngs Moduli (GPa) = 41.53993 48.49248 117.08272
#
# Poissons Ratio (x) = 0.49879 0.24099
# Poissons Ratio (y) = 0.42728 0.24155
# Poissons Ratio (z) = 0.08550 0.10004
#
# Static dielectric constant tensor:
#      x y z
#    x 2.071410 -0.002740 0.039500 
#    y -0.002740 2.025910 -0.027190 
#    z 0.039500 -0.027190 2.108330 
# 
# From -- ./inp_files/207785.got.cif
#   From: 2010.05.17/outbox.cif.g08.bks.cpg/sg2_104_cif.got.tgz:207785.got - 2010.06.03 11:33:40.
