data_PCOD9085240
_publ_section_title
;
Structure prediction by ZEFSAII (Michael W. Deem and Ramdas Pophale) SiO2 
 PCOD9085240
Probable space group: P -1
;
_chemical_formula_sum "Si O2"
_cell_formula_units_Z 16
_cell_length_a 19.078623
_cell_length_b 11.347078
_cell_length_c 9.437032
_cell_angle_alpha 101.962660
_cell_angle_beta 78.615823
_cell_angle_gamma 34.127777
_cell_volume 830.136913
_symmetry_space_group_name_H-M "P -1"
_symmetry_group_IT_number 2
_symmetry_cell_setting 'triclinic'
loop_
_space_group_symop_operation_xyz
x,y,z
-x,-y,-z
loop_
_atom_site_type_symbol
_atom_site_label
_atom_site_fract_x
_atom_site_fract_y
_atom_site_fract_z
Si Si1 0.954525 0.384952 0.503325
Si Si2 0.760826 0.654143 0.363006
Si Si3 0.792420 0.830462 0.832853
Si Si4 0.668537 0.317487 0.418305
Si Si5 0.503520 0.668132 0.118916
Si Si6 0.083750 0.249470 0.964303
Si Si7 0.719655 0.211865 0.687438
Si Si8 0.575530 0.691563 0.365815
O O1 0.086259 0.269364 0.335623
O O2 0.812810 0.574755 0.489242
O O3 0.880175 0.568054 0.713998
O O4 0.080787 0.093562 0.440489
O O5 0.678034 0.654492 0.353759
O O6 0.623344 0.967749 0.458487
O O7 0.931318 0.416663 0.148981
O O8 0.614618 0.092880 0.892724
O O9 0.786301 0.899317 0.005446
O O10 0.500000 0.500000 0.500000
O O11 0.683021 0.327355 0.580565
O O12 0.645686 0.473904 0.375798
O O13 0.820516 0.993655 0.232667
O O14 0.377182 0.770546 0.279961
O O15 0.588463 0.629627 0.182820
O O16 0.639151 0.387467 0.905854
O O17 0.000000 0.500000 0.000000
#
# Coordination Sequence:
#
# PCOD9085240 Si02
#       8
#     2   2   2   2   2   2   2   2
#     4   9  17  33  56  80 114 153 195 246 289 349
#     4  10  23  42  60  88 120 166 209 241 301 369
#     4   9  17  30  55  84 112 149 197 241 292 346
#     4  12  23  38  62  96 126 156 199 255 309 353
#     4  10  19  35  59  88 115 157 198 246 299 359
#     4  11  23  37  62  94 124 158 198 255 308 356
#     4  10  21  34  58  90 120 148 199 253 305 352
#     4  11  23  40  65  86 124 165 202 250 299 365
#
# _framework density 19.273928999999999
#
# number of rings (size 3 to 8) (size 9 to 14) (size 15 to 20)
#    0.000    1.750    2.500    2.250    7.000    0.500 
#    0.000    0.625    2.750    2.250    0.000    0.000 
#    0.000    0.000    0.000    0.000    0.000    0.000 
#
# Total GULP energy -89156.220342 kJ/mol
# GULP energy per Si atom -5572.263771 kJ/mol
# Density = 1.923006 g / cm^3
# Si number density = 19.273929 Si / 1000 Ang^3
#
#
#
# Elastic Constant Matrix: (Units=GPa)
#
#
# Indices 1 2 3 4 5 6 
#
# 1 57.9201 28.4721 24.2968 2.3431 17.5993 -7.9777
# 2 28.4721 106.2627 10.7009 3.9216 3.8338 -3.4619
# 3 24.2968 10.7009 41.8392 6.6566 7.9817 0.9499
# 4 2.3431 3.9216 6.6566 30.1457 -3.6623 7.0436
# 5 17.5993 3.8338 7.9817 -3.6623 19.9059 0.2371
# 6 -7.9777 -3.4619 0.9499 7.0436 0.2371 27.1323
#
#
#
# Elastic Compliance Matrix: (Units=1/GPa)
#
#
# Indices 1 2 3 4 5 6 
#
# 1 0.036123 -0.006792 -0.013757 -0.004798 -0.026135 0.011710
# 2 -0.006792 0.011049 0.000520 -0.000468 0.003589 -0.000515
# 3 -0.013757 0.000520 0.033186 -0.005753 -0.002259 -0.003627
# 4 -0.004798 -0.000468 -0.005753 0.039286 0.014005 -0.011590
# 5 -0.026135 0.003589 -0.002259 0.014005 0.076271 -0.011450
# 6 0.011710 -0.000515 -0.003627 -0.011590 -0.011450 0.043470
#
#
# Mechanical properties :
#
#
# Convention : Reuss Voigt Hill
#
# Bulk Modulus (GPa) = 24.81417 36.99574 30.90495
# Shear Modulus (GPa) = 17.07209 24.94025 21.00617
#
# Velocity S-wave (km/s) = 2.97940 3.60111 3.30491
# Velocity P-wave (km/s) = 4.97375 6.04376 5.53467
#
# Compressibility (1/GPa) = 0.04029956
#
# Stress axis : x y z
#
# Youngs Moduli (GPa) = 27.68310 90.50472 30.13358
#
# Poissons Ratio (x) = 0.61471 0.41455
# Poissons Ratio (y) = 0.18802 -0.01566
# Poissons Ratio (z) = 0.38084 -0.04705
#
# Static dielectric constant tensor:
#      x y z
#    x 1.678690 0.012680 0.042370 
#    y 0.012680 1.731230 0.037790 
#    z 0.042370 0.037790 1.718450 
# 
# From -- ./inp_files/244162.got.cif
#   From: 2010.05.17/outbox.cif.g08.bks.cpg/sg2_123_cif.got.tgz:244162.got - 2010.06.03 11:33:40.
