data_PCOD9085709
_publ_section_title
;
Structure prediction by ZEFSAII (Michael W. Deem and Ramdas Pophale) SiO2 
 PCOD9085709
Probable space group: P -1
;
_chemical_formula_sum "Si O2"
_cell_formula_units_Z 16
_cell_length_a 21.293409
_cell_length_b 8.742691
_cell_length_c 27.473556
_cell_angle_alpha 37.507574
_cell_angle_beta 161.396047
_cell_angle_gamma 154.317705
_cell_volume 634.969211
_symmetry_space_group_name_H-M "P -1"
_symmetry_group_IT_number 2
_symmetry_cell_setting 'triclinic'
loop_
_space_group_symop_operation_xyz
x,y,z
-x,-y,-z
loop_
_atom_site_type_symbol
_atom_site_label
_atom_site_fract_x
_atom_site_fract_y
_atom_site_fract_z
Si Si1 0.874768 0.902118 0.614547
Si Si2 0.163241 0.665193 0.147575
Si Si3 0.515699 0.044563 0.871288
Si Si4 0.501488 0.242049 0.974960
Si Si5 0.400536 0.123482 0.665408
Si Si6 0.638875 0.956528 0.505455
Si Si7 0.529314 0.825988 0.608525
Si Si8 0.822338 0.726291 0.999711
O O1 0.856773 0.090982 0.510855
O O2 0.904056 0.064717 0.646798
O O3 0.563130 0.429233 0.511691
O O4 0.157280 0.002350 0.786430
O O5 0.309201 0.719778 0.189205
O O6 0.411133 0.805586 0.332392
O O7 0.134430 0.938460 0.064215
O O8 0.831211 0.246019 0.028026
O O9 0.332142 0.936709 0.714777
O O10 0.609460 0.379427 0.890169
O O11 0.392543 0.733416 0.900117
O O12 0.699606 0.620105 0.992046
O O13 0.500000 0.000000 0.000000
O O14 0.467781 0.481260 0.636478
O O15 0.707327 0.284034 0.499413
O O16 0.500000 0.000000 0.500000
O O17 0.868896 0.139222 0.802703
#
# Coordination Sequence:
#
# PCOD9085709 Si02
#       8
#     2   2   2   2   2   2   2   2
#     4  10  20  39  62  90 123 160 207 248 312 359
#     4  11  20  38  63  93 124 156 215 253 305 358
#     4  11  20  38  64  90 125 159 210 252 300 367
#     4  10  22  40  66  87 126 169 205 242 309 386
#     4  11  24  35  63  96 123 157 203 270 303 348
#     4  10  19  35  62  91 119 160 204 258 297 365
#     4  12  22  35  61  94 126 151 210 260 305 349
#     4  11  23  40  63  92 126 168 201 250 314 376
#
# _framework density 25.198072
#
# number of rings (size 3 to 8) (size 9 to 14) (size 15 to 20)
#    0.000    1.250    5.000    2.250    0.000    0.000 
#    0.000    5.625    2.750    0.000    0.000    0.000 
#    0.000    0.000    0.000    0.000    0.000    0.000 
#
# Total GULP energy -89383.604441 kJ/mol
# GULP energy per Si atom -5586.475278 kJ/mol
# Density = 2.514072 g / cm^3
# Si number density = 25.198072 Si / 1000 Ang^3
#
#
#
# Elastic Constant Matrix: (Units=GPa)
#
#
# Indices 1 2 3 4 5 6 
#
# 1 191.4597 38.2430 52.8934 -15.3473 0.8601 14.0667
# 2 38.2430 60.3245 21.8943 -19.5490 -8.4878 10.2018
# 3 52.8934 21.8943 106.9493 -29.5720 2.1392 2.3376
# 4 -15.3473 -19.5490 -29.5720 26.2236 0.9830 -7.1241
# 5 0.8601 -8.4878 2.1392 0.9830 58.1597 -22.8108
# 6 14.0667 10.2018 2.3376 -7.1241 -22.8108 50.4401
#
#
#
# Elastic Compliance Matrix: (Units=1/GPa)
#
#
# Indices 1 2 3 4 5 6 
#
# 1 0.006858 -0.004034 -0.003422 -0.003346 -0.001290 -0.001994
# 2 -0.004034 0.024783 0.001861 0.018113 0.003339 0.000095
# 3 -0.003422 0.001861 0.015421 0.017446 0.000453 0.002532
# 4 -0.003346 0.018113 0.017446 0.071488 0.004151 0.008435
# 5 -0.001290 0.003339 0.000453 0.004151 0.021530 0.009986
# 6 -0.001994 0.000095 0.002532 0.008435 0.009986 0.025953
#
#
# Mechanical properties :
#
#
# Convention : Reuss Voigt Hill
#
# Bulk Modulus (GPa) = 27.87650 64.97721 46.42685
# Shear Modulus (GPa) = 26.42987 43.34487 34.88737
#
# Velocity S-wave (km/s) = 3.24216 4.15199 3.72496
# Velocity P-wave (km/s) = 5.01024 6.98770 6.07990
#
# Compressibility (1/GPa) = 0.03587251
#
# Stress axis : x y z
#
# Youngs Moduli (GPa) = 145.80928 40.35065 64.84730
#
# Poissons Ratio (x) = 0.16279 0.22189
# Poissons Ratio (y) = 0.58826 -0.12071
# Poissons Ratio (z) = 0.49891 -0.07511
#
# Static dielectric constant tensor:
#      x y z
#    x 2.069120 0.016250 -0.043810 
#    y 0.016250 2.114640 0.053300 
#    z -0.043810 0.053300 2.067940 
# 
# From -- ./inp_files/263117.got.cif
#   From: 2010.05.17/outbox.cif.g08.bks.cpg/sg2_132_cif.got.tgz:263117.got - 2010.06.03 11:33:40.
