data_PCOD9085263
_publ_section_title
;
Structure prediction by ZEFSAII (Michael W. Deem and Ramdas Pophale) SiO2 
 PCOD9085263
Probable space group: P -1
;
_chemical_formula_sum "Si O2"
_cell_formula_units_Z 14
_cell_length_a 15.973388
_cell_length_b 11.689579
_cell_length_c 7.638455
_cell_angle_alpha 96.905587
_cell_angle_beta 46.790055
_cell_angle_gamma 131.814705
_cell_volume 608.493520
_symmetry_space_group_name_H-M "P -1"
_symmetry_group_IT_number 2
_symmetry_cell_setting 'triclinic'
loop_
_space_group_symop_operation_xyz
x,y,z
-x,-y,-z
loop_
_atom_site_type_symbol
_atom_site_label
_atom_site_fract_x
_atom_site_fract_y
_atom_site_fract_z
Si Si1 0.239688 0.613075 0.071696
Si Si2 0.927194 0.293513 0.752578
Si Si3 0.673157 0.863338 0.495483
Si Si4 0.055988 0.176979 0.424264
Si Si5 0.340964 0.310958 0.815739
Si Si6 0.982046 0.698464 0.978047
Si Si7 0.689293 0.623761 0.578774
O O1 0.116021 0.487122 0.402484
O O2 0.238386 0.749011 0.065796
O O3 0.453059 0.730342 0.795012
O O4 0.122175 0.466870 0.045404
O O5 0.893484 0.138468 0.691870
O O6 0.962689 0.315648 0.915209
O O7 0.719915 0.851233 0.230630
O O8 0.696510 0.767694 0.563835
O O9 0.826973 0.089205 0.341880
O O10 0.222474 0.339548 0.356869
O O11 0.168064 0.258175 0.096774
O O12 0.000000 0.000000 0.500000
O O13 0.500000 0.500000 0.500000
O O14 0.473857 0.399553 0.812515
O O15 0.834597 0.679557 0.246344
#
# Coordination Sequence:
#
# PCOD9085263 Si02
#       7
#     2   2   2   2   2   2   2
#     4  11  24  46  69  89 137 177 213 270 317 394
#     4  10  24  44  66  96 129 178 221 258 329 387
#     4  11  23  40  66 100 125 169 218 266 331 385
#     4  11  23  38  64  96 129 165 213 272 321 384
#     4  10  19  35  59  89 124 163 205 257 320 378
#     4  11  23  42  67  97 130 170 220 271 324 380
#     4  10  21  37  62  96 130 167 212 264 330 385
#
# _framework density 23.007638
#
# number of rings (size 3 to 8) (size 9 to 14) (size 15 to 20)
#    0.000    1.429    1.429    4.714    4.000    1.714 
#    0.000    2.857    3.143    0.000    0.000    0.000 
#    0.000    0.000    0.000    0.000    0.000    0.000 
#
# Total GULP energy -78213.197036 kJ/mol
# GULP energy per Si atom -5586.656931 kJ/mol
# Density = 2.295527 g / cm^3
# Si number density = 23.007638 Si / 1000 Ang^3
#
#
#
# Elastic Constant Matrix: (Units=GPa)
#
#
# Indices 1 2 3 4 5 6 
#
# 1 115.9485 18.5022 23.2142 12.0945 -1.9984 -20.3346
# 2 18.5022 69.5709 16.2875 6.3378 -13.2847 -16.3352
# 3 23.2142 16.2875 63.7532 12.6121 6.3016 -3.1972
# 4 12.0945 6.3378 12.6121 28.9817 -2.2750 -6.5294
# 5 -1.9984 -13.2847 6.3016 -2.2750 33.5421 10.1764
# 6 -20.3346 -16.3352 -3.1972 -6.5294 10.1764 41.2569
#
#
#
# Elastic Compliance Matrix: (Units=1/GPa)
#
#
# Indices 1 2 3 4 5 6 
#
# 1 0.010299 -0.001023 -0.002821 -0.001928 -0.000703 0.004321
# 2 -0.001023 0.018088 -0.004678 0.000079 0.006565 0.004688
# 3 -0.002821 -0.004678 0.019837 -0.007206 -0.005808 -0.001414
# 4 -0.001928 0.000079 -0.007206 0.039568 0.002705 0.004117
# 5 -0.000703 0.006565 -0.005808 0.002705 0.035636 -0.006559
# 6 0.004321 0.004688 -0.001414 0.004117 -0.006559 0.030384
#
#
# Mechanical properties :
#
#
# Convention : Reuss Voigt Hill
#
# Bulk Modulus (GPa) = 32.07155 40.58672 36.32913
# Shear Modulus (GPa) = 27.58617 33.50740 30.54678
#
# Velocity S-wave (km/s) = 3.46642 3.82037 3.64769
# Velocity P-wave (km/s) = 5.47642 6.09419 5.79354
#
# Compressibility (1/GPa) = 0.03118029
#
# Stress axis : x y z
#
# Youngs Moduli (GPa) = 97.09307 55.28455 50.41154
#
# Poissons Ratio (x) = 0.05653 0.14223
# Poissons Ratio (y) = 0.09929 0.23583
# Poissons Ratio (z) = 0.27393 0.25863
#
# Static dielectric constant tensor:
#      x y z
#    x 1.988760 0.021510 0.077110 
#    y 0.021510 1.938760 0.013270 
#    z 0.077110 0.013270 1.929250 
# 
# From -- ./inp_files/333323.got.cif
#   From: 2010.05.17/outbox.cif.g08.bks.cpg/sg2_167_cif.got.tgz:333323.got - 2010.06.03 11:33:40.
