data_PCOD9085761
_publ_section_title
;
Structure prediction by ZEFSAII (Michael W. Deem and Ramdas Pophale) SiO2 
 PCOD9085761
Probable space group: P -1
;
_chemical_formula_sum "Si O2"
_cell_formula_units_Z 16
_cell_length_a 8.800141
_cell_length_b 10.994171
_cell_length_c 7.973944
_cell_angle_alpha 120.292472
_cell_angle_beta 78.337269
_cell_angle_gamma 72.624724
_cell_volume 574.544432
_symmetry_space_group_name_H-M "P -1"
_symmetry_group_IT_number 2
_symmetry_cell_setting 'triclinic'
loop_
_space_group_symop_operation_xyz
x,y,z
-x,-y,-z
loop_
_atom_site_type_symbol
_atom_site_label
_atom_site_fract_x
_atom_site_fract_y
_atom_site_fract_z
Si Si1 0.838841 0.042654 0.931174
Si Si2 0.798360 0.599602 0.557501
Si Si3 0.599789 0.374806 0.542862
Si Si4 0.040989 0.147283 0.554406
Si Si5 0.249329 0.210858 0.842500
Si Si6 0.291922 0.497567 0.138722
Si Si7 0.115332 0.689932 0.828997
Si Si8 0.517431 0.106075 0.274991
O O1 0.656872 0.070495 0.069493
O O2 0.894922 0.910237 0.687345
O O3 0.816308 0.215958 0.999409
O O4 0.000000 0.000000 0.000000
O O5 0.706612 0.580775 0.732131
O O6 0.805236 0.500490 0.318745
O O7 0.678628 0.781425 0.663382
O O8 0.000000 0.500000 0.500000
O O9 0.500000 0.500000 0.500000
O O10 0.565701 0.448581 0.788605
O O11 0.797881 0.302076 0.365336
O O12 0.562965 0.225146 0.456742
O O13 0.880134 0.328747 0.723554
O O14 0.182076 0.156499 0.655761
O O15 0.000000 0.000000 0.500000
O O16 0.275126 0.367462 0.936286
O O17 0.426291 0.060355 0.763606
O O18 0.090582 0.244103 0.035932
#
# Coordination Sequence:
#
# PCOD9085761 Si02
#       8
#     2   2   2   2   2   2   2   2
#     4  11  20  39  70 108 136 184 240 301 347 411
#     4  11  22  42  71 109 139 185 232 303 367 419
#     4  10  19  37  64 101 135 178 234 295 341 404
#     4  12  24  44  69 101 146 197 243 286 352 439
#     4  12  24  42  67 105 145 194 231 289 365 430
#     4  11  24  39  67 100 145 188 242 292 361 419
#     4  10  19  35  62  99 138 171 231 282 347 411
#     4  11  23  41  73 107 145 178 246 300 351 431
#
# _framework density 27.84815
#
# number of rings (size 3 to 8) (size 9 to 14) (size 15 to 20)
#    0.000    1.000    6.250    3.375    0.000    0.500 
#    0.000    0.000    2.750    3.750    0.000    0.000 
#    0.000    0.000    0.000    0.000    0.000    0.000 
#
# Total GULP energy -89225.453066 kJ/mol
# GULP energy per Si atom -5576.590817 kJ/mol
# Density = 2.778477 g / cm^3
# Si number density = 27.848150 Si / 1000 Ang^3
#
#
#
# Elastic Constant Matrix: (Units=GPa)
#
#
# Indices 1 2 3 4 5 6 
#
# 1 100.5165 56.6323 56.4959 18.6165 16.3614 -9.3872
# 2 56.6323 138.9619 92.2492 37.5546 6.9825 -27.5638
# 3 56.4959 92.2492 206.8201 31.9538 38.5765 -19.0793
# 4 18.6165 37.5546 31.9538 58.5473 3.9035 -3.4691
# 5 16.3614 6.9825 38.5765 3.9035 52.6422 11.9498
# 6 -9.3872 -27.5638 -19.0793 -3.4691 11.9498 49.5389
#
#
#
# Elastic Compliance Matrix: (Units=1/GPa)
#
#
# Indices 1 2 3 4 5 6 
#
# 1 0.013703 -0.004475 -0.001065 -0.000691 -0.002914 0.000351
# 2 -0.004475 0.013960 -0.004163 -0.005124 0.001951 0.004487
# 3 -0.001065 -0.004163 0.008383 -0.001073 -0.005633 0.001995
# 4 -0.000691 -0.005124 -0.001073 0.021010 0.000592 -0.002067
# 5 -0.002914 0.001951 -0.005633 0.000592 0.025485 -0.007742
# 6 0.000351 0.004487 0.001995 -0.002067 -0.007742 0.025240
#
#
# Mechanical properties :
#
#
# Convention : Reuss Voigt Hill
#
# Bulk Modulus (GPa) = 60.08970 95.22814 77.65892
# Shear Modulus (GPa) = 37.66939 48.20709 42.93824
#
# Velocity S-wave (km/s) = 3.68186 4.16513 3.93093
# Velocity P-wave (km/s) = 6.30073 7.57633 6.96778
#
# Compressibility (1/GPa) = 0.01664179
#
# Stress axis : x y z
#
# Youngs Moduli (GPa) = 72.97480 71.63306 119.28756
#
# Poissons Ratio (x) = 0.32057 0.12699
# Poissons Ratio (y) = 0.32658 0.49654
# Poissons Ratio (z) = 0.07769 0.29818
#
# Static dielectric constant tensor:
#      x y z
#    x 2.463100 0.016440 0.121270 
#    y 0.016440 2.365730 0.058770 
#    z 0.121270 0.058770 2.355980 
# 
# From -- ./inp_files/263495.got.cif
#   From: 2010.05.17/outbox.cif.g08.bks.cpg/sg2_132_cif.got.tgz:263495.got - 2010.06.03 11:33:40.
