data_PCOD9085220
_publ_section_title
;
Structure prediction by ZEFSAII (Michael W. Deem and Ramdas Pophale) SiO2 
 PCOD9085220
Probable space group: P -1
;
_chemical_formula_sum "Si O2"
_cell_formula_units_Z 16
_cell_length_a 13.871195
_cell_length_b 10.017252
_cell_length_c 14.398820
_cell_angle_alpha 148.523233
_cell_angle_beta 39.992187
_cell_angle_gamma 124.684524
_cell_volume 649.853474
_symmetry_space_group_name_H-M "P -1"
_symmetry_group_IT_number 2
_symmetry_cell_setting 'triclinic'
loop_
_space_group_symop_operation_xyz
x,y,z
-x,-y,-z
loop_
_atom_site_type_symbol
_atom_site_label
_atom_site_fract_x
_atom_site_fract_y
_atom_site_fract_z
Si Si1 0.857140 0.975663 0.209383
Si Si2 0.358236 0.724593 0.772690
Si Si3 0.753431 0.800159 0.654495
Si Si4 0.953198 0.043011 0.451825
Si Si5 0.712721 0.387161 0.710674
Si Si6 0.479681 0.221874 0.040776
Si Si7 0.110565 0.485908 0.807671
Si Si8 0.149319 0.158303 0.062313
O O1 0.747062 0.155668 0.471530
O O2 0.794679 0.857577 0.094819
O O3 0.969784 0.157692 0.198783
O O4 0.969138 0.723463 0.024332
O O5 0.500000 0.500000 0.500000
O O6 0.242618 0.578941 0.822774
O O7 0.246624 0.886252 0.872278
O O8 0.426515 0.953460 0.899839
O O9 0.906810 0.836945 0.616737
O O10 0.643228 0.666160 0.719279
O O11 0.806137 0.639273 0.425581
O O12 0.652082 0.095082 0.874957
O O13 0.786556 0.230217 0.656651
O O14 0.000000 0.000000 0.500000
O O15 0.947615 0.755141 0.250948
O O16 0.550391 0.581448 0.908804
O O17 0.814133 0.604798 0.766154
#
# Coordination Sequence:
#
# PCOD9085220 Si02
#       8
#     2   2   2   2   2   2   2   2
#     4  10  21  34  59  87 118 157 195 259 307 353
#     4  10  19  35  59  86 121 155 195 249 306 364
#     4  10  21  39  63  88 125 158 197 259 309 368
#     4  10  23  40  62  85 124 170 204 253 300 365
#     4  11  23  37  61  91 123 157 212 255 304 371
#     4  10  23  37  62  98 118 155 201 259 319 359
#     4  10  21  39  58  86 117 160 205 238 304 366
#     4   9  20  33  54  89 122 147 194 256 316 351
#
# _framework density 24.620933000000001
#
# number of rings (size 3 to 8) (size 9 to 14) (size 15 to 20)
#    0.000    2.000    1.250    1.875   12.250    0.500 
#    0.000    2.500    2.750    0.750    0.000    0.000 
#    0.000    0.000    0.000    0.000    0.000    0.000 
#
# Total GULP energy -89239.490406 kJ/mol
# GULP energy per Si atom -5577.468150 kJ/mol
# Density = 2.456489 g / cm^3
# Si number density = 24.620933 Si / 1000 Ang^3
#
#
#
# Elastic Constant Matrix: (Units=GPa)
#
#
# Indices 1 2 3 4 5 6 
#
# 1 90.7600 15.6570 30.4243 1.6974 -18.3178 -15.4380
# 2 15.6570 51.9645 23.3798 12.0752 -8.4299 -12.3321
# 3 30.4243 23.3798 105.1778 13.7931 -13.7124 -2.5391
# 4 1.6974 12.0752 13.7931 36.6930 -7.1473 0.8867
# 5 -18.3178 -8.4299 -13.7124 -7.1473 45.7067 4.4352
# 6 -15.4380 -12.3321 -2.5391 0.8867 4.4352 42.6427
#
#
#
# Elastic Compliance Matrix: (Units=1/GPa)
#
#
# Indices 1 2 3 4 5 6 
#
# 1 0.013852 -0.001517 -0.003266 0.001809 0.004196 0.003908
# 2 -0.001517 0.024659 -0.003886 -0.006516 0.001137 0.006368
# 3 -0.003266 -0.003886 0.011795 -0.002720 0.001251 -0.001677
# 4 0.001809 -0.006516 -0.002720 0.031138 0.003813 -0.002436
# 5 0.004196 0.001137 0.001251 0.003813 0.024813 -0.000738
# 6 0.003908 0.006368 -0.001677 -0.002436 -0.000738 0.026735
#
#
# Mechanical properties :
#
#
# Convention : Reuss Voigt Hill
#
# Bulk Modulus (GPa) = 30.33068 42.98050 36.65559
# Shear Modulus (GPa) = 30.99447 36.90456 33.94951
#
# Velocity S-wave (km/s) = 3.55190 3.87578 3.71737
# Velocity P-wave (km/s) = 5.40066 6.12565 5.77455
#
# Compressibility (1/GPa) = 0.03296992
#
# Stress axis : x y z
#
# Youngs Moduli (GPa) = 72.19128 40.55259 84.77853
#
# Poissons Ratio (x) = 0.06150 0.27686
# Poissons Ratio (y) = 0.10949 0.32946
# Poissons Ratio (z) = 0.23575 0.15759
#
# Static dielectric constant tensor:
#      x y z
#    x 1.994300 -0.038820 0.038760 
#    y -0.038820 2.109250 -0.076750 
#    z 0.038760 -0.076750 2.030090 
# 
# From -- ./inp_files/433789.got.cif
#   From: 2010.05.17/outbox.cif.g08.bks.cpg/sg2_217_cif.got.tgz:433789.got - 2010.06.03 11:33:40.
