data_PCOD9085937
_publ_section_title
;
Structure prediction by ZEFSAII (Michael W. Deem and Ramdas Pophale) SiO2 
 PCOD9085937
Probable space group: P -1
;
_chemical_formula_sum "Si O2"
_cell_formula_units_Z 16
_cell_length_a 9.054386
_cell_length_b 8.973751
_cell_length_c 27.429266
_cell_angle_alpha 37.364884
_cell_angle_beta 40.599936
_cell_angle_gamma 68.998501
_cell_volume 690.262049
_symmetry_space_group_name_H-M "P -1"
_symmetry_group_IT_number 2
_symmetry_cell_setting 'triclinic'
loop_
_space_group_symop_operation_xyz
x,y,z
-x,-y,-z
loop_
_atom_site_type_symbol
_atom_site_label
_atom_site_fract_x
_atom_site_fract_y
_atom_site_fract_z
Si Si1 0.096266 0.334793 0.870201
Si Si2 0.079841 0.846554 0.866925
Si Si3 0.632497 0.344890 0.028931
Si Si4 0.563236 0.500323 0.540637
Si Si5 0.946401 0.751947 0.618433
Si Si6 0.598378 0.716425 0.573934
Si Si7 0.845079 0.381835 0.648374
Si Si8 0.628328 0.427891 0.160469
O O1 0.275883 0.478801 0.738365
O O2 0.318358 0.569559 0.796170
O O3 0.819745 0.322286 0.948069
O O4 0.000000 0.000000 0.000000
O O5 0.325542 0.799626 0.818691
O O6 0.256980 0.196483 0.715527
O O7 0.854699 0.590985 0.950241
O O8 0.895825 0.758018 0.984785
O O9 0.388116 0.992809 0.200668
O O10 0.500000 0.500000 0.000000
O O11 0.500000 0.500000 0.500000
O O12 0.634692 0.754275 0.496900
O O13 0.834749 0.495869 0.476867
O O14 0.864231 0.469236 0.678322
O O15 0.678328 0.650361 0.746078
O O16 0.000000 0.000000 0.500000
O O17 0.228816 0.949490 0.529584
O O18 0.743475 0.553103 0.598698
#
# Coordination Sequence:
#
# PCOD9085937 Si02
#       8
#     2   2   2   2   2   2   2   2
#     4  11  19  38  68  98 137 175 237 292 345 420
#     4  10  23  37  64  93 136 184 230 275 355 413
#     4  11  24  41  65 102 144 186 225 286 362 427
#     4  12  27  45  64  97 147 186 232 292 362 429
#     4  10  19  38  65 105 140 168 223 298 355 399
#     4  11  23  40  73 105 131 183 243 293 350 413
#     4  11  23  42  71 101 138 181 234 294 352 421
#     4  10  19  35  64  99 132 168 227 294 339 406
#
# _framework density 23.179601000000002
#
# number of rings (size 3 to 8) (size 9 to 14) (size 15 to 20)
#    0.000    1.250    3.750    3.375    7.000    0.000 
#    0.000    1.875    0.000    3.750    0.000    0.000 
#    0.000    0.000    0.000    0.000    0.000    0.000 
#
# Total GULP energy -89373.245412 kJ/mol
# GULP energy per Si atom -5585.827838 kJ/mol
# Density = 2.312684 g / cm^3
# Si number density = 23.179601 Si / 1000 Ang^3
#
#
#
# Elastic Constant Matrix: (Units=GPa)
#
#
# Indices 1 2 3 4 5 6 
#
# 1 66.4619 54.6186 16.3082 12.2084 -8.2710 6.7998
# 2 54.6186 89.7317 32.6565 17.9930 -12.2665 10.5321
# 3 16.3082 32.6565 104.8536 24.3570 -19.1104 7.2580
# 4 12.2084 17.9930 24.3570 46.8040 11.1848 -5.2934
# 5 -8.2710 -12.2665 -19.1104 11.1848 22.8057 4.4848
# 6 6.7998 10.5321 7.2580 -5.2934 4.4848 48.1108
#
#
#
# Elastic Compliance Matrix: (Units=1/GPa)
#
#
# Indices 1 2 3 4 5 6 
#
# 1 0.030865 -0.017745 0.003391 -0.005011 0.007386 -0.002229
# 2 -0.017745 0.026224 -0.000875 -0.008475 0.012108 -0.005162
# 3 0.003391 -0.000875 0.018657 -0.017413 0.026404 -0.007480
# 4 -0.005011 -0.008475 -0.017413 0.048016 -0.047445 0.014896
# 5 0.007386 0.012108 0.026404 -0.047445 0.102857 -0.022486
# 6 -0.002229 -0.005162 -0.007480 0.014896 -0.022486 0.027094
#
#
# Mechanical properties :
#
#
# Convention : Reuss Voigt Hill
#
# Bulk Modulus (GPa) = 22.08063 52.02376 37.05220
# Shear Modulus (GPa) = 16.70749 34.04171 25.37460
#
# Velocity S-wave (km/s) = 2.68765 3.83640 3.31221
# Velocity P-wave (km/s) = 4.37926 6.48972 5.53599
#
# Compressibility (1/GPa) = 0.04528857
#
# Stress axis : x y z
#
# Youngs Moduli (GPa) = 32.39947 38.13263 53.59811
#
# Poissons Ratio (x) = 0.67666 -0.18173
# Poissons Ratio (y) = 0.57492 0.04688
# Poissons Ratio (z) = -0.10985 0.03336
#
# Static dielectric constant tensor:
#      x y z
#    x 2.010100 0.077410 0.027220 
#    y 0.077410 1.961150 -0.007730 
#    z 0.027220 -0.007730 1.874220 
# 
# From -- ./inp_files/616771.got.cif
#   From: 2010.05.17/outbox.cif.g08.bks.cpg/sg2_309_cif.got.tgz:616771.got - 2010.06.03 11:33:40.
