data_PCOD9085716
_publ_section_title
;
Structure prediction by ZEFSAII (Michael W. Deem and Ramdas Pophale) SiO2 
 PCOD9085716
Probable space group: P -1
;
_chemical_formula_sum "Si O2"
_cell_formula_units_Z 16
_cell_length_a 10.770705
_cell_length_b 17.659536
_cell_length_c 9.310396
_cell_angle_alpha 108.318667
_cell_angle_beta 120.740993
_cell_angle_gamma 31.211587
_cell_volume 758.121787
_symmetry_space_group_name_H-M "P -1"
_symmetry_group_IT_number 2
_symmetry_cell_setting 'triclinic'
loop_
_space_group_symop_operation_xyz
x,y,z
-x,-y,-z
loop_
_atom_site_type_symbol
_atom_site_label
_atom_site_fract_x
_atom_site_fract_y
_atom_site_fract_z
Si Si1 0.184769 0.017694 0.648767
Si Si2 0.368721 0.777528 0.726275
Si Si3 0.262834 0.654235 0.044939
Si Si4 0.287727 0.053092 0.006772
Si Si5 0.702152 0.181359 0.946144
Si Si6 0.502414 0.451600 0.326802
Si Si7 0.138930 0.149039 0.453343
Si Si8 0.502297 0.876206 0.302540
O O1 0.268162 0.053017 0.620276
O O2 0.923914 0.108656 0.455791
O O3 0.409741 0.843339 0.711098
O O4 0.114215 0.082230 0.804942
O O5 0.567412 0.608340 0.720387
O O6 0.354655 0.790718 0.899008
O O7 0.297404 0.730958 0.069516
O O8 0.323997 0.587082 0.195283
O O9 0.500000 0.500000 0.000000
O O10 0.930974 0.797114 0.933285
O O11 0.455792 0.918525 0.133494
O O12 0.500000 0.000000 0.000000
O O13 0.502202 0.216913 0.757150
O O14 0.000000 0.000000 0.000000
O O15 0.500000 0.500000 0.500000
O O16 0.812148 0.303851 0.359084
O O17 0.249038 0.187314 0.527466
O O18 0.247896 0.034777 0.333669
#
# Coordination Sequence:
#
# PCOD9085716 Si02
#       8
#     2   2   2   2   2   2   2   2
#     4  10  19  35  62  91 129 161 217 271 320 377
#     4  10  20  35  57  93 128 164 216 273 315 381
#     4  12  24  41  67  98 133 174 216 273 330 392
#     4  12  23  39  65 100 125 171 218 268 321 393
#     4  12  21  38  65  98 127 168 227 274 315 386
#     4  11  23  39  61  86 131 170 214 258 335 392
#     4  10  22  40  61  96 125 172 213 272 323 395
#     4  11  22  38  66  93 129 165 222 273 323 376
#
# _framework density 21.104789
#
# number of rings (size 3 to 8) (size 9 to 14) (size 15 to 20)
#    0.000    1.000    5.000    3.750    0.000    3.000 
#    0.000    0.625    2.750    2.250    0.000    0.000 
#    0.000    0.000    0.000    0.000    0.000    0.000 
#
# Total GULP energy -89085.809700 kJ/mol
# GULP energy per Si atom -5567.863106 kJ/mol
# Density = 2.105675 g / cm^3
# Si number density = 21.104789 Si / 1000 Ang^3
#
#
#
# Elastic Constant Matrix: (Units=GPa)
#
#
# Indices 1 2 3 4 5 6 
#
# 1 63.9095 28.2666 -7.4738 -7.7457 7.8777 22.1308
# 2 28.2666 86.8339 0.7668 -0.1820 3.6734 32.7977
# 3 -7.4738 0.7668 68.2391 9.8583 -7.8270 16.7153
# 4 -7.7457 -0.1820 9.8583 36.2683 9.5652 -7.9825
# 5 7.8777 3.6734 -7.8270 9.5652 33.5440 -5.1956
# 6 22.1308 32.7977 16.7153 -7.9825 -5.1956 44.9698
#
#
#
# Elastic Compliance Matrix: (Units=1/GPa)
#
#
# Indices 1 2 3 4 5 6 
#
# 1 0.022192 -0.003105 0.003779 0.003148 -0.006475 -0.010250
# 2 -0.003105 0.017588 0.003149 -0.004001 -0.001387 -0.013341
# 3 0.003779 0.003149 0.019736 -0.008301 0.003800 -0.012527
# 4 0.003148 -0.004001 -0.008301 0.035437 -0.010874 0.009488
# 5 -0.006475 -0.001387 0.003800 -0.010874 0.036253 0.005044
# 6 -0.010250 -0.013341 -0.012527 0.009488 0.005044 0.043934
#
#
# Mechanical properties :
#
#
# Convention : Reuss Voigt Hill
#
# Bulk Modulus (GPa) = 14.88961 29.12241 22.00601
# Shear Modulus (GPa) = 26.33205 36.11798 31.22501
#
# Velocity S-wave (km/s) = 3.53609 4.14135 3.85063
# Velocity P-wave (km/s) = 4.87260 6.05777 5.49722
#
# Compressibility (1/GPa) = 0.06716094
#
# Stress axis : x y z
#
# Youngs Moduli (GPa) = 45.06208 56.85572 50.66804
#
# Poissons Ratio (x) = 0.17655 -0.19146
# Poissons Ratio (y) = 0.13993 -0.15955
# Poissons Ratio (z) = -0.17027 -0.17904
#
# Static dielectric constant tensor:
#      x y z
#    x 1.894300 0.026310 0.048480 
#    y 0.026310 1.753130 0.033370 
#    z 0.048480 0.033370 1.825840 
# 
# From -- ./inp_files/278179.got.cif
#   From: 2010.05.17/outbox.cif.g08.bks.cpg/sg2_140_cif.got.tgz:278179.got - 2010.06.03 11:33:40.
