data_PCOD9085416
_publ_section_title
;
Structure prediction by ZEFSAII (Michael W. Deem and Ramdas Pophale) SiO2 
 PCOD9085416
Probable space group: P -1
;
_chemical_formula_sum "Si O2"
_cell_formula_units_Z 14
_cell_length_a 10.539924
_cell_length_b 14.966958
_cell_length_c 8.826920
_cell_angle_alpha 79.317031
_cell_angle_beta 61.785412
_cell_angle_gamma 131.443126
_cell_volume 603.793633
_symmetry_space_group_name_H-M "P -1"
_symmetry_group_IT_number 2
_symmetry_cell_setting 'triclinic'
loop_
_space_group_symop_operation_xyz
x,y,z
-x,-y,-z
loop_
_atom_site_type_symbol
_atom_site_label
_atom_site_fract_x
_atom_site_fract_y
_atom_site_fract_z
Si Si1 0.955176 0.710486 0.687108
Si Si2 0.326754 0.769155 0.603896
Si Si3 0.053823 0.617133 0.099923
Si Si4 0.718699 0.887582 0.117321
Si Si5 0.987472 0.909879 0.421138
Si Si6 0.239077 0.473928 0.449520
Si Si7 0.567208 0.473263 0.258422
O O1 0.030947 0.842443 0.513734
O O2 0.828872 0.574093 0.673377
O O3 0.215165 0.803761 0.595179
O O4 0.718542 0.597280 0.985229
O O5 0.081090 0.557813 0.773909
O O6 0.595334 0.888156 0.313665
O O7 0.326166 0.768829 0.787227
O O8 0.051382 0.652958 0.260480
O O9 0.815508 0.556054 0.181387
O O10 0.478831 0.679767 0.287140
O O11 0.000000 0.000000 0.000000
O O12 0.804784 0.972904 0.877838
O O13 0.664844 0.728800 0.593462
O O14 0.000000 0.000000 0.500000
O O15 0.373552 0.450875 0.435559
#
# Coordination Sequence:
#
# PCOD9085416 Si02
#       7
#     2   2   2   2   2   2   2
#     4  10  21  37  60  85 116 150 192 242 280 334
#     4   9  20  38  55  82 118 152 190 235 289 336
#     4   9  18  33  59  83 111 149 192 239 275 327
#     4  11  23  38  58  83 120 155 187 235 289 346
#     4  11  21  36  59  87 116 150 187 234 293 343
#     4  10  19  35  60  89 111 147 195 237 281 331
#     4  10  19  36  60  85 113 147 195 240 276 335
#
# _framework density 23.186731999999999
#
# number of rings (size 3 to 8) (size 9 to 14) (size 15 to 20)
#    0.000    2.000    0.000    5.571    0.000    4.000 
#    0.000    2.857    0.000   29.143    0.000    0.000 
#    0.000    0.000    0.000    0.000    0.000    0.000 
#
# Total GULP energy -78249.406714 kJ/mol
# GULP energy per Si atom -5589.243337 kJ/mol
# Density = 2.313396 g / cm^3
# Si number density = 23.186732 Si / 1000 Ang^3
#
#
#
# Elastic Constant Matrix: (Units=GPa)
#
#
# Indices 1 2 3 4 5 6 
#
# 1 33.9201 3.0774 35.7513 5.0549 6.8639 -7.8342
# 2 3.0774 56.1586 51.3894 13.0002 -2.9898 -16.0313
# 3 35.7513 51.3894 156.4536 34.6836 2.6697 -15.0345
# 4 5.0549 13.0002 34.6836 32.5423 -5.7894 -8.5129
# 5 6.8639 -2.9898 2.6697 -5.7894 37.5061 4.1463
# 6 -7.8342 -16.0313 -15.0345 -8.5129 4.1463 19.9418
#
#
#
# Elastic Compliance Matrix: (Units=1/GPa)
#
#
# Indices 1 2 3 4 5 6 
#
# 1 0.052903 0.018390 -0.017169 0.008519 -0.008784 0.028086
# 2 0.018390 0.037198 -0.014808 0.005233 -0.001695 0.028550
# 3 -0.017169 -0.014808 0.016815 -0.012256 0.000114 -0.011228
# 4 0.008519 0.005233 -0.012256 0.045641 0.004921 0.016774
# 5 -0.008784 -0.001695 0.000114 0.004921 0.029863 -0.008835
# 6 0.028086 0.028550 -0.011228 0.016774 -0.008835 0.084664
#
#
# Mechanical properties :
#
#
# Convention : Reuss Voigt Hill
#
# Bulk Modulus (GPa) = 12.54049 47.44092 29.99071
# Shear Modulus (GPa) = 15.58410 28.41898 22.00154
#
# Velocity S-wave (km/s) = 2.59533 3.50474 3.08374
# Velocity P-wave (km/s) = 3.79489 6.07309 5.06377
#
# Compressibility (1/GPa) = 0.07974172
#
# Stress axis : x y z
#
# Youngs Moduli (GPa) = 18.90239 26.88309 59.47090
#
# Poissons Ratio (x) = -0.49438 1.02107
# Poissons Ratio (y) = -0.34761 0.88065
# Poissons Ratio (z) = 0.32454 0.39809
#
# Static dielectric constant tensor:
#      x y z
#    x 1.864700 0.029100 0.003430 
#    y 0.029100 1.909440 0.042440 
#    z 0.003430 0.042440 1.917770 
# 
# From -- ./inp_files/260268.got.cif
#   From: 2010.05.17/outbox.cif.g08.bks.cpg/sg2_131_cif.got.tgz:260268.got - 2010.06.03 11:33:40.
