data_PCOD9085252
_publ_section_title
;
Structure prediction by ZEFSAII (Michael W. Deem and Ramdas Pophale) SiO2 
 PCOD9085252
Probable space group: P -1
;
_chemical_formula_sum "Si O2"
_cell_formula_units_Z 16
_cell_length_a 9.117382
_cell_length_b 11.885617
_cell_length_c 10.950037
_cell_angle_alpha 88.163933
_cell_angle_beta 94.305420
_cell_angle_gamma 131.701171
_cell_volume 883.195557
_symmetry_space_group_name_H-M "P -1"
_symmetry_group_IT_number 2
_symmetry_cell_setting 'triclinic'
loop_
_space_group_symop_operation_xyz
x,y,z
-x,-y,-z
loop_
_atom_site_type_symbol
_atom_site_label
_atom_site_fract_x
_atom_site_fract_y
_atom_site_fract_z
Si Si1 0.189403 0.080862 0.094644
Si Si2 0.102557 0.863816 0.301609
Si Si3 0.988096 0.152130 0.239730
Si Si4 0.259157 0.467040 0.363427
Si Si5 0.251699 0.068652 0.542683
Si Si6 0.699033 0.651764 0.392960
Si Si7 0.349470 0.766788 0.310379
Si Si8 0.415163 0.067365 0.925997
O O1 0.161314 0.170164 0.182872
O O2 0.167168 0.958864 0.180091
O O3 0.372762 0.147398 0.015950
O O4 0.000000 0.000000 0.000000
O O5 0.280867 0.218308 0.538710
O O6 0.198838 0.790932 0.317888
O O7 0.867053 0.738166 0.299346
O O8 0.899143 0.038732 0.353720
O O9 0.084174 0.314890 0.289041
O O10 0.798756 0.070194 0.142689
O O11 0.477415 0.536639 0.333678
O O12 0.257629 0.425567 0.505887
O O13 0.255422 0.597942 0.337952
O O14 0.176782 0.974833 0.417688
O O15 0.462905 0.125956 0.591929
O O16 0.442722 0.821494 0.178559
O O17 0.500000 0.000000 0.000000
#
# Coordination Sequence:
#
# PCOD9085252 Si02
#       8
#     2   2   2   2   2   2   2   2
#     4  10  21  34  61  85 106 140 197 240 272 309
#     4  12  19  34  60  88 111 146 190 234 276 336
#     4  10  19  37  61  84 112 143 188 240 276 333
#     4  10  21  38  52  84 119 155 174 224 295 339
#     4  10  19  35  59  89 111 142 189 238 282 324
#     4  10  20  34  58  81 119 149 185 226 279 342
#     4  10  23  36  57  83 123 148 179 231 286 343
#     4  10  20  40  60  83 107 148 194 235 276 322
#
# _framework density 18.116033999999999
#
# number of rings (size 3 to 8) (size 9 to 14) (size 15 to 20)
#    0.000    1.750    3.750    1.500    1.750    0.500 
#    0.000    2.500    0.000    0.000    0.000    0.000 
#    0.000    0.000    0.000    0.000    0.000    0.000 
#
# Total GULP energy -89242.097119 kJ/mol
# GULP energy per Si atom -5577.631070 kJ/mol
# Density = 1.807480 g / cm^3
# Si number density = 18.116034 Si / 1000 Ang^3
#
#
#
# Elastic Constant Matrix: (Units=GPa)
#
#
# Indices 1 2 3 4 5 6 
#
# 1 77.4497 19.2715 17.8108 1.0835 1.2050 -17.7973
# 2 19.2715 82.7203 25.6929 4.5706 6.1849 -9.6634
# 3 17.8108 25.6929 60.9990 -5.6720 5.1349 -9.2621
# 4 1.0835 4.5706 -5.6720 16.7047 -1.6278 3.2414
# 5 1.2050 6.1849 5.1349 -1.6278 27.2801 -9.7769
# 6 -17.7973 -9.6634 -9.2621 3.2414 -9.7769 28.1271
#
#
#
# Elastic Compliance Matrix: (Units=1/GPa)
#
#
# Indices 1 2 3 4 5 6 
#
# 1 0.016460 -0.001746 -0.003105 -0.003310 0.003820 0.010502
# 2 -0.001746 0.015123 -0.005985 -0.006671 -0.001814 0.002258
# 3 -0.003105 -0.005985 0.020948 0.008541 -0.001441 0.001392
# 4 -0.003310 -0.006671 0.008541 0.066623 0.000812 -0.008969
# 5 0.003820 -0.001814 -0.001441 0.000812 0.043017 0.016178
# 6 0.010502 0.002258 0.001392 -0.008969 0.016178 0.050089
#
#
# Mechanical properties :
#
#
# Convention : Reuss Voigt Hill
#
# Bulk Modulus (GPa) = 32.40578 38.52435 35.46507
# Shear Modulus (GPa) = 20.47342 24.98196 22.72769
#
# Velocity S-wave (km/s) = 3.36538 3.71751 3.54582
# Velocity P-wave (km/s) = 5.74698 6.30381 6.03183
#
# Compressibility (1/GPa) = 0.03085870
#
# Stress axis : x y z
#
# Youngs Moduli (GPa) = 60.75213 66.12623 47.73725
#
# Poissons Ratio (x) = 0.11546 0.14824
# Poissons Ratio (y) = 0.10608 0.28569
# Poissons Ratio (z) = 0.18866 0.39574
#
# Static dielectric constant tensor:
#      x y z
#    x 1.637790 0.007640 -0.006720 
#    y 0.007640 1.611680 -0.011030 
#    z -0.006720 -0.011030 1.628290 
# 
# From -- ./inp_files/379183.got.cif
#   From: 2010.05.17/outbox.cif.g08.bks.cpg/sg2_190_cif.got.tgz:379183.got - 2010.06.03 11:33:40.
