data_PCOD9085463
_publ_section_title
;
Structure prediction by ZEFSAII (Michael W. Deem and Ramdas Pophale) SiO2 
 PCOD9085463
Probable space group: P -1
;
_chemical_formula_sum "Si O2"
_cell_formula_units_Z 12
_cell_length_a 10.878753
_cell_length_b 9.005195
_cell_length_c 14.474420
_cell_angle_alpha 106.936976
_cell_angle_beta 27.512918
_cell_angle_gamma 89.669810
_cell_volume 502.373593
_symmetry_space_group_name_H-M "P -1"
_symmetry_group_IT_number 2
_symmetry_cell_setting 'triclinic'
loop_
_space_group_symop_operation_xyz
x,y,z
-x,-y,-z
loop_
_atom_site_type_symbol
_atom_site_label
_atom_site_fract_x
_atom_site_fract_y
_atom_site_fract_z
Si Si1 0.356086 0.042682 0.388181
Si Si2 0.526018 0.679925 0.745461
Si Si3 0.836618 0.610196 0.989127
Si Si4 0.505128 0.399165 0.599517
Si Si5 0.170802 0.995118 0.790694
Si Si6 0.677188 0.361669 0.943360
O O1 0.377739 0.186149 0.333621
O O2 0.513399 0.024603 0.382151
O O3 0.969083 0.143345 0.678454
O O4 0.590939 0.826358 0.152632
O O5 0.668197 0.497384 0.550168
O O6 0.570342 0.627199 0.814206
O O7 0.122029 0.808549 0.027148
O O8 0.664332 0.620656 0.201904
O O9 0.851022 0.449869 0.891398
O O10 0.202830 0.542837 0.757210
O O11 0.730287 0.189326 0.366433
O O12 0.000000 0.000000 0.000000
O O13 0.500000 0.500000 0.000000
#
# Coordination Sequence:
#
# PCOD9085463 Si02
#       6
#     2   2   2   2   2   2
#     4  11  22  38  62  92 125 156 200 255 304 366
#     4  10  23  39  61  96 123 158 199 248 314 365
#     4  10  21  36  62  92 118 164 204 247 308 359
#     4  10  19  35  60  92 131 157 194 245 308 379
#     4  10  20  33  57  94 128 153 186 246 310 367
#     4  11  25  44  62  83 122 170 211 251 297 355
#
# _framework density 23.886604999999999
#
# number of rings (size 3 to 8) (size 9 to 14) (size 15 to 20)
#    0.000    1.667    3.333    1.000    0.000    8.000 
#    0.000    0.833    0.000    0.000    0.000    0.000 
#    0.000    0.000    0.000    0.000    0.000    0.000 
#
# Total GULP energy -67156.131893 kJ/mol
# GULP energy per Si atom -5596.344324 kJ/mol
# Density = 2.383224 g / cm^3
# Si number density = 23.886605 Si / 1000 Ang^3
#
#
#
# Elastic Constant Matrix: (Units=GPa)
#
#
# Indices 1 2 3 4 5 6 
#
# 1 40.1200 6.0972 8.8954 -4.0477 8.6576 -30.2765
# 2 6.0972 110.2955 11.8042 8.5693 16.1924 -9.8490
# 3 8.8954 11.8042 93.3241 17.6317 10.4318 -0.5258
# 4 -4.0477 8.5693 17.6317 44.0426 -0.7184 4.1551
# 5 8.6576 16.1924 10.4318 -0.7184 20.7925 -2.3999
# 6 -30.2765 -9.8490 -0.5258 4.1551 -2.3999 28.9948
#
#
#
# Elastic Compliance Matrix: (Units=1/GPa)
#
#
# Indices 1 2 3 4 5 6 
#
# 1 0.181748 0.017293 -0.011358 -0.001092 -0.061494 0.190516
# 2 0.017293 0.012393 -0.001033 -0.002662 -0.013947 0.021476
# 3 -0.011358 -0.001033 0.013101 -0.005048 -0.002537 -0.011460
# 4 -0.001092 -0.002662 -0.005048 0.025739 0.005328 -0.005383
# 5 -0.061494 -0.013947 -0.002537 0.005328 0.078718 -0.063243
# 6 0.190516 0.021476 -0.011460 -0.005383 -0.063243 0.236051
#
#
# Mechanical properties :
#
#
# Convention : Reuss Voigt Hill
#
# Bulk Modulus (GPa) = 4.60728 33.03701 18.82214
# Shear Modulus (GPa) = 8.19279 33.22884 20.71081
#
# Velocity S-wave (km/s) = 1.85400 3.73380 2.94776
# Velocity P-wave (km/s) = 2.55266 5.69642 4.41391
#
# Compressibility (1/GPa) = 0.21704801
#
# Stress axis : x y z
#
# Youngs Moduli (GPa) = 5.50213 80.68934 76.32847
#
# Poissons Ratio (x) = -1.39540 0.86691
# Poissons Ratio (y) = -0.09515 0.07885
# Poissons Ratio (z) = 0.06249 0.08335
#
# Static dielectric constant tensor:
#      x y z
#    x 1.941400 -0.016020 -0.014830 
#    y -0.016020 1.931960 -0.050080 
#    z -0.014830 -0.050080 1.951350 
# 
# From -- ./inp_files/19201.got.cif
#   From: 2010.05.17/outbox.cif.g08.bks.cpg/sg2_10_cif.got.tgz:19201.got - 2010.06.03 11:33:40.
