data_PCOD9085261
_publ_section_title
;
Structure prediction by ZEFSAII (Michael W. Deem and Ramdas Pophale) SiO2 
 PCOD9085261
Probable space group: P -1
;
_chemical_formula_sum "Si O2"
_cell_formula_units_Z 14
_cell_length_a 10.027105
_cell_length_b 7.480104
_cell_length_c 16.091216
_cell_angle_alpha 45.791787
_cell_angle_beta 133.623730
_cell_angle_gamma 133.452701
_cell_volume 574.417644
_symmetry_space_group_name_H-M "P -1"
_symmetry_group_IT_number 2
_symmetry_cell_setting 'triclinic'
loop_
_space_group_symop_operation_xyz
x,y,z
-x,-y,-z
loop_
_atom_site_type_symbol
_atom_site_label
_atom_site_fract_x
_atom_site_fract_y
_atom_site_fract_z
Si Si1 0.795862 0.536919 0.325999
Si Si2 0.148550 0.933286 0.446013
Si Si3 0.469304 0.197025 0.111841
Si Si4 0.089890 0.716625 0.780465
Si Si5 0.698867 0.258563 0.706177
Si Si6 0.452954 0.574328 0.576387
Si Si7 0.286313 0.996160 0.937267
O O1 0.802133 0.246746 0.405638
O O2 0.661241 0.499527 0.362607
O O3 0.725755 0.712920 0.177615
O O4 0.020812 0.730684 0.385715
O O5 0.350201 0.148523 0.424710
O O6 0.010688 0.087982 0.363579
O O7 0.690093 0.208386 0.184741
O O8 0.383446 0.065008 0.207263
O O9 0.500000 0.500000 0.000000
O O10 0.302576 0.983326 0.047328
O O11 0.926394 0.419977 0.783407
O O12 0.124465 0.785628 0.872732
O O13 0.543476 0.356710 0.657749
O O14 0.678971 0.367391 0.571034
O O15 0.500000 0.000000 0.000000
#
# Coordination Sequence:
#
# PCOD9085261 Si02
#       7
#     2   2   2   2   2   2   2
#     4  10  19  35  59  89 121 152 203 248 296 353
#     4   9  19  34  59  88 118 152 196 250 301 349
#     4  11  24  41  63  88 122 161 199 247 299 359
#     4   9  20  42  61  87 117 156 209 244 297 358
#     4  10  22  38  60  88 124 161 196 243 305 357
#     4  10  20  36  59  90 122 156 195 246 303 354
#     4   9  19  38  62  84 117 164 200 239 293 353
#
# _framework density 24.372509999999998
#
# number of rings (size 3 to 8) (size 9 to 14) (size 15 to 20)
#    0.000    2.286    0.000    3.000    2.000    2.286 
#    5.143   10.714    0.000    0.000    0.000    0.000 
#    0.000    0.000    0.000    0.000    0.000    0.000 
#
# Total GULP energy -78198.270481 kJ/mol
# GULP energy per Si atom -5585.590749 kJ/mol
# Density = 2.431704 g / cm^3
# Si number density = 24.372510 Si / 1000 Ang^3
#
#
#
# Elastic Constant Matrix: (Units=GPa)
#
#
# Indices 1 2 3 4 5 6 
#
# 1 63.3717 21.0377 26.9880 7.8718 10.6778 5.8286
# 2 21.0377 108.4013 37.0648 13.5374 -4.6090 30.8671
# 3 26.9880 37.0648 113.5333 17.6232 -0.1168 12.5236
# 4 7.8718 13.5374 17.6232 45.6823 -8.0070 -0.7609
# 5 10.6778 -4.6090 -0.1168 -8.0070 33.9687 1.7752
# 6 5.8286 30.8671 12.5236 -0.7609 1.7752 21.8234
#
#
#
# Elastic Compliance Matrix: (Units=1/GPa)
#
#
# Indices 1 2 3 4 5 6 
#
# 1 0.019659 -0.003108 -0.003480 -0.002369 -0.007258 0.001651
# 2 -0.003108 0.017888 -0.001882 -0.003778 0.003752 -0.023828
# 3 -0.003480 -0.001882 0.011049 -0.003101 0.000296 -0.002881
# 4 -0.002369 -0.003778 -0.003101 0.025780 0.005871 0.008178
# 5 -0.007258 0.003752 0.000296 0.005871 0.033933 -0.006094
# 6 0.001651 -0.023828 -0.002881 0.008178 -0.006094 0.081518
#
#
# Mechanical properties :
#
#
# Convention : Reuss Voigt Hill
#
# Bulk Modulus (GPa) = 31.59054 50.60970 41.10012
# Shear Modulus (GPa) = 23.00752 33.64259 28.32505
#
# Velocity S-wave (km/s) = 3.07578 3.71934 3.41276
# Velocity P-wave (km/s) = 5.06000 6.26536 5.69466
#
# Compressibility (1/GPa) = 0.03165505
#
# Stress axis : x y z
#
# Youngs Moduli (GPa) = 50.86664 55.90311 90.50351
#
# Poissons Ratio (x) = 0.17375 0.31499
# Poissons Ratio (y) = 0.15810 0.17035
# Poissons Ratio (z) = 0.17704 0.10523
#
# Static dielectric constant tensor:
#      x y z
#    x 1.934350 -0.074960 -0.017120 
#    y -0.074960 2.006790 0.006570 
#    z -0.017120 0.006570 1.997630 
# 
# From -- ./inp_files/261329.got.cif
#   From: 2010.05.17/outbox.cif.g08.bks.cpg/sg2_131_cif.got.tgz:261329.got - 2010.06.03 11:33:40.
