data_PCOD9085184
_publ_section_title
;
Structure prediction by ZEFSAII (Michael W. Deem and Ramdas Pophale) SiO2 
 PCOD9085184
Probable space group: P -1
;
_chemical_formula_sum "Si O2"
_cell_formula_units_Z 14
_cell_length_a 9.114286
_cell_length_b 10.782436
_cell_length_c 10.907370
_cell_angle_alpha 47.199465
_cell_angle_beta 90.100989
_cell_angle_gamma 65.780977
_cell_volume 651.207545
_symmetry_space_group_name_H-M "P -1"
_symmetry_group_IT_number 2
_symmetry_cell_setting 'triclinic'
loop_
_space_group_symop_operation_xyz
x,y,z
-x,-y,-z
loop_
_atom_site_type_symbol
_atom_site_label
_atom_site_fract_x
_atom_site_fract_y
_atom_site_fract_z
Si Si1 0.384845 0.046771 0.813236
Si Si2 0.438204 0.721492 0.398623
Si Si3 0.467702 0.158830 0.285627
Si Si4 0.522340 0.457617 0.227775
Si Si5 0.733083 0.652518 0.069198
Si Si6 0.032574 0.363987 0.710257
Si Si7 0.193669 0.798929 0.145934
O O1 0.429886 0.213184 0.675235
O O2 0.203470 0.142800 0.818762
O O3 0.379002 0.968325 0.730115
O O4 0.562920 0.851011 0.001726
O O5 0.500000 0.500000 0.500000
O O6 0.411945 0.704834 0.551810
O O7 0.266210 0.852510 0.228107
O O8 0.471085 0.350173 0.200875
O O9 0.500000 0.000000 0.500000
O O10 0.292316 0.255058 0.131315
O O11 0.675759 0.493162 0.173029
O O12 0.350713 0.677134 0.127115
O O13 0.902114 0.584228 0.199697
O O14 0.000000 0.500000 0.500000
O O15 0.858332 0.365112 0.725553
O O16 0.000000 0.000000 0.000000
#
# Coordination Sequence:
#
# PCOD9085184 Si02
#       7
#     2   2   2   2   2   2   2
#     4  10  21  38  62  84 119 154 206 241 291 346
#     4  10  19  35  59  85 112 158 201 241 283 347
#     4  10  22  38  67  85 113 158 213 243 278 348
#     4  11  19  40  61  88 115 153 205 239 290 353
#     4  10  22  37  64  87 115 154 204 245 287 351
#     4  12  22  37  58  92 123 150 189 248 309 342
#     4  11  23  34  59  89 125 151 187 248 305 346
#
# _framework density 21.498522999999999
#
# number of rings (size 3 to 8) (size 9 to 14) (size 15 to 20)
#    0.857    0.571    1.429    6.857    0.000    0.000 
#    0.000    0.714    3.143    1.714    0.000    0.000 
#    0.000    0.000    0.000    0.000    0.000    0.000 
#
# Total GULP energy -77938.143296 kJ/mol
# GULP energy per Si atom -5567.010235 kJ/mol
# Density = 2.144959 g / cm^3
# Si number density = 21.498523 Si / 1000 Ang^3
#
#
#
# Elastic Constant Matrix: (Units=GPa)
#
#
# Indices 1 2 3 4 5 6 
#
# 1 98.4484 26.4319 25.8316 13.5621 -6.1612 7.5904
# 2 26.4319 58.2797 14.7723 11.1009 9.9961 24.9472
# 3 25.8316 14.7723 100.1829 17.7541 3.4271 4.2166
# 4 13.5621 11.1009 17.7541 38.2269 2.8313 -0.0764
# 5 -6.1612 9.9961 3.4271 2.8313 39.6217 4.0811
# 6 7.5904 24.9472 4.2166 -0.0764 4.0811 32.3189
#
#
#
# Elastic Compliance Matrix: (Units=1/GPa)
#
#
# Indices 1 2 3 4 5 6 
#
# 1 0.012782 -0.006166 -0.002229 -0.001981 0.003715 0.001575
# 2 -0.006166 0.032020 -0.000861 -0.006296 -0.006207 -0.022387
# 3 -0.002229 -0.000861 0.011469 -0.004227 -0.000797 -0.000217
# 4 -0.001981 -0.006296 -0.004227 0.030754 -0.001180 0.006098
# 5 0.003715 -0.006207 -0.000797 -0.001180 0.027479 0.000550
# 6 0.001575 -0.022387 -0.000217 0.006098 0.000550 0.047826
#
#
# Mechanical properties :
#
#
# Convention : Reuss Voigt Hill
#
# Bulk Modulus (GPa) = 26.48379 43.44252 34.96316
# Shear Modulus (GPa) = 25.84933 34.69184 30.27058
#
# Velocity S-wave (km/s) = 3.47129 4.02143 3.75644
# Velocity P-wave (km/s) = 5.33030 6.46634 5.92561
#
# Compressibility (1/GPa) = 0.03775894
#
# Stress axis : x y z
#
# Youngs Moduli (GPa) = 78.23540 31.23012 87.19177
#
# Poissons Ratio (x) = 0.19257 0.19434
# Poissons Ratio (y) = 0.48240 0.07510
# Poissons Ratio (z) = 0.17437 0.02690
#
# Static dielectric constant tensor:
#      x y z
#    x 1.803160 0.063650 0.026760 
#    y 0.063650 1.848890 0.030430 
#    z 0.026760 0.030430 2.030600 
# 
# From -- ./inp_files/211718.got.cif
#   From: 2010.05.17/outbox.cif.g08.bks.cpg/sg2_106_cif.got.tgz:211718.got - 2010.06.03 11:33:40.
