data_PCOD9085183
_publ_section_title
;
Structure prediction by ZEFSAII (Michael W. Deem and Ramdas Pophale) SiO2 
 PCOD9085183
Probable space group: P -1
;
_chemical_formula_sum "Si O2"
_cell_formula_units_Z 14
_cell_length_a 13.373440
_cell_length_b 10.172665
_cell_length_c 13.322163
_cell_angle_alpha 32.524951
_cell_angle_beta 55.338361
_cell_angle_gamma 44.634283
_cell_volume 682.288795
_symmetry_space_group_name_H-M "P -1"
_symmetry_group_IT_number 2
_symmetry_cell_setting 'triclinic'
loop_
_space_group_symop_operation_xyz
x,y,z
-x,-y,-z
loop_
_atom_site_type_symbol
_atom_site_label
_atom_site_fract_x
_atom_site_fract_y
_atom_site_fract_z
Si Si1 0.152930 0.768727 0.511039
Si Si2 0.724790 0.287493 0.312900
Si Si3 0.735113 0.733942 0.691643
Si Si4 0.437254 0.336481 0.005655
Si Si5 0.971234 0.804597 0.859237
Si Si6 0.700132 0.237715 0.018759
Si Si7 0.066317 0.317043 0.818468
O O1 0.264343 0.694364 0.584701
O O2 0.145441 0.493088 0.664941
O O3 0.149902 0.939349 0.304209
O O4 0.000000 0.000000 0.500000
O O5 0.607956 0.575755 0.138516
O O6 0.879448 0.207147 0.232393
O O7 0.699293 0.028326 0.473717
O O8 0.706289 0.507461 0.797990
O O9 0.903011 0.549470 0.737849
O O10 0.645913 0.795310 0.806776
O O11 0.602169 0.172836 0.046228
O O12 0.372822 0.636652 0.912841
O O13 0.930473 0.819868 0.987907
O O14 0.000000 0.500000 0.000000
O O15 0.852758 0.952166 0.128251
#
# Coordination Sequence:
#
# PCOD9085183 Si02
#       7
#     2   2   2   2   2   2   2
#     4  10  20  32  53  90 115 137 186 229 283 332
#     4  11  19  33  61  85 106 152 190 221 276 340
#     4  10  19  35  59  85 112 140 192 230 271 335
#     4   9  21  41  57  78 113 157 185 223 284 333
#     4  11  18  32  55  86 115 147 175 228 286 323
#     4   9  22  41  56  82 114 151 187 230 280 329
#     4  12  19  36  60  87 117 139 185 241 273 329
#
# _framework density 20.519169999999999
#
# number of rings (size 3 to 8) (size 9 to 14) (size 15 to 20)
#    0.857    0.857    7.143    0.429    0.000    0.571 
#    2.571    2.143    0.000    1.714    0.000    0.000 
#    0.000    0.000    0.000    0.000    0.000    0.000 
#
# Total GULP energy -77998.846246 kJ/mol
# GULP energy per Si atom -5571.346160 kJ/mol
# Density = 2.047247 g / cm^3
# Si number density = 20.519170 Si / 1000 Ang^3
#
#
#
# Elastic Constant Matrix: (Units=GPa)
#
#
# Indices 1 2 3 4 5 6 
#
# 1 51.9692 -3.2213 16.2178 0.0311 1.0123 -13.6497
# 2 -3.2213 14.8557 6.5329 -0.8807 -9.5197 -0.5333
# 3 16.2178 6.5329 110.5999 0.6793 -5.7406 -8.6783
# 4 0.0311 -0.8807 0.6793 3.8739 13.3863 -2.1629
# 5 1.0123 -9.5197 -5.7406 13.3863 39.6840 1.8896
# 6 -13.6497 -0.5333 -8.6783 -2.1629 1.8896 11.8327
#
#
#
# Elastic Compliance Matrix: (Units=1/GPa)
#
#
# Indices 1 2 3 4 5 6 
#
# 1 0.025153 0.014946 -0.002070 -0.043294 0.016409 0.017637
# 2 0.014946 0.070287 -0.004876 0.080970 -0.013145 0.033732
# 3 -0.002070 -0.004876 0.009999 0.001715 -0.000493 0.005118
# 4 -0.043294 0.080970 0.001715 -0.501697 0.198026 -0.168366
# 5 0.016409 -0.013145 -0.000493 0.198026 -0.048188 0.061868
# 6 0.017637 0.033732 0.005118 -0.168366 0.061868 0.069475
#
#
# Mechanical properties :
#
#
# Convention : Reuss Voigt Hill
#
# Bulk Modulus (GPa) = 8.23460 24.05374 16.14417
# Shear Modulus (GPa) = -14.26566 21.60447 3.66940
#
# Velocity S-wave (km/s) = -2.63959 3.24835 1.33872
# Velocity P-wave (km/s) = 2.29523 5.08105 3.20538
#
# Compressibility (1/GPa) = 0.12143879
#
# Stress axis : x y z
#
# Youngs Moduli (GPa) = 39.75658 14.22735 100.01417
#
# Poissons Ratio (x) = -0.21264 0.20700
# Poissons Ratio (y) = -0.59419 0.48767
# Poissons Ratio (z) = 0.08228 0.06937
#
# Static dielectric constant tensor:
#      x y z
#    x 1.786330 -0.001150 -0.000460 
#    y -0.001150 1.770030 0.032860 
#    z -0.000460 0.032860 1.738060 
# 
# From -- ./inp_files/415941.got.cif
#   From: 2010.05.17/outbox.cif.g08.bks.cpg/sg2_208_cif.got.tgz:415941.got - 2010.06.03 11:33:40.
