data_PCOD9085522
_publ_section_title
;
Structure prediction by ZEFSAII (Michael W. Deem and Ramdas Pophale) SiO2 
 PCOD9085522
Probable space group: P -1
;
_chemical_formula_sum "Si O2"
_cell_formula_units_Z 16
_cell_length_a 7.346344
_cell_length_b 11.607924
_cell_length_c 14.764228
_cell_angle_alpha 128.787664
_cell_angle_beta 138.954512
_cell_angle_gamma 53.138308
_cell_volume 624.139162
_symmetry_space_group_name_H-M "P -1"
_symmetry_group_IT_number 2
_symmetry_cell_setting 'triclinic'
loop_
_space_group_symop_operation_xyz
x,y,z
-x,-y,-z
loop_
_atom_site_type_symbol
_atom_site_label
_atom_site_fract_x
_atom_site_fract_y
_atom_site_fract_z
Si Si1 0.878937 0.636158 0.951739
Si Si2 0.760063 0.128216 0.572746
Si Si3 0.202923 0.756181 0.784809
Si Si4 0.134042 0.577891 0.309317
Si Si5 0.232668 0.593188 0.550896
Si Si6 0.695018 0.118375 0.939244
Si Si7 0.338429 0.899280 0.671112
Si Si8 0.807346 0.100952 0.775687
O O1 0.539261 0.701025 0.860147
O O2 0.965045 0.550863 0.846582
O O3 0.000000 0.500000 0.000000
O O4 0.999282 0.779243 0.089566
O O5 0.938393 0.255504 0.681462
O O6 0.563480 0.123809 0.408999
O O7 0.644975 0.133589 0.634330
O O8 0.000877 0.970922 0.581096
O O9 0.085488 0.643492 0.617705
O O10 0.247043 0.753835 0.908927
O O11 0.016339 0.928567 0.776338
O O12 0.060782 0.575906 0.386753
O O13 0.481388 0.542273 0.406921
O O14 0.366766 0.734876 0.641301
O O15 0.625324 0.150267 0.823375
O O16 0.482979 0.013320 0.836161
O O17 0.000000 0.000000 0.000000
#
# Coordination Sequence:
#
# PCOD9085522 Si02
#       8
#     2   2   2   2   2   2   2   2
#     4  11  21  34  61  85 114 146 191 241 284 332
#     4  10  19  35  61  85 113 140 194 244 284 328
#     4  10  21  36  58  81 109 149 195 242 273 333
#     4   9  19  32  52  90 111 137 180 241 286 330
#     4   9  18  33  59  82 108 142 187 240 282 321
#     4  10  24  36  54  83 119 153 191 231 284 345
#     4  10  20  35  59  88 109 147 191 244 282 331
#     4  11  21  37  55  85 113 153 186 233 288 338
#
# _framework density 25.635308999999999
#
# number of rings (size 3 to 8) (size 9 to 14) (size 15 to 20)
#    0.000    2.000    2.500    1.125    7.000    0.500 
#    0.000    0.625    0.000    0.750    3.250    0.000 
#    0.000    0.000    0.000    0.000    0.000    0.000 
#
# Total GULP energy -89213.658330 kJ/mol
# GULP energy per Si atom -5575.853646 kJ/mol
# Density = 2.557696 g / cm^3
# Si number density = 25.635309 Si / 1000 Ang^3
#
#
#
# Elastic Constant Matrix: (Units=GPa)
#
#
# Indices 1 2 3 4 5 6 
#
# 1 50.0350 10.5890 38.5665 1.4449 -33.7448 2.5975
# 2 10.5890 80.1654 18.3948 11.0298 -0.5601 -5.3847
# 3 38.5665 18.3948 147.0824 17.3439 -53.0255 1.5965
# 4 1.4449 11.0298 17.3439 36.2489 1.9699 -11.4660
# 5 -33.7448 -0.5601 -53.0255 1.9699 63.7105 -5.5907
# 6 2.5975 -5.3847 1.5965 -11.4660 -5.5907 12.0605
#
#
#
# Elastic Compliance Matrix: (Units=1/GPa)
#
#
# Indices 1 2 3 4 5 6 
#
# 1 0.033176 -0.003729 -0.002736 -0.000222 0.015124 -0.001648
# 2 -0.003729 0.013841 -0.001567 -0.001847 -0.002734 0.004167
# 3 -0.002736 -0.001567 0.011361 -0.006634 0.007820 -0.004295
# 4 -0.000222 -0.001847 -0.006634 0.044396 -0.003455 0.040707
# 5 0.015124 -0.002734 0.007820 -0.003455 0.030778 0.005469
# 6 -0.001648 0.004167 -0.004295 0.040707 0.005469 0.126935
#
#
# Mechanical properties :
#
#
# Convention : Reuss Voigt Hill
#
# Bulk Modulus (GPa) = 23.63253 45.82037 34.72645
# Shear Modulus (GPa) = 17.20254 36.38614 26.79434
#
# Velocity S-wave (km/s) = 2.59327 3.77155 3.23648
# Velocity P-wave (km/s) = 4.26679 6.07279 5.24806
#
# Compressibility (1/GPa) = 0.04231456
#
# Stress axis : x y z
#
# Youngs Moduli (GPa) = 30.14195 72.24864 88.02420
#
# Poissons Ratio (x) = 0.26941 0.24086
# Poissons Ratio (y) = 0.11240 0.13789
# Poissons Ratio (z) = 0.08248 0.11318
#
# Static dielectric constant tensor:
#      x y z
#    x 2.157210 0.070170 -0.148500 
#    y 0.070170 1.928910 -0.071120 
#    z -0.148500 -0.071120 2.009290 
# 
# From -- ./inp_files/295666.got.cif
#   From: 2010.05.17/outbox.cif.g08.bks.cpg/sg2_148_cif.got.tgz:295666.got - 2010.06.03 11:33:40.
