data_PCOD9085606
_publ_section_title
;
Structure prediction by ZEFSAII (Michael W. Deem and Ramdas Pophale) SiO2 
 PCOD9085606
Probable space group: P -1
;
_chemical_formula_sum "Si O2"
_cell_formula_units_Z 16
_cell_length_a 19.555961
_cell_length_b 8.227650
_cell_length_c 11.764382
_cell_angle_alpha 103.674825
_cell_angle_beta 39.094111
_cell_angle_gamma 75.084225
_cell_volume 805.424226
_symmetry_space_group_name_H-M "P -1"
_symmetry_group_IT_number 2
_symmetry_cell_setting 'triclinic'
loop_
_space_group_symop_operation_xyz
x,y,z
-x,-y,-z
loop_
_atom_site_type_symbol
_atom_site_label
_atom_site_fract_x
_atom_site_fract_y
_atom_site_fract_z
Si Si1 0.747927 0.279468 0.056086
Si Si2 0.147645 0.940605 0.759807
Si Si3 0.779829 0.690809 0.888328
Si Si4 0.968346 0.802190 0.279988
Si Si5 0.576980 0.476563 0.531942
Si Si6 0.541053 0.900542 0.561462
Si Si7 0.852101 0.705557 0.059529
Si Si8 0.919221 0.838608 0.601327
O O1 0.685062 0.283313 0.258830
O O2 0.579785 0.459631 0.239323
O O3 0.852994 0.324315 0.956178
O O4 0.863656 0.038027 0.794066
O O5 0.137131 0.122764 0.876223
O O6 0.120760 0.008664 0.673942
O O7 0.308423 0.665129 0.533184
O O8 0.000000 0.000000 0.000000
O O9 0.830343 0.770198 0.743523
O O10 0.896131 0.407153 0.674316
O O11 0.813062 0.734557 0.978624
O O12 0.596689 0.859488 0.150268
O O13 0.886978 0.914119 0.524704
O O14 0.994388 0.579588 0.177486
O O15 0.537718 0.708490 0.574558
O O16 0.715512 0.773474 0.322791
O O17 0.500000 0.000000 0.500000
#
# Coordination Sequence:
#
# PCOD9085606 Si02
#       8
#     2   2   2   2   2   2   2   2
#     4  11  21  38  62  91 124 158 200 259 299 350
#     4  12  24  39  60  89 126 160 195 253 313 360
#     4   9  19  34  61  92 120 158 200 253 307 347
#     4  11  23  39  59  91 126 163 207 238 305 367
#     4  11  23  37  64  94 123 154 203 254 310 352
#     4  10  19  35  61  92 122 150 200 262 300 348
#     4  10  21  37  61  90 118 156 205 258 298 357
#     4  10  20  36  57  89 127 159 203 245 298 364
#
# _framework density 19.865310000000001
#
# number of rings (size 3 to 8) (size 9 to 14) (size 15 to 20)
#    0.000    1.500    3.750    1.500    5.250    0.000 
#    0.000    0.625    0.000    0.750    0.000    0.000 
#    0.000    0.000    0.000    0.000    0.000    0.000 
#
# Total GULP energy -89156.219527 kJ/mol
# GULP energy per Si atom -5572.263720 kJ/mol
# Density = 1.982010 g / cm^3
# Si number density = 19.865310 Si / 1000 Ang^3
#
#
#
# Elastic Constant Matrix: (Units=GPa)
#
#
# Indices 1 2 3 4 5 6 
#
# 1 50.8626 43.3762 34.4124 3.4083 -2.2467 0.0230
# 2 43.3762 101.4848 29.9674 7.1317 1.2687 -18.2567
# 3 34.4124 29.9674 124.0115 6.0243 16.3328 -2.7578
# 4 3.4083 7.1317 6.0243 20.5002 2.6812 6.5983
# 5 -2.2467 1.2687 16.3328 2.6812 29.9017 3.5723
# 6 0.0230 -18.2567 -2.7578 6.5983 3.5723 36.1384
#
#
#
# Elastic Compliance Matrix: (Units=1/GPa)
#
#
# Indices 1 2 3 4 5 6 
#
# 1 0.040201 -0.016976 -0.008740 0.004077 0.009457 -0.010948
# 2 -0.016976 0.019458 0.001084 -0.007567 -0.003405 0.011642
# 3 -0.008740 0.001084 0.011307 -0.002136 -0.006985 0.002496
# 4 0.004077 -0.007567 -0.002136 0.056097 -0.001554 -0.014077
# 5 0.009457 -0.003405 -0.006985 -0.001554 0.038949 -0.005826
# 6 -0.010948 0.011642 0.002496 -0.014077 -0.005826 0.036896
#
#
# Mechanical properties :
#
#
# Convention : Reuss Voigt Hill
#
# Bulk Modulus (GPa) = 46.08204 54.65233 50.36719
# Shear Modulus (GPa) = 19.27481 28.54824 23.91152
#
# Velocity S-wave (km/s) = 3.11830 3.79501 3.47318
# Velocity P-wave (km/s) = 6.01770 6.83915 6.44153
#
# Compressibility (1/GPa) = 0.02170043
#
# Stress axis : x y z
#
# Youngs Moduli (GPa) = 24.87501 51.39266 88.44385
#
# Poissons Ratio (x) = 0.87243 0.77304
# Poissons Ratio (y) = 0.42227 -0.09584
# Poissons Ratio (z) = 0.21742 -0.05569
#
# Static dielectric constant tensor:
#      x y z
#    x 1.753010 0.013770 -0.023200 
#    y 0.013770 1.789610 0.032790 
#    z -0.023200 0.032790 1.707820 
# 
# From -- ./inp_files/469434.got.cif
#   From: 2010.05.17/outbox.cif.g08.bks.cpg/sg2_235_cif.got.tgz:469434.got - 2010.06.03 11:33:40.
