data_PCOD9085445
_publ_section_title
;
Structure prediction by ZEFSAII (Michael W. Deem and Ramdas Pophale) SiO2 
 PCOD9085445
Probable space group: P -1
;
_chemical_formula_sum "Si O2"
_cell_formula_units_Z 16
_cell_length_a 13.561763
_cell_length_b 7.985051
_cell_length_c 9.361019
_cell_angle_alpha 98.170006
_cell_angle_beta 64.093352
_cell_angle_gamma 127.260275
_cell_volume 715.045295
_symmetry_space_group_name_H-M "P -1"
_symmetry_group_IT_number 2
_symmetry_cell_setting 'triclinic'
loop_
_space_group_symop_operation_xyz
x,y,z
-x,-y,-z
loop_
_atom_site_type_symbol
_atom_site_label
_atom_site_fract_x
_atom_site_fract_y
_atom_site_fract_z
Si Si1 0.618855 0.007623 0.839613
Si Si2 0.456657 0.842439 0.641607
Si Si3 0.294290 0.362533 0.628369
Si Si4 0.690989 0.685600 0.711944
Si Si5 0.611268 0.718780 0.167337
Si Si6 0.160692 0.254014 0.104482
Si Si7 0.021338 0.243223 0.932836
Si Si8 0.236852 0.801480 0.974791
O O1 0.578209 0.984300 0.697418
O O2 0.644818 0.828998 0.810624
O O3 0.500000 0.000000 0.000000
O O4 0.747469 0.211540 0.866656
O O5 0.419474 0.616782 0.589583
O O6 0.316922 0.754464 0.810143
O O7 0.500000 0.000000 0.500000
O O8 0.270945 0.273164 0.473572
O O9 0.332597 0.252317 0.703806
O O10 0.154146 0.322845 0.763294
O O11 0.551685 0.442306 0.772181
O O12 0.812989 0.728402 0.741207
O O13 0.672372 0.944750 0.089265
O O14 0.682179 0.621626 0.036529
O O15 0.079233 0.312397 0.067338
O O16 0.079180 0.011308 0.069924
O O17 0.919314 0.298844 0.970049
#
# Coordination Sequence:
#
# PCOD9085445 Si02
#       8
#     2   2   2   2   2   2   2   2
#     4  10  22  39  59  88 116 156 199 238 298 352
#     4  11  24  42  58  88 123 158 193 246 303 347
#     4  11  24  35  59  90 123 153 198 244 289 355
#     4  12  20  34  59  92 121 149 192 249 298 336
#     4  10  19  35  60  91 116 149 196 242 297 347
#     4   9  19  34  57  87 119 151 190 249 287 348
#     4   9  19  39  56  88 116 155 204 228 293 352
#     4  10  21  40  66  84 121 161 192 242 294 352
#
# _framework density 22.376204000000001
#
# number of rings (size 3 to 8) (size 9 to 14) (size 15 to 20)
#    0.000    1.750    3.750    2.250    1.750    1.000 
#    0.000    0.000    0.000    1.500    0.000    0.000 
#    0.000    0.000    0.000    0.000    0.000    0.000 
#
# Total GULP energy -89136.677814 kJ/mol
# GULP energy per Si atom -5571.042363 kJ/mol
# Density = 2.232527 g / cm^3
# Si number density = 22.376204 Si / 1000 Ang^3
#
#
#
# Elastic Constant Matrix: (Units=GPa)
#
#
# Indices 1 2 3 4 5 6 
#
# 1 122.8483 24.8560 50.8938 21.7869 26.2041 26.4008
# 2 24.8560 55.0202 32.5192 15.7146 3.2808 13.1943
# 3 50.8938 32.5192 124.9505 28.5912 32.4266 11.5549
# 4 21.7869 15.7146 28.5912 30.1845 13.2877 4.4685
# 5 26.2041 3.2808 32.4266 13.2877 48.1032 9.8971
# 6 26.4008 13.1943 11.5549 4.4685 9.8971 30.5628
#
#
#
# Elastic Compliance Matrix: (Units=1/GPa)
#
#
# Indices 1 2 3 4 5 6 
#
# 1 0.012235 -0.000880 -0.002587 -0.003786 -0.002179 -0.007952
# 2 -0.000880 0.026240 -0.005126 -0.009762 0.006775 -0.009397
# 3 -0.002587 -0.005126 0.012976 -0.005475 -0.005943 0.002267
# 4 -0.003786 -0.009762 -0.005475 0.048970 -0.008144 0.005032
# 5 -0.002179 0.006775 -0.005943 -0.008144 0.029223 -0.007069
# 6 -0.007952 -0.009397 0.002267 0.005032 -0.007069 0.044341
#
#
# Mechanical properties :
#
#
# Convention : Reuss Voigt Hill
#
# Bulk Modulus (GPa) = 29.18498 57.70633 43.44565
# Shear Modulus (GPa) = 24.67969 34.74007 29.70988
#
# Velocity S-wave (km/s) = 3.32466 3.94451 3.64778
# Velocity P-wave (km/s) = 5.27343 6.82574 6.09917
#
# Compressibility (1/GPa) = 0.03426420
#
# Stress axis : x y z
#
# Youngs Moduli (GPa) = 81.73162 38.10963 77.06245
#
# Poissons Ratio (x) = 0.03354 0.19939
# Poissons Ratio (y) = 0.07192 0.39505
# Poissons Ratio (z) = 0.21147 0.19536
#
# Static dielectric constant tensor:
#      x y z
#    x 1.905420 -0.049280 0.027000 
#    y -0.049280 1.912540 0.007940 
#    z 0.027000 0.007940 1.877550 
# 
# From -- ./inp_files/298775.got.cif
#   From: 2010.05.17/outbox.cif.g08.bks.cpg/sg2_150_cif.got.tgz:298775.got - 2010.06.03 11:33:40.
