data_PCOD9085871
_publ_section_title
;
Structure prediction by ZEFSAII (Michael W. Deem and Ramdas Pophale) SiO2 
 PCOD9085871
Probable space group: P -1
;
_chemical_formula_sum "Si O2"
_cell_formula_units_Z 14
_cell_length_a 7.809109
_cell_length_b 18.975365
_cell_length_c 8.968370
_cell_angle_alpha 37.653777
_cell_angle_beta 106.552191
_cell_angle_gamma 129.126218
_cell_volume 561.439777
_symmetry_space_group_name_H-M "P -1"
_symmetry_group_IT_number 2
_symmetry_cell_setting 'triclinic'
loop_
_space_group_symop_operation_xyz
x,y,z
-x,-y,-z
loop_
_atom_site_type_symbol
_atom_site_label
_atom_site_fract_x
_atom_site_fract_y
_atom_site_fract_z
Si Si1 0.615839 0.548133 0.660649
Si Si2 0.520460 0.938548 0.456009
Si Si3 0.014997 0.378258 0.146333
Si Si4 0.970343 0.095355 0.946875
Si Si5 0.456207 0.860938 0.075674
Si Si6 0.171199 0.528182 0.626547
Si Si7 0.638698 0.796778 0.934124
O O1 0.737950 0.569359 0.814681
O O2 0.841270 0.716191 0.356908
O O3 0.386745 0.533457 0.634881
O O4 0.521099 0.390091 0.821326
O O5 0.619796 0.861624 0.668953
O O6 0.234122 0.797232 0.573786
O O7 0.500000 0.000000 0.500000
O O8 0.660228 0.080591 0.133663
O O9 0.019924 0.398928 0.935806
O O10 0.000000 0.500000 0.000000
O O11 0.076681 0.099024 0.124738
O O12 0.000000 0.000000 0.000000
O O13 0.692707 0.003011 0.991935
O O14 0.303816 0.707809 0.401367
O O15 0.534018 0.816853 0.022372
O O16 0.000000 0.500000 0.500000
#
# Coordination Sequence:
#
# PCOD9085871 Si02
#       7
#     2   2   2   2   2   2   2
#     4  12  23  41  72 100 141 180 231 288 341 415
#     4  10  20  39  69  96 132 181 224 275 340 414
#     4  12  26  45  71 101 139 181 233 281 348 421
#     4  10  19  35  64 102 132 182 223 280 341 412
#     4  10  21  42  68 100 138 181 229 286 343 409
#     4  12  27  45  68 105 140 180 233 288 344 404
#     4  10  20  35  67 105 130 180 230 273 342 415
#
# _framework density 24.935887999999998
#
# number of rings (size 3 to 8) (size 9 to 14) (size 15 to 20)
#    0.000    1.143    5.714    2.571    0.000    0.000 
#    0.000    0.714    3.143    8.571    0.000    0.000 
#    0.000    0.000    0.000    0.000    0.000    0.000 
#
# Total GULP energy -78265.692774 kJ/mol
# GULP energy per Si atom -5590.406627 kJ/mol
# Density = 2.487913 g / cm^3
# Si number density = 24.935888 Si / 1000 Ang^3
#
#
#
# Elastic Constant Matrix: (Units=GPa)
#
#
# Indices 1 2 3 4 5 6 
#
# 1 91.5668 46.0894 28.6857 12.6078 25.0286 21.3918
# 2 46.0894 160.2385 38.3446 1.8087 24.2796 21.8123
# 3 28.6857 38.3446 115.2678 6.2237 32.8894 1.0182
# 4 12.6078 1.8087 6.2237 53.2881 3.9728 13.8242
# 5 25.0286 24.2796 32.8894 3.9728 33.1753 8.7124
# 6 21.3918 21.8123 1.0182 13.8242 8.7124 44.7661
#
#
#
# Elastic Compliance Matrix: (Units=1/GPa)
#
#
# Indices 1 2 3 4 5 6 
#
# 1 0.015880 -0.002601 -0.000623 -0.001918 -0.008146 -0.004130
# 2 -0.002601 0.007981 -0.001540 0.001354 -0.001811 -0.002676
# 3 -0.000623 -0.001540 0.012747 -0.001307 -0.011792 0.003457
# 4 -0.001918 0.001354 -0.001307 0.020905 0.000915 -0.006347
# 5 -0.008146 -0.001811 -0.011792 0.000915 0.050527 -0.005073
# 6 -0.004130 -0.002676 0.003457 -0.006347 -0.005073 0.028485
#
#
# Mechanical properties :
#
#
# Convention : Reuss Voigt Hill
#
# Bulk Modulus (GPa) = 36.92573 65.92360 51.42466
# Shear Modulus (GPa) = 32.24168 43.17612 37.70890
#
# Velocity S-wave (km/s) = 3.59971 4.16563 3.89296
# Velocity P-wave (km/s) = 5.66724 7.04494 6.39331
#
# Compressibility (1/GPa) = 0.02708139
#
# Stress axis : x y z
#
# Youngs Moduli (GPa) = 62.97042 125.30124 78.44760
#
# Poissons Ratio (x) = 0.32586 0.04884
# Poissons Ratio (y) = 0.16376 0.12084
# Poissons Ratio (z) = 0.03921 0.19301
#
# Static dielectric constant tensor:
#      x y z
#    x 2.081860 -0.010600 -0.010830 
#    y -0.010600 1.972420 0.022460 
#    z -0.010830 0.022460 2.032010 
# 
# From -- ./inp_files/320564.got.cif
#   From: 2010.05.17/outbox.cif.g08.bks.cpg/sg2_161_cif.got.tgz:320564.got - 2010.06.03 11:33:40.
