data_PCOD9085317
_publ_section_title
;
Structure prediction by ZEFSAII (Michael W. Deem and Ramdas Pophale) SiO2 
 PCOD9085317
Probable space group: P -1
;
_chemical_formula_sum "Si O2"
_cell_formula_units_Z 16
_cell_length_a 12.623336
_cell_length_b 9.224440
_cell_length_c 11.545751
_cell_angle_alpha 48.341909
_cell_angle_beta 110.378061
_cell_angle_gamma 75.252362
_cell_volume 677.972798
_symmetry_space_group_name_H-M "P -1"
_symmetry_group_IT_number 2
_symmetry_cell_setting 'triclinic'
loop_
_space_group_symop_operation_xyz
x,y,z
-x,-y,-z
loop_
_atom_site_type_symbol
_atom_site_label
_atom_site_fract_x
_atom_site_fract_y
_atom_site_fract_z
Si Si1 0.124508 0.641061 0.118111
Si Si2 0.751962 0.806951 0.027596
Si Si3 0.627231 0.984233 0.490661
Si Si4 0.767245 0.469060 0.527042
Si Si5 0.718604 0.166573 0.025023
Si Si6 0.989003 0.331442 0.497258
Si Si7 0.461679 0.889980 0.872039
Si Si8 0.242946 0.924043 0.317113
O O1 0.216306 0.333390 0.293003
O O2 0.124352 0.661846 0.247190
O O3 0.237326 0.675425 0.090099
O O4 0.947790 0.861174 0.884047
O O5 0.919454 0.501017 0.264137
O O6 0.745742 0.986428 0.023980
O O7 0.714946 0.946234 0.818262
O O8 0.625352 0.795085 0.012330
O O9 0.558962 0.119546 0.267255
O O10 0.683121 0.104777 0.518478
O O11 0.500000 0.000000 0.500000
O O12 0.866553 0.345923 0.512475
O O13 0.663731 0.786237 0.320536
O O14 0.681935 0.363802 0.550496
O O15 0.565428 0.266082 0.976625
O O16 0.846756 0.968749 0.279489
O O17 0.000000 0.500000 0.500000
#
# Coordination Sequence:
#
# PCOD9085317 Si02
#       8
#     2   2   2   2   2   2   2   2
#     4  11  23  41  69  98 122 165 214 263 315 369
#     4  11  22  37  64  95 133 164 206 255 321 371
#     4  11  26  48  61  89 132 173 212 255 312 380
#     4  11  21  36  68 100 128 157 210 266 313 367
#     4  11  21  39  65 101 126 156 208 271 315 370
#     4  10  19  35  59  98 132 159 195 266 322 364
#     4  11  24  42  65  92 132 173 205 255 319 377
#     4  12  23  41  68  95 127 165 215 260 313 373
#
# _framework density 23.599765999999999
#
# number of rings (size 3 to 8) (size 9 to 14) (size 15 to 20)
#    0.000    1.000    6.250    2.625    1.750    1.500 
#    0.000    2.500    0.000    0.000    0.000    0.000 
#    0.000    0.000    0.000    0.000    0.000    0.000 
#
# Total GULP energy -89432.775009 kJ/mol
# GULP energy per Si atom -5589.548438 kJ/mol
# Density = 2.354605 g / cm^3
# Si number density = 23.599766 Si / 1000 Ang^3
#
#
#
# Elastic Constant Matrix: (Units=GPa)
#
#
# Indices 1 2 3 4 5 6 
#
# 1 112.0532 9.1020 10.0356 -3.1644 -6.2510 13.8621
# 2 9.1020 67.0009 29.9301 17.2139 5.6184 10.5761
# 3 10.0356 29.9301 81.1726 0.5269 -5.4665 12.3744
# 4 -3.1644 17.2139 0.5269 18.5083 4.4858 3.8595
# 5 -6.2510 5.6184 -5.4665 4.4858 31.1277 4.0404
# 6 13.8621 10.5761 12.3744 3.8595 4.0404 24.5246
#
#
#
# Elastic Compliance Matrix: (Units=1/GPa)
#
#
# Indices 1 2 3 4 5 6 
#
# 1 0.010069 -0.001929 0.000572 0.004151 0.002683 -0.006243
# 2 -0.001929 0.025557 -0.009057 -0.022820 -0.003140 -0.001252
# 3 0.000572 -0.009057 0.016897 0.008431 0.004410 -0.006997
# 4 0.004151 -0.022820 0.008431 0.078404 -0.003765 -0.008478
# 5 0.002683 -0.003140 0.004410 -0.003765 0.035541 -0.007650
# 6 -0.006243 -0.001252 -0.006997 -0.008478 -0.007650 0.050969
#
#
# Mechanical properties :
#
#
# Convention : Reuss Voigt Hill
#
# Bulk Modulus (GPa) = 31.55188 39.81801 35.68495
# Shear Modulus (GPa) = 20.09390 28.90938 24.50164
#
# Velocity S-wave (km/s) = 2.92112 3.50378 3.22563
# Velocity P-wave (km/s) = 4.97753 5.76866 5.38764
#
# Compressibility (1/GPa) = 0.03169383
#
# Stress axis : x y z
#
# Youngs Moduli (GPa) = 99.31387 39.12810 59.18125
#
# Poissons Ratio (x) = 0.07550 -0.03386
# Poissons Ratio (y) = 0.19162 0.53603
# Poissons Ratio (z) = -0.05681 0.35440
#
# Static dielectric constant tensor:
#      x y z
#    x 2.129940 0.024050 0.024520 
#    y 0.024050 1.884220 -0.019790 
#    z 0.024520 -0.019790 1.903830 
# 
# From -- ./inp_files/184163.got.cif
#   From: 2010.05.17/outbox.cif.g08.bks.cpg/sg2_93_cif.got.tgz:184163.got - 2010.06.03 11:33:40.
