data_PCOD9085367
_publ_section_title
;
Structure prediction by ZEFSAII (Michael W. Deem and Ramdas Pophale) SiO2 
 PCOD9085367
Probable space group: P -1
;
_chemical_formula_sum "Si O2"
_cell_formula_units_Z 14
_cell_length_a 20.685070
_cell_length_b 9.499144
_cell_length_c 7.223230
_cell_angle_alpha 81.132007
_cell_angle_beta 103.708003
_cell_angle_gamma 34.671122
_cell_volume 608.142545
_symmetry_space_group_name_H-M "P -1"
_symmetry_group_IT_number 2
_symmetry_cell_setting 'triclinic'
loop_
_space_group_symop_operation_xyz
x,y,z
-x,-y,-z
loop_
_atom_site_type_symbol
_atom_site_label
_atom_site_fract_x
_atom_site_fract_y
_atom_site_fract_z
Si Si1 0.361290 0.734391 0.112782
Si Si2 0.403014 0.482348 0.542982
Si Si3 0.368432 0.181436 0.132514
Si Si4 0.959191 0.220667 0.118239
Si Si5 0.983450 0.860247 0.242874
Si Si6 0.170500 0.353025 0.750130
Si Si7 0.670178 0.443719 0.120780
O O1 0.325053 0.705254 0.271469
O O2 0.483357 0.613591 0.287995
O O3 0.417177 0.521630 0.034349
O O4 0.223719 0.091820 0.873392
O O5 0.314576 0.602560 0.639965
O O6 0.499086 0.159495 0.613900
O O7 0.218165 0.477484 0.094323
O O8 0.309420 0.191590 0.923969
O O9 0.401415 0.270675 0.050345
O O10 0.026198 0.131516 0.985737
O O11 0.948394 0.365640 0.232545
O O12 0.027623 0.941473 0.294684
O O13 0.103009 0.521970 0.474009
O O14 0.830171 0.131923 0.192516
#
# Coordination Sequence:
#
# PCOD9085367 Si02
#       7
#     2   2   2   2   2   2   2
#     4  10  23  40  58  82 112 156 193 220 292 333
#     4  10  21  43  59  77 116 154 186 237 278 337
#     4   8  19  39  60  86 112 144 195 229 280 327
#     4   8  18  35  56  86 112 147 184 226 273 342
#     4  10  19  35  60  86 117 144 186 230 284 328
#     4   9  19  38  59  83 112 157 184 220 282 344
#     4  11  22  36  58  92 112 140 191 243 276 330
#
# _framework density 23.020918999999999
#
# number of rings (size 3 to 8) (size 9 to 14) (size 15 to 20)
#    0.857    1.714    0.000    1.286    0.000    3.429 
#   10.286    1.429    0.000    0.000    0.000    0.000 
#    0.000    0.000    0.000    0.000    0.000    0.000 
#
# Total GULP energy -78146.816534 kJ/mol
# GULP energy per Si atom -5581.915467 kJ/mol
# Density = 2.296852 g / cm^3
# Si number density = 23.020919 Si / 1000 Ang^3
#
#
#
# Elastic Constant Matrix: (Units=GPa)
#
#
# Indices 1 2 3 4 5 6 
#
# 1 78.8506 44.7986 42.2142 -13.7149 -27.2389 3.9863
# 2 44.7986 80.6990 37.7822 -12.8603 -24.4972 22.8852
# 3 42.2142 37.7822 107.6489 -21.0099 -43.4713 11.0284
# 4 -13.7149 -12.8603 -21.0099 39.7370 4.2845 -15.5101
# 5 -27.2389 -24.4972 -43.4713 4.2845 34.4160 1.7996
# 6 3.9863 22.8852 11.0284 -15.5101 1.7996 41.0727
#
#
#
# Elastic Compliance Matrix: (Units=1/GPa)
#
#
# Indices 1 2 3 4 5 6 
#
# 1 0.022613 -0.010240 -0.001993 0.004829 0.007200 0.005554
# 2 -0.010240 0.025057 0.001433 -0.001691 0.012512 -0.014540
# 3 -0.001993 0.001433 0.022361 0.006601 0.027143 -0.005306
# 4 0.004829 -0.001691 0.006601 0.033417 0.006218 0.011048
# 5 0.007200 0.012512 0.027143 0.006218 0.078009 -0.016028
# 6 0.005554 -0.014540 -0.005306 0.011048 -0.016028 0.038208
#
#
# Mechanical properties :
#
#
# Convention : Reuss Voigt Hill
#
# Bulk Modulus (GPa) = 20.64754 57.42096 39.03425
# Shear Modulus (GPa) = 19.42438 32.53872 25.98155
#
# Velocity S-wave (km/s) = 2.90792 3.76365 3.36312
# Velocity P-wave (km/s) = 4.50147 6.62449 5.66335
#
# Compressibility (1/GPa) = 0.04843192
#
# Stress axis : x y z
#
# Youngs Moduli (GPa) = 44.22163 39.90842 44.72141
#
# Poissons Ratio (x) = 0.40868 0.08912
# Poissons Ratio (y) = 0.45285 -0.06411
# Poissons Ratio (z) = 0.08812 -0.05721
#
# Static dielectric constant tensor:
#      x y z
#    x 1.922190 -0.013750 0.065020 
#    y -0.013750 1.866410 -0.006510 
#    z 0.065020 -0.006510 1.858960 
# 
# From -- ./inp_files/122519.got.cif
#   From: 2010.05.17/outbox.cif.g08.bks.cpg/sg2_62_cif.got.tgz:122519.got - 2010.06.03 11:33:40.
