data_PCOD9085970
_publ_section_title
;
Structure prediction by ZEFSAII (Michael W. Deem and Ramdas Pophale) SiO2 
 PCOD9085970
Probable space group: P -1
;
_chemical_formula_sum "Si O2"
_cell_formula_units_Z 16
_cell_length_a 16.657639
_cell_length_b 8.420566
_cell_length_c 10.880337
_cell_angle_alpha 132.471603
_cell_angle_beta 137.097848
_cell_angle_gamma 77.614939
_cell_volume 635.981830
_symmetry_space_group_name_H-M "P -1"
_symmetry_group_IT_number 2
_symmetry_cell_setting 'triclinic'
loop_
_space_group_symop_operation_xyz
x,y,z
-x,-y,-z
loop_
_atom_site_type_symbol
_atom_site_label
_atom_site_fract_x
_atom_site_fract_y
_atom_site_fract_z
Si Si1 0.874374 0.514311 0.807140
Si Si2 0.375082 0.013974 0.029284
Si Si3 0.482210 0.290250 0.034856
Si Si4 0.916506 0.421797 0.535133
Si Si5 0.126816 0.263111 0.716987
Si Si6 0.664575 0.859499 0.472555
Si Si7 0.362271 0.692370 0.363767
Si Si8 0.926637 0.907315 0.696797
O O1 0.858855 0.404192 0.597971
O O2 0.735288 0.361068 0.653038
O O3 0.000000 0.500000 0.000000
O O4 0.929494 0.814074 0.014716
O O5 0.405572 0.154902 0.005456
O O6 0.484498 0.207696 0.357423
O O7 0.416514 0.805990 0.941138
O O8 0.212905 0.848631 0.807625
O O9 0.574274 0.599727 0.314089
O O10 0.389583 0.219783 0.770739
O O11 0.939532 0.676403 0.634161
O O12 0.058987 0.429869 0.707766
O O13 0.147488 0.181537 0.565431
O O14 0.268215 0.431931 0.043473
O O15 0.000000 0.000000 0.500000
O O16 0.827625 0.947961 0.697100
O O17 0.636877 0.079072 0.587783
#
# Coordination Sequence:
#
# PCOD9085970 Si02
#       8
#     2   2   2   2   2   2   2   2
#     4  12  21  39  67 100 125 168 221 271 318 384
#     4  10  21  38  66  97 133 161 211 272 329 377
#     4   9  18  34  60  98 132 163 196 268 333 381
#     4  12  24  43  68  99 129 168 218 277 327 377
#     4  12  26  47  66  88 132 184 222 257 325 397
#     4  10  19  35  65  98 128 162 215 262 325 376
#     4  11  23  42  66  99 129 169 218 267 321 391
#     4  12  24  40  65  97 134 172 219 270 319 382
#
# _framework density 25.157952000000002
#
# number of rings (size 3 to 8) (size 9 to 14) (size 15 to 20)
#    0.000    1.000    5.000    3.000    1.750    0.000 
#    0.000    1.250    0.000    0.000    0.000    0.000 
#    0.000    0.000    0.000    0.000    0.000    0.000 
#
# Total GULP energy -89675.124173 kJ/mol
# GULP energy per Si atom -5604.695261 kJ/mol
# Density = 2.510069 g / cm^3
# Si number density = 25.157952 Si / 1000 Ang^3
#
#
#
# Elastic Constant Matrix: (Units=GPa)
#
#
# Indices 1 2 3 4 5 6 
#
# 1 46.5092 9.9338 11.3131 -6.7917 -2.5224 -5.0219
# 2 9.9338 119.7716 25.1006 21.7867 13.8436 15.1470
# 3 11.3131 25.1006 148.7676 1.7560 1.6418 9.4423
# 4 -6.7917 21.7867 1.7560 40.3658 4.7503 3.8799
# 5 -2.5224 13.8436 1.6418 4.7503 27.5462 1.2095
# 6 -5.0219 15.1470 9.4423 3.8799 1.2095 22.4058
#
#
#
# Elastic Compliance Matrix: (Units=1/GPa)
#
#
# Indices 1 2 3 4 5 6 
#
# 1 0.024567 -0.003967 -0.001794 0.005231 0.003103 0.007871
# 2 -0.003967 0.011320 -0.001054 -0.005512 -0.004737 -0.006888
# 3 -0.001794 -0.001054 0.007209 0.000217 0.000020 -0.002766
# 4 0.005231 -0.005512 0.000217 0.028832 -0.001732 -0.000092
# 5 0.003103 -0.004737 0.000020 -0.001732 0.039174 0.002074
# 6 0.007871 -0.006888 -0.002766 -0.000092 0.002074 0.052121
#
#
# Mechanical properties :
#
#
# Convention : Reuss Voigt Hill
#
# Bulk Modulus (GPa) = 33.93791 45.30484 39.62137
# Shear Modulus (GPa) = 26.78444 35.97696 31.38070
#
# Velocity S-wave (km/s) = 3.26644 3.78569 3.53561
# Velocity P-wave (km/s) = 5.26739 6.09556 5.69655
#
# Compressibility (1/GPa) = 0.02946557
#
# Stress axis : x y z
#
# Youngs Moduli (GPa) = 40.70506 88.33690 138.71624
#
# Poissons Ratio (x) = 0.35044 0.24892
# Poissons Ratio (y) = 0.16148 0.14618
# Poissons Ratio (z) = 0.07304 0.09309
#
# Static dielectric constant tensor:
#      x y z
#    x 1.947710 -0.025470 0.000960 
#    y -0.025470 1.998120 -0.017430 
#    z 0.000960 -0.017430 2.037930 
# 
# From -- ./inp_files/404909.got.cif
#   From: 2010.05.17/outbox.cif.g08.bks.cpg/sg2_203_cif.got.tgz:404909.got - 2010.06.03 11:33:40.
