data_PCOD9085055
_publ_section_title
;
Structure prediction by ZEFSAII (Michael W. Deem and Ramdas Pophale) SiO2 
 PCOD9085055
Probable space group: P -1
;
_chemical_formula_sum "Si O2"
_cell_formula_units_Z 14
_cell_length_a 15.154934
_cell_length_b 12.435398
_cell_length_c 20.416059
_cell_angle_alpha 28.360627
_cell_angle_beta 160.763844
_cell_angle_gamma 151.585579
_cell_volume 572.272311
_symmetry_space_group_name_H-M "P -1"
_symmetry_group_IT_number 2
_symmetry_cell_setting 'triclinic'
loop_
_space_group_symop_operation_xyz
x,y,z
-x,-y,-z
loop_
_atom_site_type_symbol
_atom_site_label
_atom_site_fract_x
_atom_site_fract_y
_atom_site_fract_z
Si Si1 0.228848 0.020084 0.387658
Si Si2 0.150101 0.173840 0.590096
Si Si3 0.690681 0.640697 0.261825
Si Si4 0.774452 0.261610 0.797953
Si Si5 0.704147 0.863832 0.777127
Si Si6 0.200927 0.319860 0.319719
Si Si7 0.606902 0.105730 0.183083
O O1 0.552542 0.025693 0.623034
O O2 0.013446 0.780482 0.395366
O O3 0.195213 0.029373 0.281332
O O4 0.153947 0.234214 0.257560
O O5 0.328407 0.325932 0.691741
O O6 0.903641 0.260144 0.339472
O O7 0.333161 0.117856 0.690659
O O8 0.982916 0.914694 0.643332
O O9 0.560380 0.368322 0.298794
O O10 0.516796 0.769736 0.026250
O O11 0.531426 0.346460 0.547918
O O12 0.874905 0.459127 0.820740
O O13 0.607333 0.005885 0.849513
O O14 0.043630 0.222534 0.972088
#
# Coordination Sequence:
#
# PCOD9085055 Si02
#       7
#     2   2   2   2   2   2   2
#     4  10  23  42  59  85 122 156 199 248 292 354
#     4   9  20  35  55  87 123 155 198 242 302 355
#     4  11  21  39  62  84 116 162 199 247 296 354
#     4  10  20  36  61  91 118 154 200 243 303 357
#     4  11  23  39  62  87 117 160 199 241 302 355
#     4   9  20  38  60  86 121 155 194 251 299 351
#     4  10  19  35  58  86 127 154 192 254 295 353
#
# _framework density 24.463878999999999
#
# number of rings (size 3 to 8) (size 9 to 14) (size 15 to 20)
#    0.000    2.000    1.429    1.714    2.000    3.429 
#    0.000    0.000    0.000    3.429    0.000    0.000 
#    0.000    0.000    0.000    0.000    0.000    0.000 
#
# Total GULP energy -78238.541471 kJ/mol
# GULP energy per Si atom -5588.467248 kJ/mol
# Density = 2.440820 g / cm^3
# Si number density = 24.463879 Si / 1000 Ang^3
#
#
#
# Elastic Constant Matrix: (Units=GPa)
#
#
# Indices 1 2 3 4 5 6 
#
# 1 23.9807 -2.7524 -44.6635 -20.1431 -23.8595 25.4397
# 2 -2.7524 36.7700 -17.2579 -3.4545 -1.2001 2.5463
# 3 -44.6635 -17.2579 20.0312 -39.5944 -39.0424 39.2875
# 4 -20.1431 -3.4545 -39.5944 2.6971 -18.5748 24.5634
# 5 -23.8595 -1.2001 -39.0424 -18.5748 21.1525 25.1831
# 6 25.4397 2.5463 39.2875 24.5634 25.1831 7.9231
#
#
#
# Elastic Compliance Matrix: (Units=1/GPa)
#
#
# Indices 1 2 3 4 5 6 
#
# 1 0.016632 -0.001822 -0.003383 -0.009869 -0.003675 0.006234
# 2 -0.001822 0.027456 0.002047 -0.002287 -0.003038 0.003621
# 3 -0.003383 0.002047 0.007666 -0.006887 -0.004341 0.007344
# 4 -0.009869 -0.002287 -0.006887 0.028992 -0.010502 0.010070
# 5 -0.003675 -0.003038 -0.004341 -0.010502 0.019354 0.005349
# 6 0.006234 0.003621 0.007344 0.010070 0.005349 0.020398
#
#
# Mechanical properties :
#
#
# Convention : Reuss Voigt Hill
#
# Bulk Modulus (GPa) = 22.00759 -5.39620 8.30569
# Shear Modulus (GPa) = 35.22181 16.05158 25.63670
#
# Velocity S-wave (km/s) = 3.79852 2.56429 3.24070
# Velocity P-wave (km/s) = 5.31543 2.56064 4.17197
#
# Compressibility (1/GPa) = 0.04543887
#
# Stress axis : x y z
#
# Youngs Moduli (GPa) = 60.12675 36.42220 130.45377
#
# Poissons Ratio (x) = 0.06634 0.44130
# Poissons Ratio (y) = 0.10952 -0.26708
# Poissons Ratio (z) = 0.20340 -0.07457
#
# Static dielectric constant tensor:
#      x y z
#    x 1.974310 0.001380 -0.023040 
#    y 0.001380 1.959730 0.025020 
#    z -0.023040 0.025020 1.997620 
# 
# From -- ./inp_files/154654.got.cif
#   From: 2010.05.17/outbox.cif.g08.bks.cpg/sg2_78_cif.got.tgz:154654.got - 2010.06.03 11:33:40.
