data_PCOD9085369
_publ_section_title
;
Structure prediction by ZEFSAII (Michael W. Deem and Ramdas Pophale) SiO2 
 PCOD9085369
Probable space group: P -1
;
_chemical_formula_sum "Si O2"
_cell_formula_units_Z 16
_cell_length_a 13.632985
_cell_length_b 11.209777
_cell_length_c 24.117480
_cell_angle_alpha 32.480547
_cell_angle_beta 158.713210
_cell_angle_gamma 149.400643
_cell_volume 663.666348
_symmetry_space_group_name_H-M "P -1"
_symmetry_group_IT_number 2
_symmetry_cell_setting 'triclinic'
loop_
_space_group_symop_operation_xyz
x,y,z
-x,-y,-z
loop_
_atom_site_type_symbol
_atom_site_label
_atom_site_fract_x
_atom_site_fract_y
_atom_site_fract_z
Si Si1 0.476294 0.963987 0.933965
Si Si2 0.219632 0.440930 0.677340
Si Si3 0.430385 0.935220 0.730499
Si Si4 0.622856 0.463336 0.786192
Si Si5 0.109630 0.080136 0.322577
Si Si6 0.675673 0.563397 0.146818
Si Si7 0.257690 0.282521 0.563967
Si Si8 0.671310 0.227873 0.633584
O O1 0.138174 0.931499 0.758882
O O2 0.685565 0.222327 0.918832
O O3 0.521833 0.741830 0.015756
O O4 0.500000 0.000000 0.000000
O O5 0.000000 0.500000 0.500000
O O6 0.517923 0.505100 0.774982
O O7 0.284635 0.550631 0.728507
O O8 0.039310 0.154913 0.701127
O O9 0.475557 0.689421 0.867122
O O10 0.086725 0.858260 0.565363
O O11 0.449571 0.124119 0.715294
O O12 0.614200 0.086670 0.716466
O O13 0.838351 0.690667 0.778375
O O14 0.341851 0.396007 0.624255
O O15 0.407520 0.091700 0.504447
O O16 0.999098 0.717232 0.234435
O O17 0.338074 0.504479 0.476035
#
# Coordination Sequence:
#
# PCOD9085369 Si02
#       8
#     2   2   2   2   2   2   2   2
#     4  11  22  43  54  80 121 157 194 235 282 350
#     4  11  20  35  54  84 122 144 181 242 285 342
#     4  10  19  35  60  86 118 154 183 241 294 332
#     4  10  21  37  58  80 112 153 194 237 279 342
#     4  10  21  36  58  83 111 157 193 222 294 341
#     4  11  23  37  55  88 120 146 196 235 285 346
#     4   9  19  36  59  89 116 146 196 235 288 345
#     4  10  20  36  59  90 115 148 190 240 283 343
#
# _framework density 24.108499999999999
#
# number of rings (size 3 to 8) (size 9 to 14) (size 15 to 20)
#    0.000    1.750    2.500    4.875    0.000    4.500 
#    0.000    0.625    0.000    3.750    0.000    0.000 
#    0.000    0.000    0.000    0.000    0.000    0.000 
#
# Total GULP energy -89277.063184 kJ/mol
# GULP energy per Si atom -5579.816449 kJ/mol
# Density = 2.405363 g / cm^3
# Si number density = 24.108500 Si / 1000 Ang^3
#
#
#
# Elastic Constant Matrix: (Units=GPa)
#
#
# Indices 1 2 3 4 5 6 
#
# 1 78.9798 34.5678 -1.4347 -3.9556 20.5487 20.4591
# 2 34.5678 83.8946 26.1128 -25.4373 21.3332 27.7830
# 3 -1.4347 26.1128 47.5440 -19.7929 9.2301 3.1773
# 4 -3.9556 -25.4373 -19.7929 50.0128 -6.3529 -2.6726
# 5 20.5487 21.3332 9.2301 -6.3529 28.7816 -7.6109
# 6 20.4591 27.7830 3.1773 -2.6726 -7.6109 40.9138
#
#
#
# Elastic Compliance Matrix: (Units=1/GPa)
#
#
# Indices 1 2 3 4 5 6 
#
# 1 0.022796 -0.000480 0.006476 0.000488 -0.022024 -0.015641
# 2 -0.000480 0.031762 -0.007214 0.008680 -0.025569 -0.024957
# 3 0.006476 -0.007214 0.029958 0.007648 -0.007615 -0.001583
# 4 0.000488 0.008680 0.007648 0.026531 -0.004944 -0.005919
# 5 -0.022024 -0.025569 -0.007615 -0.004944 0.082400 0.043973
# 6 -0.015641 -0.024957 -0.001583 -0.005919 0.043973 0.057127
#
#
# Mechanical properties :
#
#
# Convention : Reuss Voigt Hill
#
# Bulk Modulus (GPa) = 12.18329 36.54558 24.36443
# Shear Modulus (GPa) = 17.83369 34.01981 25.92675
#
# Velocity S-wave (km/s) = 2.72274 3.76055 3.28292
# Velocity P-wave (km/s) = 3.86638 5.83501 4.94956
#
# Compressibility (1/GPa) = 0.08207965
#
# Stress axis : x y z
#
# Youngs Moduli (GPa) = 43.86827 31.48457 33.37962
#
# Poissons Ratio (x) = 0.01512 -0.21616
# Poissons Ratio (y) = 0.02106 0.24079
# Poissons Ratio (z) = -0.28408 0.22712
#
# Static dielectric constant tensor:
#      x y z
#    x 1.901110 -0.013800 -0.047510 
#    y -0.013800 1.973610 -0.046060 
#    z -0.047510 -0.046060 2.060540 
# 
# From -- ./inp_files/571173.got.cif
#   From: 2010.05.17/outbox.cif.g08.bks.cpg/sg2_286_cif.got.tgz:571173.got - 2010.06.03 11:33:40.
