data_PCOD9085798
_publ_section_title
;
Structure prediction by ZEFSAII (Michael W. Deem and Ramdas Pophale) SiO2 
 PCOD9085798
Probable space group: P -1
;
_chemical_formula_sum "Si O2"
_cell_formula_units_Z 16
_cell_length_a 13.472616
_cell_length_b 7.257750
_cell_length_c 9.768599
_cell_angle_alpha 94.841985
_cell_angle_beta 85.872658
_cell_angle_gamma 141.821363
_cell_volume 588.281244
_symmetry_space_group_name_H-M "P -1"
_symmetry_group_IT_number 2
_symmetry_cell_setting 'triclinic'
loop_
_space_group_symop_operation_xyz
x,y,z
-x,-y,-z
loop_
_atom_site_type_symbol
_atom_site_label
_atom_site_fract_x
_atom_site_fract_y
_atom_site_fract_z
Si Si1 0.836020 0.768194 0.650653
Si Si2 0.881380 0.714530 0.162397
Si Si3 0.376773 0.094427 0.066486
Si Si4 0.850459 0.367782 0.712684
Si Si5 0.067800 0.803887 0.928220
Si Si6 0.334816 0.581138 0.599923
Si Si7 0.493153 0.346471 0.797469
Si Si8 0.334778 0.005306 0.527903
O O1 0.870964 0.605716 0.671696
O O2 0.801815 0.731114 0.489870
O O3 0.663136 0.551360 0.723460
O O4 0.971258 0.085396 0.731260
O O5 0.717034 0.461115 0.243597
O O6 0.889936 0.933488 0.116789
O O7 0.915824 0.625669 0.030533
O O8 0.488605 0.418969 0.136595
O O9 0.304029 0.870876 0.185117
O O10 0.463218 0.167109 0.919183
O O11 0.216919 0.957059 0.010972
O O12 0.811719 0.182136 0.574659
O O13 0.008342 0.577084 0.802961
O O14 0.337581 0.790931 0.549593
O O15 0.502308 0.728018 0.558938
O O16 0.357906 0.135979 0.679663
#
# Coordination Sequence:
#
# PCOD9085798 Si02
#       8
#     2   2   2   2   2   2   2   2
#     4   9  18  39  60  91 119 147 201 249 287 357
#     4  10  19  35  63  89 115 159 195 248 297 344
#     4  11  23  40  60  87 120 164 195 242 302 348
#     4  10  22  39  62  85 122 157 193 251 293 347
#     4  10  22  39  57  89 124 150 205 246 286 357
#     4   9  18  33  63  90 119 150 193 251 301 340
#     4  10  22  39  62  84 123 158 198 247 290 353
#     4   9  20  40  56  91 123 150 199 245 289 359
#
# _framework density 27.197875
#
# number of rings (size 3 to 8) (size 9 to 14) (size 15 to 20)
#    0.000    2.250    1.250    1.500    1.750    3.000 
#    0.000    1.875    2.750    0.000    0.000    0.000 
#    0.000    0.000    0.000    0.000    0.000    0.000 
#
# Total GULP energy -89575.991386 kJ/mol
# GULP energy per Si atom -5598.499462 kJ/mol
# Density = 2.713597 g / cm^3
# Si number density = 27.197875 Si / 1000 Ang^3
#
#
#
# Elastic Constant Matrix: (Units=GPa)
#
#
# Indices 1 2 3 4 5 6 
#
# 1 44.2031 15.2100 8.9575 14.5972 7.2743 2.2273
# 2 15.2100 90.8006 45.8384 34.2303 -5.5645 -6.2690
# 3 8.9575 45.8384 125.7094 34.1135 -7.4115 0.4435
# 4 14.5972 34.2303 34.1135 73.6713 6.0054 -7.5540
# 5 7.2743 -5.5645 -7.4115 6.0054 30.6405 -7.6731
# 6 2.2273 -6.2690 0.4435 -7.5540 -7.6731 27.6574
#
#
#
# Elastic Compliance Matrix: (Units=1/GPa)
#
#
# Indices 1 2 3 4 5 6 
#
# 1 0.026795 -0.004171 0.000085 -0.003399 -0.007998 -0.006252
# 2 -0.004171 0.016126 -0.004008 -0.004790 0.004918 0.004112
# 3 0.000085 -0.004008 0.010432 -0.003299 0.002069 -0.001409
# 4 -0.003399 -0.004790 -0.003299 0.018640 -0.003685 0.003310
# 5 -0.007998 0.004918 0.002069 -0.003685 0.039581 0.011700
# 6 -0.006252 0.004112 -0.001409 0.003310 0.011700 0.041765
#
#
# Mechanical properties :
#
#
# Convention : Reuss Voigt Hill
#
# Bulk Modulus (GPa) = 26.90765 44.52498 35.71632
# Shear Modulus (GPa) = 27.48530 39.10766 33.29648
#
# Velocity S-wave (km/s) = 3.18239 3.79607 3.50270
# Velocity P-wave (km/s) = 4.83924 5.96824 5.43314
#
# Compressibility (1/GPa) = 0.03716415
#
# Stress axis : x y z
#
# Youngs Moduli (GPa) = 37.32081 62.01179 95.85680
#
# Poissons Ratio (x) = 0.25868 -0.00813
# Poissons Ratio (y) = 0.15568 0.38416
# Poissons Ratio (z) = -0.00316 0.24852
#
# Static dielectric constant tensor:
#      x y z
#    x 2.071650 0.013880 0.008680 
#    y 0.013880 2.106620 -0.010200 
#    z 0.008680 -0.010200 2.167900 
# 
# From -- ./inp_files/203718.got.cif
#   From: 2010.05.17/outbox.cif.g08.bks.cpg/sg2_102_cif.got.tgz:203718.got - 2010.06.03 11:33:40.
