data_PCOD9085821
_publ_section_title
;
Structure prediction by ZEFSAII (Michael W. Deem and Ramdas Pophale) SiO2 
 PCOD9085821
Probable space group: P -1
;
_chemical_formula_sum "Si O2"
_cell_formula_units_Z 16
_cell_length_a 15.664534
_cell_length_b 11.179315
_cell_length_c 15.343060
_cell_angle_alpha 135.750748
_cell_angle_beta 151.341835
_cell_angle_gamma 64.746368
_cell_volume 716.988495
_symmetry_space_group_name_H-M "P -1"
_symmetry_group_IT_number 2
_symmetry_cell_setting 'triclinic'
loop_
_space_group_symop_operation_xyz
x,y,z
-x,-y,-z
loop_
_atom_site_type_symbol
_atom_site_label
_atom_site_fract_x
_atom_site_fract_y
_atom_site_fract_z
Si Si1 0.759211 0.616102 0.684561
Si Si2 0.621108 0.741630 0.267777
Si Si3 0.682778 0.223676 0.187928
Si Si4 0.195340 0.753514 0.506577
Si Si5 0.714524 0.144662 0.989010
Si Si6 0.005996 0.956394 0.380831
Si Si7 0.184408 0.326373 0.428368
Si Si8 0.688252 0.775837 0.854830
O O1 0.816326 0.449592 0.638312
O O2 0.795796 0.722440 0.679260
O O3 0.850783 0.766093 0.929922
O O4 0.499372 0.455904 0.394260
O O5 0.743050 0.761538 0.477261
O O6 0.782837 0.874235 0.400625
O O7 0.500000 0.500000 0.000000
O O8 0.460155 0.812467 0.175081
O O9 0.836796 0.256055 0.423199
O O10 0.795981 0.262967 0.217341
O O11 0.658389 0.412756 0.283783
O O12 0.443204 0.986526 0.844189
O O13 0.019905 0.758756 0.297200
O O14 0.930028 0.238614 0.171884
O O15 0.614270 0.898444 0.795849
O O16 0.000000 0.000000 0.500000
O O17 0.806181 0.907206 0.117073
#
# Coordination Sequence:
#
# PCOD9085821 Si02
#       8
#     2   2   2   2   2   2   2   2
#     4  10  24  46  66  91 126 183 227 264 322 389
#     4  12  25  40  63 102 139 165 213 270 333 406
#     4  10  19  35  63  91 130 167 207 265 329 387
#     4  10  20  37  64  91 126 171 217 270 320 382
#     4  12  22  41  65  92 134 174 214 271 333 381
#     4  12  25  39  66 103 133 167 218 277 330 390
#     4  11  24  41  65  96 133 175 213 271 330 398
#     4  11  24  44  70  90 130 179 223 271 322 386
#
# _framework density 22.315560000000001
#
# number of rings (size 3 to 8) (size 9 to 14) (size 15 to 20)
#    0.000    1.000    5.000    1.125    5.250    2.000 
#    0.000    0.625    0.000    0.000    0.000    0.000 
#    0.000    0.000    0.000    0.000    0.000    0.000 
#
# Total GULP energy -89243.332292 kJ/mol
# GULP energy per Si atom -5577.708268 kJ/mol
# Density = 2.226477 g / cm^3
# Si number density = 22.315560 Si / 1000 Ang^3
#
#
#
# Elastic Constant Matrix: (Units=GPa)
#
#
# Indices 1 2 3 4 5 6 
#
# 1 167.2654 40.4070 17.3411 -10.1669 -5.3044 17.3563
# 2 40.4070 126.0164 30.8573 -14.2768 -0.1846 17.0612
# 3 17.3411 30.8573 39.0867 -5.4209 10.4829 7.4183
# 4 -10.1669 -14.2768 -5.4209 26.8886 -6.3672 -6.3593
# 5 -5.3044 -0.1846 10.4829 -6.3672 24.1188 2.0464
# 6 17.3563 17.0612 7.4183 -6.3593 2.0464 27.4948
#
#
#
# Elastic Compliance Matrix: (Units=1/GPa)
#
#
# Indices 1 2 3 4 5 6 
#
# 1 0.006992 -0.001077 -0.002323 0.001665 0.003231 -0.002974
# 2 -0.001077 0.011331 -0.008564 0.004252 0.004986 -0.003428
# 3 -0.002323 -0.008564 0.038293 -0.002555 -0.017654 -0.002828
# 4 0.001665 0.004252 -0.002555 0.044024 0.012601 0.006244
# 5 0.003231 0.004986 -0.017654 0.012601 0.053331 -0.001425
# 6 -0.002974 -0.003428 -0.002828 0.006244 -0.001425 0.042688
#
#
# Mechanical properties :
#
#
# Convention : Reuss Voigt Hill
#
# Bulk Modulus (GPa) = 30.59265 56.61993 43.60629
# Shear Modulus (GPa) = 21.59984 31.95132 26.77558
#
# Velocity S-wave (km/s) = 3.11453 3.78801 3.46766
# Velocity P-wave (km/s) = 5.16455 6.67529 5.96792
#
# Compressibility (1/GPa) = 0.03268759
#
# Stress axis : x y z
#
# Youngs Moduli (GPa) = 143.02470 88.25203 26.11430
#
# Poissons Ratio (x) = 0.09506 0.06066
# Poissons Ratio (y) = 0.15405 0.22365
# Poissons Ratio (z) = 0.33222 0.75582
#
# Static dielectric constant tensor:
#      x y z
#    x 1.880330 -0.037830 -0.011450 
#    y -0.037830 1.905390 0.054330 
#    z -0.011450 0.054330 1.909850 
# 
# From -- ./inp_files/531984.got.cif
#   From: 2010.05.17/outbox.cif.g08.bks.cpg/sg2_266_cif.got.tgz:531984.got - 2010.06.03 11:33:40.
