data_PCOD9085773
_publ_section_title
;
Structure prediction by ZEFSAII (Michael W. Deem and Ramdas Pophale) SiO2 
 PCOD9085773
Probable space group: P -1
;
_chemical_formula_sum "Si O2"
_cell_formula_units_Z 14
_cell_length_a 11.322394
_cell_length_b 7.941910
_cell_length_c 11.078219
_cell_angle_alpha 89.466938
_cell_angle_beta 84.446571
_cell_angle_gamma 141.267122
_cell_volume 614.590507
_symmetry_space_group_name_H-M "P -1"
_symmetry_group_IT_number 2
_symmetry_cell_setting 'triclinic'
loop_
_space_group_symop_operation_xyz
x,y,z
-x,-y,-z
loop_
_atom_site_type_symbol
_atom_site_label
_atom_site_fract_x
_atom_site_fract_y
_atom_site_fract_z
Si Si1 0.944520 0.643953 0.861261
Si Si2 0.735930 0.596286 0.439365
Si Si3 0.435469 0.918755 0.676894
Si Si4 0.412559 0.550748 0.085069
Si Si5 0.416041 0.272747 0.664715
Si Si6 0.290326 0.861997 0.944040
Si Si7 0.113932 0.491384 0.411069
O O1 0.813649 0.663504 0.895183
O O2 0.949113 0.613361 0.718760
O O3 0.150760 0.853231 0.901467
O O4 0.828056 0.364917 0.941420
O O5 0.642682 0.331929 0.380906
O O6 0.595629 0.503680 0.558516
O O7 0.741185 0.758324 0.345091
O O8 0.900216 0.691973 0.502214
O O9 0.359192 0.829241 0.822503
O O10 0.357405 0.015187 0.641513
O O11 0.663924 0.197943 0.632812
O O12 0.486150 0.614072 0.214478
O O13 0.522930 0.839415 0.026495
O O14 0.500000 0.500000 0.000000
O O15 0.000000 0.500000 0.500000
#
# Coordination Sequence:
#
# PCOD9085773 Si02
#       7
#     2   2   2   2   2   2   2
#     4  11  22  41  65  94 129 161 217 268 313 387
#     4  10  19  35  63  85 123 168 207 256 319 377
#     4  10  20  39  66  91 122 172 210 263 324 380
#     4  11  23  40  65  91 130 170 207 268 324 381
#     4   9  19  36  58  90 122 159 211 259 311 376
#     4  10  23  41  66  94 125 165 214 270 319 378
#     4  11  21  36  61  95 127 164 214 264 315 389
#
# _framework density 22.779395000000001
#
# number of rings (size 3 to 8) (size 9 to 14) (size 15 to 20)
#    0.000    1.714    4.286    3.000    2.000    1.714 
#    0.000    0.000    6.286    8.571    0.000    0.000 
#    0.000    0.000    0.000    0.000    0.000    0.000 
#
# Total GULP energy -78082.078460 kJ/mol
# GULP energy per Si atom -5577.291319 kJ/mol
# Density = 2.272755 g / cm^3
# Si number density = 22.779395 Si / 1000 Ang^3
#
#
#
# Elastic Constant Matrix: (Units=GPa)
#
#
# Indices 1 2 3 4 5 6 
#
# 1 172.0401 17.2187 63.1616 6.1664 2.7199 11.6142
# 2 17.2187 41.9340 10.6443 0.5783 -4.3803 11.1640
# 3 63.1616 10.6443 91.3870 2.9544 -7.4410 -1.9182
# 4 6.1664 0.5783 2.9544 22.9579 -1.6110 -4.8385
# 5 2.7199 -4.3803 -7.4410 -1.6110 52.3013 -9.1945
# 6 11.6142 11.1640 -1.9182 -4.8385 -9.1945 34.1622
#
#
#
# Elastic Compliance Matrix: (Units=1/GPa)
#
#
# Indices 1 2 3 4 5 6 
#
# 1 0.008462 -0.001174 -0.005883 -0.002421 -0.002106 -0.003733
# 2 -0.001174 0.027379 -0.002471 -0.001895 0.000388 -0.008851
# 3 -0.005883 -0.002471 0.015625 0.000835 0.003166 0.004655
# 4 -0.002421 -0.001895 0.000835 0.046232 0.003068 0.008863
# 5 -0.002106 0.000388 0.003166 0.003068 0.021012 0.006857
# 6 -0.003733 -0.008851 0.004655 0.008863 0.006857 0.036796
#
#
# Mechanical properties :
#
#
# Convention : Reuss Voigt Hill
#
# Bulk Modulus (GPa) = 30.85419 54.15672 42.50546
# Shear Modulus (GPa) = 26.97369 36.17337 31.57353
#
# Velocity S-wave (km/s) = 3.44485 3.98928 3.72702
# Velocity P-wave (km/s) = 5.42188 6.71157 6.10090
#
# Compressibility (1/GPa) = 0.03241051
#
# Stress axis : x y z
#
# Youngs Moduli (GPa) = 118.17225 36.52410 63.99970
#
# Poissons Ratio (x) = 0.04288 0.37654
# Poissons Ratio (y) = 0.13873 0.15811
# Poissons Ratio (z) = 0.69526 0.09023
#
# Static dielectric constant tensor:
#      x y z
#    x 2.042600 0.001470 0.089340 
#    y 0.001470 1.873400 -0.045270 
#    z 0.089340 -0.045270 1.876220 
# 
# From -- ./inp_files/414928.got.cif
#   From: 2010.05.17/outbox.cif.g08.bks.cpg/sg2_208_cif.got.tgz:414928.got - 2010.06.03 11:33:40.
