data_PCOD9085941
_publ_section_title
;
Structure prediction by ZEFSAII (Michael W. Deem and Ramdas Pophale) SiO2 
 PCOD9085941
Probable space group: P -1
;
_chemical_formula_sum "Si O2"
_cell_formula_units_Z 12
_cell_length_a 8.495992
_cell_length_b 11.083704
_cell_length_c 5.115197
_cell_angle_alpha 108.347255
_cell_angle_beta 100.972981
_cell_angle_gamma 70.056224
_cell_volume 427.915613
_symmetry_space_group_name_H-M "P -1"
_symmetry_group_IT_number 2
_symmetry_cell_setting 'triclinic'
loop_
_space_group_symop_operation_xyz
x,y,z
-x,-y,-z
loop_
_atom_site_type_symbol
_atom_site_label
_atom_site_fract_x
_atom_site_fract_y
_atom_site_fract_z
Si Si1 0.152414 0.844918 0.675295
Si Si2 0.233007 0.489891 0.910405
Si Si3 0.325904 0.215703 0.690786
Si Si4 0.461165 0.622378 0.760957
Si Si5 0.009896 0.233631 0.927103
Si Si6 0.360302 0.978917 0.135902
O O1 0.343006 0.746114 0.654779
O O2 0.074505 0.843646 0.364185
O O3 0.044351 0.789622 0.812151
O O4 0.197493 0.963518 0.923448
O O5 0.240434 0.364731 0.637232
O O6 0.344470 0.582780 0.913414
O O7 0.354855 0.389217 0.085683
O O8 0.070556 0.604538 0.029630
O O9 0.528473 0.160553 0.783499
O O10 0.200326 0.204226 0.876368
O O11 0.315478 0.098119 0.408498
O O12 0.500000 0.500000 0.500000
O O13 0.500000 0.000000 0.000000
#
# Coordination Sequence:
#
# PCOD9085941 Si02
#       6
#     2   2   2   2   2   2
#     4  11  25  46  72 100 142 184 236 280 342 421
#     4  10  21  39  68 101 139 175 227 287 352 411
#     4  11  26  46  67 102 142 182 233 290 345 414
#     4  10  19  35  65 101 131 182 223 281 340 411
#     4  11  26  46  73 108 139 180 226 294 360 401
#     4  11  28  45  71  98 136 196 236 283 337 414
#
# _framework density 28.042912999999999
#
# number of rings (size 3 to 8) (size 9 to 14) (size 15 to 20)
#    0.000    1.333    3.333    0.500    9.333    1.333 
#    0.000    2.500    0.000    0.000    0.000    0.000 
#    0.000    0.000    0.000    0.000    0.000    0.000 
#
# Total GULP energy -67055.768200 kJ/mol
# GULP energy per Si atom -5587.980683 kJ/mol
# Density = 2.797909 g / cm^3
# Si number density = 28.042913 Si / 1000 Ang^3
#
#
#
# Elastic Constant Matrix: (Units=GPa)
#
#
# Indices 1 2 3 4 5 6 
#
# 1 124.0353 46.0369 39.4657 -4.2673 -2.1795 -11.5110
# 2 46.0369 103.4918 20.2887 26.3661 -9.2045 -17.5865
# 3 39.4657 20.2887 75.4754 -7.1930 -14.9268 -10.8450
# 4 -4.2673 26.3661 -7.1930 52.6943 -5.6789 -7.9914
# 5 -2.1795 -9.2045 -14.9268 -5.6789 55.2128 6.3895
# 6 -11.5110 -17.5865 -10.8450 -7.9914 6.3895 65.2108
#
#
#
# Elastic Compliance Matrix: (Units=1/GPa)
#
#
# Indices 1 2 3 4 5 6 
#
# 1 0.011472 -0.004933 -0.004638 0.002673 -0.001393 0.000387
# 2 -0.004933 0.014453 -0.001608 -0.007497 0.000805 0.001762
# 3 -0.004638 -0.001608 0.017570 0.003562 0.004472 0.001668
# 4 0.002673 -0.007497 0.003562 0.023923 0.002074 0.001771
# 5 -0.001393 0.000805 0.004472 0.002074 0.019725 -0.000964
# 6 0.000387 0.001762 0.001668 0.001771 -0.000964 0.016467
#
#
# Mechanical properties :
#
#
# Convention : Reuss Voigt Hill
#
# Bulk Modulus (GPa) = 47.30735 57.17613 52.24174
# Shear Modulus (GPa) = 37.58976 47.77099 42.68038
#
# Velocity S-wave (km/s) = 3.66517 4.13182 3.90547
# Velocity P-wave (km/s) = 5.90064 6.57234 6.24553
#
# Compressibility (1/GPa) = 0.02113836
#
# Stress axis : x y z
#
# Youngs Moduli (GPa) = 87.16640 69.18907 56.91412
#
# Poissons Ratio (x) = 0.34132 0.26396
# Poissons Ratio (y) = 0.43000 0.09150
# Poissons Ratio (z) = 0.40427 0.11124
#
# Static dielectric constant tensor:
#      x y z
#    x 5.441680 1.915000 2.063980 
#    y 1.915000 3.510300 1.047870 
#    z 2.063980 1.047870 2.974080 
# 
# From -- ./inp_files/24100.got.cif
#   From: 2010.05.17/outbox.cif.g08.bks.cpg/sg2_13_cif.got.tgz:24100.got - 2010.06.03 11:33:40.
