data_PCOD9085693
_publ_section_title
;
Structure prediction by ZEFSAII (Michael W. Deem and Ramdas Pophale) SiO2 
 PCOD9085693
Probable space group: P -1
;
_chemical_formula_sum "Si O2"
_cell_formula_units_Z 14
_cell_length_a 8.925012
_cell_length_b 14.123840
_cell_length_c 7.985681
_cell_angle_alpha 73.937012
_cell_angle_beta 96.457679
_cell_angle_gamma 42.481370
_cell_volume 570.319288
_symmetry_space_group_name_H-M "P -1"
_symmetry_group_IT_number 2
_symmetry_cell_setting 'triclinic'
loop_
_space_group_symop_operation_xyz
x,y,z
-x,-y,-z
loop_
_atom_site_type_symbol
_atom_site_label
_atom_site_fract_x
_atom_site_fract_y
_atom_site_fract_z
Si Si1 0.144188 0.249458 0.342490
Si Si2 0.015720 0.592716 0.067152
Si Si3 0.317853 0.948168 0.578757
Si Si4 0.316724 0.724888 0.238787
Si Si5 0.137315 0.863500 0.796931
Si Si6 0.446576 0.607522 0.671898
Si Si7 0.788975 0.592504 0.292486
O O1 0.398064 0.182511 0.389403
O O2 0.907258 0.433407 0.295844
O O3 0.213564 0.113737 0.513444
O O4 0.063151 0.276132 0.125938
O O5 0.806335 0.679241 0.136691
O O6 0.292540 0.466009 0.241543
O O7 0.000000 0.500000 0.000000
O O8 0.279433 0.892121 0.754010
O O9 0.139178 0.996333 0.389100
O O10 0.274249 0.727042 0.429774
O O11 0.456539 0.552352 0.276214
O O12 0.516734 0.708641 0.266575
O O13 0.129554 0.846410 0.001389
O O14 0.300643 0.700980 0.782216
O O15 0.000000 0.500000 0.500000
#
# Coordination Sequence:
#
# PCOD9085693 Si02
#       7
#     2   2   2   2   2   2   2
#     4  10  20  37  61  86 117 153 206 241 295 358
#     4  10  19  35  62  90 114 154 193 252 306 350
#     4  10  22  37  61  83 115 168 202 238 279 360
#     4  11  23  37  62  95 122 154 193 260 312 354
#     4  11  21  40  62  84 119 164 206 235 298 358
#     4  11  22  38  62  93 125 149 198 258 309 357
#     4  11  20  35  60  90 119 147 187 258 314 345
#
# _framework density 24.547651999999999
#
# number of rings (size 3 to 8) (size 9 to 14) (size 15 to 20)
#    0.000    1.429    1.429    6.429    0.000    0.000 
#    0.000    2.857    6.286    2.571    0.000    0.000 
#    0.000    0.000    0.000    0.000    0.000    0.000 
#
# Total GULP energy -78193.284533 kJ/mol
# GULP energy per Si atom -5585.234609 kJ/mol
# Density = 2.449178 g / cm^3
# Si number density = 24.547652 Si / 1000 Ang^3
#
#
#
# Elastic Constant Matrix: (Units=GPa)
#
#
# Indices 1 2 3 4 5 6 
#
# 1 114.3811 8.7643 19.1183 4.5404 8.6501 -5.3027
# 2 8.7643 69.8169 -2.6854 -0.8682 -6.3091 6.7825
# 3 19.1183 -2.6854 127.1054 17.6684 3.9641 -0.5370
# 4 4.5404 -0.8682 17.6684 20.0012 3.8392 1.9559
# 5 8.6501 -6.3091 3.9641 3.8392 40.0145 -10.5922
# 6 -5.3027 6.7825 -0.5370 1.9559 -10.5922 31.0316
#
#
#
# Elastic Compliance Matrix: (Units=1/GPa)
#
#
# Indices 1 2 3 4 5 6 
#
# 1 0.009293 -0.001511 -0.001248 -0.000886 -0.001673 0.001382
# 2 -0.001511 0.014985 0.000393 0.000585 0.001815 -0.002944
# 3 -0.001248 0.000393 0.009153 -0.007888 0.000304 0.000460
# 4 -0.000886 0.000585 -0.007888 0.059005 -0.006256 -0.006270
# 5 -0.001673 0.001815 0.000304 -0.006256 0.028730 0.009523
# 6 0.001382 -0.002944 0.000460 -0.006270 0.009523 0.036759
#
#
# Mechanical properties :
#
#
# Convention : Reuss Voigt Hill
#
# Bulk Modulus (GPa) = 34.84482 40.18864 37.51673
# Shear Modulus (GPa) = 29.03221 37.28321 33.15771
#
# Velocity S-wave (km/s) = 3.44275 3.90142 3.67924
# Velocity P-wave (km/s) = 5.47987 6.05822 5.77629
#
# Compressibility (1/GPa) = 0.02869867
#
# Stress axis : x y z
#
# Youngs Moduli (GPa) = 107.60916 66.73211 109.25969
#
# Poissons Ratio (x) = 0.10083 0.13641
# Poissons Ratio (y) = 0.16259 -0.04299
# Poissons Ratio (z) = 0.13435 -0.02626
#
# Static dielectric constant tensor:
#      x y z
#    x 1.980300 0.017650 -0.063280 
#    y 0.017650 1.897580 -0.042150 
#    z -0.063280 -0.042150 2.003510 
# 
# From -- ./inp_files/184373.got.cif
#   From: 2010.05.17/outbox.cif.g08.bks.cpg/sg2_93_cif.got.tgz:184373.got - 2010.06.03 11:33:40.
