data_PCOD9085644
_publ_section_title
;
Structure prediction by ZEFSAII (Michael W. Deem and Ramdas Pophale) SiO2 
 PCOD9085644
Probable space group: P -1
;
_chemical_formula_sum "Si O2"
_cell_formula_units_Z 14
_cell_length_a 14.394522
_cell_length_b 20.269963
_cell_length_c 6.521141
_cell_angle_alpha 95.814381
_cell_angle_beta 92.840409
_cell_angle_gamma 160.427190
_cell_volume 570.971084
_symmetry_space_group_name_H-M "P -1"
_symmetry_group_IT_number 2
_symmetry_cell_setting 'triclinic'
loop_
_space_group_symop_operation_xyz
x,y,z
-x,-y,-z
loop_
_atom_site_type_symbol
_atom_site_label
_atom_site_fract_x
_atom_site_fract_y
_atom_site_fract_z
Si Si1 0.933606 0.109087 0.576619
Si Si2 0.843555 0.728565 0.884925
Si Si3 0.535745 0.180436 0.106414
Si Si4 0.180013 0.747803 0.954067
Si Si5 0.371866 0.648679 0.531539
Si Si6 0.287886 0.911820 0.346861
Si Si7 0.580413 0.646264 0.536711
O O1 0.879342 0.150698 0.537871
O O2 0.128491 0.188876 0.494215
O O3 0.599664 0.848931 0.485309
O O4 0.107429 0.232064 0.855540
O O5 0.613734 0.629074 0.747514
O O6 0.696765 0.564378 0.710001
O O7 0.199805 0.973761 0.926380
O O8 0.724286 0.263337 0.996525
O O9 0.694037 0.352507 0.273933
O O10 0.464991 0.082375 0.262337
O O11 0.934199 0.576877 0.693819
O O12 0.067222 0.717040 0.118265
O O13 0.500000 0.000000 0.000000
O O14 0.559722 0.708843 0.603609
O O15 0.500000 0.000000 0.500000
#
# Coordination Sequence:
#
# PCOD9085644 Si02
#       7
#     2   2   2   2   2   2   2
#     4  10  22  38  57  85 125 151 189 248 289 341
#     4   9  21  37  58  89 114 150 206 234 278 348
#     4   9  20  37  57  84 117 149 186 245 287 338
#     4  10  19  35  62  80 111 151 190 240 289 338
#     4  10  20  37  58  87 118 150 192 234 298 350
#     4   9  19  35  56  82 110 148 194 235 278 349
#     4  11  20  36  64  83 119 157 192 237 289 347
#
# _framework density 24.519629999999999
#
# number of rings (size 3 to 8) (size 9 to 14) (size 15 to 20)
#    0.000    2.571    0.000    3.857    2.000    2.286 
#    2.571    2.857   12.571    0.000    0.000    0.000 
#    0.000    0.000    0.000    0.000    0.000    0.000 
#
# Total GULP energy -78113.010742 kJ/mol
# GULP energy per Si atom -5579.500767 kJ/mol
# Density = 2.446382 g / cm^3
# Si number density = 24.519630 Si / 1000 Ang^3
#
#
#
# Elastic Constant Matrix: (Units=GPa)
#
#
# Indices 1 2 3 4 5 6 
#
# 1 223.0574 17.5489 47.2255 4.7937 -24.5400 2.0477
# 2 17.5489 57.0347 14.6553 10.8922 -7.4195 2.4650
# 3 47.2255 14.6553 102.4635 20.5890 3.0324 -8.4795
# 4 4.7937 10.8922 20.5890 26.5375 0.1817 -4.1987
# 5 -24.5400 -7.4195 3.0324 0.1817 43.2853 0.7432
# 6 2.0477 2.4650 -8.4795 -4.1987 0.7432 22.0025
#
#
#
# Elastic Compliance Matrix: (Units=1/GPa)
#
#
# Indices 1 2 3 4 5 6 
#
# 1 0.005493 -0.000715 -0.002904 0.001309 0.003214 -0.001409
# 2 -0.000715 0.020222 -0.001463 -0.007747 0.003271 -0.004352
# 3 -0.002904 -0.001463 0.013470 -0.008662 -0.002874 0.004069
# 4 0.001309 -0.007747 -0.008662 0.048401 -0.000296 0.006654
# 5 0.003214 0.003271 -0.002874 -0.000296 0.025734 -0.002699
# 6 -0.001409 -0.004352 0.004069 0.006654 -0.002699 0.048997
#
#
# Mechanical properties :
#
#
# Convention : Reuss Voigt Hill
#
# Bulk Modulus (GPa) = 34.45905 60.15721 47.30813
# Shear Modulus (GPa) = 27.44933 38.57347 33.01140
#
# Velocity S-wave (km/s) = 3.34950 3.97062 3.67321
# Velocity P-wave (km/s) = 5.38916 6.75342 6.10949
#
# Compressibility (1/GPa) = 0.02901995
#
# Stress axis : x y z
#
# Youngs Moduli (GPa) = 182.06353 49.45093 74.24086
#
# Poissons Ratio (x) = 0.03535 0.21560
# Poissons Ratio (y) = 0.13016 0.10863
# Poissons Ratio (z) = 0.52873 0.07235
#
# Static dielectric constant tensor:
#      x y z
#    x 1.975420 0.050100 -0.015390 
#    y 0.050100 2.166950 -0.099780 
#    z -0.015390 -0.099780 1.979940 
# 
# From -- ./inp_files/278003.got.cif
#   From: 2010.05.17/outbox.cif.g08.bks.cpg/sg2_140_cif.got.tgz:278003.got - 2010.06.03 11:33:40.
