data_PCOD9085021
_publ_section_title
;
Structure prediction by ZEFSAII (Michael W. Deem and Ramdas Pophale) SiO2 
 PCOD9085021
Probable space group: P -1
;
_chemical_formula_sum "Si O2"
_cell_formula_units_Z 16
_cell_length_a 8.563648
_cell_length_b 15.191692
_cell_length_c 12.466179
_cell_angle_alpha 150.940655
_cell_angle_beta 90.149774
_cell_angle_gamma 75.586433
_cell_volume 678.622189
_symmetry_space_group_name_H-M "P -1"
_symmetry_group_IT_number 2
_symmetry_cell_setting 'triclinic'
loop_
_space_group_symop_operation_xyz
x,y,z
-x,-y,-z
loop_
_atom_site_type_symbol
_atom_site_label
_atom_site_fract_x
_atom_site_fract_y
_atom_site_fract_z
Si Si1 0.949059 0.753467 0.337944
Si Si2 0.891379 0.710067 0.863149
Si Si3 0.179745 0.293886 0.915131
Si Si4 0.248079 0.424561 0.455878
Si Si5 0.915076 0.111723 0.321178
Si Si6 0.433941 0.721884 0.580635
Si Si7 0.727353 0.992145 0.901133
Si Si8 0.441167 0.049521 0.343707
O O1 0.748250 0.811153 0.444133
O O2 0.119413 0.512037 0.085354
O O3 0.013566 0.869798 0.543952
O O4 0.901748 0.812749 0.276272
O O5 0.932593 0.609707 0.872718
O O6 0.748832 0.662729 0.754996
O O7 0.055489 0.624583 0.690046
O O8 0.852430 0.940509 0.134909
O O9 0.386110 0.123755 0.770089
O O10 0.393390 0.465953 0.558476
O O11 0.252632 0.234450 0.320313
O O12 0.727019 0.312307 0.495753
O O13 0.075961 0.048234 0.170253
O O14 0.502902 0.801723 0.564390
O O15 0.358298 0.879137 0.852845
O O16 0.609620 0.067561 0.873038
#
# Coordination Sequence:
#
# PCOD9085021 Si02
#       8
#     2   2   2   2   2   2   2   2
#     4  10  25  40  62  86 113 151 198 251 289 332
#     4  11  21  36  60  87 116 153 194 235 284 348
#     4  11  20  42  66  82 110 157 204 233 287 352
#     4  10  21  36  60  85 115 159 195 222 278 360
#     4  11  22  37  54  88 122 148 185 243 295 324
#     4  11  19  35  59  84 118 156 190 229 290 345
#     4  10  19  35  58  84 119 154 186 233 285 347
#     4  10  19  37  63  87 110 151 202 235 279 351
#
# _framework density 23.577185
#
# number of rings (size 3 to 8) (size 9 to 14) (size 15 to 20)
#    0.000    1.500    2.500    5.250    0.000    0.500 
#    4.500    0.625    0.000    2.250    0.000    0.000 
#    0.000    0.000    0.000    0.000    0.000    0.000 
#
# Total GULP energy -89098.640520 kJ/mol
# GULP energy per Si atom -5568.665033 kJ/mol
# Density = 2.352352 g / cm^3
# Si number density = 23.577185 Si / 1000 Ang^3
#
#
#
# Elastic Constant Matrix: (Units=GPa)
#
#
# Indices 1 2 3 4 5 6 
#
# 1 104.4241 50.7101 22.0726 -7.2330 -12.6350 -27.4113
# 2 50.7101 127.7856 33.1581 -24.4527 12.3339 -45.0568
# 3 22.0726 33.1581 63.7260 -20.6379 -5.8093 -16.0755
# 4 -7.2330 -24.4527 -20.6379 41.4803 -3.3979 7.2890
# 5 -12.6350 12.3339 -5.8093 -3.3979 28.8079 -3.5319
# 6 -27.4113 -45.0568 -16.0755 7.2890 -3.5319 46.1128
#
#
#
# Elastic Compliance Matrix: (Units=1/GPa)
#
#
# Indices 1 2 3 4 5 6 
#
# 1 0.014227 -0.004993 -0.000792 -0.000871 0.008618 0.004100
# 2 -0.004993 0.015787 -0.003240 0.004418 -0.007852 0.010028
# 3 -0.000792 -0.003240 0.021951 0.008887 0.006900 0.003140
# 4 -0.000871 0.004418 0.008887 0.030863 0.003438 0.002282
# 5 0.008618 -0.007852 0.006900 0.003438 0.043980 0.002681
# 6 0.004100 0.010028 0.003140 0.002282 0.002681 0.034861
#
#
# Mechanical properties :
#
#
# Convention : Reuss Voigt Hill
#
# Bulk Modulus (GPa) = 29.48549 56.42416 42.95483
# Shear Modulus (GPa) = 26.17466 35.94653 31.06059
#
# Velocity S-wave (km/s) = 3.33553 3.90889 3.63354
# Velocity P-wave (km/s) = 5.23139 6.66004 5.98848
#
# Compressibility (1/GPa) = 0.03391499
#
# Stress axis : x y z
#
# Youngs Moduli (GPa) = 70.28793 63.34302 45.55512
#
# Poissons Ratio (x) = 0.31629 0.03608
# Poissons Ratio (y) = 0.35097 0.14760
# Poissons Ratio (z) = 0.05567 0.20524
#
# Static dielectric constant tensor:
#      x y z
#    x 1.999820 -0.101780 -0.040940 
#    y -0.101780 2.043580 0.102530 
#    z -0.040940 0.102530 1.982800 
# 
# From -- ./inp_files/400075.got.cif
#   From: 2010.05.17/outbox.cif.g08.bks.cpg/sg2_201_cif.got.tgz:400075.got - 2010.06.03 11:33:40.
