data_PCOD9085223
_publ_section_title
;
Structure prediction by ZEFSAII (Michael W. Deem and Ramdas Pophale) SiO2 
 PCOD9085223
Probable space group: P -1
;
_chemical_formula_sum "Si O2"
_cell_formula_units_Z 14
_cell_length_a 11.337616
_cell_length_b 27.221598
_cell_length_c 8.375907
_cell_angle_alpha 36.900228
_cell_angle_beta 125.241762
_cell_angle_gamma 152.440882
_cell_volume 631.973490
_symmetry_space_group_name_H-M "P -1"
_symmetry_group_IT_number 2
_symmetry_cell_setting 'triclinic'
loop_
_space_group_symop_operation_xyz
x,y,z
-x,-y,-z
loop_
_atom_site_type_symbol
_atom_site_label
_atom_site_fract_x
_atom_site_fract_y
_atom_site_fract_z
Si Si1 0.107238 0.820485 0.627195
Si Si2 0.096665 0.456815 0.740910
Si Si3 0.737000 0.381969 0.228167
Si Si4 0.416241 0.995812 0.705651
Si Si5 0.523754 0.612837 0.142527
Si Si6 0.165603 0.740618 0.401043
Si Si7 0.428250 0.407664 0.424585
O O1 0.198934 0.918229 0.598955
O O2 0.811037 0.694377 0.631941
O O3 0.356320 0.949124 0.355146
O O4 0.099483 0.721296 0.936573
O O5 0.194879 0.520892 0.832399
O O6 0.349155 0.548993 0.582380
O O7 0.000000 0.500000 0.500000
O O8 0.726965 0.286399 0.540354
O O9 0.465731 0.289995 0.166719
O O10 0.000000 0.500000 0.000000
O O11 0.631182 0.161531 0.537188
O O12 0.241393 0.858648 0.055996
O O13 0.579046 0.568247 0.173543
O O14 0.680752 0.677066 0.266959
O O15 0.176096 0.430086 0.385139
#
# Coordination Sequence:
#
# PCOD9085223 Si02
#       7
#     2   2   2   2   2   2   2
#     4  11  21  39  58  92 120 158 199 243 296 358
#     4  12  23  37  62  95 121 150 194 260 315 354
#     4  10  19  35  59  86 123 150 193 252 302 347
#     4  10  21  35  62  84 121 166 205 233 277 369
#     4  10  20  37  61  92 120 154 194 258 308 350
#     4  10  19  38  59  92 115 162 206 236 291 361
#     4  11  22  37  60  94 123 152 196 253 313 350
#
# _framework density 22.152826999999998
#
# number of rings (size 3 to 8) (size 9 to 14) (size 15 to 20)
#    0.000    1.429    2.857    4.714    0.000    0.000 
#    0.000    0.000    0.000   15.429    0.000    0.000 
#    0.000    0.000    0.000    0.000    0.000    0.000 
#
# Total GULP energy -78053.171609 kJ/mol
# GULP energy per Si atom -5575.226544 kJ/mol
# Density = 2.210241 g / cm^3
# Si number density = 22.152827 Si / 1000 Ang^3
#
#
#
# Elastic Constant Matrix: (Units=GPa)
#
#
# Indices 1 2 3 4 5 6 
#
# 1 117.9484 39.3788 7.5177 7.7006 9.9140 1.3856
# 2 39.3788 130.2514 15.6872 7.9984 2.9787 -12.5690
# 3 7.5177 15.6872 39.0632 2.4356 -0.7964 17.1227
# 4 7.7006 7.9984 2.4356 28.8777 2.4870 6.2274
# 5 9.9140 2.9787 -0.7964 2.4870 28.5572 9.7522
# 6 1.3856 -12.5690 17.1227 6.2274 9.7522 41.0915
#
#
#
# Elastic Compliance Matrix: (Units=1/GPa)
#
#
# Indices 1 2 3 4 5 6 
#
# 1 0.009783 -0.002672 -0.000849 -0.001570 -0.003063 0.000171
# 2 -0.002672 0.010158 -0.006458 -0.002834 -0.002419 0.006892
# 3 -0.000849 -0.006458 0.037050 0.002420 0.008546 -0.019781
# 4 -0.001570 -0.002834 0.002420 0.037230 0.000234 -0.007520
# 5 -0.003063 -0.002419 0.008546 0.000234 0.041348 -0.014046
# 6 0.000171 0.006892 -0.019781 -0.007520 -0.014046 0.039154
#
#
# Mechanical properties :
#
#
# Convention : Reuss Voigt Hill
#
# Bulk Modulus (GPa) = 27.00449 45.82559 36.41504
# Shear Modulus (GPa) = 24.15160 34.68389 29.41775
#
# Velocity S-wave (km/s) = 3.30544 3.96114 3.64805
# Velocity P-wave (km/s) = 5.17537 6.45383 5.84963
#
# Compressibility (1/GPa) = 0.03703087
#
# Stress axis : x y z
#
# Youngs Moduli (GPa) = 102.22309 98.44865 26.99019
#
# Poissons Ratio (x) = 0.26308 0.02292
# Poissons Ratio (y) = 0.27317 0.17431
# Poissons Ratio (z) = 0.08681 0.63582
#
# Static dielectric constant tensor:
#      x y z
#    x 1.815570 0.002500 0.007500 
#    y 0.002500 1.927330 0.045980 
#    z 0.007500 0.045980 1.923070 
# 
# From -- ./inp_files/285486.got.cif
#   From: 2010.05.17/outbox.cif.g08.bks.cpg/sg2_143_cif.got.tgz:285486.got - 2010.06.03 11:33:40.
