data_PCOD9085035
_publ_section_title
;
Structure prediction by ZEFSAII (Michael W. Deem and Ramdas Pophale) SiO2 
 PCOD9085035
Probable space group: P -1
;
_chemical_formula_sum "Si O2"
_cell_formula_units_Z 16
_cell_length_a 30.028814
_cell_length_b 27.166015
_cell_length_c 11.697522
_cell_angle_alpha 29.342665
_cell_angle_beta 149.161853
_cell_angle_gamma 170.739387
_cell_volume 752.320415
_symmetry_space_group_name_H-M "P -1"
_symmetry_group_IT_number 2
_symmetry_cell_setting 'triclinic'
loop_
_space_group_symop_operation_xyz
x,y,z
-x,-y,-z
loop_
_atom_site_type_symbol
_atom_site_label
_atom_site_fract_x
_atom_site_fract_y
_atom_site_fract_z
Si Si1 0.802473 0.821719 0.572473
Si Si2 0.392007 0.877126 0.636942
Si Si3 0.857010 0.293969 0.265084
Si Si4 0.198176 0.559147 0.282542
Si Si5 0.922779 0.751474 0.889343
Si Si6 0.028518 0.231571 0.391842
Si Si7 0.116739 0.754480 0.335486
Si Si8 0.503291 0.795145 0.111079
O O1 0.500000 0.500000 0.500000
O O2 0.872253 0.780575 0.813145
O O3 0.876895 0.960955 0.571479
O O4 0.981189 0.078373 0.352667
O O5 0.389779 0.988376 0.447705
O O6 0.077421 0.488398 0.709602
O O7 0.500000 0.000000 0.500000
O O8 0.534921 0.949597 0.880887
O O9 0.981200 0.399617 0.447871
O O10 0.014710 0.398062 0.309386
O O11 0.526055 0.911049 0.313430
O O12 0.857939 0.412507 0.991171
O O13 0.111296 0.356263 0.449010
O O14 0.650818 0.397643 0.958503
O O15 0.128278 0.886669 0.098671
O O16 0.300928 0.541688 0.283213
O O17 0.785330 0.045344 0.210971
#
# Coordination Sequence:
#
# PCOD9085035 Si02
#       8
#     2   2   2   2   2   2   2   2
#     4  10  19  35  58  85 117 148 190 240 294 353
#     4  10  23  32  52  85 119 151 186 223 282 365
#     4  10  22  40  59  81 115 154 197 239 282 338
#     4  10  22  38  59  84 110 152 203 242 282 331
#     4   9  20  36  53  84 117 154 189 227 292 360
#     4  11  21  36  61  84 114 151 192 248 287 336
#     4  10  22  37  54  82 117 159 188 237 287 351
#     4  10  21  33  55  83 120 151 183 228 289 351
#
# _framework density 21.267533
#
# number of rings (size 3 to 8) (size 9 to 14) (size 15 to 20)
#    0.000    2.000    1.250    1.500   10.500    1.000 
#    0.000    0.000    0.000    1.500    0.000    0.000 
#    0.000    0.000    0.000    0.000    0.000    0.000 
#
# Total GULP energy -89139.864909 kJ/mol
# GULP energy per Si atom -5571.241557 kJ/mol
# Density = 2.121913 g / cm^3
# Si number density = 21.267533 Si / 1000 Ang^3
#
#
#
# Elastic Constant Matrix: (Units=GPa)
#
#
# Indices 1 2 3 4 5 6 
#
# 1 127.1091 29.3441 31.6900 -0.0838 33.0473 -1.0354
# 2 29.3441 70.3854 6.8564 6.5311 15.0668 -3.9936
# 3 31.6900 6.8564 75.3097 12.5030 33.6654 2.8878
# 4 -0.0838 6.5311 12.5030 15.9897 2.8141 -1.4567
# 5 33.0473 15.0668 33.6654 2.8141 42.4788 -0.3214
# 6 -1.0354 -3.9936 2.8878 -1.4567 -0.3214 27.3632
#
#
#
# Elastic Compliance Matrix: (Units=1/GPa)
#
#
# Indices 1 2 3 4 5 6 
#
# 1 0.010701 -0.003453 -0.002527 0.004422 -0.005388 0.000340
# 2 -0.003453 0.017489 0.004054 -0.009124 -0.006114 0.001436
# 3 -0.002527 0.004054 0.025426 -0.018619 -0.018415 -0.003395
# 4 0.004422 -0.009124 -0.018619 0.079680 0.009313 0.005152
# 5 -0.005388 -0.006114 -0.018415 0.009313 0.043893 0.001859
# 6 0.000340 0.001436 -0.003395 0.005152 0.001859 0.037422
#
#
# Mechanical properties :
#
#
# Convention : Reuss Voigt Hill
#
# Bulk Modulus (GPa) = 20.09503 45.39836 32.74670
# Shear Modulus (GPa) = 21.27198 30.82726 26.04962
#
# Velocity S-wave (km/s) = 3.16604 3.81136 3.50359
# Velocity P-wave (km/s) = 4.77852 6.38445 5.63895
#
# Compressibility (1/GPa) = 0.04976355
#
# Stress axis : x y z
#
# Youngs Moduli (GPa) = 93.45021 57.17853 39.32975
#
# Poissons Ratio (x) = 0.19742 0.09939
# Poissons Ratio (y) = 0.32266 -0.15943
# Poissons Ratio (z) = 0.23616 -0.23178
#
# Static dielectric constant tensor:
#      x y z
#    x 1.847220 -0.008030 0.030290 
#    y -0.008030 1.966240 0.012670 
#    z 0.030290 0.012670 1.774960 
# 
# From -- ./inp_files/77228.got.cif
#   From: 2010.05.17/outbox.cif.g08.bks.cpg/sg2_39_cif.got.tgz:77228.got - 2010.06.03 11:33:40.
