data_PCOD9085623
_publ_section_title
;
Structure prediction by ZEFSAII (Michael W. Deem and Ramdas Pophale) SiO2 
 PCOD9085623
Probable space group: P -1
;
_chemical_formula_sum "Si O2"
_cell_formula_units_Z 16
_cell_length_a 13.703802
_cell_length_b 11.717845
_cell_length_c 8.867518
_cell_angle_alpha 41.596256
_cell_angle_beta 127.048780
_cell_angle_gamma 126.137553
_cell_volume 727.996774
_symmetry_space_group_name_H-M "P -1"
_symmetry_group_IT_number 2
_symmetry_cell_setting 'triclinic'
loop_
_space_group_symop_operation_xyz
x,y,z
-x,-y,-z
loop_
_atom_site_type_symbol
_atom_site_label
_atom_site_fract_x
_atom_site_fract_y
_atom_site_fract_z
Si Si1 0.745193 0.721586 0.640936
Si Si2 0.193165 0.099489 0.040513
Si Si3 0.424802 0.629629 0.721805
Si Si4 0.723743 0.621636 0.379283
Si Si5 0.018743 0.168258 0.072173
Si Si6 0.625041 0.968837 0.487534
Si Si7 0.015801 0.465790 0.370762
Si Si8 0.734020 0.353464 0.167393
O O1 0.715836 0.690063 0.470533
O O2 0.890718 0.832716 0.701032
O O3 0.663823 0.836049 0.535166
O O4 0.724904 0.525257 0.892061
O O5 0.115791 0.188916 0.998899
O O6 0.265410 0.992147 0.319737
O O7 0.295323 0.240513 0.901364
O O8 0.095471 0.990322 0.934896
O O9 0.378034 0.558911 0.582401
O O10 0.501319 0.836142 0.577317
O O11 0.302236 0.607814 0.734293
O O12 0.500000 0.500000 0.000000
O O13 0.865564 0.604415 0.495635
O O14 0.967153 0.339746 0.876062
O O15 0.637199 0.161225 0.234214
O O16 0.880099 0.346900 0.303996
O O17 0.000000 0.500000 0.500000
#
# Coordination Sequence:
#
# PCOD9085623 Si02
#       8
#     2   2   2   2   2   2   2   2
#     4  10  24  43  60  96 140 169 202 256 335 391
#     4  10  19  35  61  94 118 163 220 257 310 369
#     4  12  22  44  69  93 126 167 225 269 309 367
#     4  12  24  39  65  97 130 174 204 260 331 382
#     4   9  19  35  59  88 128 164 204 263 314 374
#     4  11  23  43  68  93 125 171 219 269 310 370
#     4  11  19  37  64  92 125 160 213 269 312 371
#     4  11  23  43  69  95 125 168 217 268 319 374
#
# _framework density 21.978119
#
# number of rings (size 3 to 8) (size 9 to 14) (size 15 to 20)
#    0.000    1.250    5.000    1.875    3.500    3.000 
#    2.250    0.625    0.000    0.000    0.000    0.000 
#    0.000    0.000    0.000    0.000    0.000    0.000 
#
# Total GULP energy -89308.088085 kJ/mol
# GULP energy per Si atom -5581.755505 kJ/mol
# Density = 2.192810 g / cm^3
# Si number density = 21.978119 Si / 1000 Ang^3
#
#
#
# Elastic Constant Matrix: (Units=GPa)
#
#
# Indices 1 2 3 4 5 6 
#
# 1 41.2955 19.0105 12.2979 2.7711 6.2829 0.2914
# 2 19.0105 133.0608 30.2403 -3.3972 -9.8849 11.3199
# 3 12.2979 30.2403 27.1919 -7.7416 -1.6403 -8.3658
# 4 2.7711 -3.3972 -7.7416 33.6354 -0.6266 -8.6448
# 5 6.2829 -9.8849 -1.6403 -0.6266 16.6444 -1.8018
# 6 0.2914 11.3199 -8.3658 -8.6448 -1.8018 23.2399
#
#
#
# Elastic Compliance Matrix: (Units=1/GPa)
#
#
# Indices 1 2 3 4 5 6 
#
# 1 0.035903 0.001010 -0.027924 -0.014162 -0.018151 -0.017669
# 2 0.001010 0.014862 -0.025527 -0.009454 0.003442 -0.019690
# 3 -0.027924 -0.025527 0.113368 0.044455 0.015952 0.071367
# 4 -0.014162 -0.009454 0.044455 0.050771 0.010405 0.040478
# 5 -0.018151 0.003442 0.015952 0.010405 0.072431 0.013780
# 6 -0.017669 -0.019690 0.071367 0.040478 0.013780 0.094658
#
#
# Mechanical properties :
#
#
# Convention : Reuss Voigt Hill
#
# Bulk Modulus (GPa) = 16.87705 36.07171 26.47438
# Shear Modulus (GPa) = 9.86923 24.03726 16.95325
#
# Velocity S-wave (km/s) = 2.12137 3.31069 2.78037
# Velocity P-wave (km/s) = 3.70081 5.57336 4.73067
#
# Compressibility (1/GPa) = 0.05925205
#
# Stress axis : x y z
#
# Youngs Moduli (GPa) = 27.85269 67.28626 8.82082
#
# Poissons Ratio (x) = -0.06795 0.24631
# Poissons Ratio (y) = -0.02813 0.22517
# Poissons Ratio (z) = 0.77775 1.71759
#
# Static dielectric constant tensor:
#      x y z
#    x 1.807990 0.041940 0.019920 
#    y 0.041940 1.852270 -0.012590 
#    z 0.019920 -0.012590 1.820230 
# 
# From -- ./inp_files/209034.got.cif
#   From: 2010.05.17/outbox.cif.g08.bks.cpg/sg2_105_cif.got.tgz:209034.got - 2010.06.03 11:33:40.
