data_PCOD9085216
_publ_section_title
;
Structure prediction by ZEFSAII (Michael W. Deem and Ramdas Pophale) SiO2 
 PCOD9085216
Probable space group: P -1
;
_chemical_formula_sum "Si O2"
_cell_formula_units_Z 14
_cell_length_a 12.302965
_cell_length_b 7.319665
_cell_length_c 7.712834
_cell_angle_alpha 78.363858
_cell_angle_beta 104.906429
_cell_angle_gamma 116.454936
_cell_volume 597.857315
_symmetry_space_group_name_H-M "P -1"
_symmetry_group_IT_number 2
_symmetry_cell_setting 'triclinic'
loop_
_space_group_symop_operation_xyz
x,y,z
-x,-y,-z
loop_
_atom_site_type_symbol
_atom_site_label
_atom_site_fract_x
_atom_site_fract_y
_atom_site_fract_z
Si Si1 0.815504 0.031387 0.881728
Si Si2 0.952958 0.575637 0.139155
Si Si3 0.530437 0.665367 0.328092
Si Si4 0.136120 0.499661 0.453885
Si Si5 0.731143 0.387542 0.867654
Si Si6 0.213221 0.206253 0.739566
Si Si7 0.262722 0.970276 0.516934
O O1 0.746361 0.174525 0.887727
O O2 0.757745 0.938756 0.691585
O O3 0.957496 0.184246 0.871863
O O4 0.806687 0.882371 0.061105
O O5 0.004392 0.481902 0.332497
O O6 0.809445 0.492154 0.050466
O O7 0.000000 0.500000 0.000000
O O8 0.500000 0.500000 0.500000
O O9 0.408455 0.640130 0.181785
O O10 0.641089 0.655993 0.260353
O O11 0.596571 0.895408 0.392688
O O12 0.206065 0.486082 0.306455
O O13 0.136546 0.331152 0.620567
O O14 0.781851 0.269780 0.488633
O O15 0.186054 0.019270 0.628059
#
# Coordination Sequence:
#
# PCOD9085216 Si02
#       7
#     2   2   2   2   2   2   2
#     4   9  18  35  59  88 112 153 200 241 296 344
#     4   7  15  31  58  84 108 159 196 224 302 354
#     4  10  19  35  59  86 119 157 191 242 297 346
#     4   9  16  34  59  82 114 154 191 241 294 343
#     4   9  16  34  59  79 118 163 188 229 302 358
#     4  10  20  35  58  94 117 142 202 249 288 347
#     4   8  20  36  57  87 116 156 192 234 310 343
#
# _framework density 23.416961000000001
#
# number of rings (size 3 to 8) (size 9 to 14) (size 15 to 20)
#    0.857    2.857    1.429    0.000    0.000    2.857 
#    0.000   12.857    0.000   85.714    0.000    0.000 
#    0.000    0.000    0.000    0.000    0.000    0.000 
#
# Total GULP energy -78198.106173 kJ/mol
# GULP energy per Si atom -5585.579012 kJ/mol
# Density = 2.336366 g / cm^3
# Si number density = 23.416961 Si / 1000 Ang^3
#
#
#
# Elastic Constant Matrix: (Units=GPa)
#
#
# Indices 1 2 3 4 5 6 
#
# 1 117.9967 25.3943 42.0988 -1.2225 35.2479 25.1068
# 2 25.3943 65.9521 33.2017 5.0196 22.0706 19.6091
# 3 42.0988 33.2017 169.7741 -6.4750 14.0557 22.4740
# 4 -1.2225 5.0196 -6.4750 47.6722 8.1418 7.5132
# 5 35.2479 22.0706 14.0557 8.1418 40.7365 8.3469
# 6 25.1068 19.6091 22.4740 7.5132 8.3469 40.6904
#
#
#
# Elastic Compliance Matrix: (Units=1/GPa)
#
#
# Indices 1 2 3 4 5 6 
#
# 1 0.013459 0.000907 -0.001700 0.002836 -0.010868 -0.006097
# 2 0.000907 0.021770 -0.002626 0.000307 -0.010184 -0.007568
# 3 -0.001700 -0.002626 0.007094 0.001411 0.000570 -0.001981
# 4 0.002836 0.000307 0.001411 0.023220 -0.006598 -0.005611
# 5 -0.010868 -0.010184 0.000570 -0.006598 0.039696 0.004375
# 6 -0.006097 -0.007568 -0.001981 -0.005611 0.004375 0.033218
#
#
# Mechanical properties :
#
#
# Convention : Reuss Voigt Hill
#
# Bulk Modulus (GPa) = 28.17909 61.67915 44.92912
# Shear Modulus (GPa) = 31.82225 42.68836 37.25530
#
# Velocity S-wave (km/s) = 3.69038 4.27425 3.99300
# Velocity P-wave (km/s) = 5.49712 7.12430 6.36294
#
# Compressibility (1/GPa) = 0.03548730
#
# Stress axis : x y z
#
# Youngs Moduli (GPa) = 74.29782 45.93462 140.96085
#
# Poissons Ratio (x) = -0.04168 0.23962
# Poissons Ratio (y) = -0.06742 0.37012
# Poissons Ratio (z) = 0.12630 0.12061
#
# Static dielectric constant tensor:
#      x y z
#    x 2.066640 -0.038320 -0.095280 
#    y -0.038320 1.894530 0.012390 
#    z -0.095280 0.012390 1.936240 
# 
# From -- ./inp_files/237273.got.cif
#   From: 2010.05.17/outbox.cif.g08.bks.cpg/sg2_119_cif.got.tgz:237273.got - 2010.06.03 11:33:40.
