data_PCOD9085193
_publ_section_title
;
Structure prediction by ZEFSAII (Michael W. Deem and Ramdas Pophale) SiO2 
 PCOD9085193
Probable space group: P -1
;
_chemical_formula_sum "Si O2"
_cell_formula_units_Z 14
_cell_length_a 6.927195
_cell_length_b 15.349058
_cell_length_c 9.657209
_cell_angle_alpha 50.025025
_cell_angle_beta 61.982857
_cell_angle_gamma 47.242159
_cell_volume 576.714940
_symmetry_space_group_name_H-M "P -1"
_symmetry_group_IT_number 2
_symmetry_cell_setting 'triclinic'
loop_
_space_group_symop_operation_xyz
x,y,z
-x,-y,-z
loop_
_atom_site_type_symbol
_atom_site_label
_atom_site_fract_x
_atom_site_fract_y
_atom_site_fract_z
Si Si1 0.385867 0.509627 0.796735
Si Si2 0.576011 0.862647 0.032788
Si Si3 0.660695 0.153599 0.456768
Si Si4 0.806890 0.291118 0.069116
Si Si5 0.662583 0.283343 0.587586
Si Si6 0.079998 0.325802 0.379321
Si Si7 0.372805 0.088230 0.316518
O O1 0.283068 0.604380 0.874602
O O2 0.499781 0.569163 0.586800
O O3 0.144639 0.528441 0.764840
O O4 0.612495 0.366687 0.928572
O O5 0.478658 0.772746 0.222428
O O6 0.466086 0.905990 0.869302
O O7 0.892823 0.769790 0.005458
O O8 0.500000 0.000000 0.000000
O O9 0.765303 0.176009 0.256990
O O10 0.775859 0.184928 0.516635
O O11 0.343671 0.274137 0.429178
O O12 0.721366 0.005360 0.615444
O O13 0.908640 0.282348 0.565923
O O14 0.188913 0.236326 0.293193
O O15 0.500000 0.000000 0.500000
#
# Coordination Sequence:
#
# PCOD9085193 Si02
#       7
#     2   2   2   2   2   2   2
#     4   8  18  38  58  86 110 158 206 240 280 352
#     4  12  22  35  59  93 120 157 193 241 312 358
#     4  10  19  35  59  85 116 157 198 249 281 351
#     4  10  20  34  61  87 114 155 207 237 290 350
#     4   9  20  36  57  83 121 154 189 245 301 346
#     4   9  19  37  60  83 115 156 200 238 294 343
#     4  10  20  36  57  85 115 154 203 237 285 352
#
# _framework density 24.275424999999998
#
# number of rings (size 3 to 8) (size 9 to 14) (size 15 to 20)
#    0.857    1.429    2.857    0.000    2.000    2.286 
#    0.000    5.714    0.000    0.857    0.000    0.000 
#    0.000    0.000    0.000    0.000    0.000    0.000 
#
# Total GULP energy -77935.312462 kJ/mol
# GULP energy per Si atom -5566.808033 kJ/mol
# Density = 2.422017 g / cm^3
# Si number density = 24.275425 Si / 1000 Ang^3
#
#
#
# Elastic Constant Matrix: (Units=GPa)
#
#
# Indices 1 2 3 4 5 6 
#
# 1 78.7234 21.2769 20.1450 1.9859 -3.6160 -32.7390
# 2 21.2769 53.9635 38.0132 2.5204 9.3921 -13.3652
# 3 20.1450 38.0132 182.5627 -3.8078 -21.3920 -24.8897
# 4 1.9859 2.5204 -3.8078 31.1648 -10.6330 13.8979
# 5 -3.6160 9.3921 -21.3920 -10.6330 36.9729 2.4725
# 6 -32.7390 -13.3652 -24.8897 13.8979 2.4725 38.3462
#
#
#
# Elastic Compliance Matrix: (Units=1/GPa)
#
#
# Indices 1 2 3 4 5 6 
#
# 1 0.023699 -0.003046 0.000893 -0.012613 -0.001653 0.024430
# 2 -0.003046 0.030264 -0.006888 -0.012705 -0.016236 0.009128
# 3 0.000893 -0.006888 0.007991 0.003054 0.007207 0.001977
# 4 -0.012613 -0.012705 0.003054 0.058007 0.022831 -0.035711
# 5 -0.001653 -0.016236 0.007207 0.022831 0.042642 -0.013416
# 6 0.024430 0.009128 0.001977 -0.035711 -0.013416 0.065208
#
#
# Mechanical properties :
#
#
# Convention : Reuss Voigt Hill
#
# Bulk Modulus (GPa) = 22.79357 52.67999 37.73678
# Shear Modulus (GPa) = 19.19245 37.01775 28.10510
#
# Velocity S-wave (km/s) = 2.81483 3.90924 3.40628
# Velocity P-wave (km/s) = 4.46927 6.49032 5.57219
#
# Compressibility (1/GPa) = 0.04387202
#
# Stress axis : x y z
#
# Youngs Moduli (GPa) = 42.19499 33.04211 125.14067
#
# Poissons Ratio (x) = 0.10065 -0.11175
# Poissons Ratio (y) = 0.12853 0.86203
# Poissons Ratio (z) = -0.03768 0.22761
#
# Static dielectric constant tensor:
#      x y z
#    x 2.058160 0.054390 -0.022180 
#    y 0.054390 2.088800 -0.019180 
#    z -0.022180 -0.019180 1.951520 
# 
# From -- ./inp_files/220426.got.cif
#   From: 2010.05.17/outbox.cif.g08.bks.cpg/sg2_111_cif.got.tgz:220426.got - 2010.06.03 11:33:40.
