data_PCOD9085892
_publ_section_title
;
Structure prediction by ZEFSAII (Michael W. Deem and Ramdas Pophale) SiO2 
 PCOD9085892
Probable space group: P -1
;
_chemical_formula_sum "Si O2"
_cell_formula_units_Z 16
_cell_length_a 18.613198
_cell_length_b 9.310350
_cell_length_c 9.317581
_cell_angle_alpha 57.747021
_cell_angle_beta 46.018726
_cell_angle_gamma 34.728306
_cell_volume 659.195525
_symmetry_space_group_name_H-M "P -1"
_symmetry_group_IT_number 2
_symmetry_cell_setting 'triclinic'
loop_
_space_group_symop_operation_xyz
x,y,z
-x,-y,-z
loop_
_atom_site_type_symbol
_atom_site_label
_atom_site_fract_x
_atom_site_fract_y
_atom_site_fract_z
Si Si1 0.945524 0.257598 0.961312
Si Si2 0.328438 0.893782 0.777606
Si Si3 0.671471 0.497940 0.516071
Si Si4 0.935230 0.406296 0.202206
Si Si5 0.870384 0.663021 0.410745
Si Si6 0.659454 0.219664 0.875937
Si Si7 0.648893 0.475847 0.240995
Si Si8 0.386089 0.993105 0.200243
O O1 0.022370 0.309497 0.736364
O O2 0.982981 0.232004 0.092022
O O3 0.770858 0.469742 0.052271
O O4 0.000000 0.000000 0.000000
O O5 0.496262 0.748613 0.645627
O O6 0.333298 0.704109 0.794102
O O7 0.239398 0.129667 0.672789
O O8 0.264754 0.946692 0.997675
O O9 0.763638 0.553710 0.357913
O O10 0.732435 0.290057 0.660654
O O11 0.679533 0.392293 0.408118
O O12 0.957237 0.401044 0.347550
O O13 0.000000 0.500000 0.000000
O O14 0.765232 0.762850 0.638948
O O15 0.640359 0.093397 0.855043
O O16 0.500000 0.500000 0.000000
O O17 0.484331 0.755556 0.300796
O O18 0.500000 0.000000 0.000000
#
# Coordination Sequence:
#
# PCOD9085892 Si02
#       8
#     2   2   2   2   2   2   2   2
#     4  10  21  39  68  98 124 167 221 268 316 386
#     4  11  20  34  65  95 128 162 218 263 322 380
#     4  10  19  35  64  89 126 165 211 260 323 375
#     4   9  22  38  59  93 130 167 210 266 317 377
#     4  11  23  41  66  96 130 173 218 264 329 392
#     4  10  22  36  57  94 132 162 207 270 322 380
#     4  11  20  39  65  97 127 167 219 267 318 389
#     4  12  26  41  63  98 135 170 215 273 333 382
#
# _framework density 24.272010000000002
#
# number of rings (size 3 to 8) (size 9 to 14) (size 15 to 20)
#    0.000    1.500    5.000    1.125    5.250    2.500 
#    0.000    0.625    0.000   13.500    0.000    0.000 
#    0.000    0.000    0.000    0.000    0.000    0.000 
#
# Total GULP energy -89258.869914 kJ/mol
# GULP energy per Si atom -5578.679370 kJ/mol
# Density = 2.421677 g / cm^3
# Si number density = 24.272010 Si / 1000 Ang^3
#
#
#
# Elastic Constant Matrix: (Units=GPa)
#
#
# Indices 1 2 3 4 5 6 
#
# 1 125.8377 37.4538 59.9036 -0.4764 -12.2331 26.5964
# 2 37.4538 60.3317 29.7670 11.5362 10.1281 21.1673
# 3 59.9036 29.7670 150.3103 16.2669 -6.5425 13.9441
# 4 -0.4764 11.5362 16.2669 30.5488 4.2712 17.1701
# 5 -12.2331 10.1281 -6.5425 4.2712 54.1936 2.7205
# 6 26.5964 21.1673 13.9441 17.1701 2.7205 47.9848
#
#
#
# Elastic Compliance Matrix: (Units=1/GPa)
#
#
# Indices 1 2 3 4 5 6 
#
# 1 0.013579 -0.006069 -0.004318 0.008085 0.003376 -0.006679
# 2 -0.006069 0.024841 -0.001744 -0.004958 -0.005581 -0.004997
# 3 -0.004318 -0.001744 0.009147 -0.005818 0.000786 0.002542
# 4 0.008085 -0.004958 -0.005818 0.047893 -0.000837 -0.017693
# 5 0.003376 -0.005581 0.000786 -0.000837 0.020443 -0.000497
# 6 -0.006679 -0.004997 0.002542 -0.017693 -0.000497 0.032367
#
#
# Mechanical properties :
#
#
# Convention : Reuss Voigt Hill
#
# Bulk Modulus (GPa) = 42.90734 65.63651 54.27192
# Shear Modulus (GPa) = 27.73156 40.50247 34.11701
#
# Velocity S-wave (km/s) = 3.38380 4.08939 3.75322
# Velocity P-wave (km/s) = 5.74308 7.02839 6.41799
#
# Compressibility (1/GPa) = 0.02330604
#
# Stress axis : x y z
#
# Youngs Moduli (GPa) = 73.64249 40.25610 109.32197
#
# Poissons Ratio (x) = 0.24430 0.47209
# Poissons Ratio (y) = 0.44691 0.19062
# Poissons Ratio (z) = 0.31801 0.07019
#
# Static dielectric constant tensor:
#      x y z
#    x 1.931810 -0.058810 0.003110 
#    y -0.058810 2.087950 0.083900 
#    z 0.003110 0.083900 2.019970 
# 
# From -- ./inp_files/327412.got.cif
#   From: 2010.05.17/outbox.cif.g08.bks.cpg/sg2_164_cif.got.tgz:327412.got - 2010.06.03 11:33:40.
