data_PCOD9085085
_publ_section_title
;
Structure prediction by ZEFSAII (Michael W. Deem and Ramdas Pophale) SiO2 
 PCOD9085085
Probable space group: P -1
;
_chemical_formula_sum "Si O2"
_cell_formula_units_Z 16
_cell_length_a 8.487443
_cell_length_b 10.320838
_cell_length_c 19.418607
_cell_angle_alpha 35.416806
_cell_angle_beta 139.165055
_cell_angle_gamma 125.433381
_cell_volume 641.528683
_symmetry_space_group_name_H-M "P -1"
_symmetry_group_IT_number 2
_symmetry_cell_setting 'triclinic'
loop_
_space_group_symop_operation_xyz
x,y,z
-x,-y,-z
loop_
_atom_site_type_symbol
_atom_site_label
_atom_site_fract_x
_atom_site_fract_y
_atom_site_fract_z
Si Si1 0.166368 0.453346 0.940908
Si Si2 0.859222 0.737366 0.331634
Si Si3 0.434890 0.935496 0.583625
Si Si4 0.317045 0.747254 0.122717
Si Si5 0.486940 0.555809 0.128699
Si Si6 0.400266 0.956570 0.261032
Si Si7 0.065943 0.223311 0.823713
Si Si8 0.107587 0.949270 0.669067
O O1 0.880529 0.427444 0.856588
O O2 0.196931 0.684709 0.810838
O O3 0.280637 0.517677 0.023444
O O4 0.294551 0.197489 0.087851
O O5 0.574531 0.711835 0.259020
O O6 0.908106 0.773246 0.251813
O O7 0.926022 0.943241 0.311999
O O8 0.000000 0.500000 0.500000
O O9 0.463894 0.666844 0.713769
O O10 0.591271 0.017235 0.663970
O O11 0.152334 0.012906 0.468560
O O12 0.500000 0.000000 0.500000
O O13 0.383264 0.748780 0.062676
O O14 0.184662 0.986913 0.993278
O O15 0.746627 0.606680 0.162187
O O16 0.679003 0.919365 0.348362
O O17 0.219598 0.773851 0.258271
#
# Coordination Sequence:
#
# PCOD9085085 Si02
#       8
#     2   2   2   2   2   2   2   2
#     4  10  21  37  61  91 122 158 202 251 306 368
#     4  11  23  39  60  89 121 158 206 256 302 361
#     4  11  23  40  62  89 122 161 205 253 303 362
#     4  10  19  35  58  89 120 155 200 253 305 356
#     4  10  19  36  60  89 118 155 203 254 304 360
#     4  10  24  41  59  90 126 159 202 252 306 366
#     4  10  20  38  60  85 119 158 201 252 303 363
#     4  12  22  40  63  88 122 166 202 249 309 366
#
# _framework density 24.940428000000001
#
# number of rings (size 3 to 8) (size 9 to 14) (size 15 to 20)
#    0.000    1.500    0.000    7.125    0.000    3.000 
#    0.000   10.625    0.000    0.000    0.000    0.000 
#    0.000    0.000    0.000    0.750    0.000    0.000 
#
# Total GULP energy -89471.128203 kJ/mol
# GULP energy per Si atom -5591.945513 kJ/mol
# Density = 2.488366 g / cm^3
# Si number density = 24.940428 Si / 1000 Ang^3
#
#
#
# Elastic Constant Matrix: (Units=GPa)
#
#
# Indices 1 2 3 4 5 6 
#
# 1 82.3664 33.5154 23.3533 10.2823 -0.8738 21.0752
# 2 33.5154 140.4050 33.3338 17.3303 -6.1756 19.0959
# 3 23.3533 33.3338 103.9361 13.9634 1.0274 11.0118
# 4 10.2823 17.3303 13.9634 32.4576 12.3066 8.5880
# 5 -0.8738 -6.1756 1.0274 12.3066 19.7852 11.2262
# 6 21.0752 19.0959 11.0118 8.5880 11.2262 65.4795
#
#
#
# Elastic Compliance Matrix: (Units=1/GPa)
#
#
# Indices 1 2 3 4 5 6 
#
# 1 0.015064 -0.001890 -0.001873 -0.003674 0.004923 -0.004344
# 2 -0.001890 0.009408 -0.001580 -0.006198 0.008186 -0.002460
# 3 -0.001873 -0.001580 0.011099 -0.003759 0.001508 -0.000568
# 4 -0.003674 -0.006198 -0.003759 0.049035 -0.034128 0.003042
# 5 0.004923 0.008186 0.001508 -0.034128 0.082332 -0.013865
# 6 -0.004344 -0.002460 -0.000568 0.003042 -0.013865 0.019461
#
#
# Mechanical properties :
#
#
# Convention : Reuss Voigt Hill
#
# Bulk Modulus (GPa) = 40.18679 56.34584 48.26631
# Shear Modulus (GPa) = 24.34495 39.31143 31.82819
#
# Velocity S-wave (km/s) = 3.12769 3.97446 3.57623
# Velocity P-wave (km/s) = 5.40290 6.61083 6.03715
#
# Compressibility (1/GPa) = 0.02488380
#
# Stress axis : x y z
#
# Youngs Moduli (GPa) = 66.38541 106.28918 90.09510
#
# Poissons Ratio (x) = 0.20091 0.16877
# Poissons Ratio (y) = 0.12548 0.14238
# Poissons Ratio (z) = 0.12435 0.16797
#
# Static dielectric constant tensor:
#      x y z
#    x 2.081550 -0.003370 0.010850 
#    y -0.003370 1.982050 0.008760 
#    z 0.010850 0.008760 1.924540 
# 
# From -- ./inp_files/184283.got.cif
#   From: 2010.05.17/outbox.cif.g08.bks.cpg/sg2_93_cif.got.tgz:184283.got - 2010.06.03 11:33:40.
