data_PCOD9085954
_publ_section_title
;
Structure prediction by ZEFSAII (Michael W. Deem and Ramdas Pophale) SiO2 
 PCOD9085954
Probable space group: P -1
;
_chemical_formula_sum "Si O2"
_cell_formula_units_Z 14
_cell_length_a 14.391718
_cell_length_b 8.386195
_cell_length_c 7.299832
_cell_angle_alpha 127.457475
_cell_angle_beta 113.126573
_cell_angle_gamma 89.314133
_cell_volume 611.309030
_symmetry_space_group_name_H-M "P -1"
_symmetry_group_IT_number 2
_symmetry_cell_setting 'triclinic'
loop_
_space_group_symop_operation_xyz
x,y,z
-x,-y,-z
loop_
_atom_site_type_symbol
_atom_site_label
_atom_site_fract_x
_atom_site_fract_y
_atom_site_fract_z
Si Si1 0.200884 0.537532 0.819082
Si Si2 0.833275 0.259937 0.422278
Si Si3 0.701355 0.973481 0.700096
Si Si4 0.973775 0.752247 0.255704
Si Si5 0.894160 0.912612 0.974760
Si Si6 0.607948 0.653715 0.109084
Si Si7 0.606735 0.946260 0.003476
O O1 0.168483 0.558949 0.597193
O O2 0.102211 0.390147 0.751220
O O3 0.299543 0.450572 0.864336
O O4 0.239658 0.777318 0.093167
O O5 0.914826 0.298424 0.681383
O O6 0.873200 0.097637 0.212532
O O7 0.711715 0.130927 0.283724
O O8 0.637465 0.867846 0.400530
O O9 0.791237 0.860207 0.730072
O O10 0.626859 0.936468 0.795673
O O11 0.913037 0.741408 0.008939
O O12 0.000000 0.000000 0.500000
O O13 0.000000 0.000000 0.000000
O O14 0.601960 0.729379 0.950152
O O15 0.500000 0.500000 0.000000
O O16 0.500000 0.000000 0.000000
#
# Coordination Sequence:
#
# PCOD9085954 Si02
#       7
#     2   2   2   2   2   2   2
#     4  10  21  42  65  95 137 174 220 274 336 392
#     4   9  20  37  61  94 128 175 219 270 325 393
#     4  10  25  45  65 101 136 169 227 280 321 410
#     4  10  19  35  65  91 129 178 215 266 333 390
#     4   9  19  35  62  91 134 171 211 269 328 384
#     4  12  25  42  75  98 126 182 223 273 348 389
#     4  10  22  44  68  95 137 175 221 276 337 390
#
# _framework density 22.901674
#
# number of rings (size 3 to 8) (size 9 to 14) (size 15 to 20)
#    0.000    2.286    0.000    4.714    6.000    2.857 
#    0.000   10.000    0.000    0.000    0.000    0.000 
#    0.000    0.000    0.000    0.000    0.000    0.000 
#
# Total GULP energy -78281.855468 kJ/mol
# GULP energy per Si atom -5591.561105 kJ/mol
# Density = 2.284955 g / cm^3
# Si number density = 22.901674 Si / 1000 Ang^3
#
#
#
# Elastic Constant Matrix: (Units=GPa)
#
#
# Indices 1 2 3 4 5 6 
#
# 1 150.1882 57.2861 26.2384 -3.7630 40.2984 0.0962
# 2 57.2861 173.7368 23.6203 4.6901 10.4776 4.5504
# 3 26.2384 23.6203 62.6198 11.6441 2.8665 1.4068
# 4 -3.7630 4.6901 11.6441 30.4325 -6.3257 6.7140
# 5 40.2984 10.4776 2.8665 -6.3257 27.4994 2.9059
# 6 0.0962 4.5504 1.4068 6.7140 2.9059 52.8393
#
#
#
# Elastic Compliance Matrix: (Units=1/GPa)
#
#
# Indices 1 2 3 4 5 6 
#
# 1 0.013224 -0.002795 -0.003558 -0.000675 -0.018246 0.001400
# 2 -0.002795 0.006793 -0.001378 -0.000400 0.001620 -0.000581
# 3 -0.003558 -0.001378 0.019227 -0.007258 0.002020 0.000424
# 4 -0.000675 -0.000400 -0.007258 0.039189 0.011481 -0.005382
# 5 -0.018246 0.001620 0.002020 0.011481 0.065467 -0.005219
# 6 0.001400 -0.000581 0.000424 -0.005382 -0.005219 0.019932
#
#
# Mechanical properties :
#
#
# Convention : Reuss Voigt Hill
#
# Bulk Modulus (GPa) = 42.04555 66.75938 54.40246
# Shear Modulus (GPa) = 26.70643 40.78092 33.74368
#
# Velocity S-wave (km/s) = 3.41858 4.22441 3.84267
# Velocity P-wave (km/s) = 5.82934 7.28065 6.59504
#
# Compressibility (1/GPa) = 0.02378373
#
# Stress axis : x y z
#
# Youngs Moduli (GPa) = 75.62141 147.21053 52.00893
#
# Poissons Ratio (x) = 0.41141 0.18502
# Poissons Ratio (y) = 0.21134 0.07167
# Poissons Ratio (z) = 0.26902 0.20286
#
# Static dielectric constant tensor:
#      x y z
#    x 1.806200 -0.019270 -0.021660 
#    y -0.019270 1.839740 -0.046310 
#    z -0.021660 -0.046310 1.954330 
# 
# From -- ./inp_files/296482.got.cif
#   From: 2010.05.17/outbox.cif.g08.bks.cpg/sg2_149_cif.got.tgz:296482.got - 2010.06.03 11:33:40.
