data_PCOD9085726
_publ_section_title
;
Structure prediction by ZEFSAII (Michael W. Deem and Ramdas Pophale) SiO2 
 PCOD9085726
Probable space group: P -1
;
_chemical_formula_sum "Si O2"
_cell_formula_units_Z 16
_cell_length_a 6.038769
_cell_length_b 11.581482
_cell_length_c 12.140164
_cell_angle_alpha 100.460149
_cell_angle_beta 121.136111
_cell_angle_gamma 81.457495
_cell_volume 713.157099
_symmetry_space_group_name_H-M "P -1"
_symmetry_group_IT_number 2
_symmetry_cell_setting 'triclinic'
loop_
_space_group_symop_operation_xyz
x,y,z
-x,-y,-z
loop_
_atom_site_type_symbol
_atom_site_label
_atom_site_fract_x
_atom_site_fract_y
_atom_site_fract_z
Si Si1 0.812740 0.992261 0.684553
Si Si2 0.712894 0.967326 0.894399
Si Si3 0.832612 0.557267 0.865323
Si Si4 0.651651 0.822129 0.447494
Si Si5 0.284849 0.141264 0.902327
Si Si6 0.600367 0.399427 0.590259
Si Si7 0.140634 0.310145 0.717765
Si Si8 0.336185 0.554252 0.864627
O O1 0.691393 0.939374 0.755338
O O2 0.844688 0.893946 0.582115
O O3 0.615703 0.097260 0.608250
O O4 0.070445 0.050992 0.797301
O O5 0.541893 0.085233 0.901903
O O6 0.665504 0.868576 0.956133
O O7 0.000000 0.000000 0.000000
O O8 0.721364 0.458370 0.739525
O O9 0.556743 0.612368 0.856217
O O10 0.062459 0.612808 0.857528
O O11 0.000000 0.500000 0.000000
O O12 0.613699 0.692662 0.461268
O O13 0.723425 0.794534 0.336050
O O14 0.181417 0.265026 0.845901
O O15 0.500000 0.500000 0.500000
O O16 0.851622 0.323042 0.599525
O O17 0.249536 0.438245 0.758204
O O18 0.500000 0.500000 0.000000
#
# Coordination Sequence:
#
# PCOD9085726 Si02
#       8
#     2   2   2   2   2   2   2   2
#     4  10  21  37  62  93 129 163 212 269 316 403
#     4   9  19  36  60  87 126 159 203 266 324 384
#     4   9  18  37  63  88 119 162 216 274 331 391
#     4  11  22  38  62  92 124 170 217 261 329 396
#     4  10  19  35  62  92 122 165 209 260 330 390
#     4  11  24  42  63  90 128 171 222 279 330 391
#     4  11  21  37  64  93 120 173 218 261 332 403
#     4   9  18  34  60  89 119 158 214 273 316 389
#
# _framework density 22.435451
#
# number of rings (size 3 to 8) (size 9 to 14) (size 15 to 20)
#    0.000    2.000    3.750    0.000    0.000    2.000 
#    0.000    3.750   22.000    0.000    0.000    0.000 
#    0.000    0.000    0.000    0.000    0.000    0.000 
#
# Total GULP energy -89098.237883 kJ/mol
# GULP energy per Si atom -5568.639868 kJ/mol
# Density = 2.238439 g / cm^3
# Si number density = 22.435451 Si / 1000 Ang^3
#
#
#
# Elastic Constant Matrix: (Units=GPa)
#
#
# Indices 1 2 3 4 5 6 
#
# 1 122.0270 20.3320 1.9398 -6.1647 2.5109 -4.4209
# 2 20.3320 80.4548 44.2381 -16.8401 -5.7185 7.6627
# 3 1.9398 44.2381 71.6666 3.3365 -9.2377 10.8552
# 4 -6.1647 -16.8401 3.3365 38.5758 -1.7461 1.9379
# 5 2.5109 -5.7185 -9.2377 -1.7461 26.0184 -1.0916
# 6 -4.4209 7.6627 10.8552 1.9379 -1.0916 9.6735
#
#
#
# Elastic Compliance Matrix: (Units=1/GPa)
#
#
# Indices 1 2 3 4 5 6 
#
# 1 0.008974 -0.003525 0.000933 -0.000528 -0.001100 0.005828
# 2 -0.003525 0.024383 -0.014278 0.011725 0.001118 -0.007126
# 3 0.000933 -0.014278 0.026058 -0.007339 0.004881 -0.015484
# 4 -0.000528 0.011725 -0.007339 0.032053 0.001858 -0.007504
# 5 -0.001100 0.001118 0.004881 0.001858 0.040532 -0.002664
# 6 0.005828 -0.007126 -0.015484 -0.007504 -0.002664 0.130262
#
#
# Mechanical properties :
#
#
# Convention : Reuss Voigt Hill
#
# Bulk Modulus (GPa) = 38.94780 45.24092 42.09436
# Shear Modulus (GPa) = 16.41709 28.69611 22.55660
#
# Velocity S-wave (km/s) = 2.70802 3.58026 3.17424
# Velocity P-wave (km/s) = 5.21301 6.10735 5.67782
#
# Compressibility (1/GPa) = 0.02567539
#
# Stress axis : x y z
#
# Youngs Moduli (GPa) = 111.42708 41.01210 38.37601
#
# Poissons Ratio (x) = 0.14455 -0.03579
# Poissons Ratio (y) = 0.39273 0.54794
# Poissons Ratio (z) = -0.10392 0.58557
#
# Static dielectric constant tensor:
#      x y z
#    x 2.002470 0.009440 -0.055680 
#    y 0.009440 1.816540 0.009810 
#    z -0.055680 0.009810 1.827460 
# 
# From -- ./inp_files/364859.got.cif
#   From: 2010.05.17/outbox.cif.g08.bks.cpg/sg2_183_cif.got.tgz:364859.got - 2010.06.03 11:33:40.
