data_PCOD9085417
_publ_section_title
;
Structure prediction by ZEFSAII (Michael W. Deem and Ramdas Pophale) SiO2 
 PCOD9085417
Probable space group: P -1
;
_chemical_formula_sum "Si O2"
_cell_formula_units_Z 16
_cell_length_a 13.727699
_cell_length_b 7.364932
_cell_length_c 10.730103
_cell_angle_alpha 112.578409
_cell_angle_beta 47.802980
_cell_angle_gamma 126.637814
_cell_volume 644.648741
_symmetry_space_group_name_H-M "P -1"
_symmetry_group_IT_number 2
_symmetry_cell_setting 'triclinic'
loop_
_space_group_symop_operation_xyz
x,y,z
-x,-y,-z
loop_
_atom_site_type_symbol
_atom_site_label
_atom_site_fract_x
_atom_site_fract_y
_atom_site_fract_z
Si Si1 0.555823 0.348750 0.712414
Si Si2 0.749144 0.513580 0.045099
Si Si3 0.655796 0.822727 0.356279
Si Si4 0.677022 0.799674 0.614370
Si Si5 0.304925 0.926674 0.945847
Si Si6 0.209198 0.758768 0.249794
Si Si7 0.121776 0.391207 0.554528
Si Si8 0.893775 0.278089 0.173377
O O1 0.495940 0.220375 0.596231
O O2 0.567859 0.594482 0.746233
O O3 0.731104 0.427620 0.600500
O O4 0.439746 0.173118 0.863313
O O5 0.743541 0.425226 0.884187
O O6 0.928620 0.628065 0.949063
O O7 0.708894 0.693598 0.180232
O O8 0.655187 0.276466 0.137995
O O9 0.634072 0.733632 0.490802
O O10 0.792078 0.080073 0.305985
O O11 0.837673 0.805632 0.503869
O O12 0.692531 0.040542 0.688731
O O13 0.176999 0.838480 0.927237
O O14 0.237238 0.903698 0.134267
O O15 0.030730 0.656717 0.394828
O O16 0.125105 0.509621 0.714417
#
# Coordination Sequence:
#
# PCOD9085417 Si02
#       8
#     2   2   2   2   2   2   2   2
#     4   9  22  36  56  90 118 147 194 237 288 341
#     4   9  20  36  58  86 114 153 194 236 287 338
#     4  11  21  36  57  89 119 154 184 238 292 347
#     4  10  21  38  59  85 120 151 191 235 291 344
#     4   9  19  34  59  85 112 148 194 240 285 329
#     4   9  20  37  65  84 112 151 198 238 287 332
#     4   9  20  37  60  87 113 149 196 245 280 332
#     4  10  19  35  60  89 111 149 201 243 281 330
#
# _framework density 24.819718999999999
#
# number of rings (size 3 to 8) (size 9 to 14) (size 15 to 20)
#    1.500    1.000    0.000    2.250    1.750    2.500 
#    2.250    3.125    5.500    0.000    0.000    0.000 
#    0.000    0.000    0.000    0.000    0.000    0.000 
#
# Total GULP energy -89223.122146 kJ/mol
# GULP energy per Si atom -5576.445134 kJ/mol
# Density = 2.476323 g / cm^3
# Si number density = 24.819719 Si / 1000 Ang^3
#
#
#
# Elastic Constant Matrix: (Units=GPa)
#
#
# Indices 1 2 3 4 5 6 
#
# 1 26.5094 28.3736 18.7023 -3.4853 0.2853 4.6628
# 2 28.3736 129.8016 45.8858 -2.0188 -9.0695 2.5675
# 3 18.7023 45.8858 60.3595 -0.4586 -5.3517 6.7228
# 4 -3.4853 -2.0188 -0.4586 55.6335 -0.4216 -0.5119
# 5 0.2853 -9.0695 -5.3517 -0.4216 23.5935 -6.1810
# 6 4.6628 2.5675 6.7228 -0.5119 -6.1810 37.4527
#
#
#
# Elastic Compliance Matrix: (Units=1/GPa)
#
#
# Indices 1 2 3 4 5 6 
#
# 1 0.056325 -0.008923 -0.010714 0.003003 -0.007995 -0.005756
# 2 -0.008923 0.012123 -0.006338 -0.000123 0.003866 0.002054
# 3 -0.010714 -0.006338 0.025204 -0.000693 0.002794 -0.002304
# 4 0.003003 -0.000123 -0.000693 0.018154 0.000089 0.000022
# 5 -0.007995 0.003866 0.002794 0.000089 0.046681 0.007934
# 6 -0.005756 0.002054 -0.002304 0.000022 0.007934 0.028999
#
#
# Mechanical properties :
#
#
# Convention : Reuss Voigt Hill
#
# Bulk Modulus (GPa) = 23.97942 44.73263 34.35603
# Shear Modulus (GPa) = 19.73664 31.58320 25.65992
#
# Velocity S-wave (km/s) = 2.82299 3.57109 3.21885
# Velocity P-wave (km/s) = 4.50645 5.92163 5.26183
#
# Compressibility (1/GPa) = 0.04170242
#
# Stress axis : x y z
#
# Youngs Moduli (GPa) = 17.75421 82.49045 39.67570
#
# Poissons Ratio (x) = 0.73605 0.42508
# Poissons Ratio (y) = 0.15842 0.25146
# Poissons Ratio (z) = 0.19022 0.52282
#
# Static dielectric constant tensor:
#      x y z
#    x 2.026630 -0.005500 -0.043300 
#    y -0.005500 1.944390 -0.016220 
#    z -0.043300 -0.016220 1.964810 
# 
# From -- ./inp_files/444868.got.cif
#   From: 2010.05.17/outbox.cif.g08.bks.cpg/sg2_223_cif.got.tgz:444868.got - 2010.06.03 11:33:40.
