data_PCOD9085376
_publ_section_title
;
Structure prediction by ZEFSAII (Michael W. Deem and Ramdas Pophale) SiO2 
 PCOD9085376
Probable space group: P -1
;
_chemical_formula_sum "Si O2"
_cell_formula_units_Z 16
_cell_length_a 21.190471
_cell_length_b 11.841259
_cell_length_c 8.668333
_cell_angle_alpha 128.587382
_cell_angle_beta 99.800352
_cell_angle_gamma 37.949271
_cell_volume 777.050715
_symmetry_space_group_name_H-M "P -1"
_symmetry_group_IT_number 2
_symmetry_cell_setting 'triclinic'
loop_
_space_group_symop_operation_xyz
x,y,z
-x,-y,-z
loop_
_atom_site_type_symbol
_atom_site_label
_atom_site_fract_x
_atom_site_fract_y
_atom_site_fract_z
Si Si1 0.915687 0.813789 0.703643
Si Si2 0.150456 0.361822 0.197539
Si Si3 0.611412 0.173940 0.573330
Si Si4 0.339868 0.863067 0.091413
Si Si5 0.136636 0.814840 0.460240
Si Si6 0.016674 0.079450 0.938226
Si Si7 0.767209 0.610719 0.040282
Si Si8 0.848309 0.870179 0.234368
O O1 0.000000 0.500000 0.500000
O O2 0.997705 0.703845 0.491729
O O3 0.939644 0.866770 0.904682
O O4 0.759735 0.072235 0.847952
O O5 0.255591 0.150911 0.204631
O O6 0.181255 0.401838 0.099442
O O7 0.180476 0.138881 0.954922
O O8 0.614301 0.161775 0.748620
O O9 0.636017 0.963820 0.341614
O O10 0.740339 0.010610 0.424306
O O11 0.471215 0.535521 0.778602
O O12 0.144016 0.974053 0.603811
O O13 0.250345 0.514821 0.142142
O O14 0.000000 0.000000 0.500000
O O15 0.131433 0.793272 0.622147
O O16 0.880985 0.381259 0.031526
O O17 0.000000 0.000000 0.000000
O O18 0.000000 0.500000 0.000000
#
# Coordination Sequence:
#
# PCOD9085376 Si02
#       8
#     2   2   2   2   2   2   2   2
#     4  10  19  35  60  87 114 144 188 238 284 335
#     4  10  20  35  60  87 116 146 191 239 283 337
#     4  10  22  39  60  82 117 151 192 237 283 345
#     4  10  21  36  59  89 113 150 193 238 287 333
#     4  10  20  34  52  82 116 146 185 228 282 338
#     4  11  22  35  54  84 118 147 182 234 290 341
#     4  10  21  37  57  84 118 153 186 231 289 342
#     4  11  21  36  59  87 114 148 190 237 285 336
#
# _framework density 20.590676999999999
#
# number of rings (size 3 to 8) (size 9 to 14) (size 15 to 20)
#    0.000    1.750    0.000    7.500    0.000    5.000 
#    0.000    0.000    0.000   16.500    0.000    0.000 
#    0.000    0.000    0.000    0.000    0.000    0.000 
#
# Total GULP energy -89125.492063 kJ/mol
# GULP energy per Si atom -5570.343254 kJ/mol
# Density = 2.054381 g / cm^3
# Si number density = 20.590677 Si / 1000 Ang^3
#
#
#
# Elastic Constant Matrix: (Units=GPa)
#
#
# Indices 1 2 3 4 5 6 
#
# 1 61.8520 13.5239 33.6967 2.0642 25.6352 7.8954
# 2 13.5239 67.8171 14.5251 -8.8561 -7.8790 15.6145
# 3 33.6967 14.5251 139.6950 -4.6256 15.6314 -8.0191
# 4 2.0642 -8.8561 -4.6256 39.6785 -12.2768 0.7020
# 5 25.6352 -7.8790 15.6314 -12.2768 42.9133 -6.4368
# 6 7.8954 15.6145 -8.0191 0.7020 -6.4368 24.2695
#
#
#
# Elastic Compliance Matrix: (Units=1/GPa)
#
#
# Indices 1 2 3 4 5 6 
#
# 1 0.032838 -0.006127 -0.005809 -0.010903 -0.023949 -0.014697
# 2 -0.006127 0.020683 -0.001979 0.007628 0.008886 -0.009832
# 3 -0.005809 -0.001979 0.009048 0.001142 0.001099 0.006411
# 4 -0.010903 0.007628 0.001142 0.032915 0.017312 0.002656
# 5 -0.023949 0.008886 0.001099 0.017312 0.045910 0.014113
# 6 -0.014697 -0.009832 0.006411 0.002656 0.014113 0.058095
#
#
# Mechanical properties :
#
#
# Convention : Reuss Voigt Hill
#
# Bulk Modulus (GPa) = 28.78475 43.65062 36.21768
# Shear Modulus (GPa) = 20.92946 35.21350 28.07148
#
# Velocity S-wave (km/s) = 3.19165 4.13990 3.69631
# Velocity P-wave (km/s) = 5.25281 6.64055 5.98703
#
# Compressibility (1/GPa) = 0.03474062
#
# Stress axis : x y z
#
# Youngs Moduli (GPa) = 30.45295 48.34830 110.51886
#
# Poissons Ratio (x) = 0.29621 0.64198
# Poissons Ratio (y) = 0.18657 0.21870
# Poissons Ratio (z) = 0.17690 0.09567
#
# Static dielectric constant tensor:
#      x y z
#    x 2.097220 0.014750 0.152160 
#    y 0.014750 1.819490 -0.017970 
#    z 0.152160 -0.017970 1.912370 
# 
# From -- ./inp_files/345612.got.cif
#   From: 2010.05.17/outbox.cif.g08.bks.cpg/sg2_173_cif.got.tgz:345612.got - 2010.06.03 11:33:40.
