data_PCOD9085084
_publ_section_title
;
Structure prediction by ZEFSAII (Michael W. Deem and Ramdas Pophale) SiO2 
 PCOD9085084
Probable space group: P -1
;
_chemical_formula_sum "Si O2"
_cell_formula_units_Z 12
_cell_length_a 14.287992
_cell_length_b 10.373269
_cell_length_c 14.433276
_cell_angle_alpha 34.109437
_cell_angle_beta 152.272779
_cell_angle_gamma 133.542119
_cell_volume 550.137986
_symmetry_space_group_name_H-M "P -1"
_symmetry_group_IT_number 2
_symmetry_cell_setting 'triclinic'
loop_
_space_group_symop_operation_xyz
x,y,z
-x,-y,-z
loop_
_atom_site_type_symbol
_atom_site_label
_atom_site_fract_x
_atom_site_fract_y
_atom_site_fract_z
Si Si1 0.476880 0.656907 0.756536
Si Si2 0.771388 0.220277 0.220241
Si Si3 0.925197 0.282954 0.516423
Si Si4 0.112725 0.286489 0.338984
Si Si5 0.221386 0.049181 0.190557
Si Si6 0.005488 0.218043 0.074901
O O1 0.309786 0.688025 0.672082
O O2 0.665212 0.787880 0.870114
O O3 0.364314 0.807497 0.483322
O O4 0.565998 0.399535 0.953244
O O5 0.895809 0.271978 0.207513
O O6 0.746684 0.948829 0.362014
O O7 0.917159 0.262534 0.410639
O O8 0.000000 0.500000 0.500000
O O9 0.049870 0.039778 0.810262
O O10 0.093064 0.258968 0.228081
O O11 0.151467 0.551071 0.229222
O O12 0.181098 0.187570 0.169803
O O13 0.000000 0.000000 0.000000
#
# Coordination Sequence:
#
# PCOD9085084 Si02
#       6
#     2   2   2   2   2   2
#     4  10  21  36  59  93 118 158 199 238 312 357
#     4  10  19  35  58  89 118 159 204 242 296 353
#     4  10  22  36  59  93 124 153 195 256 305 351
#     4   9  18  33  60  85 115 163 206 237 285 361
#     4  10  21  37  62  93 121 151 195 255 306 356
#     4   9  18  35  58  86 113 158 203 233 300 354
#
# _framework density 21.812708000000001
#
# number of rings (size 3 to 8) (size 9 to 14) (size 15 to 20)
#    0.000    2.333    1.667    0.500    4.667    0.000 
#    0.000    0.000    0.000   18.000    0.000    0.000 
#    0.000    0.000    0.000    0.000    0.000    0.000 
#
# Total GULP energy -66868.549370 kJ/mol
# GULP energy per Si atom -5572.379114 kJ/mol
# Density = 2.176306 g / cm^3
# Si number density = 21.812708 Si / 1000 Ang^3
#
#
#
# Elastic Constant Matrix: (Units=GPa)
#
#
# Indices 1 2 3 4 5 6 
#
# 1 108.8383 19.4949 2.5970 8.4234 12.7685 0.5095
# 2 19.4949 93.4731 51.6635 -20.6406 7.6107 7.6288
# 3 2.5970 51.6635 140.5177 -51.6776 14.0824 -6.2530
# 4 8.4234 -20.6406 -51.6776 50.1285 -2.8401 8.4576
# 5 12.7685 7.6107 14.0824 -2.8401 19.5137 -5.2693
# 6 0.5095 7.6288 -6.2530 8.4576 -5.2693 16.6950
#
#
#
# Elastic Compliance Matrix: (Units=1/GPa)
#
#
# Indices 1 2 3 4 5 6 
#
# 1 0.010626 -0.002548 0.000337 -0.002923 -0.006523 0.000388
# 2 -0.002548 0.015936 -0.004347 0.004357 -0.004108 -0.012336
# 3 0.000337 -0.004347 0.013877 0.012274 -0.007100 -0.001285
# 4 -0.002923 0.004357 0.012274 0.037619 -0.008295 -0.018980
# 5 -0.006523 -0.004108 -0.007100 -0.008295 0.067787 0.025014
# 6 0.000388 -0.012336 -0.001285 -0.018980 0.025014 0.082552
#
#
# Mechanical properties :
#
#
# Convention : Reuss Voigt Hill
#
# Bulk Modulus (GPa) = 36.60125 54.48220 45.54172
# Shear Modulus (GPa) = 19.95046 35.20570 27.57808
#
# Velocity S-wave (km/s) = 3.02756 4.02182 3.55957
# Velocity P-wave (km/s) = 5.38866 6.82629 6.14963
#
# Compressibility (1/GPa) = 0.02732147
#
# Stress axis : x y z
#
# Youngs Moduli (GPa) = 94.10937 62.75262 72.06344
#
# Poissons Ratio (x) = 0.15991 -0.02425
# Poissons Ratio (y) = 0.23981 0.31324
# Poissons Ratio (z) = -0.03167 0.27276
#
# Static dielectric constant tensor:
#      x y z
#    x 1.809200 -0.009280 -0.042650 
#    y -0.009280 1.841870 -0.062960 
#    z -0.042650 -0.062960 1.869630 
# 
# From -- ./inp_files/572984.got.cif
#   From: 2010.05.17/outbox.cif.g08.bks.cpg/sg2_287_cif.got.tgz:572984.got - 2010.06.03 11:33:40.
