data_PCOD9085591
_publ_section_title
;
Structure prediction by ZEFSAII (Michael W. Deem and Ramdas Pophale) SiO2 
 PCOD9085591
Probable space group: P -1
;
_chemical_formula_sum "Si O2"
_cell_formula_units_Z 16
_cell_length_a 6.969014
_cell_length_b 10.783230
_cell_length_c 13.805843
_cell_angle_alpha 103.190222
_cell_angle_beta 137.237059
_cell_angle_gamma 74.686858
_cell_volume 678.478355
_symmetry_space_group_name_H-M "P -1"
_symmetry_group_IT_number 2
_symmetry_cell_setting 'triclinic'
loop_
_space_group_symop_operation_xyz
x,y,z
-x,-y,-z
loop_
_atom_site_type_symbol
_atom_site_label
_atom_site_fract_x
_atom_site_fract_y
_atom_site_fract_z
Si Si1 0.395130 0.175672 0.997196
Si Si2 0.139736 0.245628 0.242885
Si Si3 0.793468 0.266225 0.292917
Si Si4 0.566399 0.746955 0.470708
Si Si5 0.752027 0.521909 0.025312
Si Si6 0.196559 0.862309 0.041969
Si Si7 0.181415 0.938665 0.246599
Si Si8 0.622076 0.492122 0.753718
O O1 0.183441 0.090428 0.262065
O O2 0.591169 0.162741 0.165474
O O3 0.260591 0.325353 0.970878
O O4 0.140860 0.092413 0.883939
O O5 0.404462 0.284020 0.408334
O O6 0.877022 0.312326 0.224217
O O7 0.077254 0.480936 0.175504
O O8 0.023479 0.233940 0.089418
O O9 0.611090 0.379793 0.304501
O O10 0.115831 0.228162 0.443213
O O11 0.338042 0.871339 0.385647
O O12 0.486220 0.623455 0.363383
O O13 0.500000 0.500000 0.000000
O O14 0.695797 0.461918 0.888996
O O15 0.331721 0.856080 0.196716
O O16 0.422408 0.851634 0.037808
O O17 0.000000 0.000000 0.000000
#
# Coordination Sequence:
#
# PCOD9085591 Si02
#       8
#     2   2   2   2   2   2   2   2
#     4  10  20  37  58  89 114 158 199 248 294 357
#     4   8  19  36  57  90 122 160 193 247 296 349
#     4   8  19  34  57  84 119 155 193 239 297 350
#     4  10  19  35  61  90 120 162 194 245 303 357
#     4  10  22  36  59  90 120 145 204 258 293 349
#     4   9  20  36  58  86 116 155 200 246 287 345
#     4  11  20  35  66  86 117 160 209 238 296 351
#     4  10  19  37  61  86 112 164 199 237 305 358
#
# _framework density 23.582182
#
# number of rings (size 3 to 8) (size 9 to 14) (size 15 to 20)
#    0.750    1.750    1.250    0.750    1.750    4.500 
#    0.000    0.000    5.500    6.000    0.000    0.000 
#    0.000    0.000    0.000    0.000    0.000    0.000 
#
# Total GULP energy -89152.016886 kJ/mol
# GULP energy per Si atom -5572.001055 kJ/mol
# Density = 2.352851 g / cm^3
# Si number density = 23.582182 Si / 1000 Ang^3
#
#
#
# Elastic Constant Matrix: (Units=GPa)
#
#
# Indices 1 2 3 4 5 6 
#
# 1 119.1608 14.2303 25.8191 15.0150 6.4350 -1.7794
# 2 14.2303 79.7664 12.2124 24.9202 3.1085 -15.8458
# 3 25.8191 12.2124 101.5042 21.4228 11.7513 0.5484
# 4 15.0150 24.9202 21.4228 43.0875 -3.0979 -2.2902
# 5 6.4350 3.1085 11.7513 -3.0979 41.9408 3.1206
# 6 -1.7794 -15.8458 0.5484 -2.2902 3.1206 21.9623
#
#
#
# Elastic Compliance Matrix: (Units=1/GPa)
#
#
# Indices 1 2 3 4 5 6 
#
# 1 0.009154 -0.000646 -0.001702 -0.002032 -0.001049 0.000255
# 2 -0.000646 0.018381 0.000380 -0.010146 -0.003055 0.012576
# 3 -0.001702 0.000380 0.011868 -0.005793 -0.003500 -0.000267
# 4 -0.002032 -0.010146 -0.005793 0.032808 0.005460 -0.004694
# 5 -0.001049 -0.003055 -0.003500 0.005460 0.026011 -0.005328
# 6 0.000255 0.012576 -0.000267 -0.004694 -0.005328 0.054901
#
#
# Mechanical properties :
#
#
# Convention : Reuss Voigt Hill
#
# Bulk Modulus (GPa) = 28.19519 44.99500 36.59510
# Shear Modulus (GPa) = 29.60646 37.94275 33.77461
#
# Velocity S-wave (km/s) = 3.54709 4.01553 3.78856
# Velocity P-wave (km/s) = 5.36264 6.37345 5.88977
#
# Compressibility (1/GPa) = 0.03546704
#
# Stress axis : x y z
#
# Youngs Moduli (GPa) = 109.23652 54.40527 84.25716
#
# Poissons Ratio (x) = 0.03516 0.14340
# Poissons Ratio (y) = 0.07059 -0.03201
# Poissons Ratio (z) = 0.18591 -0.02067
#
# Static dielectric constant tensor:
#      x y z
#    x 1.977210 0.064630 -0.020550 
#    y 0.064630 2.013350 -0.060080 
#    z -0.020550 -0.060080 2.019550 
# 
# From -- ./inp_files/390542.got.cif
#   From: 2010.05.17/outbox.cif.g08.bks.cpg/sg2_196_cif.got.tgz:390542.got - 2010.06.03 11:33:40.
