data_PCOD9085886
_publ_section_title
;
Structure prediction by ZEFSAII (Michael W. Deem and Ramdas Pophale) SiO2 
 PCOD9085886
Probable space group: P -1
;
_chemical_formula_sum "Si O2"
_cell_formula_units_Z 12
_cell_length_a 9.233256
_cell_length_b 11.470303
_cell_length_c 8.879398
_cell_angle_alpha 51.940406
_cell_angle_beta 137.767919
_cell_angle_gamma 103.508105
_cell_volume 451.391483
_symmetry_space_group_name_H-M "P -1"
_symmetry_group_IT_number 2
_symmetry_cell_setting 'triclinic'
loop_
_space_group_symop_operation_xyz
x,y,z
-x,-y,-z
loop_
_atom_site_type_symbol
_atom_site_label
_atom_site_fract_x
_atom_site_fract_y
_atom_site_fract_z
Si Si1 0.607720 0.822752 0.855567
Si Si2 0.895881 0.894562 0.794108
Si Si3 0.018603 0.307325 0.252792
Si Si4 0.735410 0.037805 0.139690
Si Si5 0.636170 0.632505 0.322028
Si Si6 0.539073 0.568162 0.815131
O O1 0.809249 0.872519 0.909048
O O2 0.538722 0.737332 0.728809
O O3 0.354512 0.971984 0.577760
O O4 0.709233 0.701658 0.171645
O O5 0.965106 0.730126 0.880845
O O6 0.111057 0.947865 0.896431
O O7 0.224312 0.356879 0.432666
O O8 0.077301 0.127351 0.508649
O O9 0.789925 0.445890 0.040022
O O10 0.625986 0.223665 0.967838
O O11 0.500000 0.000000 0.000000
O O12 0.637719 0.459841 0.416527
O O13 0.500000 0.500000 0.000000
#
# Coordination Sequence:
#
# PCOD9085886 Si02
#       6
#     2   2   2   2   2   2
#     4  10  23  38  62  93 131 157 197 262 314 358
#     4  11  21  40  65  91 123 163 203 255 314 358
#     4  11  21  36  69  88 113 166 211 250 297 366
#     4  10  19  35  64  89 114 157 214 247 287 364
#     4  10  20  39  65  90 117 161 216 245 296 372
#     4  10  21  38  61  90 125 159 203 255 306 362
#
# _framework density 26.584461000000001
#
# number of rings (size 3 to 8) (size 9 to 14) (size 15 to 20)
#    0.000    1.667    3.333    2.500    0.000    3.333 
#    0.000    4.167   18.333    0.000    0.000    0.000 
#    0.000    0.000    0.000    0.000    0.000    0.000 
#
# Total GULP energy -67016.314938 kJ/mol
# GULP energy per Si atom -5584.692912 kJ/mol
# Density = 2.652395 g / cm^3
# Si number density = 26.584461 Si / 1000 Ang^3
#
#
#
# Elastic Constant Matrix: (Units=GPa)
#
#
# Indices 1 2 3 4 5 6 
#
# 1 187.3975 33.9410 36.1776 -2.1464 28.0654 11.8323
# 2 33.9410 171.8401 30.1075 -0.9376 4.1017 -21.1327
# 3 36.1776 30.1075 73.0204 0.6356 15.7669 -9.6486
# 4 -2.1464 -0.9376 0.6356 43.0054 3.9460 2.7527
# 5 28.0654 4.1017 15.7669 3.9460 30.3222 -6.7124
# 6 11.8323 -21.1327 -9.6486 2.7527 -6.7124 39.3688
#
#
#
# Elastic Compliance Matrix: (Units=1/GPa)
#
#
# Indices 1 2 3 4 5 6 
#
# 1 0.007351 -0.001482 -0.002234 0.001285 -0.006667 -0.004779
# 2 -0.001482 0.006925 -0.002114 -0.000382 0.002491 0.004096
# 3 -0.002234 -0.002114 0.017344 -0.000035 -0.006050 0.002758
# 4 0.001285 -0.000382 -0.000035 0.023961 -0.004927 -0.003116
# 5 -0.006667 0.002491 -0.006050 -0.004927 0.044777 0.009837
# 6 -0.004779 0.004096 0.002758 -0.003116 0.009837 0.031607
#
#
# Mechanical properties :
#
#
# Convention : Reuss Voigt Hill
#
# Bulk Modulus (GPa) = 50.10148 70.30112 60.20130
# Shear Modulus (GPa) = 33.27155 44.67474 38.97315
#
# Velocity S-wave (km/s) = 3.54155 4.10382 3.83301
# Velocity P-wave (km/s) = 5.96745 6.99692 6.50259
#
# Compressibility (1/GPa) = 0.01995949
#
# Stress axis : x y z
#
# Youngs Moduli (GPa) = 136.03844 144.41136 57.65540
#
# Poissons Ratio (x) = 0.21403 0.12880
# Poissons Ratio (y) = 0.20162 0.12189
# Poissons Ratio (z) = 0.30391 0.30531
#
# Static dielectric constant tensor:
#      x y z
#    x 2.098210 0.070920 -0.022610 
#    y 0.070920 2.145490 0.089080 
#    z -0.022610 0.089080 2.113150 
# 
# From -- ./inp_files/172534.got.cif
#   From: 2010.05.17/outbox.cif.g08.bks.cpg/sg2_87_cif.got.tgz:172534.got - 2010.06.03 11:33:40.
