data_PCOD9085956
_publ_section_title
;
Structure prediction by ZEFSAII (Michael W. Deem and Ramdas Pophale) SiO2 
 PCOD9085956
Probable space group: P -1
;
_chemical_formula_sum "Si O2"
_cell_formula_units_Z 14
_cell_length_a 10.408670
_cell_length_b 10.017269
_cell_length_c 14.235223
_cell_angle_alpha 35.912201
_cell_angle_beta 126.333726
_cell_angle_gamma 141.719708
_cell_volume 535.493057
_symmetry_space_group_name_H-M "P -1"
_symmetry_group_IT_number 2
_symmetry_cell_setting 'triclinic'
loop_
_space_group_symop_operation_xyz
x,y,z
-x,-y,-z
loop_
_atom_site_type_symbol
_atom_site_label
_atom_site_fract_x
_atom_site_fract_y
_atom_site_fract_z
Si Si1 0.176686 0.989034 0.117039
Si Si2 0.576741 0.222853 0.467883
Si Si3 0.889270 0.204593 0.591849
Si Si4 0.640303 0.296278 0.659102
Si Si5 0.542715 0.698036 0.107545
Si Si6 0.071990 0.038561 0.614733
Si Si7 0.289902 0.869815 0.899780
O O1 0.175337 0.984856 0.231183
O O2 0.166096 0.706861 0.248697
O O3 0.380003 0.242620 0.000275
O O4 0.000000 0.000000 0.000000
O O5 0.522036 0.120605 0.611482
O O6 0.560000 0.466874 0.290049
O O7 0.858542 0.474573 0.463719
O O8 0.344376 0.925867 0.481383
O O9 0.937138 0.057043 0.618414
O O10 0.713631 0.618837 0.490474
O O11 0.497013 0.132784 0.780129
O O12 0.695416 0.991803 0.072674
O O13 0.325115 0.633224 0.056077
O O14 0.107716 0.814710 0.791976
O O15 0.000000 0.000000 0.500000
#
# Coordination Sequence:
#
# PCOD9085956 Si02
#       7
#     2   2   2   2   2   2   2
#     4  10  19  35  65  92 124 168 212 263 329 376
#     4  11  23  39  68  95 124 167 225 269 323 382
#     4  11  21  42  65  93 127 168 218 267 317 389
#     4  10  22  40  61  92 125 174 219 263 317 391
#     4  10  21  38  67  97 126 171 213 271 331 388
#     4  12  24  38  65  98 130 171 218 270 319 384
#     4  10  21  41  65  92 133 170 214 263 335 388
#
# _framework density 26.144130000000001
#
# number of rings (size 3 to 8) (size 9 to 14) (size 15 to 20)
#    0.000    1.429    4.286    2.143    2.000    0.000 
#    0.000    9.286    0.000    9.429    0.000    0.000 
#    0.000    0.000    0.000    0.000    0.000    0.000 
#
# Total GULP energy -78208.569008 kJ/mol
# GULP energy per Si atom -5586.326358 kJ/mol
# Density = 2.608463 g / cm^3
# Si number density = 26.144130 Si / 1000 Ang^3
#
#
#
# Elastic Constant Matrix: (Units=GPa)
#
#
# Indices 1 2 3 4 5 6 
#
# 1 167.3545 54.0061 75.7934 25.0831 16.1246 5.1965
# 2 54.0061 95.8834 41.9349 30.5362 5.1820 -7.3992
# 3 75.7934 41.9349 167.2927 40.3226 22.7747 -5.1691
# 4 25.0831 30.5362 40.3226 50.2715 3.4728 -4.3527
# 5 16.1246 5.1820 22.7747 3.4728 82.0106 18.2667
# 6 5.1965 -7.3992 -5.1691 -4.3527 18.2667 46.2066
#
#
#
# Elastic Compliance Matrix: (Units=1/GPa)
#
#
# Indices 1 2 3 4 5 6 
#
# 1 0.008594 -0.003721 -0.003054 0.000282 -0.000219 -0.001791
# 2 -0.003721 0.015024 -0.000327 -0.006785 -0.000349 0.002287
# 3 -0.003054 -0.000327 0.009032 -0.005243 -0.002023 0.001607
# 4 0.000282 -0.006785 -0.005243 0.028112 0.000470 0.000757
# 5 -0.000219 -0.000349 -0.002023 0.000470 0.014089 -0.005783
# 6 -0.001791 0.002287 0.001607 0.000757 -0.005783 0.024747
#
#
# Mechanical properties :
#
#
# Convention : Reuss Voigt Hill
#
# Bulk Modulus (GPa) = 54.21058 85.99995 70.10527
# Shear Modulus (GPa) = 41.68425 52.95084 47.31754
#
# Velocity S-wave (km/s) = 3.99733 4.50526 4.25887
# Velocity P-wave (km/s) = 6.48731 7.74785 7.14543
#
# Compressibility (1/GPa) = 0.01844658
#
# Stress axis : x y z
#
# Youngs Moduli (GPa) = 116.36348 66.55914 110.71669
#
# Poissons Ratio (x) = 0.24765 0.33816
# Poissons Ratio (y) = 0.43297 0.03617
# Poissons Ratio (z) = 0.35540 0.02174
#
# Static dielectric constant tensor:
#      x y z
#    x 2.120460 0.089510 0.038850 
#    y 0.089510 2.303000 0.011200 
#    z 0.038850 0.011200 1.988350 
# 
# From -- ./inp_files/518673.got.cif
#   From: 2010.05.17/outbox.cif.g08.bks.cpg/sg2_260_cif.got.tgz:518673.got - 2010.06.03 11:33:40.
