data_PCOD9085047
_publ_section_title
;
Structure prediction by ZEFSAII (Michael W. Deem and Ramdas Pophale) SiO2 
 PCOD9085047
Probable space group: P -1
;
_chemical_formula_sum "Si O2"
_cell_formula_units_Z 12
_cell_length_a 8.687307
_cell_length_b 5.831139
_cell_length_c 11.511694
_cell_angle_alpha 83.413768
_cell_angle_beta 97.270428
_cell_angle_gamma 119.078959
_cell_volume 504.591396
_symmetry_space_group_name_H-M "P -1"
_symmetry_group_IT_number 2
_symmetry_cell_setting 'triclinic'
loop_
_space_group_symop_operation_xyz
x,y,z
-x,-y,-z
loop_
_atom_site_type_symbol
_atom_site_label
_atom_site_fract_x
_atom_site_fract_y
_atom_site_fract_z
Si Si1 0.167956 0.629021 0.596144
Si Si2 0.627317 0.636855 0.275760
Si Si3 0.609663 0.272547 0.595045
Si Si4 0.941442 0.842195 0.624602
Si Si5 0.600494 0.819790 0.019830
Si Si6 0.283959 0.075703 0.220354
O O1 0.217821 0.430973 0.677105
O O2 0.340820 0.797971 0.522476
O O3 0.000000 0.500000 0.500000
O O4 0.099067 0.774656 0.668536
O O5 0.568122 0.729744 0.380727
O O6 0.662487 0.818734 0.156873
O O7 0.453371 0.359900 0.244799
O O8 0.760558 0.576661 0.597972
O O9 0.659640 0.128248 0.708702
O O10 0.882415 0.957890 0.719148
O O11 0.000000 0.000000 0.500000
O O12 0.262563 0.057754 0.080886
O O13 0.500000 0.500000 0.000000
O O14 0.500000 0.000000 0.000000
#
# Coordination Sequence:
#
# PCOD9085047 Si02
#       6
#     2   2   2   2   2   2
#     4  10  21  38  56  82 124 164 196 249 311 375
#     4  10  21  37  58  89 119 155 208 256 305 371
#     4  10  19  35  58  86 115 151 203 254 310 363
#     4  10  20  36  55  82 120 163 197 245 313 375
#     4  10  20  38  63  93 124 161 206 265 316 365
#     4  10  20  36  60  88 115 158 202 258 307 365
#
# _framework density 23.781618999999999
#
# number of rings (size 3 to 8) (size 9 to 14) (size 15 to 20)
#    0.000    2.000    3.333    0.500    0.000    0.667 
#    6.000    0.833    0.000    4.000    0.000    0.000 
#    0.000    0.000    0.000    0.000    0.000    0.000 
#
# Total GULP energy -66984.783085 kJ/mol
# GULP energy per Si atom -5582.065257 kJ/mol
# Density = 2.372749 g / cm^3
# Si number density = 23.781619 Si / 1000 Ang^3
#
#
#
# Elastic Constant Matrix: (Units=GPa)
#
#
# Indices 1 2 3 4 5 6 
#
# 1 198.6639 45.5983 95.7598 -13.7765 -16.8640 -48.1184
# 2 45.5983 90.4312 52.4511 -10.5475 -2.4997 -18.4252
# 3 95.7598 52.4511 185.1248 -37.8093 -15.0818 -22.2638
# 4 -13.7765 -10.5475 -37.8093 45.2960 -5.5087 7.4750
# 5 -16.8640 -2.4997 -15.0818 -5.5087 45.3545 -1.3779
# 6 -48.1184 -18.4252 -22.2638 7.4750 -1.3779 45.9304
#
#
#
# Elastic Compliance Matrix: (Units=1/GPa)
#
#
# Indices 1 2 3 4 5 6 
#
# 1 0.008846 -0.001012 -0.003517 -0.001454 0.002114 0.007456
# 2 -0.001012 0.013981 -0.003179 -0.000280 -0.000605 0.003034
# 3 -0.003517 -0.003179 0.009518 0.006656 0.002449 -0.001356
# 4 -0.001454 -0.000280 0.006656 0.028203 0.004996 -0.002850
# 5 0.002114 -0.000605 0.002449 0.004996 0.024316 0.003075
# 6 0.007456 0.003034 -0.001356 -0.002850 0.003075 0.030700
#
#
# Mechanical properties :
#
#
# Convention : Reuss Voigt Hill
#
# Bulk Modulus (GPa) = 59.07496 95.75982 77.41739
# Shear Modulus (GPa) = 36.59689 46.01023 41.30356
#
# Velocity S-wave (km/s) = 3.92710 4.40329 4.17200
# Velocity P-wave (km/s) = 6.74221 8.13669 7.47205
#
# Compressibility (1/GPa) = 0.01692765
#
# Stress axis : x y z
#
# Youngs Moduli (GPa) = 113.04746 71.52318 105.06812
#
# Poissons Ratio (x) = 0.07241 0.36952
# Poissons Ratio (y) = 0.11446 0.33404
# Poissons Ratio (z) = 0.39758 0.22739
#
# Static dielectric constant tensor:
#      x y z
#    x 1.915000 -0.010640 -0.015230 
#    y -0.010640 2.191280 0.091740 
#    z -0.015230 0.091740 1.894450 
# 
# From -- ./inp_files/372492.got.cif
#   From: 2010.05.17/outbox.cif.g08.bks.cpg/sg2_187_cif.got.tgz:372492.got - 2010.06.03 11:33:40.
