data_PCOD9085450
_publ_section_title
;
Structure prediction by ZEFSAII (Michael W. Deem and Ramdas Pophale) SiO2 
 PCOD9085450
Probable space group: P -1
;
_chemical_formula_sum "Si O2"
_cell_formula_units_Z 16
_cell_length_a 7.271434
_cell_length_b 8.627870
_cell_length_c 11.210533
_cell_angle_alpha 76.427487
_cell_angle_beta 61.386957
_cell_angle_gamma 88.525694
_cell_volume 597.077223
_symmetry_space_group_name_H-M "P -1"
_symmetry_group_IT_number 2
_symmetry_cell_setting 'triclinic'
loop_
_space_group_symop_operation_xyz
x,y,z
-x,-y,-z
loop_
_atom_site_type_symbol
_atom_site_label
_atom_site_fract_x
_atom_site_fract_y
_atom_site_fract_z
Si Si1 0.157074 0.839073 0.422974
Si Si2 0.757000 0.917780 0.447025
Si Si3 0.259130 0.986762 0.122373
Si Si4 0.319439 0.838189 0.733415
Si Si5 0.699536 0.496839 0.275723
Si Si6 0.761875 0.500995 0.526512
Si Si7 0.249591 0.341678 0.011567
Si Si8 0.283991 0.688456 0.032438
O O1 0.292830 0.694066 0.424129
O O2 0.919690 0.793303 0.454521
O O3 0.149381 0.927027 0.534450
O O4 0.256112 0.958876 0.269794
O O5 0.535557 0.867212 0.584947
O O6 0.757786 0.987073 0.301183
O O7 0.165355 0.155321 0.094261
O O8 0.500000 0.000000 0.000000
O O9 0.168757 0.814991 0.124334
O O10 0.208497 0.673659 0.741389
O O11 0.332062 0.783280 0.875738
O O12 0.744520 0.555230 0.385077
O O13 0.444481 0.456459 0.346176
O O14 0.774937 0.619172 0.126716
O O15 0.000000 0.500000 0.500000
O O16 0.191161 0.504500 0.067361
O O17 0.496418 0.337357 0.966796
#
# Coordination Sequence:
#
# PCOD9085450 Si02
#       8
#     2   2   2   2   2   2   2   2
#     4  11  22  39  59  92 130 164 216 273 327 389
#     4  10  21  36  61  90 124 167 207 273 333 384
#     4  10  19  35  60  91 120 167 219 262 319 390
#     4  10  19  38  62  91 123 166 219 262 327 404
#     4  10  21  38  63  90 125 171 218 266 327 401
#     4  11  22  38  60  92 129 166 215 275 331 385
#     4   9  18  35  60  91 120 166 217 262 321 387
#     4   9  18  33  60  92 120 162 219 268 310 388
#
# _framework density 26.797204000000001
#
# number of rings (size 3 to 8) (size 9 to 14) (size 15 to 20)
#    0.000    2.000    1.250    3.750    0.000    0.000 
#    4.500    3.125    2.750    1.500    0.000    0.000 
#    0.000    0.000    0.000    0.000    0.000    0.000 
#
# Total GULP energy -89339.679676 kJ/mol
# GULP energy per Si atom -5583.729980 kJ/mol
# Density = 2.673621 g / cm^3
# Si number density = 26.797204 Si / 1000 Ang^3
#
#
#
# Elastic Constant Matrix: (Units=GPa)
#
#
# Indices 1 2 3 4 5 6 
#
# 1 98.6015 26.3032 25.3699 -16.3610 -4.4159 -1.3288
# 2 26.3032 184.6646 37.4811 -16.0309 11.7396 -35.5320
# 3 25.3699 37.4811 98.0407 -24.6151 21.6900 -8.3946
# 4 -16.3610 -16.0309 -24.6151 36.7085 -10.2695 12.3553
# 5 -4.4159 11.7396 21.6900 -10.2695 42.9570 -8.7273
# 6 -1.3288 -35.5320 -8.3946 12.3553 -8.7273 40.1597
#
#
#
# Elastic Compliance Matrix: (Units=1/GPa)
#
#
# Indices 1 2 3 4 5 6 
#
# 1 0.012065 -0.001458 -0.002299 0.004900 0.003543 -0.002109
# 2 -0.001458 0.007139 -0.002066 -0.000995 -0.000050 0.006131
# 3 -0.002299 -0.002066 0.014389 0.006874 -0.005753 -0.002261
# 4 0.004900 -0.000995 0.006874 0.038224 0.004394 -0.010086
# 5 0.003543 -0.000050 -0.005753 0.004394 0.028360 0.003682
# 6 -0.002109 0.006131 -0.002261 -0.010086 0.003682 0.033686
#
#
# Mechanical properties :
#
#
# Convention : Reuss Voigt Hill
#
# Bulk Modulus (GPa) = 45.55949 62.17946 53.86948
# Shear Modulus (GPa) = 32.71710 43.44188 38.07949
#
# Velocity S-wave (km/s) = 3.49795 4.03070 3.77374
# Velocity P-wave (km/s) = 5.77518 6.70195 6.25575
#
# Compressibility (1/GPa) = 0.02194932
#
# Stress axis : x y z
#
# Youngs Moduli (GPa) = 82.88098 140.08255 69.49513
#
# Poissons Ratio (x) = 0.20417 0.15976
# Poissons Ratio (y) = 0.12080 0.14356
# Poissons Ratio (z) = 0.19054 0.28937
#
# Static dielectric constant tensor:
#      x y z
#    x 2.280010 0.114570 -0.060700 
#    y 0.114570 2.223930 -0.035140 
#    z -0.060700 -0.035140 2.006200 
# 
# From -- ./inp_files/381643.got.cif
#   From: 2010.05.17/outbox.cif.g08.bks.cpg/sg2_191_cif.got.tgz:381643.got - 2010.06.03 11:33:40.
