data_PCOD9085814
_publ_section_title
;
Structure prediction by ZEFSAII (Michael W. Deem and Ramdas Pophale) SiO2 
 PCOD9085814
Probable space group: P -1
;
_chemical_formula_sum "Si O2"
_cell_formula_units_Z 14
_cell_length_a 9.291639
_cell_length_b 5.359607
_cell_length_c 21.682249
_cell_angle_alpha 127.949484
_cell_angle_beta 43.194392
_cell_angle_gamma 130.780500
_cell_volume 539.202019
_symmetry_space_group_name_H-M "P -1"
_symmetry_group_IT_number 2
_symmetry_cell_setting 'triclinic'
loop_
_space_group_symop_operation_xyz
x,y,z
-x,-y,-z
loop_
_atom_site_type_symbol
_atom_site_label
_atom_site_fract_x
_atom_site_fract_y
_atom_site_fract_z
Si Si1 0.850144 0.464806 0.776628
Si Si2 0.171992 0.644171 0.878893
Si Si3 0.235855 0.308747 0.040226
Si Si4 0.692693 0.801478 0.521490
Si Si5 0.635608 0.678186 0.757878
Si Si6 0.673397 0.395683 0.312046
Si Si7 0.279457 0.561237 0.436717
O O1 0.864656 0.741506 0.866960
O O2 0.752720 0.561276 0.759906
O O3 0.107316 0.482933 0.694982
O O4 0.705375 0.092224 0.794505
O O5 0.359177 0.505439 0.826047
O O6 0.268496 0.708739 0.788464
O O7 0.900447 0.496521 0.926365
O O8 0.198748 0.965594 0.962421
O O9 0.500000 0.500000 0.000000
O O10 0.500000 0.500000 0.500000
O O11 0.536582 0.904158 0.636324
O O12 0.830516 0.653698 0.500606
O O13 0.799495 0.128023 0.496767
O O14 0.727279 0.616123 0.653374
O O15 0.552286 0.670177 0.382750
#
# Coordination Sequence:
#
# PCOD9085814 Si02
#       7
#     2   2   2   2   2   2   2
#     4  11  23  37  61  87 119 157 205 246 294 358
#     4   9  19  39  57  89 120 161 201 252 296 361
#     4  10  19  37  62  86 124 158 206 250 303 344
#     4  10  19  35  63  91 114 150 200 247 293 362
#     4  11  22  39  61  86 120 160 199 245 302 352
#     4   8  21  36  61  87 118 155 202 242 300 355
#     4   9  20  35  59  86 118 153 196 237 303 351
#
# _framework density 25.964296000000001
#
# number of rings (size 3 to 8) (size 9 to 14) (size 15 to 20)
#    0.857    1.429    1.429    1.286    2.000    0.571 
#    0.000    0.714    0.000    5.143    0.000    0.000 
#    0.000    0.000    0.000    0.000    0.000    0.000 
#
# Total GULP energy -78042.189400 kJ/mol
# GULP energy per Si atom -5574.442100 kJ/mol
# Density = 2.590520 g / cm^3
# Si number density = 25.964296 Si / 1000 Ang^3
#
#
#
# Elastic Constant Matrix: (Units=GPa)
#
#
# Indices 1 2 3 4 5 6 
#
# 1 274.8009 54.5935 41.4010 0.6145 -5.5353 2.0457
# 2 54.5935 60.3567 1.6686 10.2940 -7.8934 -18.1233
# 3 41.4010 1.6686 84.1747 12.5423 2.5558 -3.2223
# 4 0.6145 10.2940 12.5423 26.0701 17.8927 -13.4130
# 5 -5.5353 -7.8934 2.5558 17.8927 43.1256 -9.9583
# 6 2.0457 -18.1233 -3.2223 -13.4130 -9.9583 52.5567
#
#
#
# Elastic Compliance Matrix: (Units=1/GPa)
#
#
# Indices 1 2 3 4 5 6 
#
# 1 0.005382 -0.006583 -0.003247 0.004982 -0.002838 -0.001945
# 2 -0.006583 0.030347 0.005520 -0.020114 0.014741 0.008719
# 3 -0.003247 0.005520 0.015097 -0.012441 0.005030 0.000733
# 4 0.004982 -0.020114 -0.012441 0.077982 -0.033345 0.005691
# 5 -0.002838 0.014741 0.005030 -0.033345 0.040119 0.004594
# 6 -0.001945 0.008719 0.000733 0.005691 0.004594 0.024477
#
#
# Mechanical properties :
#
#
# Convention : Reuss Voigt Hill
#
# Bulk Modulus (GPa) = 23.69445 68.29538 45.99491
# Shear Modulus (GPa) = 23.13802 45.79511 34.46656
#
# Velocity S-wave (km/s) = 2.98845 4.20429 3.64738
# Velocity P-wave (km/s) = 4.58839 7.06602 5.95743
#
# Compressibility (1/GPa) = 0.04220398
#
# Stress axis : x y z
#
# Youngs Moduli (GPa) = 185.79308 32.95230 66.23864
#
# Poissons Ratio (x) = 0.21694 0.21510
# Poissons Ratio (y) = 1.22316 -0.36562
# Poissons Ratio (z) = 0.60334 -0.18189
#
# Static dielectric constant tensor:
#      x y z
#    x 2.108290 -0.005530 -0.028770 
#    y -0.005530 2.198900 -0.037560 
#    z -0.028770 -0.037560 2.100630 
# 
# From -- ./inp_files/126018.got.cif
#   From: 2010.05.17/outbox.cif.g08.bks.cpg/sg2_64_cif.got.tgz:126018.got - 2010.06.03 11:33:40.
