data_PCOD9085826
_publ_section_title
;
Structure prediction by ZEFSAII (Michael W. Deem and Ramdas Pophale) SiO2 
 PCOD9085826
Probable space group: P -1
;
_chemical_formula_sum "Si O2"
_cell_formula_units_Z 16
_cell_length_a 15.130072
_cell_length_b 9.431431
_cell_length_c 9.996308
_cell_angle_alpha 80.208467
_cell_angle_beta 70.568473
_cell_angle_gamma 32.705051
_cell_volume 709.733904
_symmetry_space_group_name_H-M "P -1"
_symmetry_group_IT_number 2
_symmetry_cell_setting 'triclinic'
loop_
_space_group_symop_operation_xyz
x,y,z
-x,-y,-z
loop_
_atom_site_type_symbol
_atom_site_label
_atom_site_fract_x
_atom_site_fract_y
_atom_site_fract_z
Si Si1 0.816562 0.547576 0.102504
Si Si2 0.361224 0.620970 0.440328
Si Si3 0.880533 0.935627 0.310468
Si Si4 0.665131 0.684505 0.430136
Si Si5 0.802227 0.877600 0.936082
Si Si6 0.849506 0.263985 0.938298
Si Si7 0.610202 0.336577 0.133844
Si Si8 0.988253 0.474751 0.356160
O O1 0.688198 0.654385 0.262964
O O2 0.018344 0.270430 0.092341
O O3 0.795862 0.739754 0.046675
O O4 0.792152 0.488745 0.992736
O O5 0.500000 0.500000 0.500000
O O6 0.346566 0.465852 0.489764
O O7 0.426316 0.571876 0.265937
O O8 0.195504 0.926240 0.527819
O O9 0.923188 0.713937 0.295138
O O10 0.046975 0.825653 0.231055
O O11 0.743233 0.146909 0.225470
O O12 0.839742 0.544685 0.408331
O O13 0.500000 0.000000 0.500000
O O14 0.841309 0.789405 0.775154
O O15 0.645502 0.169972 0.031950
O O16 0.683034 0.380617 0.014410
O O17 0.000000 0.000000 0.000000
O O18 0.000000 0.500000 0.500000
#
# Coordination Sequence:
#
# PCOD9085826 Si02
#       8
#     2   2   2   2   2   2   2   2
#     4  10  16  27  49  81 106 142 182 234 281 332
#     4  10  20  32  53  89 125 148 177 234 302 353
#     4  10  18  34  53  81 120 147 186 241 291 345
#     4  11  21  34  59  89 118 152 193 236 298 349
#     4  10  17  30  51  75 111 139 190 239 280 326
#     4  10  16  26  48  81 112 140 176 234 296 335
#     4  10  18  30  54  88 115 142 184 242 293 339
#     4  11  24  39  57  82 116 159 200 242 288 343
#
# _framework density 22.543659999999999
#
# number of rings (size 3 to 8) (size 9 to 14) (size 15 to 20)
#    0.000    1.750    3.750    6.000    1.750    0.000 
#    0.000    0.625    0.000    3.750    0.000    0.000 
#    0.000    0.000    0.000    0.000    0.000    0.000 
#
# Total GULP energy -89199.362687 kJ/mol
# GULP energy per Si atom -5574.960168 kJ/mol
# Density = 2.249235 g / cm^3
# Si number density = 22.543660 Si / 1000 Ang^3
#
#
#
# Elastic Constant Matrix: (Units=GPa)
#
#
# Indices 1 2 3 4 5 6 
#
# 1 63.4615 48.5709 47.9622 5.8941 -8.0512 30.3309
# 2 48.5709 36.0339 34.4234 16.6734 -8.1767 15.5143
# 3 47.9622 34.4234 185.3283 42.5980 0.6971 6.8432
# 4 5.8941 16.6734 42.5980 32.0921 10.7830 8.3999
# 5 -8.0512 -8.1767 0.6971 10.7830 37.2513 -5.5468
# 6 30.3309 15.5143 6.8432 8.3999 -5.5468 28.5638
#
#
#
# Elastic Compliance Matrix: (Units=1/GPa)
#
#
# Indices 1 2 3 4 5 6 
#
# 1 -0.030490 0.048702 0.007514 -0.041224 0.018857 0.019908
# 2 0.048702 -0.023961 -0.016083 0.042798 -0.014297 -0.050210
# 3 0.007514 -0.016083 0.006733 -0.001110 -0.001843 -0.000888
# 4 -0.041224 0.042798 -0.001110 0.014036 -0.001108 0.016452
# 5 0.018857 -0.014297 -0.001843 -0.001108 0.027213 -0.006206
# 6 0.019908 -0.050210 -0.000888 0.016452 -0.006206 0.035311
#
#
# Mechanical properties :
#
#
# Convention : Reuss Voigt Hill
#
# Bulk Modulus (GPa) = 30.72236 60.74850 45.73543
# Shear Modulus (GPa) = -123.23416 29.83925 -46.69745
#
# Velocity S-wave (km/s) = -7.40158 3.64211 -4.55623
# Velocity P-wave (km/s) = 7.70629 6.68522 2.71061
#
# Compressibility (1/GPa) = 0.03254958
#
# Stress axis : x y z
#
# Youngs Moduli (GPa) = -32.79801 -41.73534 148.51157
#
# Poissons Ratio (x) = 2.03260 -1.11589
# Poissons Ratio (y) = 1.59733 2.38847
# Poissons Ratio (z) = 0.24644 -0.67122
#
# Static dielectric constant tensor:
#      x y z
#    x 1.863360 -0.029400 -0.101690 
#    y -0.029400 1.863730 -0.045280 
#    z -0.101690 -0.045280 2.047130 
# 
# From -- ./inp_files/395757.got.cif
#   From: 2010.05.17/outbox.cif.g08.bks.cpg/sg2_198_cif.got.tgz:395757.got - 2010.06.03 11:33:40.
