data_PCOD9085912
_publ_section_title
;
Structure prediction by ZEFSAII (Michael W. Deem and Ramdas Pophale) SiO2 
 PCOD9085912
Probable space group: P -1
;
_chemical_formula_sum "Si O2"
_cell_formula_units_Z 14
_cell_length_a 8.852181
_cell_length_b 8.992680
_cell_length_c 9.978102
_cell_angle_alpha 101.885955
_cell_angle_beta 103.540246
_cell_angle_gamma 114.490390
_cell_volume 660.248038
_symmetry_space_group_name_H-M "P -1"
_symmetry_group_IT_number 2
_symmetry_cell_setting 'triclinic'
loop_
_space_group_symop_operation_xyz
x,y,z
-x,-y,-z
loop_
_atom_site_type_symbol
_atom_site_label
_atom_site_fract_x
_atom_site_fract_y
_atom_site_fract_z
Si Si1 0.999440 0.357603 0.574125
Si Si2 0.452891 0.220273 0.468158
Si Si3 0.523262 0.266844 0.901162
Si Si4 0.698771 0.610499 0.689439
Si Si5 0.376322 0.499064 0.797614
Si Si6 0.874834 0.452714 0.836856
Si Si7 0.658865 0.039928 0.354182
O O1 0.201332 0.406742 0.654532
O O2 0.000000 0.500000 0.500000
O O3 0.923263 0.365844 0.707518
O O4 0.864617 0.176451 0.443863
O O5 0.603839 0.420252 0.563358
O O6 0.290505 0.239757 0.376146
O O7 0.543498 0.136061 0.378438
O O8 0.391095 0.105567 0.567467
O O9 0.400179 0.355005 0.859691
O O10 0.679725 0.329843 0.834876
O O11 0.401678 0.062298 0.817155
O O12 0.620774 0.355596 0.075785
O O13 0.553000 0.593056 0.764016
O O14 0.866013 0.617301 0.800367
O O15 0.000000 0.500000 0.000000
#
# Coordination Sequence:
#
# PCOD9085912 Si02
#       7
#     2   2   2   2   2   2   2
#     4  12  25  38  62  98 129 161 212 273 319 368
#     4  10  19  35  64  93 120 165 211 260 311 378
#     4  10  21  39  65  90 120 171 213 250 311 386
#     4  10  20  38  64  91 124 167 214 252 313 386
#     4  10  21  38  60  92 128 162 208 254 318 379
#     4  11  20  39  66  91 120 173 214 250 309 393
#     4  11  20  39  65  95 126 166 215 262 315 378
#
# _framework density 21.204153000000002
#
# number of rings (size 3 to 8) (size 9 to 14) (size 15 to 20)
#    0.000    1.429    5.714    1.714    2.000    0.571 
#    0.000    2.857    0.000    3.429    0.000    0.000 
#    0.000    0.000    0.000    0.000    0.000    0.000 
#
# Total GULP energy -78151.236080 kJ/mol
# GULP energy per Si atom -5582.231149 kJ/mol
# Density = 2.115589 g / cm^3
# Si number density = 21.204153 Si / 1000 Ang^3
#
#
#
# Elastic Constant Matrix: (Units=GPa)
#
#
# Indices 1 2 3 4 5 6 
#
# 1 49.2696 8.6142 24.9171 -0.7354 3.1285 -3.3179
# 2 8.6142 72.6453 34.7687 5.3482 10.1820 -20.1827
# 3 24.9171 34.7687 116.6749 18.0470 10.6777 -4.2661
# 4 -0.7354 5.3482 18.0470 27.3079 -8.5361 10.3652
# 5 3.1285 10.1820 10.6777 -8.5361 54.1362 -9.9707
# 6 -3.3179 -20.1827 -4.2661 10.3652 -9.9707 25.8161
#
#
#
# Elastic Compliance Matrix: (Units=1/GPa)
#
#
# Indices 1 2 3 4 5 6 
#
# 1 0.023236 -0.000480 -0.005573 0.004551 0.000580 0.000087
# 2 -0.000480 0.022277 -0.004220 -0.009555 -0.001143 0.020051
# 3 -0.005573 -0.004220 0.012627 -0.008701 -0.002647 0.000542
# 4 0.004551 -0.009555 -0.008701 0.057444 0.007027 -0.028673
# 5 0.000580 -0.001143 -0.002647 0.007027 0.021028 0.004044
# 6 0.000087 0.020051 0.000542 -0.028673 0.004044 0.067586
#
#
# Mechanical properties :
#
#
# Convention : Reuss Voigt Hill
#
# Bulk Modulus (GPa) = 26.60127 41.68777 34.14452
# Shear Modulus (GPa) = 21.07263 32.80467 26.93865
#
# Velocity S-wave (km/s) = 3.15587 3.93757 3.56819
# Velocity P-wave (km/s) = 5.08448 6.35417 5.75445
#
# Compressibility (1/GPa) = 0.03759219
#
# Stress axis : x y z
#
# Youngs Moduli (GPa) = 43.03690 44.88994 79.19834
#
# Poissons Ratio (x) = 0.02156 0.44138
# Poissons Ratio (y) = 0.02067 0.33422
# Poissons Ratio (z) = 0.23985 0.18944
#
# Static dielectric constant tensor:
#      x y z
#    x 1.813790 -0.011140 0.002510 
#    y -0.011140 1.782620 -0.028970 
#    z 0.002510 -0.028970 1.841670 
# 
# From -- ./inp_files/382985.got.cif
#   From: 2010.05.17/outbox.cif.g08.bks.cpg/sg2_192_cif.got.tgz:382985.got - 2010.06.03 11:33:40.
