data_PCOD9085285
_publ_section_title
;
Structure prediction by ZEFSAII (Michael W. Deem and Ramdas Pophale) SiO2 
 PCOD9085285
Probable space group: P -1
;
_chemical_formula_sum "Si O2"
_cell_formula_units_Z 14
_cell_length_a 8.714682
_cell_length_b 14.802275
_cell_length_c 17.476289
_cell_angle_alpha 35.722362
_cell_angle_beta 30.746331
_cell_angle_gamma 39.281042
_cell_volume 650.552867
_symmetry_space_group_name_H-M "P -1"
_symmetry_group_IT_number 2
_symmetry_cell_setting 'triclinic'
loop_
_space_group_symop_operation_xyz
x,y,z
-x,-y,-z
loop_
_atom_site_type_symbol
_atom_site_label
_atom_site_fract_x
_atom_site_fract_y
_atom_site_fract_z
Si Si1 0.451948 0.182607 0.221768
Si Si2 0.080506 0.329998 0.039998
Si Si3 0.474908 0.818303 0.630315
Si Si4 0.243031 0.157119 0.654198
Si Si5 0.636726 0.046583 0.987716
Si Si6 0.135869 0.502325 0.138711
Si Si7 0.931798 0.756378 0.162354
O O1 0.468170 0.230930 0.271755
O O2 0.152929 0.321320 0.230335
O O3 0.466756 0.995159 0.345415
O O4 0.741617 0.203192 0.030791
O O5 0.845001 0.219455 0.230757
O O6 0.023067 0.379325 0.941846
O O7 0.000000 0.500000 0.000000
O O8 0.417539 0.216346 0.990781
O O9 0.696869 0.748903 0.511079
O O10 0.500000 0.000000 0.500000
O O11 0.130760 0.246306 0.719552
O O12 0.973706 0.070488 0.808340
O O13 0.500000 0.000000 0.000000
O O14 0.682797 0.903829 0.127659
O O15 0.952964 0.583911 0.235221
O O16 0.500000 0.500000 0.000000
#
# Coordination Sequence:
#
# PCOD9085285 Si02
#       7
#     2   2   2   2   2   2   2
#     4   9  17  34  64  86 114 159 220 242 288 369
#     4  12  25  38  65  98 126 160 211 264 311 364
#     4  10  20  42  63  95 122 169 211 248 312 383
#     4  10  22  35  66  91 118 157 218 261 298 362
#     4  11  20  38  59  92 127 161 208 257 313 365
#     4  10  19  36  62  88 118 163 217 244 296 375
#     4  10  19  35  59  91 118 164 216 246 296 380
#
# _framework density 21.520157999999999
#
# number of rings (size 3 to 8) (size 9 to 14) (size 15 to 20)
#    0.000    1.714    4.286    3.429    6.000    0.000 
#    0.000    3.571    3.143    1.714    0.000    0.000 
#    0.000    0.000    0.000    0.000    0.000    0.000 
#
# Total GULP energy -77947.342245 kJ/mol
# GULP energy per Si atom -5567.667303 kJ/mol
# Density = 2.147118 g / cm^3
# Si number density = 21.520158 Si / 1000 Ang^3
#
#
#
# Elastic Constant Matrix: (Units=GPa)
#
#
# Indices 1 2 3 4 5 6 
#
# 1 75.0000 24.1064 22.1677 18.4323 22.3195 16.0630
# 2 24.1064 135.2553 13.6688 6.6389 10.1515 3.5767
# 3 22.1677 13.6688 62.3110 8.3072 24.5060 7.8918
# 4 18.4323 6.6389 8.3072 24.2135 17.2899 7.7285
# 5 22.3195 10.1515 24.5060 17.2899 32.1467 11.3562
# 6 16.0630 3.5767 7.8918 7.7285 11.3562 38.3646
#
#
#
# Elastic Compliance Matrix: (Units=1/GPa)
#
#
# Indices 1 2 3 4 5 6 
#
# 1 0.019232 -0.002273 -0.003001 -0.008629 -0.004209 -0.004239
# 2 -0.002273 0.007902 -0.000792 0.000039 -0.000520 0.000524
# 3 -0.003001 -0.000792 0.024430 0.009249 -0.021555 0.000822
# 4 -0.008629 0.000039 0.009249 0.073921 -0.040397 -0.001227
# 5 -0.004209 -0.000520 -0.021555 -0.040397 0.075127 -0.007856
# 6 -0.004239 0.000524 0.000822 -0.001227 -0.007856 0.030195
#
#
# Mechanical properties :
#
#
# Convention : Reuss Voigt Hill
#
# Bulk Modulus (GPa) = 25.35998 43.60582 34.48290
# Shear Modulus (GPa) = 19.52495 33.11987 26.32241
#
# Velocity S-wave (km/s) = 3.01539 3.92729 3.50115
# Velocity P-wave (km/s) = 4.89217 6.39308 5.69231
#
# Compressibility (1/GPa) = 0.03943221
#
# Stress axis : x y z
#
# Youngs Moduli (GPa) = 51.99689 126.55383 40.93373
#
# Poissons Ratio (x) = 0.28764 0.12283
# Poissons Ratio (y) = 0.11818 0.03242
# Poissons Ratio (z) = 0.15603 0.10023
#
# Static dielectric constant tensor:
#      x y z
#    x 1.829880 0.008390 0.023320 
#    y 0.008390 1.914730 -0.025310 
#    z 0.023320 -0.025310 1.815430 
# 
# From -- ./inp_files/561361.got.cif
#   From: 2010.05.17/outbox.cif.g08.bks.cpg/sg2_281_cif.got.tgz:561361.got - 2010.06.03 11:33:40.
