data_PCOD9085206
_publ_section_title
;
Structure prediction by ZEFSAII (Michael W. Deem and Ramdas Pophale) SiO2 
 PCOD9085206
Probable space group: P -1
;
_chemical_formula_sum "Si O2"
_cell_formula_units_Z 16
_cell_length_a 11.766063
_cell_length_b 11.543651
_cell_length_c 9.053925
_cell_angle_alpha 58.130294
_cell_angle_beta 120.747472
_cell_angle_gamma 83.094674
_cell_volume 758.539362
_symmetry_space_group_name_H-M "P -1"
_symmetry_group_IT_number 2
_symmetry_cell_setting 'triclinic'
loop_
_space_group_symop_operation_xyz
x,y,z
-x,-y,-z
loop_
_atom_site_type_symbol
_atom_site_label
_atom_site_fract_x
_atom_site_fract_y
_atom_site_fract_z
Si Si1 0.140664 0.512888 0.521908
Si Si2 0.027342 0.871259 0.231586
Si Si3 0.295997 0.858301 0.606494
Si Si4 0.180417 0.344867 0.372950
Si Si5 0.854558 0.074811 0.238995
Si Si6 0.879422 0.364985 0.063339
Si Si7 0.670296 0.867729 0.645422
Si Si8 0.661787 0.611011 0.980653
O O1 0.065056 0.701444 0.306184
O O2 0.215514 0.379690 0.533327
O O3 0.270474 0.460910 0.767989
O O4 0.000000 0.500000 0.500000
O O5 0.176390 0.825626 0.465487
O O6 0.885717 0.958397 0.200045
O O7 0.000000 0.000000 0.000000
O O8 0.281047 0.874147 0.764638
O O9 0.248678 0.032340 0.390891
O O10 0.474942 0.723420 0.778043
O O11 0.319303 0.209412 0.455833
O O12 0.040000 0.310855 0.295198
O O13 0.124078 0.514207 0.140466
O O14 0.858630 0.226768 0.077986
O O15 0.000000 0.000000 0.500000
O O16 0.735104 0.465943 0.010837
O O17 0.500000 0.000000 0.500000
O O18 0.730681 0.720278 0.898031
#
# Coordination Sequence:
#
# PCOD9085206 Si02
#       8
#     2   2   2   2   2   2   2   2
#     4  12  25  37  61  94 129 159 200 259 309 361
#     4  11  25  41  62  93 126 162 203 255 313 365
#     4  10  22  39  64  87 122 165 207 254 308 367
#     4  10  20  35  60  84 120 156 204 255 303 361
#     4  10  20  35  59  86 117 154 210 250 299 365
#     4  10  19  35  59  86 111 161 207 253 298 360
#     4   9  20  39  63  89 118 165 210 251 303 368
#     4  10  21  40  61  92 123 162 208 253 310 367
#
# _framework density 21.093170000000001
#
# number of rings (size 3 to 8) (size 9 to 14) (size 15 to 20)
#    0.000    1.750    1.250    3.750    3.500    2.000 
#    0.000    6.250    0.000    9.000    0.000    0.000 
#    0.000    0.000    0.000    0.000    0.000    0.000 
#
# Total GULP energy -89225.277780 kJ/mol
# GULP energy per Si atom -5576.579861 kJ/mol
# Density = 2.104516 g / cm^3
# Si number density = 21.093170 Si / 1000 Ang^3
#
#
#
# Elastic Constant Matrix: (Units=GPa)
#
#
# Indices 1 2 3 4 5 6 
#
# 1 74.0594 31.0345 12.8689 -7.8012 -3.0570 -15.2352
# 2 31.0345 109.3435 17.9105 -16.4599 -1.0343 -19.5041
# 3 12.8689 17.9105 57.0553 -6.7244 -4.5801 -6.3971
# 4 -7.8012 -16.4599 -6.7244 28.4616 0.1656 -6.2932
# 5 -3.0570 -1.0343 -4.5801 0.1656 25.0717 -6.7948
# 6 -15.2352 -19.5041 -6.3971 -6.2932 -6.7948 39.6681
#
#
#
# Elastic Compliance Matrix: (Units=1/GPa)
#
#
# Indices 1 2 3 4 5 6 
#
# 1 0.016715 -0.002817 -0.001497 0.003899 0.003240 0.005967
# 2 -0.002817 0.012444 -0.001577 0.007418 0.001518 0.006219
# 3 -0.001497 -0.001577 0.019509 0.003955 0.004139 0.003132
# 4 0.003899 0.007418 0.003955 0.044423 0.004916 0.013672
# 5 0.003240 0.001518 0.004139 0.004916 0.044043 0.010982
# 6 0.005967 0.006219 0.003132 0.013672 0.010982 0.035114
#
#
# Mechanical properties :
#
#
# Convention : Reuss Voigt Hill
#
# Bulk Modulus (GPa) = 27.11150 40.45401 33.78275
# Shear Modulus (GPa) = 25.46777 30.54988 28.00883
#
# Velocity S-wave (km/s) = 3.47853 3.80982 3.64794
# Velocity P-wave (km/s) = 5.38652 6.21075 5.81326
#
# Compressibility (1/GPa) = 0.03688472
#
# Stress axis : x y z
#
# Youngs Moduli (GPa) = 59.82567 80.36180 51.25758
#
# Poissons Ratio (x) = 0.22638 0.07674
# Poissons Ratio (y) = 0.16853 0.08086
# Poissons Ratio (z) = 0.08957 0.12677
#
# Static dielectric constant tensor:
#      x y z
#    x 1.834670 -0.016640 -0.042020 
#    y -0.016640 1.816270 -0.050770 
#    z -0.042020 -0.050770 1.774080 
# 
# From -- ./inp_files/257006.got.cif
#   From: 2010.05.17/outbox.cif.g08.bks.cpg/sg2_129_cif.got.tgz:257006.got - 2010.06.03 11:33:40.
