data_PCOD9085955
_publ_section_title
;
Structure prediction by ZEFSAII (Michael W. Deem and Ramdas Pophale) SiO2 
 PCOD9085955
Probable space group: P -1
;
_chemical_formula_sum "Si O2"
_cell_formula_units_Z 16
_cell_length_a 18.472510
_cell_length_b 25.292146
_cell_length_c 5.394032
_cell_angle_alpha 99.148777
_cell_angle_beta 98.145041
_cell_angle_gamma 17.766241
_cell_volume 758.802828
_symmetry_space_group_name_H-M "P -1"
_symmetry_group_IT_number 2
_symmetry_cell_setting 'triclinic'
loop_
_space_group_symop_operation_xyz
x,y,z
-x,-y,-z
loop_
_atom_site_type_symbol
_atom_site_label
_atom_site_fract_x
_atom_site_fract_y
_atom_site_fract_z
Si Si1 0.368704 0.110332 0.768694
Si Si2 0.744107 0.259306 0.103675
Si Si3 0.335619 0.002443 0.189621
Si Si4 0.005957 0.191742 0.545789
Si Si5 0.465047 0.451299 0.602196
Si Si6 0.195066 0.989490 0.872465
Si Si7 0.963593 0.323880 0.937858
Si Si8 0.474252 0.689293 0.793845
O O1 0.500000 0.000000 0.500000
O O2 0.412171 0.143977 0.812437
O O3 0.114268 0.259465 0.788633
O O4 0.500000 0.000000 0.000000
O O5 0.598515 0.369269 0.860718
O O6 0.598794 0.380042 0.366608
O O7 0.732015 0.203727 0.106008
O O8 0.003858 0.101761 0.063977
O O9 0.310446 0.965315 0.994903
O O10 0.253532 0.041468 0.449420
O O11 0.137437 0.184850 0.142400
O O12 0.800698 0.340648 0.353820
O O13 0.920048 0.295949 0.776546
O O14 0.051494 0.104891 0.640925
O O15 0.457759 0.392837 0.480490
O O16 0.381074 0.812944 0.787932
O O17 0.700076 0.531404 0.971084
#
# Coordination Sequence:
#
# PCOD9085955 Si02
#       8
#     2   2   2   2   2   2   2   2
#     4  10  19  35  65  92 114 147 192 240 290 346
#     4  10  22  40  60  83 113 158 209 236 288 337
#     4  10  21  36  59  90 120 147 194 242 300 345
#     4  10  20  35  57  84 121 148 193 243 301 335
#     4   9  22  38  61  81 110 152 206 247 275 345
#     4  11  24  36  55  87 122 162 186 248 292 351
#     4   9  18  38  60  88 109 154 196 246 281 351
#     4   9  21  40  59  83 119 156 207 234 289 343
#
# _framework density 21.085844999999999
#
# number of rings (size 3 to 8) (size 9 to 14) (size 15 to 20)
#    0.750    1.500    1.250    1.125    3.500    2.500 
#    0.000    0.625    0.000    0.750    0.000    0.000 
#    0.000    0.000    0.000    0.000    0.000    0.000 
#
# Total GULP energy -89117.464936 kJ/mol
# GULP energy per Si atom -5569.841558 kJ/mol
# Density = 2.103785 g / cm^3
# Si number density = 21.085845 Si / 1000 Ang^3
#
#
#
# Elastic Constant Matrix: (Units=GPa)
#
#
# Indices 1 2 3 4 5 6 
#
# 1 141.8075 47.6762 16.9834 9.6436 -5.8725 1.0422
# 2 47.6762 80.1377 14.4766 8.4485 6.0596 24.5130
# 3 16.9834 14.4766 83.6515 -2.3966 -8.3541 9.7748
# 4 9.6436 8.4485 -2.3966 17.9543 -7.2168 -3.0994
# 5 -5.8725 6.0596 -8.3541 -7.2168 32.8649 3.6207
# 6 1.0422 24.5130 9.7748 -3.0994 3.6207 35.2304
#
#
#
# Elastic Compliance Matrix: (Units=1/GPa)
#
#
# Indices 1 2 3 4 5 6 
#
# 1 0.009651 -0.007130 -0.001067 -0.000277 0.002187 0.004722
# 2 -0.007130 0.024087 -0.001923 -0.013564 -0.007370 -0.016451
# 3 -0.001067 -0.001923 0.013415 0.004819 0.004900 -0.002432
# 4 -0.000277 -0.013564 0.004819 0.072354 0.018176 0.012606
# 5 0.002187 -0.007370 0.004900 0.018176 0.037252 0.001474
# 6 0.004722 -0.016451 -0.002432 0.012606 0.001474 0.041323
#
#
# Mechanical properties :
#
#
# Convention : Reuss Voigt Hill
#
# Bulk Modulus (GPa) = 37.15559 51.54101 44.34830
# Shear Modulus (GPa) = 21.99801 32.30729 27.15265
#
# Velocity S-wave (km/s) = 3.23346 3.91855 3.59237
# Velocity P-wave (km/s) = 5.62136 6.70596 6.18747
#
# Compressibility (1/GPa) = 0.02691385
#
# Stress axis : x y z
#
# Youngs Moduli (GPa) = 103.61275 41.51637 74.54104
#
# Poissons Ratio (x) = 0.29600 0.07953
# Poissons Ratio (y) = 0.73872 0.14336
# Poissons Ratio (z) = 0.11055 0.07985
#
# Static dielectric constant tensor:
#      x y z
#    x 1.859590 -0.039950 0.041690 
#    y -0.039950 1.727060 0.022010 
#    z 0.041690 0.022010 1.747710 
# 
# From -- ./inp_files/112920.got.cif
#   From: 2010.05.17/outbox.cif.g08.bks.cpg/sg2_57_cif.got.tgz:112920.got - 2010.06.03 11:33:40.
