data_PCOD9085033
_publ_section_title
;
Structure prediction by ZEFSAII (Michael W. Deem and Ramdas Pophale) SiO2 
 PCOD9085033
Probable space group: P -1
;
_chemical_formula_sum "Si O2"
_cell_formula_units_Z 16
_cell_length_a 15.983429
_cell_length_b 8.362457
_cell_length_c 11.416989
_cell_angle_alpha 133.279037
_cell_angle_beta 36.671852
_cell_angle_gamma 132.118515
_cell_volume 637.379062
_symmetry_space_group_name_H-M "P -1"
_symmetry_group_IT_number 2
_symmetry_cell_setting 'triclinic'
loop_
_space_group_symop_operation_xyz
x,y,z
-x,-y,-z
loop_
_atom_site_type_symbol
_atom_site_label
_atom_site_fract_x
_atom_site_fract_y
_atom_site_fract_z
Si Si1 0.500833 0.006405 0.863959
Si Si2 0.328446 0.877779 0.615368
Si Si3 0.917630 0.497852 0.831820
Si Si4 0.249883 0.229080 0.528322
Si Si5 0.202390 0.364858 0.402956
Si Si6 0.763742 0.299070 0.130541
Si Si7 0.730458 0.429937 0.789955
Si Si8 0.119698 0.903339 0.683012
O O1 0.620769 0.875156 0.633629
O O2 0.351880 0.876281 0.907486
O O3 0.567431 0.267814 0.881617
O O4 0.500000 0.000000 0.000000
O O5 0.297097 0.622386 0.465810
O O6 0.234182 0.837755 0.820481
O O7 0.254263 0.009394 0.672796
O O8 0.500000 0.000000 0.500000
O O9 0.775382 0.447914 0.884237
O O10 0.033439 0.361764 0.596295
O O11 0.995836 0.759082 0.836356
O O12 0.889342 0.426689 0.963022
O O13 0.227090 0.209017 0.403658
O O14 0.290227 0.490166 0.653389
O O15 0.110328 0.090090 0.691647
O O16 0.242609 0.350650 0.214482
O O17 0.837469 0.290826 0.542903
#
# Coordination Sequence:
#
# PCOD9085033 Si02
#       8
#     2   2   2   2   2   2   2   2
#     4  11  21  38  60  83 112 149 192 232 284 339
#     4   9  17  32  54  80 106 148 191 228 273 336
#     4  10  19  35  58  85 115 155 187 224 285 342
#     4  10  22  37  57  86 114 146 188 241 286 325
#     4   9  19  34  58  84 113 151 190 232 275 339
#     4  11  21  35  61  87 115 144 190 236 281 338
#     4   9  17  36  59  81 112 154 193 224 280 341
#     4   9  19  34  56  80 114 151 189 228 279 339
#
# _framework density 25.102799999999998
#
# number of rings (size 3 to 8) (size 9 to 14) (size 15 to 20)
#    0.000    2.500    1.250    4.125    0.000    6.000 
#    0.000    6.250    2.750    0.000    0.000    0.000 
#    0.000    0.000    0.000    0.000    0.000    0.000 
#
# Total GULP energy -89269.291907 kJ/mol
# GULP energy per Si atom -5579.330744 kJ/mol
# Density = 2.504567 g / cm^3
# Si number density = 25.102800 Si / 1000 Ang^3
#
#
#
# Elastic Constant Matrix: (Units=GPa)
#
#
# Indices 1 2 3 4 5 6 
#
# 1 79.7889 33.4770 8.9313 -13.3964 32.9586 -15.7904
# 2 33.4770 74.1702 25.8062 -29.2513 11.8192 -11.3529
# 3 8.9313 25.8062 68.0807 -24.8149 29.4164 -12.7938
# 4 -13.3964 -29.2513 -24.8149 40.3983 -16.0625 12.4654
# 5 32.9586 11.8192 29.4164 -16.0625 44.1099 -19.8643
# 6 -15.7904 -11.3529 -12.7938 12.4654 -19.8643 40.5039
#
#
#
# Elastic Compliance Matrix: (Units=1/GPa)
#
#
# Indices 1 2 3 4 5 6 
#
# 1 0.026680 -0.013570 0.011045 -0.004019 -0.025707 -0.001284
# 2 -0.013570 0.026379 -0.009253 0.014362 0.015546 0.002385
# 3 0.011045 -0.009253 0.028787 0.005945 -0.024083 -0.002836
# 4 -0.004019 0.014362 0.005945 0.042255 0.008566 -0.004467
# 5 -0.025707 0.015546 -0.024083 0.008566 0.063826 0.015395
# 6 -0.001284 0.002385 -0.002836 -0.004467 0.015395 0.032886
#
#
# Mechanical properties :
#
#
# Convention : Reuss Voigt Hill
#
# Bulk Modulus (GPa) = 17.15586 39.82987 28.49287
# Shear Modulus (GPa) = 18.95383 35.25742 27.10563
#
# Velocity S-wave (km/s) = 2.75080 3.75176 3.28957
# Velocity P-wave (km/s) = 4.11561 5.88802 5.07971
#
# Compressibility (1/GPa) = 0.05828912
#
# Stress axis : x y z
#
# Youngs Moduli (GPa) = 37.48086 37.90946 34.73836
#
# Poissons Ratio (x) = 0.51444 -0.38368
# Poissons Ratio (y) = 0.50863 0.32143
# Poissons Ratio (z) = -0.41398 0.35077
#
# Static dielectric constant tensor:
#      x y z
#    x 2.000130 -0.033110 0.007150 
#    y -0.033110 2.058510 -0.013890 
#    z 0.007150 -0.013890 2.080780 
# 
# From -- ./inp_files/460743.got.cif
#   From: 2010.05.17/outbox.cif.g08.bks.cpg/sg2_231_cif.got.tgz:460743.got - 2010.06.03 11:33:40.
