data_PCOD9085917
_publ_section_title
;
Structure prediction by ZEFSAII (Michael W. Deem and Ramdas Pophale) SiO2 
 PCOD9085917
Probable space group: P -1
;
_chemical_formula_sum "Si O2"
_cell_formula_units_Z 16
_cell_length_a 7.264897
_cell_length_b 22.400856
_cell_length_c 14.238955
_cell_angle_alpha 162.172409
_cell_angle_beta 112.469373
_cell_angle_gamma 61.681481
_cell_volume 603.468288
_symmetry_space_group_name_H-M "P -1"
_symmetry_group_IT_number 2
_symmetry_cell_setting 'triclinic'
loop_
_space_group_symop_operation_xyz
x,y,z
-x,-y,-z
loop_
_atom_site_type_symbol
_atom_site_label
_atom_site_fract_x
_atom_site_fract_y
_atom_site_fract_z
Si Si1 0.692392 0.427294 0.805775
Si Si2 0.999296 0.742365 0.216475
Si Si3 0.662667 0.164512 0.708234
Si Si4 0.540617 0.087469 0.295369
Si Si5 0.799110 0.865322 0.845323
Si Si6 0.287406 0.311914 0.170799
Si Si7 0.778272 0.451089 0.301190
Si Si8 0.836084 0.418877 0.618468
O O1 0.903389 0.325743 0.761593
O O2 0.526221 0.324893 0.658787
O O3 0.746587 0.360104 0.606698
O O4 0.572117 0.683721 0.154324
O O5 0.167711 0.820973 0.314926
O O6 0.765153 0.927447 0.418378
O O7 0.995975 0.527368 0.850172
O O8 0.685995 0.304402 0.009551
O O9 0.360165 0.040265 0.130652
O O10 0.749492 0.985332 0.113671
O O11 0.578000 0.937058 0.166479
O O12 0.739427 0.663819 0.555292
O O13 0.038164 0.776185 0.717563
O O14 0.309105 0.461430 0.482161
O O15 0.315514 0.404884 0.217295
O O16 0.038804 0.337212 0.176241
#
# Coordination Sequence:
#
# PCOD9085917 Si02
#       8
#     2   2   2   2   2   2   2   2
#     4  12  25  40  64  93 126 162 202 259 309 364
#     4  11  24  42  64  87 119 170 210 258 300 355
#     4  11  22  41  67  92 117 155 221 260 289 366
#     4  10  19  35  64  94 112 159 213 243 295 362
#     4   9  18  36  62  85 126 156 196 253 296 370
#     4   9  18  33  64  87 116 160 197 240 304 370
#     4   9  15  34  60  88 114 151 201 252 293 349
#     4  11  23  43  56  89 131 162 195 252 322 360
#
# _framework density 26.513406
#
# number of rings (size 3 to 8) (size 9 to 14) (size 15 to 20)
#    0.000    1.750    3.750    2.250    1.750    1.000 
#    2.250    0.625    0.000    0.000    0.000    0.000 
#    0.000    0.000    0.000    0.000    0.000    0.000 
#
# Total GULP energy -89354.139000 kJ/mol
# GULP energy per Si atom -5584.633688 kJ/mol
# Density = 2.645306 g / cm^3
# Si number density = 26.513406 Si / 1000 Ang^3
#
#
#
# Elastic Constant Matrix: (Units=GPa)
#
#
# Indices 1 2 3 4 5 6 
#
# 1 54.6428 45.6760 13.3587 11.7732 -1.5248 13.6234
# 2 45.6760 177.4878 35.6411 29.0390 4.6860 20.5614
# 3 13.3587 35.6411 91.3892 13.4987 -0.0869 7.5484
# 4 11.7732 29.0390 13.4987 52.8666 -2.5124 -2.7707
# 5 -1.5248 4.6860 -0.0869 -2.5124 30.7223 -0.1200
# 6 13.6234 20.5614 7.5484 -2.7707 -0.1200 38.8615
#
#
#
# Elastic Compliance Matrix: (Units=1/GPa)
#
#
# Indices 1 2 3 4 5 6 
#
# 1 0.024956 -0.005169 -0.000720 -0.002768 0.001775 -0.006066
# 2 -0.005169 0.008146 -0.001772 -0.003080 -0.001765 -0.002379
# 3 -0.000720 -0.001772 0.012147 -0.002032 0.000098 -0.001314
# 4 -0.002768 -0.003080 -0.002032 0.022085 0.002151 0.004576
# 5 0.001775 -0.001765 0.000098 0.002151 0.033085 0.000548
# 6 -0.006066 -0.002379 -0.001314 0.004576 0.000548 0.029701
#
#
# Mechanical properties :
#
#
# Convention : Reuss Voigt Hill
#
# Bulk Modulus (GPa) = 33.41468 56.98571 45.20020
# Shear Modulus (GPa) = 32.17139 39.74634 35.95886
#
# Velocity S-wave (km/s) = 3.48717 3.87603 3.68673
# Velocity P-wave (km/s) = 5.37067 6.44758 5.93361
#
# Compressibility (1/GPa) = 0.02992697
#
# Stress axis : x y z
#
# Youngs Moduli (GPa) = 40.07109 122.75584 82.32288
#
# Poissons Ratio (x) = 0.63451 0.05931
# Poissons Ratio (y) = 0.20712 0.14585
# Poissons Ratio (z) = 0.02887 0.21749
#
# Static dielectric constant tensor:
#      x y z
#    x 2.097450 -0.070190 -0.042880 
#    y -0.070190 2.122970 0.030550 
#    z -0.042880 0.030550 2.176650 
# 
# From -- ./inp_files/241077.got.cif
#   From: 2010.05.17/outbox.cif.g08.bks.cpg/sg2_121_cif.got.tgz:241077.got - 2010.06.03 11:33:40.
