data_PCOD9085292
_publ_section_title
;
Structure prediction by ZEFSAII (Michael W. Deem and Ramdas Pophale) SiO2 
 PCOD9085292
Probable space group: P -1
;
_chemical_formula_sum "Si O2"
_cell_formula_units_Z 16
_cell_length_a 15.123593
_cell_length_b 10.167103
_cell_length_c 11.222140
_cell_angle_alpha 140.952920
_cell_angle_beta 39.599843
_cell_angle_gamma 122.586963
_cell_volume 685.161188
_symmetry_space_group_name_H-M "P -1"
_symmetry_group_IT_number 2
_symmetry_cell_setting 'triclinic'
loop_
_space_group_symop_operation_xyz
x,y,z
-x,-y,-z
loop_
_atom_site_type_symbol
_atom_site_label
_atom_site_fract_x
_atom_site_fract_y
_atom_site_fract_z
Si Si1 0.298479 0.055052 0.032481
Si Si2 0.063193 0.768549 0.147668
Si Si3 0.444067 0.314066 0.499866
Si Si4 0.035010 0.662527 0.480653
Si Si5 0.960081 0.334723 0.169742
Si Si6 0.739280 0.886843 0.635243
Si Si7 0.859017 0.926730 0.013694
Si Si8 0.726223 0.362209 0.955648
O O1 0.432585 0.879386 0.751055
O O2 0.165827 0.939709 0.129131
O O3 0.313120 0.181783 0.228798
O O4 0.256386 0.143422 0.005949
O O5 0.157228 0.639340 0.060891
O O6 0.908075 0.865151 0.422719
O O7 0.045968 0.655469 0.959785
O O8 0.500000 0.500000 0.500000
O O9 0.323454 0.236857 0.491535
O O10 0.383826 0.430700 0.764219
O O11 0.946592 0.572096 0.402306
O O12 0.189865 0.646779 0.260235
O O13 0.000000 0.500000 0.500000
O O14 0.994204 0.874929 0.747295
O O15 0.099575 0.209103 0.005571
O O16 0.847104 0.180234 0.217669
O O17 0.676022 0.135692 0.864099
#
# Coordination Sequence:
#
# PCOD9085292 Si02
#       8
#     2   2   2   2   2   2   2   2
#     4  10  20  38  58  86 125 163 201 238 302 366
#     4  10  19  35  59  92 119 150 200 251 309 356
#     4  12  24  40  56  88 130 170 202 242 296 376
#     4  10  20  35  58  89 118 156 200 251 307 354
#     4   9  18  32  54  85 120 152 187 244 307 351
#     4  11  22  36  61  86 125 160 200 250 311 350
#     4   9  18  35  55  82 120 153 200 247 294 352
#     4  11  22  37  59  88 130 156 200 255 301 365
#
# _framework density 23.352167000000001
#
# number of rings (size 3 to 8) (size 9 to 14) (size 15 to 20)
#    0.000    1.750    2.500    4.875    0.000    3.000 
#    0.000    0.000    0.000    6.750    0.000   26.250 
#    0.000    0.000    0.000    0.000    0.000    0.000 
#
# Total GULP energy -89128.400171 kJ/mol
# GULP energy per Si atom -5570.525011 kJ/mol
# Density = 2.329902 g / cm^3
# Si number density = 23.352167 Si / 1000 Ang^3
#
#
#
# Elastic Constant Matrix: (Units=GPa)
#
#
# Indices 1 2 3 4 5 6 
#
# 1 73.5973 8.4548 29.5013 -4.1383 5.3830 -7.5224
# 2 8.4548 37.2035 -5.7205 1.7535 -1.1588 4.2864
# 3 29.5013 -5.7205 114.2050 -1.8400 0.2122 -1.9597
# 4 -4.1383 1.7535 -1.8400 25.1709 4.8291 12.5733
# 5 5.3830 -1.1588 0.2122 4.8291 40.0833 6.5787
# 6 -7.5224 4.2864 -1.9597 12.5733 6.5787 42.4924
#
#
#
# Elastic Compliance Matrix: (Units=1/GPa)
#
#
# Indices 1 2 3 4 5 6 
#
# 1 0.016596 -0.005003 -0.004449 0.001746 -0.003085 0.003199
# 2 -0.005003 0.028976 0.002656 -0.001247 0.002247 -0.003665
# 3 -0.004449 0.002656 0.010025 0.000033 0.000735 -0.000717
# 4 0.001746 -0.001247 0.000033 0.047321 -0.003843 -0.012971
# 5 -0.003085 0.002247 0.000735 -0.003843 0.026494 -0.003704
# 6 0.003199 -0.003665 -0.000717 -0.012971 -0.003704 0.028848
#
#
# Mechanical properties :
#
#
# Convention : Reuss Voigt Hill
#
# Bulk Modulus (GPa) = 23.80554 32.16413 27.98484
# Shear Modulus (GPa) = 26.90293 34.40065 30.65179
#
# Velocity S-wave (km/s) = 3.39787 3.84229 3.62690
# Velocity P-wave (km/s) = 5.06067 5.78686 5.43590
#
# Compressibility (1/GPa) = 0.04200702
#
# Stress axis : x y z
#
# Youngs Moduli (GPa) = 60.25448 34.51179 99.74694
#
# Poissons Ratio (x) = 0.17265 0.44377
# Poissons Ratio (y) = 0.30143 -0.26498
# Poissons Ratio (z) = 0.26807 -0.09168
#
# Static dielectric constant tensor:
#      x y z
#    x 1.987470 0.001820 0.023530 
#    y 0.001820 1.970060 0.060900 
#    z 0.023530 0.060900 1.993420 
# 
# From -- ./inp_files/437336.got.cif
#   From: 2010.05.17/outbox.cif.g08.bks.cpg/sg2_219_cif.got.tgz:437336.got - 2010.06.03 11:33:40.
