data_PCOD9085237
_publ_section_title
;
Structure prediction by ZEFSAII (Michael W. Deem and Ramdas Pophale) SiO2 
 PCOD9085237
Probable space group: P -1
;
_chemical_formula_sum "Si O2"
_cell_formula_units_Z 16
_cell_length_a 9.123107
_cell_length_b 8.841435
_cell_length_c 17.345631
_cell_angle_alpha 74.256098
_cell_angle_beta 57.440983
_cell_angle_gamma 121.775153
_cell_volume 634.508469
_symmetry_space_group_name_H-M "P -1"
_symmetry_group_IT_number 2
_symmetry_cell_setting 'triclinic'
loop_
_space_group_symop_operation_xyz
x,y,z
-x,-y,-z
loop_
_atom_site_type_symbol
_atom_site_label
_atom_site_fract_x
_atom_site_fract_y
_atom_site_fract_z
Si Si1 0.370168 0.311951 0.208361
Si Si2 0.638043 0.843472 0.449054
Si Si3 0.872115 0.918212 0.918246
Si Si4 0.454482 0.564667 0.690866
Si Si5 0.522998 0.164750 0.059445
Si Si6 0.426621 0.902465 0.254580
Si Si7 0.887260 0.229734 0.207865
Si Si8 0.765687 0.537645 0.529405
O O1 0.456837 0.312958 0.267514
O O2 0.493050 0.271771 0.121000
O O3 0.585722 0.628125 0.087176
O O4 0.004407 0.074579 0.329274
O O5 0.444125 0.676393 0.605881
O O6 0.455901 0.616765 0.461869
O O7 0.667167 0.031748 0.370434
O O8 0.743953 0.972867 0.900698
O O9 0.980237 0.845348 0.846609
O O10 0.174973 0.227453 0.825743
O O11 0.742555 0.675650 0.565446
O O12 0.513011 0.990060 0.128618
O O13 0.848047 0.449743 0.889434
O O14 0.342083 0.674738 0.349977
O O15 0.106689 0.756172 0.374209
O O16 0.711026 0.164356 0.192345
#
# Coordination Sequence:
#
# PCOD9085237 Si02
#       8
#     2   2   2   2   2   2   2   2
#     4  11  22  36  56  89 119 145 185 238 293 329
#     4  11  19  36  56  84 114 146 190 233 276 332
#     4  11  20  38  60  86 112 149 191 237 277 334
#     4  12  22  34  59  88 119 147 184 239 287 336
#     4  11  19  36  63  86 112 148 193 234 280 337
#     4  10  20  34  58  88 112 146 194 240 272 328
#     4  10  19  35  59  88 113 140 193 240 277 322
#     4  10  21  36  57  84 114 151 193 232 278 334
#
# _framework density 25.216367999999999
#
# number of rings (size 3 to 8) (size 9 to 14) (size 15 to 20)
#    0.000    1.250    5.000    3.750    0.000    0.000 
#    0.000    0.000    0.000   22.500    0.000    0.000 
#    0.000    0.000    0.000    0.000    0.000    0.000 
#
# Total GULP energy -89265.184054 kJ/mol
# GULP energy per Si atom -5579.074003 kJ/mol
# Density = 2.515897 g / cm^3
# Si number density = 25.216368 Si / 1000 Ang^3
#
#
#
# Elastic Constant Matrix: (Units=GPa)
#
#
# Indices 1 2 3 4 5 6 
#
# 1 90.3897 -3.3336 29.3966 2.5030 22.4102 3.8172
# 2 -3.3336 19.8155 11.3434 23.9930 4.7394 -20.3481
# 3 29.3966 11.3434 83.5485 -15.9759 11.4317 -0.3654
# 4 2.5030 23.9930 -15.9759 23.5221 6.1001 19.9879
# 5 22.4102 4.7394 11.4317 6.1001 35.8969 3.1725
# 6 3.8172 -20.3481 -0.3654 19.9879 3.1725 0.1196
#
#
#
# Elastic Compliance Matrix: (Units=1/GPa)
#
#
# Indices 1 2 3 4 5 6 
#
# 1 0.014612 0.001626 -0.004355 0.000007 -0.007511 -0.004979
# 2 0.001626 0.010934 0.000299 0.011330 -0.002203 -0.025751
# 3 -0.004355 0.000299 0.014279 0.001826 -0.003097 0.010396
# 4 0.000007 0.011330 0.001826 0.012435 -0.006424 0.025216
# 5 -0.007511 -0.002203 -0.003097 -0.006424 0.035096 -0.002042
# 6 -0.004979 -0.025751 0.010396 0.025216 -0.002042 0.010792
#
#
# Mechanical properties :
#
#
# Convention : Reuss Voigt Hill
#
# Bulk Modulus (GPa) = 28.59971 29.84072 29.22022
# Shear Modulus (GPa) = 43.60639 22.33086 32.96862
#
# Velocity S-wave (km/s) = 4.16298 2.97908 3.61976
# Velocity P-wave (km/s) = 5.87142 4.86752 5.39288
#
# Compressibility (1/GPa) = 0.03496539
#
# Stress axis : x y z
#
# Youngs Moduli (GPa) = 68.43854 91.45674 70.03230
#
# Poissons Ratio (x) = -0.14872 0.30496
# Poissons Ratio (y) = -0.11129 -0.02091
# Poissons Ratio (z) = 0.29802 -0.02731
#
# Static dielectric constant tensor:
#      x y z
#    x 2.031340 -0.012360 0.051540 
#    y -0.012360 1.997730 -0.008220 
#    z 0.051540 -0.008220 2.061100 
# 
# From -- ./inp_files/320312.got.cif
#   From: 2010.05.17/outbox.cif.g08.bks.cpg/sg2_161_cif.got.tgz:320312.got - 2010.06.03 11:33:40.
