data_PCOD9085544
_publ_section_title
;
Structure prediction by ZEFSAII (Michael W. Deem and Ramdas Pophale) SiO2 
 PCOD9085544
Probable space group: P -1
;
_chemical_formula_sum "Si O2"
_cell_formula_units_Z 16
_cell_length_a 21.712043
_cell_length_b 8.864978
_cell_length_c 5.404580
_cell_angle_alpha 85.847814
_cell_angle_beta 117.494533
_cell_angle_gamma 132.010050
_cell_volume 639.953371
_symmetry_space_group_name_H-M "P -1"
_symmetry_group_IT_number 2
_symmetry_cell_setting 'triclinic'
loop_
_space_group_symop_operation_xyz
x,y,z
-x,-y,-z
loop_
_atom_site_type_symbol
_atom_site_label
_atom_site_fract_x
_atom_site_fract_y
_atom_site_fract_z
Si Si1 0.110364 0.591531 0.673703
Si Si2 0.701685 0.639828 0.150497
Si Si3 0.388117 0.358996 0.519584
Si Si4 0.933522 0.796507 0.221627
Si Si5 0.122903 0.054083 0.240764
Si Si6 0.880036 0.279712 0.825791
Si Si7 0.416262 0.836945 0.072144
Si Si8 0.558069 0.837881 0.637567
O O1 0.100519 0.397919 0.660449
O O2 0.162005 0.741053 0.514495
O O3 0.000000 0.500000 0.500000
O O4 0.160312 0.697167 0.016716
O O5 0.657500 0.663855 0.300564
O O6 0.817785 0.835850 0.407709
O O7 0.667177 0.655029 0.823283
O O8 0.669276 0.413115 0.143991
O O9 0.497295 0.611558 0.696735
O O10 0.393798 0.188693 0.488336
O O11 0.856445 0.776553 0.927214
O O12 0.000000 0.000000 0.500000
O O13 0.007741 0.858419 0.132606
O O14 0.142158 0.929360 0.151378
O O15 0.000000 0.500000 0.000000
O O16 0.474005 0.818198 0.374116
O O17 0.383036 0.946605 0.113108
O O18 0.500000 0.000000 0.000000
#
# Coordination Sequence:
#
# PCOD9085544 Si02
#       8
#     2   2   2   2   2   2   2   2
#     4  10  19  35  61  87 111 143 203 262 305 375
#     4  11  25  41  62  93 134 172 209 270 328 380
#     4  10  22  40  64  96 127 168 216 260 316 377
#     4  11  23  39  66  92 118 169 221 273 321 397
#     4  11  25  40  64  91 128 166 220 271 334 382
#     4  10  19  37  61  83 110 153 201 257 304 380
#     4  10  19  37  66  94 132 174 211 256 320 379
#     4   9  20  36  67  96 123 170 221 257 300 393
#
# _framework density 25.001821
#
# number of rings (size 3 to 8) (size 9 to 14) (size 15 to 20)
#    0.000    1.750    3.750    1.500    5.250    1.500 
#    0.000    1.250    5.500    0.000    0.000    0.000 
#    0.000    0.000    0.000    0.000    0.000    0.000 
#
# Total GULP energy -89391.708542 kJ/mol
# GULP energy per Si atom -5586.981784 kJ/mol
# Density = 2.494492 g / cm^3
# Si number density = 25.001821 Si / 1000 Ang^3
#
#
#
# Elastic Constant Matrix: (Units=GPa)
#
#
# Indices 1 2 3 4 5 6 
#
# 1 102.6131 50.1597 35.7026 8.7313 -32.0983 -21.9053
# 2 50.1597 109.1079 25.0924 10.1498 -7.1044 -38.7553
# 3 35.7026 25.0924 98.5234 -4.0110 -19.1613 -11.5124
# 4 8.7313 10.1498 -4.0110 47.4201 -2.8287 -15.2285
# 5 -32.0983 -7.1044 -19.1613 -2.8287 43.4040 5.1992
# 6 -21.9053 -38.7553 -11.5124 -15.2285 5.1992 41.7571
#
#
#
# Elastic Compliance Matrix: (Units=1/GPa)
#
#
# Indices 1 2 3 4 5 6 
#
# 1 0.017225 -0.006257 -0.002580 -0.001175 0.010404 0.000794
# 2 -0.006257 0.016402 -0.001133 0.001364 -0.003864 0.012606
# 3 -0.002580 -0.001133 0.012286 0.002421 0.003314 0.001453
# 4 -0.001175 0.001364 0.002421 0.024529 0.000804 0.010162
# 5 0.010404 -0.003864 0.003314 0.000804 0.031721 -0.000871
# 6 0.000794 0.012606 0.001453 0.010162 -0.000871 0.040279
#
#
# Mechanical properties :
#
#
# Convention : Reuss Voigt Hill
#
# Bulk Modulus (GPa) = 38.50090 59.12820 48.81455
# Shear Modulus (GPa) = 29.23298 39.80220 34.51759
#
# Velocity S-wave (km/s) = 3.42312 3.99428 3.71968
# Velocity P-wave (km/s) = 5.57282 6.70621 6.16561
#
# Compressibility (1/GPa) = 0.02597342
#
# Stress axis : x y z
#
# Youngs Moduli (GPa) = 58.05355 60.96993 81.39170
#
# Poissons Ratio (x) = 0.38148 0.21002
# Poissons Ratio (y) = 0.36323 0.09220
# Poissons Ratio (z) = 0.14980 0.06906
#
# Static dielectric constant tensor:
#      x y z
#    x 2.130960 0.028470 0.094650 
#    y 0.028470 1.984070 0.039400 
#    z 0.094650 0.039400 2.218300 
# 
# From -- ./inp_files/126457.got.cif
#   From: 2010.05.17/outbox.cif.g08.bks.cpg/sg2_64_cif.got.tgz:126457.got - 2010.06.03 11:33:40.
