data_PCOD9085370
_publ_section_title
;
Structure prediction by ZEFSAII (Michael W. Deem and Ramdas Pophale) SiO2 
 PCOD9085370
Probable space group: P -1
;
_chemical_formula_sum "Si O2"
_cell_formula_units_Z 16
_cell_length_a 18.767169
_cell_length_b 19.257575
_cell_length_c 7.623903
_cell_angle_alpha 133.269398
_cell_angle_beta 120.587946
_cell_angle_gamma 21.548995
_cell_volume 646.025550
_symmetry_space_group_name_H-M "P -1"
_symmetry_group_IT_number 2
_symmetry_cell_setting 'triclinic'
loop_
_space_group_symop_operation_xyz
x,y,z
-x,-y,-z
loop_
_atom_site_type_symbol
_atom_site_label
_atom_site_fract_x
_atom_site_fract_y
_atom_site_fract_z
Si Si1 0.907514 0.810884 0.820359
Si Si2 0.567160 0.536930 0.098053
Si Si3 0.883961 0.493332 0.129410
Si Si4 0.374836 0.950260 0.647304
Si Si5 0.276185 0.812128 0.922097
Si Si6 0.136153 0.296201 0.669632
Si Si7 0.436608 0.242658 0.102076
Si Si8 0.825360 0.287680 0.327522
O O1 0.965238 0.695198 0.511003
O O2 0.101368 0.585148 0.811714
O O3 0.816343 0.014781 0.034573
O O4 0.684770 0.995308 0.919393
O O5 0.440965 0.769616 0.393396
O O6 0.512473 0.590812 0.914973
O O7 0.778070 0.325472 0.123482
O O8 0.500000 0.500000 0.000000
O O9 0.861728 0.630965 0.361108
O O10 0.697228 0.670381 0.060278
O O11 0.122707 0.217120 0.862879
O O12 0.525947 0.835145 0.788074
O O13 0.360933 0.024559 0.578873
O O14 0.262714 0.714621 0.696023
O O15 0.088473 0.020641 0.203666
O O16 0.000000 0.500000 0.000000
O O17 0.308849 0.479319 0.371025
#
# Coordination Sequence:
#
# PCOD9085370 Si02
#       8
#     2   2   2   2   2   2   2   2
#     4  11  23  39  59  87 122 152 192 242 299 352
#     4   9  16  30  55  84 114 144 184 244 288 324
#     4  10  22  39  59  81 122 164 184 241 302 342
#     4   9  18  37  59  86 115 148 205 242 284 347
#     4  10  19  35  60  86 118 154 195 242 284 347
#     4  10  21  39  64  87 112 154 204 245 291 345
#     4  10  22  38  58  87 123 155 192 241 295 350
#     4   9  20  35  58  90 115 153 200 234 286 348
#
# _framework density 24.766824
#
# number of rings (size 3 to 8) (size 9 to 14) (size 15 to 20)
#    0.000    2.250    1.250    1.125    1.750    2.500 
#    0.000    0.625    0.000    0.000    0.000    0.000 
#    0.000    0.000    0.000    0.000    0.000    0.000 
#
# Total GULP energy -89193.351258 kJ/mol
# GULP energy per Si atom -5574.584454 kJ/mol
# Density = 2.471045 g / cm^3
# Si number density = 24.766824 Si / 1000 Ang^3
#
#
#
# Elastic Constant Matrix: (Units=GPa)
#
#
# Indices 1 2 3 4 5 6 
#
# 1 59.6186 41.4900 15.3369 3.8256 18.7275 33.4791
# 2 41.4900 150.4942 10.5595 -6.4443 4.6238 26.6712
# 3 15.3369 10.5595 67.8006 8.1903 8.3546 7.2991
# 4 3.8256 -6.4443 8.1903 28.3386 9.5950 4.5294
# 5 18.7275 4.6238 8.3546 9.5950 33.1414 14.8639
# 6 33.4791 26.6712 7.2991 4.5294 14.8639 50.1897
#
#
#
# Elastic Compliance Matrix: (Units=1/GPa)
#
#
# Indices 1 2 3 4 5 6 
#
# 1 0.034185 -0.005919 -0.003930 0.001362 -0.010701 -0.016040
# 2 -0.005919 0.008590 -0.000401 0.002349 0.002206 -0.001423
# 3 -0.003930 -0.000401 0.016205 -0.004037 -0.001173 0.001190
# 4 0.001362 0.002349 -0.004037 0.040852 -0.011012 -0.001995
# 5 -0.010701 0.002206 -0.001173 -0.011012 0.041743 -0.005232
# 6 -0.016040 -0.001423 0.001190 -0.001995 -0.005232 0.032937
#
#
# Mechanical properties :
#
#
# Convention : Reuss Voigt Hill
#
# Bulk Modulus (GPa) = 25.98838 45.85400 35.92119
# Shear Modulus (GPa) = 24.05717 36.36907 30.21312
#
# Velocity S-wave (km/s) = 3.12002 3.83621 3.49650
# Velocity P-wave (km/s) = 4.84721 6.17871 5.55301
#
# Compressibility (1/GPa) = 0.03847873
#
# Stress axis : x y z
#
# Youngs Moduli (GPa) = 29.25286 116.41724 61.71017
#
# Poissons Ratio (x) = 0.68907 0.24253
# Poissons Ratio (y) = 0.17315 0.02476
# Poissons Ratio (z) = 0.11497 0.04671
#
# Static dielectric constant tensor:
#      x y z
#    x 2.115310 0.037780 -0.083390 
#    y 0.037780 1.997850 -0.036750 
#    z -0.083390 -0.036750 1.962320 
# 
# From -- ./inp_files/349606.got.cif
#   From: 2010.05.17/outbox.cif.g08.bks.cpg/sg2_175_cif.got.tgz:349606.got - 2010.06.03 11:33:40.
