data_PCOD9085854
_publ_section_title
;
Structure prediction by ZEFSAII (Michael W. Deem and Ramdas Pophale) SiO2 
 PCOD9085854
Probable space group: P -1
;
_chemical_formula_sum "Si O2"
_cell_formula_units_Z 14
_cell_length_a 10.924031
_cell_length_b 11.925232
_cell_length_c 14.345453
_cell_angle_alpha 160.904187
_cell_angle_beta 86.495159
_cell_angle_gamma 96.098626
_cell_volume 603.473377
_symmetry_space_group_name_H-M "P -1"
_symmetry_group_IT_number 2
_symmetry_cell_setting 'triclinic'
loop_
_space_group_symop_operation_xyz
x,y,z
-x,-y,-z
loop_
_atom_site_type_symbol
_atom_site_label
_atom_site_fract_x
_atom_site_fract_y
_atom_site_fract_z
Si Si1 0.208976 0.747281 0.431477
Si Si2 0.235428 0.206653 0.152147
Si Si3 0.929096 0.620912 0.007787
Si Si4 0.145761 0.669398 0.887403
Si Si5 0.710651 0.858584 0.597577
Si Si6 0.512412 0.909362 0.322392
Si Si7 0.377661 0.659538 0.656699
O O1 0.178003 0.404141 0.227172
O O2 0.180984 0.650724 0.248232
O O3 0.352566 0.900552 0.565825
O O4 0.128207 0.039192 0.694777
O O5 0.279243 0.491102 0.452404
O O6 0.152123 0.892915 0.966418
O O7 0.353909 0.052347 0.980615
O O8 0.025334 0.675895 0.960866
O O9 0.000000 0.500000 0.000000
O O10 0.171956 0.274828 0.561869
O O11 0.251045 0.868864 0.107737
O O12 0.653305 0.500662 0.366882
O O13 0.603497 0.980545 0.639353
O O14 0.500000 0.000000 0.500000
O O15 0.500000 0.500000 0.000000
O O16 0.500000 0.500000 0.500000
#
# Coordination Sequence:
#
# PCOD9085854 Si02
#       7
#     2   2   2   2   2   2   2
#     4  12  27  47  69 104 138 178 232 289 347 403
#     4  10  22  40  66 101 136 174 225 280 341 408
#     4  12  28  46  72  97 139 187 234 288 330 412
#     4  10  23  43  71 101 135 184 225 275 343 401
#     4  10  22  40  66  97 134 177 224 277 332 410
#     4  12  27  43  67  98 137 183 223 283 342 403
#     4  10  19  35  63  96 136 177 217 270 334 411
#
# _framework density 23.199034999999999
#
# number of rings (size 3 to 8) (size 9 to 14) (size 15 to 20)
#    0.000    1.143    0.000    5.143    6.000    4.571 
#    0.000    0.000    0.000    0.000    0.000    0.000 
#    0.000    0.000    0.000    0.000    0.000    0.000 
#
# Total GULP energy -78223.342703 kJ/mol
# GULP energy per Si atom -5587.381622 kJ/mol
# Density = 2.314623 g / cm^3
# Si number density = 23.199035 Si / 1000 Ang^3
#
#
#
# Elastic Constant Matrix: (Units=GPa)
#
#
# Indices 1 2 3 4 5 6 
#
# 1 86.3751 58.3176 36.6229 9.4615 -12.6155 -6.4229
# 2 58.3176 117.8503 52.8071 7.4462 -17.2850 -22.7104
# 3 36.6229 52.8071 150.4618 -15.2139 -30.0193 -19.5391
# 4 9.4615 7.4462 -15.2139 34.3133 0.4858 -2.7181
# 5 -12.6155 -17.2850 -30.0193 0.4858 43.0173 -3.4865
# 6 -6.4229 -22.7104 -19.5391 -2.7181 -3.4865 43.0869
#
#
#
# Elastic Compliance Matrix: (Units=1/GPa)
#
#
# Indices 1 2 3 4 5 6 
#
# 1 0.018551 -0.008364 -0.002391 -0.004601 0.000220 -0.003000
# 2 -0.008364 0.015217 -0.002163 -0.001524 0.002649 0.005911
# 3 -0.002391 -0.002163 0.010276 0.005919 0.005859 0.004011
# 4 -0.004601 -0.001524 0.005919 0.033614 0.002072 0.003483
# 5 0.000220 0.002649 0.005859 0.002072 0.028972 0.006561
# 6 -0.003000 0.005911 0.004011 0.003483 0.006561 0.028447
#
#
# Mechanical properties :
#
#
# Convention : Reuss Voigt Hill
#
# Bulk Modulus (GPa) = 54.91881 72.24249 63.58065
# Shear Modulus (GPa) = 29.94345 37.87946 33.91145
#
# Velocity S-wave (km/s) = 3.59656 4.04518 3.82745
# Velocity P-wave (km/s) = 6.40088 7.28189 6.85555
#
# Compressibility (1/GPa) = 0.01820870
#
# Stress axis : x y z
#
# Youngs Moduli (GPa) = 53.90517 65.71516 97.31801
#
# Poissons Ratio (x) = 0.54962 0.23268
# Poissons Ratio (y) = 0.45084 0.21051
# Poissons Ratio (z) = 0.12888 0.14215
#
# Static dielectric constant tensor:
#      x y z
#    x 2.058160 0.070670 0.001210 
#    y 0.070670 1.882080 -0.012690 
#    z 0.001210 -0.012690 1.950700 
# 
# From -- ./inp_files/519980.got.cif
#   From: 2010.05.17/outbox.cif.g08.bks.cpg/sg2_260_cif.got.tgz:519980.got - 2010.06.03 11:33:40.
