data_PCOD9085211
_publ_section_title
;
Structure prediction by ZEFSAII (Michael W. Deem and Ramdas Pophale) SiO2 
 PCOD9085211
Probable space group: P -1
;
_chemical_formula_sum "Si O2"
_cell_formula_units_Z 14
_cell_length_a 10.539546
_cell_length_b 8.968717
_cell_length_c 9.175761
_cell_angle_alpha 105.318642
_cell_angle_beta 135.751088
_cell_angle_gamma 83.847922
_cell_volume 579.357254
_symmetry_space_group_name_H-M "P -1"
_symmetry_group_IT_number 2
_symmetry_cell_setting 'triclinic'
loop_
_space_group_symop_operation_xyz
x,y,z
-x,-y,-z
loop_
_atom_site_type_symbol
_atom_site_label
_atom_site_fract_x
_atom_site_fract_y
_atom_site_fract_z
Si Si1 0.889118 0.357511 0.046099
Si Si2 0.296940 0.476055 0.660522
Si Si3 0.343587 0.356753 0.066247
Si Si4 0.960664 0.283830 0.427157
Si Si5 0.301332 0.008324 0.908433
Si Si6 0.311092 0.965609 0.249151
Si Si7 0.275703 0.304536 0.311717
O O1 0.779774 0.504450 0.998465
O O2 0.785808 0.206229 0.840719
O O3 0.917806 0.311758 0.227389
O O4 0.092083 0.383554 0.155051
O O5 0.480523 0.589417 0.875649
O O6 0.150640 0.598522 0.544362
O O7 0.356133 0.380601 0.545613
O O8 0.176958 0.346902 0.627946
O O9 0.398484 0.331072 0.275874
O O10 0.252804 0.184079 0.908279
O O11 0.861067 0.111060 0.324963
O O12 0.331044 0.968125 0.091902
O O13 0.500000 0.000000 0.000000
O O14 0.500000 0.000000 0.500000
O O15 0.213943 0.120374 0.240209
#
# Coordination Sequence:
#
# PCOD9085211 Si02
#       7
#     2   2   2   2   2   2   2
#     4  10  21  38  58  88 120 161 205 243 297 368
#     4  10  19  35  59  86 115 153 205 243 295 353
#     4  11  21  35  62  90 118 156 204 250 301 353
#     4   9  20  38  60  82 117 165 198 241 303 361
#     4  10  20  40  61  90 125 162 197 250 310 362
#     4  10  21  38  61  92 120 159 207 246 304 364
#     4  10  21  37  58  86 124 161 191 253 307 353
#
# _framework density 24.164714
#
# number of rings (size 3 to 8) (size 9 to 14) (size 15 to 20)
#    0.000    2.000    1.429    2.143    0.000    2.857 
#    2.571    0.000    0.000   11.143    0.000    0.000 
#    0.000    0.000    0.000    0.000    0.000    0.000 
#
# Total GULP energy -78157.365652 kJ/mol
# GULP energy per Si atom -5582.668975 kJ/mol
# Density = 2.410971 g / cm^3
# Si number density = 24.164714 Si / 1000 Ang^3
#
#
#
# Elastic Constant Matrix: (Units=GPa)
#
#
# Indices 1 2 3 4 5 6 
#
# 1 68.7263 37.0240 13.2470 16.5703 13.9617 2.8026
# 2 37.0240 109.3411 39.0152 27.6455 18.0041 0.7721
# 3 13.2470 39.0152 96.8994 33.7256 22.2284 8.3505
# 4 16.5703 27.6455 33.7256 52.3957 4.3585 2.4195
# 5 13.9617 18.0041 22.2284 4.3585 46.7642 3.0550
# 6 2.8026 0.7721 8.3505 2.4195 3.0550 31.3856
#
#
#
# Elastic Compliance Matrix: (Units=1/GPa)
#
#
# Indices 1 2 3 4 5 6 
#
# 1 0.018948 -0.005450 0.002066 -0.004043 -0.004072 -0.001400
# 2 -0.005450 0.013195 -0.003219 -0.003088 -0.001728 0.001425
# 3 0.002066 -0.003219 0.015957 -0.008587 -0.005959 -0.003109
# 4 -0.004043 -0.003088 -0.008587 0.027183 0.003928 0.000244
# 5 -0.004072 -0.001728 -0.005959 0.003928 0.025785 -0.000821
# 6 -0.001400 0.001425 -0.003109 0.000244 -0.000821 0.032840
#
#
# Mechanical properties :
#
#
# Convention : Reuss Voigt Hill
#
# Bulk Modulus (GPa) = 28.65901 50.39325 39.52613
# Shear Modulus (GPa) = 31.49688 38.48780 34.99234
#
# Velocity S-wave (km/s) = 3.61421 3.99523 3.80949
# Velocity P-wave (km/s) = 5.41316 6.49475 5.97847
#
# Compressibility (1/GPa) = 0.03489303
#
# Stress axis : x y z
#
# Youngs Moduli (GPa) = 52.77703 75.78459 62.66764
#
# Poissons Ratio (x) = 0.41306 -0.12948
# Poissons Ratio (y) = 0.28766 0.20174
# Poissons Ratio (z) = -0.10905 0.24397
#
# Static dielectric constant tensor:
#      x y z
#    x 1.939550 0.026180 -0.001430 
#    y 0.026180 1.951010 0.000250 
#    z -0.001430 0.000250 1.982480 
# 
# From -- ./inp_files/212819.got.cif
#   From: 2010.05.17/outbox.cif.g08.bks.cpg/sg2_107_cif.got.tgz:212819.got - 2010.06.03 11:33:40.
