data_PCOD9085209
_publ_section_title
;
Structure prediction by ZEFSAII (Michael W. Deem and Ramdas Pophale) SiO2 
 PCOD9085209
Probable space group: P -1
;
_chemical_formula_sum "Si O2"
_cell_formula_units_Z 16
_cell_length_a 21.856060
_cell_length_b 15.074929
_cell_length_c 8.209094
_cell_angle_alpha 53.001441
_cell_angle_beta 58.166459
_cell_angle_gamma 18.322307
_cell_volume 668.632785
_symmetry_space_group_name_H-M "P -1"
_symmetry_group_IT_number 2
_symmetry_cell_setting 'triclinic'
loop_
_space_group_symop_operation_xyz
x,y,z
-x,-y,-z
loop_
_atom_site_type_symbol
_atom_site_label
_atom_site_fract_x
_atom_site_fract_y
_atom_site_fract_z
Si Si1 0.448720 0.611874 0.710648
Si Si2 0.279136 0.946750 0.243159
Si Si3 0.184623 0.680519 0.762234
Si Si4 0.001155 0.164216 0.452164
Si Si5 0.283993 0.448686 0.290239
Si Si6 0.627193 0.954434 0.956069
Si Si7 0.435484 0.043916 0.303447
Si Si8 0.775602 0.220438 0.928918
O O1 0.358613 0.808357 0.468247
O O2 0.570355 0.330717 0.783001
O O3 0.610173 0.450553 0.764044
O O4 0.279662 0.805318 0.853144
O O5 0.250090 0.118745 0.070417
O O6 0.077841 0.167271 0.267589
O O7 0.403051 0.323770 0.881669
O O8 0.137026 0.703046 0.624494
O O9 0.181025 0.819167 0.606969
O O10 0.994516 0.914067 0.879531
O O11 0.898421 0.321112 0.594778
O O12 0.302106 0.327544 0.264738
O O13 0.256444 0.618463 0.104722
O O14 0.477997 0.157860 0.454139
O O15 0.658872 0.879411 0.805061
O O16 0.617929 0.854591 0.181594
#
# Coordination Sequence:
#
# PCOD9085209 Si02
#       8
#     2   2   2   2   2   2   2   2
#     4  10  20  32  53  87 124 147 173 219 296 353
#     4  11  21  35  54  85 120 150 178 232 282 341
#     4  10  19  35  59  86 114 148 180 232 283 344
#     4  10  20  34  59  87 114 145 183 227 296 337
#     4  10  20  38  60  81 112 149 195 233 271 331
#     4  11  22  38  60  82 114 149 196 232 276 326
#     4  10  22  38  59  81 106 155 203 231 266 324
#     4  10  20  35  58  89 116 145 180 232 288 341
#
# _framework density 23.929428999999999
#
# number of rings (size 3 to 8) (size 9 to 14) (size 15 to 20)
#    0.000    1.750    2.500    3.000    1.750    1.000 
#    0.000    4.375    0.000    0.000    0.000    0.000 
#    0.000    0.000    0.000    0.000    0.000    0.000 
#
# Total GULP energy -89525.005403 kJ/mol
# GULP energy per Si atom -5595.312838 kJ/mol
# Density = 2.387496 g / cm^3
# Si number density = 23.929429 Si / 1000 Ang^3
#
#
#
# Elastic Constant Matrix: (Units=GPa)
#
#
# Indices 1 2 3 4 5 6 
#
# 1 123.2478 30.0754 0.8436 11.6014 -9.5301 16.2209
# 2 30.0754 75.8297 4.1366 14.8825 4.8691 12.6058
# 3 0.8436 4.1366 34.6147 6.4297 -10.9231 6.2289
# 4 11.6014 14.8825 6.4297 40.3862 -0.7642 2.7207
# 5 -9.5301 4.8691 -10.9231 -0.7642 33.6276 7.6431
# 6 16.2209 12.6058 6.2289 2.7207 7.6431 42.8652
#
#
#
# Elastic Compliance Matrix: (Units=1/GPa)
#
#
# Indices 1 2 3 4 5 6 
#
# 1 0.010019 -0.003463 0.002818 -0.001685 0.005125 -0.003989
# 2 -0.003463 0.016158 -0.001666 -0.004605 -0.003446 -0.002293
# 3 0.002818 -0.001666 0.035975 -0.005107 0.014440 -0.008054
# 4 -0.001685 -0.004605 -0.005107 0.027655 -0.001109 0.001176
# 5 0.005125 -0.003446 0.014440 -0.001109 0.038589 -0.009835
# 6 -0.003989 -0.002293 -0.008054 0.001176 -0.009835 0.028362
#
#
# Mechanical properties :
#
#
# Convention : Reuss Voigt Hill
#
# Bulk Modulus (GPa) = 17.38228 33.75594 25.56911
# Shear Modulus (GPa) = 27.69215 36.61823 32.15519
#
# Velocity S-wave (km/s) = 3.40552 3.91610 3.66970
# Velocity P-wave (km/s) = 4.76898 5.88089 5.35388
#
# Compressibility (1/GPa) = 0.05752984
#
# Stress axis : x y z
#
# Youngs Moduli (GPa) = 99.80677 61.88936 27.79738
#
# Poissons Ratio (x) = 0.21431 -0.07832
# Poissons Ratio (y) = 0.34560 0.04631
# Poissons Ratio (z) = -0.28122 0.10310
#
# Static dielectric constant tensor:
#      x y z
#    x 1.886160 -0.017040 0.020630 
#    y -0.017040 1.940010 -0.020710 
#    z 0.020630 -0.020710 1.982630 
# 
# From -- ./inp_files/181873.got.cif
#   From: 2010.05.17/outbox.cif.g08.bks.cpg/sg2_91_cif.got.tgz:181873.got - 2010.06.03 11:33:40.
