data_PCOD9085666
_publ_section_title
;
Structure prediction by ZEFSAII (Michael W. Deem and Ramdas Pophale) SiO2 
 PCOD9085666
Probable space group: P -1
;
_chemical_formula_sum "Si O2"
_cell_formula_units_Z 14
_cell_length_a 17.202841
_cell_length_b 7.040934
_cell_length_c 7.810260
_cell_angle_alpha 60.315495
_cell_angle_beta 68.343835
_cell_angle_gamma 44.021473
_cell_volume 571.003296
_symmetry_space_group_name_H-M "P -1"
_symmetry_group_IT_number 2
_symmetry_cell_setting 'triclinic'
loop_
_space_group_symop_operation_xyz
x,y,z
-x,-y,-z
loop_
_atom_site_type_symbol
_atom_site_label
_atom_site_fract_x
_atom_site_fract_y
_atom_site_fract_z
Si Si1 0.940705 0.411759 0.978085
Si Si2 0.451725 0.770194 0.787232
Si Si3 0.707767 0.020935 0.902678
Si Si4 0.692767 0.521268 0.693745
Si Si5 0.097515 0.256614 0.655808
Si Si6 0.679780 0.039257 0.544663
Si Si7 0.116698 0.697111 0.607060
O O1 0.033995 0.201421 0.856448
O O2 0.825394 0.724023 0.875669
O O3 0.900679 0.285692 0.185531
O O4 0.000000 0.500000 0.000000
O O5 0.559166 0.735422 0.685438
O O6 0.400056 0.802693 0.628941
O O7 0.500000 0.500000 0.000000
O O8 0.351924 0.022701 0.883929
O O9 0.725566 0.230345 0.879870
O O10 0.640038 0.168093 0.712218
O O11 0.709885 0.726998 0.673478
O O12 0.774065 0.383759 0.525212
O O13 0.210796 0.011286 0.573563
O O14 0.126249 0.428222 0.659770
O O15 0.000000 0.500000 0.500000
O O16 0.000000 0.000000 0.500000
#
# Coordination Sequence:
#
# PCOD9085666 Si02
#       7
#     2   2   2   2   2   2   2
#     4  10  19  35  62  87 120 166 207 254 319 377
#     4  10  23  42  64  93 127 168 214 262 317 379
#     4  11  22  41  68  89 125 172 209 259 327 375
#     4  10  22  40  63  93 126 158 211 265 311 373
#     4  10  19  36  60  87 122 157 204 258 314 368
#     4  11  23  40  67  93 126 168 211 262 321 375
#     4  10  21  36  62  87 119 163 205 253 317 372
#
# _framework density 24.518249000000001
#
# number of rings (size 3 to 8) (size 9 to 14) (size 15 to 20)
#    0.000    1.714    1.429    4.714    0.000    4.000 
#    0.000    6.429    6.286    0.000    0.000    0.000 
#    0.000    0.000    0.000    0.000    0.000    0.000 
#
# Total GULP energy -78040.837507 kJ/mol
# GULP energy per Si atom -5574.345536 kJ/mol
# Density = 2.446244 g / cm^3
# Si number density = 24.518249 Si / 1000 Ang^3
#
#
#
# Elastic Constant Matrix: (Units=GPa)
#
#
# Indices 1 2 3 4 5 6 
#
# 1 88.6782 50.9490 35.9249 24.8393 -1.1919 -18.9774
# 2 50.9490 94.3314 35.6129 20.8637 -9.1238 -12.4062
# 3 35.9249 35.6129 104.1729 28.8289 -3.1870 -26.0672
# 4 24.8393 20.8637 28.8289 46.7624 -11.8171 -14.6880
# 5 -1.1919 -9.1238 -3.1870 -11.8171 48.3866 8.2565
# 6 -18.9774 -12.4062 -26.0672 -14.6880 8.2565 56.8608
#
#
#
# Elastic Compliance Matrix: (Units=1/GPa)
#
#
# Indices 1 2 3 4 5 6 
#
# 1 0.018657 -0.008264 -0.001584 -0.005106 -0.002929 0.002804
# 2 -0.008264 0.016402 -0.002677 -0.000930 0.002662 -0.001034
# 3 -0.001584 -0.002677 0.013504 -0.005483 -0.001659 0.003903
# 4 -0.005106 -0.000930 -0.005483 0.030265 0.006306 0.002482
# 5 -0.002929 0.002662 -0.001659 0.006306 0.023017 -0.002871
# 6 0.002804 -0.001034 0.003903 0.002482 -0.002871 0.021144
#
#
# Mechanical properties :
#
#
# Convention : Reuss Voigt Hill
#
# Bulk Modulus (GPa) = 42.52911 59.12844 50.82878
# Shear Modulus (GPa) = 32.07627 41.38168 36.72897
#
# Velocity S-wave (km/s) = 3.62091 4.11273 3.87463
# Velocity P-wave (km/s) = 5.90465 6.83529 6.38694
#
# Compressibility (1/GPa) = 0.02351331
#
# Stress axis : x y z
#
# Youngs Moduli (GPa) = 53.59801 60.96668 74.05205
#
# Poissons Ratio (x) = 0.50384 0.11729
# Poissons Ratio (y) = 0.44294 0.19826
# Poissons Ratio (z) = 0.08489 0.16322
#
# Static dielectric constant tensor:
#      x y z
#    x 1.949960 -0.022720 0.020400 
#    y -0.022720 2.103140 -0.011240 
#    z 0.020400 -0.011240 2.041680 
# 
# From -- ./inp_files/169980.got.cif
#   From: 2010.05.17/outbox.cif.g08.bks.cpg/sg2_85_cif.got.tgz:169980.got - 2010.06.03 11:33:40.
