data_PCOD9085245
_publ_section_title
;
Structure prediction by ZEFSAII (Michael W. Deem and Ramdas Pophale) SiO2 
 PCOD9085245
Probable space group: P -1
;
_chemical_formula_sum "Si O2"
_cell_formula_units_Z 14
_cell_length_a 13.011774
_cell_length_b 8.725039
_cell_length_c 10.991023
_cell_angle_alpha 115.235795
_cell_angle_beta 147.835664
_cell_angle_gamma 68.376083
_cell_volume 600.789732
_symmetry_space_group_name_H-M "P -1"
_symmetry_group_IT_number 2
_symmetry_cell_setting 'triclinic'
loop_
_space_group_symop_operation_xyz
x,y,z
-x,-y,-z
loop_
_atom_site_type_symbol
_atom_site_label
_atom_site_fract_x
_atom_site_fract_y
_atom_site_fract_z
Si Si1 0.019219 0.298937 0.970512
Si Si2 0.843966 0.807678 0.168597
Si Si3 0.098725 0.584240 0.511995
Si Si4 0.566515 0.681749 0.668112
Si Si5 0.018084 0.238933 0.206167
Si Si6 0.696951 0.165175 0.062946
Si Si7 0.392510 0.012947 0.527505
O O1 0.999799 0.209415 0.790806
O O2 0.000000 0.500000 0.000000
O O3 0.249466 0.265883 0.211484
O O4 0.922098 0.242269 0.977760
O O5 0.951053 0.729282 0.363887
O O6 0.758539 0.996676 0.143383
O O7 0.667034 0.690851 0.904655
O O8 0.107767 0.427077 0.375433
O O9 0.292200 0.676229 0.780773
O O10 0.000000 0.500000 0.500000
O O11 0.500000 0.500000 0.500000
O O12 0.407011 0.825412 0.537191
O O13 0.184619 0.098735 0.335617
O O14 0.861251 0.200236 0.138369
O O15 0.510168 0.126008 0.782406
O O16 0.500000 0.000000 0.500000
#
# Coordination Sequence:
#
# PCOD9085245 Si02
#       7
#     2   2   2   2   2   2   2
#     4  10  19  35  59  88 120 151 199 242 302 361
#     4   9  19  37  60  87 119 155 203 248 301 362
#     4  10  21  38  62  87 116 165 208 243 296 361
#     4   9  20  36  56  87 122 156 185 251 306 349
#     4  11  21  40  61  92 124 157 202 245 302 363
#     4  10  23  39  64  86 121 167 196 252 302 349
#     4  11  22  39  59  92 126 150 202 250 300 366
#
# _framework density 23.302662000000002
#
# number of rings (size 3 to 8) (size 9 to 14) (size 15 to 20)
#    0.857    1.143    2.857    0.429    0.000    7.429 
#    0.000    0.000    0.000    7.714    0.000    0.000 
#    0.000    0.000    0.000    0.000    0.000    0.000 
#
# Total GULP energy -78130.145100 kJ/mol
# GULP energy per Si atom -5580.724650 kJ/mol
# Density = 2.324962 g / cm^3
# Si number density = 23.302662 Si / 1000 Ang^3
#
#
#
# Elastic Constant Matrix: (Units=GPa)
#
#
# Indices 1 2 3 4 5 6 
#
# 1 32.3936 -6.7555 7.6313 -12.0988 -6.1371 10.3287
# 2 -6.7555 78.5314 38.2778 8.0221 -9.8840 8.5933
# 3 7.6313 38.2778 107.1758 8.6682 -25.1922 7.7893
# 4 -12.0988 8.0221 8.6682 50.5439 -3.1050 -7.8410
# 5 -6.1371 -9.8840 -25.1922 -3.1050 28.5203 -7.2792
# 6 10.3287 8.5933 7.7893 -7.8410 -7.2792 27.9129
#
#
#
# Elastic Compliance Matrix: (Units=1/GPa)
#
#
# Indices 1 2 3 4 5 6 
#
# 1 0.041094 0.006616 -0.003715 0.007810 0.005494 -0.012580
# 2 0.006616 0.017028 -0.005924 -0.001045 0.000388 -0.006230
# 3 -0.003715 -0.005924 0.014018 -0.001541 0.009717 0.001387
# 4 0.007810 -0.001045 -0.001541 0.023154 0.003848 0.005370
# 5 0.005494 0.000388 0.009717 0.003848 0.047583 0.008626
# 6 -0.012580 -0.006230 0.001387 0.005370 0.008626 0.045769
#
#
# Mechanical properties :
#
#
# Convention : Reuss Voigt Hill
#
# Bulk Modulus (GPa) = 15.12994 32.93421 24.03208
# Shear Modulus (GPa) = 23.07092 33.32525 28.19809
#
# Velocity S-wave (km/s) = 3.14993 3.78578 3.48239
# Velocity P-wave (km/s) = 4.44255 5.76831 5.14828
#
# Compressibility (1/GPa) = 0.06609411
#
# Stress axis : x y z
#
# Youngs Moduli (GPa) = 24.33448 58.72803 71.33465
#
# Poissons Ratio (x) = -0.38854 0.26501
# Poissons Ratio (y) = -0.16100 0.42258
# Poissons Ratio (z) = 0.09040 0.34790
#
# Static dielectric constant tensor:
#      x y z
#    x 1.917760 -0.012010 -0.008930 
#    y -0.012010 1.903220 0.079120 
#    z -0.008930 0.079120 1.984390 
# 
# From -- ./inp_files/337162.got.cif
#   From: 2010.05.17/outbox.cif.g08.bks.cpg/sg2_169_cif.got.tgz:337162.got - 2010.06.03 11:33:40.
