data_PCOD9085852
_publ_section_title
;
Structure prediction by ZEFSAII (Michael W. Deem and Ramdas Pophale) SiO2 
 PCOD9085852
Probable space group: P -1
;
_chemical_formula_sum "Si O2"
_cell_formula_units_Z 16
_cell_length_a 9.285499
_cell_length_b 9.864976
_cell_length_c 19.266208
_cell_angle_alpha 137.512104
_cell_angle_beta 41.396807
_cell_angle_gamma 121.969923
_cell_volume 787.131545
_symmetry_space_group_name_H-M "P -1"
_symmetry_group_IT_number 2
_symmetry_cell_setting 'triclinic'
loop_
_space_group_symop_operation_xyz
x,y,z
-x,-y,-z
loop_
_atom_site_type_symbol
_atom_site_label
_atom_site_fract_x
_atom_site_fract_y
_atom_site_fract_z
Si Si1 0.096890 0.301282 0.092371
Si Si2 0.550530 0.281245 0.430514
Si Si3 0.368441 0.907393 0.810129
Si Si4 0.050696 0.264519 0.248664
Si Si5 0.588586 0.627483 0.731904
Si Si6 0.031545 0.605497 0.104289
Si Si7 0.406927 0.223445 0.604850
Si Si8 0.290454 0.866268 0.024306
O O1 0.107528 0.370936 0.195385
O O2 0.855673 0.210760 0.144554
O O3 0.099405 0.455437 0.085795
O O4 0.289946 0.130095 0.946006
O O5 0.500000 0.500000 0.500000
O O6 0.559093 0.115701 0.304357
O O7 0.383682 0.245335 0.538629
O O8 0.799876 0.287209 0.368068
O O9 0.554906 0.786421 0.741491
O O10 0.204800 0.333918 0.280648
O O11 0.103169 0.024997 0.125894
O O12 0.569625 0.398089 0.631232
O O13 0.369942 0.688086 0.877835
O O14 0.812349 0.726030 0.254246
O O15 0.213690 0.766475 0.084439
O O16 0.000000 0.500000 0.000000
O O17 0.500000 0.000000 0.500000
O O18 0.500000 0.000000 0.000000
#
# Coordination Sequence:
#
# PCOD9085852 Si02
#       8
#     2   2   2   2   2   2   2   2
#     4  10  20  35  65  99 127 171 223 277 338 386
#     4  11  22  39  60  92 128 177 227 267 319 394
#     4  10  19  35  63  96 131 170 226 277 323 399
#     4  10  22  38  69  94 135 179 218 271 344 404
#     4  11  20  41  63  99 132 172 222 274 333 401
#     4  12  23  40  68  99 131 174 227 284 329 384
#     4  12  25  39  63  96 133 173 226 280 324 390
#     4  10  21  39  65  96 134 168 210 272 343 399
#
# _framework density 20.326971
#
# number of rings (size 3 to 8) (size 9 to 14) (size 15 to 20)
#    0.000    1.250    5.000    1.500    5.250    0.500 
#    0.000    2.500    5.500    1.500    0.000    0.000 
#    0.000    0.000    0.000    0.000    0.000    0.000 
#
# Total GULP energy -89271.348554 kJ/mol
# GULP energy per Si atom -5579.459285 kJ/mol
# Density = 2.028071 g / cm^3
# Si number density = 20.326971 Si / 1000 Ang^3
#
#
#
# Elastic Constant Matrix: (Units=GPa)
#
#
# Indices 1 2 3 4 5 6 
#
# 1 103.3613 25.5249 30.6674 0.6814 1.3765 -14.2280
# 2 25.5249 109.7178 39.4198 -4.8724 5.1344 -23.0821
# 3 30.6674 39.4198 127.9233 -3.7019 4.6713 -3.7040
# 4 0.6814 -4.8724 -3.7019 41.6070 -11.3510 -1.5494
# 5 1.3765 5.1344 4.6713 -11.3510 30.1999 -1.3907
# 6 -14.2280 -23.0821 -3.7040 -1.5494 -1.3907 24.1654
#
#
#
# Elastic Compliance Matrix: (Units=1/GPa)
#
#
# Indices 1 2 3 4 5 6 
#
# 1 0.011313 -0.000589 -0.002376 -0.000216 0.000135 0.005728
# 2 -0.000589 0.013043 -0.003477 0.001512 -0.000548 0.011644
# 3 -0.002376 -0.003477 0.009397 0.000108 -0.000867 -0.003323
# 4 -0.000216 0.001512 0.000108 0.027115 0.010096 0.003653
# 5 0.000135 -0.000548 -0.000867 0.010096 0.037230 0.002213
# 6 0.005728 0.011644 -0.003323 0.003653 0.002213 0.055728
#
#
# Mechanical properties :
#
#
# Convention : Reuss Voigt Hill
#
# Bulk Modulus (GPa) = 47.91842 59.13629 53.52735
# Shear Modulus (GPa) = 28.79073 35.55381 32.17227
#
# Velocity S-wave (km/s) = 3.76757 4.18676 3.98268
# Velocity P-wave (km/s) = 6.52312 7.24759 6.89488
#
# Compressibility (1/GPa) = 0.02086880
#
# Stress axis : x y z
#
# Youngs Moduli (GPa) = 88.39130 76.66953 106.41942
#
# Poissons Ratio (x) = 0.04517 0.25284
# Poissons Ratio (y) = 0.05208 0.37003
# Poissons Ratio (z) = 0.21001 0.26658
#
# Static dielectric constant tensor:
#      x y z
#    x 1.777980 0.002130 0.031640 
#    y 0.002130 1.725740 0.008090 
#    z 0.031640 0.008090 1.773860 
# 
# From -- ./inp_files/556483.got.cif
#   From: 2010.05.17/outbox.cif.g08.bks.cpg/sg2_279_cif.got.tgz:556483.got - 2010.06.03 11:33:40.
