data_PCOD9085262
_publ_section_title
;
Structure prediction by ZEFSAII (Michael W. Deem and Ramdas Pophale) SiO2 
 PCOD9085262
Probable space group: P -1
;
_chemical_formula_sum "Si O2"
_cell_formula_units_Z 16
_cell_length_a 22.038922
_cell_length_b 11.182295
_cell_length_c 6.711403
_cell_angle_alpha 100.693048
_cell_angle_beta 77.382995
_cell_angle_gamma 152.151085
_cell_volume 753.888291
_symmetry_space_group_name_H-M "P -1"
_symmetry_group_IT_number 2
_symmetry_cell_setting 'triclinic'
loop_
_space_group_symop_operation_xyz
x,y,z
-x,-y,-z
loop_
_atom_site_type_symbol
_atom_site_label
_atom_site_fract_x
_atom_site_fract_y
_atom_site_fract_z
Si Si1 0.869276 0.354330 0.533319
Si Si2 0.717661 0.865227 0.473238
Si Si3 0.422219 0.039594 0.632681
Si Si4 0.506819 0.361423 0.319574
Si Si5 0.338546 0.693654 0.266709
Si Si6 0.673669 0.110079 0.936522
Si Si7 0.043466 0.866558 0.434256
Si Si8 0.945626 0.910344 0.789795
O O1 0.793873 0.263015 0.764088
O O2 0.000000 0.500000 0.500000
O O3 0.921651 0.566814 0.461251
O O4 0.774859 0.091024 0.420622
O O5 0.653585 0.663082 0.299359
O O6 0.592620 0.695615 0.636472
O O7 0.826512 0.984908 0.561009
O O8 0.482534 0.246372 0.508785
O O9 0.542331 0.186708 0.714677
O O10 0.353342 0.824378 0.466668
O O11 0.319740 0.896055 0.835102
O O12 0.456064 0.183388 0.134507
O O13 0.344715 0.781826 0.084855
O O14 0.202668 0.387359 0.247232
O O15 0.031989 0.960839 0.622092
O O16 0.040864 0.928274 0.244863
O O17 0.000000 0.000000 0.000000
#
# Coordination Sequence:
#
# PCOD9085262 Si02
#       8
#     2   2   2   2   2   2   2   2
#     4   9  18  37  62  86 121 165 205 250 307 365
#     4   9  18  37  63  85 125 162 199 257 309 373
#     4  10  21  36  64  89 123 168 203 260 315 369
#     4   9  19  36  57  92 122 154 200 260 319 361
#     4  10  21  39  57  90 126 162 210 257 317 365
#     4  10  19  35  59  89 123 159 206 255 303 378
#     4  10  21  40  61  85 120 168 205 252 312 365
#     4  11  24  40  61  91 122 163 210 259 308 373
#
# _framework density 21.223305
#
# number of rings (size 3 to 8) (size 9 to 14) (size 15 to 20)
#    0.000    2.250    1.250    1.125    0.000    3.000 
#    0.000    9.375    0.000   11.250    0.000    0.000 
#    0.000    0.000    0.000    0.000    0.000    0.000 
#
# Total GULP energy -89126.818879 kJ/mol
# GULP energy per Si atom -5570.426180 kJ/mol
# Density = 2.117500 g / cm^3
# Si number density = 21.223305 Si / 1000 Ang^3
#
#
#
# Elastic Constant Matrix: (Units=GPa)
#
#
# Indices 1 2 3 4 5 6 
#
# 1 117.3990 36.9733 34.5104 -4.1192 15.7248 1.8946
# 2 36.9733 135.6138 45.2507 6.1443 6.2950 -14.2682
# 3 34.5104 45.2507 92.7363 -4.1207 21.3103 -7.7812
# 4 -4.1192 6.1443 -4.1207 9.4583 3.2931 1.5558
# 5 15.7248 6.2950 21.3103 3.2931 18.2444 1.6231
# 6 1.8946 -14.2682 -7.7812 1.5558 1.6231 44.6972
#
#
#
# Elastic Compliance Matrix: (Units=1/GPa)
#
#
# Indices 1 2 3 4 5 6 
#
# 1 0.011370 -0.003359 0.000282 0.011290 -0.010875 -0.001503
# 2 -0.003359 0.011107 -0.006835 -0.015438 0.009594 0.002687
# 3 0.000282 -0.006835 0.021451 0.023119 -0.027268 0.001726
# 4 0.011290 -0.015438 0.023119 0.151830 -0.058409 -0.004546
# 5 -0.010875 0.009594 -0.027268 -0.058409 0.103530 -0.002950
# 6 -0.001503 0.002687 0.001726 -0.004546 -0.002950 0.023860
#
#
# Mechanical properties :
#
#
# Convention : Reuss Voigt Hill
#
# Bulk Modulus (GPa) = 41.48430 64.35755 52.92093
# Shear Modulus (GPa) = 14.24479 29.74762 21.99620
#
# Velocity S-wave (km/s) = 2.59354 3.74792 3.22284
# Velocity P-wave (km/s) = 5.34393 7.00850 6.23204
#
# Compressibility (1/GPa) = 0.02410550
#
# Stress axis : x y z
#
# Youngs Moduli (GPa) = 87.95216 90.03216 46.61705
#
# Poissons Ratio (x) = 0.30241 -0.01317
# Poissons Ratio (y) = 0.29543 0.31862
# Poissons Ratio (z) = -0.02484 0.61536
#
# Static dielectric constant tensor:
#      x y z
#    x 1.808030 -0.000580 -0.034780 
#    y -0.000580 1.827690 -0.011850 
#    z -0.034780 -0.011850 1.777250 
# 
# From -- ./inp_files/123709.got.cif
#   From: 2010.05.17/outbox.cif.g08.bks.cpg/sg2_62_cif.got.tgz:123709.got - 2010.06.03 11:33:40.
