data_PCOD9085573
_publ_section_title
;
Structure prediction by ZEFSAII (Michael W. Deem and Ramdas Pophale) SiO2 
 PCOD9085573
Probable space group: P -1
;
_chemical_formula_sum "Si O2"
_cell_formula_units_Z 16
_cell_length_a 8.422840
_cell_length_b 6.077915
_cell_length_c 24.381592
_cell_angle_alpha 134.504348
_cell_angle_beta 52.172575
_cell_angle_gamma 122.846077
_cell_volume 688.968028
_symmetry_space_group_name_H-M "P -1"
_symmetry_group_IT_number 2
_symmetry_cell_setting 'triclinic'
loop_
_space_group_symop_operation_xyz
x,y,z
-x,-y,-z
loop_
_atom_site_type_symbol
_atom_site_label
_atom_site_fract_x
_atom_site_fract_y
_atom_site_fract_z
Si Si1 0.628831 0.666428 0.051924
Si Si2 0.399763 0.215576 0.628248
Si Si3 0.713247 0.969609 0.810649
Si Si4 0.000323 0.360316 0.101320
Si Si5 0.614867 0.482281 0.137785
Si Si6 0.943088 0.327137 0.339588
Si Si7 0.779983 0.195901 0.229093
Si Si8 0.672753 0.777787 0.486093
O O1 0.656246 0.449481 0.059058
O O2 0.481085 0.892255 0.145369
O O3 0.500000 0.500000 0.000000
O O4 0.844604 0.769405 0.994519
O O5 0.359623 0.552869 0.713214
O O6 0.365362 0.217053 0.570228
O O7 0.222794 0.951762 0.646465
O O8 0.612603 0.102042 0.575737
O O9 0.602881 0.732013 0.839229
O O10 0.837599 0.761922 0.711757
O O11 0.879263 0.278703 0.847589
O O12 0.794843 0.385649 0.117546
O O13 0.935001 0.193996 0.144706
O O14 0.644766 0.852766 0.209029
O O15 0.903053 0.305290 0.278292
O O16 0.884750 0.656330 0.428451
O O17 0.500000 0.500000 0.500000
#
# Coordination Sequence:
#
# PCOD9085573 Si02
#       8
#     2   2   2   2   2   2   2   2
#     4  10  26  42  64  89 122 163 213 263 318 374
#     4   9  16  32  55  90 127 161 206 250 303 367
#     4  11  24  41  61  91 124 161 210 257 316 371
#     4  11  24  45  62  87 122 165 212 266 316 373
#     4  12  25  41  64  92 120 167 211 262 318 374
#     4  10  19  35  61  88 126 165 204 256 310 366
#     4  11  21  37  64  89 124 164 207 260 313 368
#     4   8  16  28  54  92 124 162 207 249 298 366
#
# _framework density 23.223140999999998
#
# number of rings (size 3 to 8) (size 9 to 14) (size 15 to 20)
#    0.000    1.750    2.500    1.125    3.500    5.000 
#    0.000    0.000    0.000    0.750    0.000   38.500 
#    0.000    0.000    0.000    0.000    0.000    0.000 
#
# Total GULP energy -89258.461047 kJ/mol
# GULP energy per Si atom -5578.653815 kJ/mol
# Density = 2.317028 g / cm^3
# Si number density = 23.223141 Si / 1000 Ang^3
#
#
#
# Elastic Constant Matrix: (Units=GPa)
#
#
# Indices 1 2 3 4 5 6 
#
# 1 67.3804 25.7112 28.1293 -11.7333 -15.6478 0.4399
# 2 25.7112 108.7322 27.2774 -15.2375 -2.9196 -6.1712
# 3 28.1293 27.2774 123.4853 -2.6373 -37.2281 -12.1204
# 4 -11.7333 -15.2375 -2.6373 52.1860 -12.0348 -2.3638
# 5 -15.6478 -2.9196 -37.2281 -12.0348 45.6746 1.9131
# 6 0.4399 -6.1712 -12.1204 -2.3638 1.9131 29.2998
#
#
#
# Elastic Compliance Matrix: (Units=1/GPa)
#
#
# Indices 1 2 3 4 5 6 
#
# 1 0.019115 -0.003355 -0.001854 0.004549 0.006097 -0.001792
# 2 -0.003355 0.010805 -0.001855 0.002041 -0.001509 0.001822
# 3 -0.001854 -0.001855 0.012299 0.002080 0.009641 0.004263
# 4 0.004549 0.002041 0.002080 0.023162 0.009383 0.002478
# 5 0.006097 -0.001509 0.009641 0.009383 0.034128 0.002107
# 6 -0.001792 0.001822 0.004263 0.002478 0.002107 0.036366
#
#
# Mechanical properties :
#
#
# Convention : Reuss Voigt Hill
#
# Bulk Modulus (GPa) = 35.59853 51.31487 43.45670
# Shear Modulus (GPa) = 31.37389 39.99740 35.68565
#
# Velocity S-wave (km/s) = 3.67955 4.15457 3.92425
# Velocity P-wave (km/s) = 5.78051 6.72000 6.26788
#
# Compressibility (1/GPa) = 0.02809105
#
# Stress axis : x y z
#
# Youngs Moduli (GPa) = 52.31447 92.55305 81.30436
#
# Poissons Ratio (x) = 0.31056 0.15071
# Poissons Ratio (y) = 0.17554 0.15082
# Poissons Ratio (z) = 0.09697 0.17168
#
# Static dielectric constant tensor:
#      x y z
#    x 1.826600 -0.022230 -0.014820 
#    y -0.022230 1.880420 0.064750 
#    z -0.014820 0.064750 1.958730 
# 
# From -- ./inp_files/616391.got.cif
#   From: 2010.05.17/outbox.cif.g08.bks.cpg/sg2_309_cif.got.tgz:616391.got - 2010.06.03 11:33:40.
