data_PCOD9085225
_publ_section_title
;
Structure prediction by ZEFSAII (Michael W. Deem and Ramdas Pophale) SiO2 
 PCOD9085225
Probable space group: P -1
;
_chemical_formula_sum "Si O2"
_cell_formula_units_Z 16
_cell_length_a 8.000446
_cell_length_b 7.381433
_cell_length_c 17.201707
_cell_angle_alpha 120.922926
_cell_angle_beta 137.500910
_cell_angle_gamma 79.543184
_cell_volume 553.534768
_symmetry_space_group_name_H-M "P -1"
_symmetry_group_IT_number 2
_symmetry_cell_setting 'triclinic'
loop_
_space_group_symop_operation_xyz
x,y,z
-x,-y,-z
loop_
_atom_site_type_symbol
_atom_site_label
_atom_site_fract_x
_atom_site_fract_y
_atom_site_fract_z
Si Si1 0.152668 0.467912 0.733672
Si Si2 0.425328 0.940038 0.227921
Si Si3 0.011500 0.133231 0.297779
Si Si4 0.982377 0.265258 0.481426
Si Si5 0.436792 0.743507 0.450352
Si Si6 0.734810 0.479411 0.809022
Si Si7 0.685137 0.300732 0.011945
Si Si8 0.139037 0.093862 0.952429
O O1 0.135858 0.694333 0.737410
O O2 0.168861 0.313073 0.631838
O O3 0.858548 0.348938 0.639896
O O4 0.341426 0.547548 0.891014
O O5 0.328292 0.752031 0.218475
O O6 0.160425 0.999722 0.136863
O O7 0.684481 0.143388 0.380538
O O8 0.490675 0.820617 0.147539
O O9 0.321352 0.243339 0.407531
O O10 0.023486 0.117387 0.391385
O O11 0.887768 0.917921 0.153250
O O12 0.000000 0.500000 0.500000
O O13 0.433184 0.578246 0.340011
O O14 0.500000 0.000000 0.500000
O O15 0.038640 0.562022 0.904755
O O16 0.716933 0.670328 0.904289
O O17 0.726949 0.085578 0.019645
#
# Coordination Sequence:
#
# PCOD9085225 Si02
#       8
#     2   2   2   2   2   2   2   2
#     4   9  19  37  57  83 110 142 186 231 278 328
#     4  11  20  36  57  81 112 148 182 227 280 330
#     4  10  21  37  56  80 112 147 187 230 271 327
#     4  10  22  38  56  80 113 154 190 225 273 331
#     4  11  21  35  58  85 110 143 185 232 282 328
#     4  10  20  33  55  87 112 138 180 230 283 328
#     4   9  19  33  58  89 111 137 184 235 278 326
#     4  10  19  35  59  87 110 139 185 234 277 328
#
# _framework density 28.905138999999998
#
# number of rings (size 3 to 8) (size 9 to 14) (size 15 to 20)
#    0.000    2.000    0.000    5.625    0.000    8.000 
#    0.000   10.000    0.000    0.000    0.000    0.000 
#    0.000    0.000    0.000    0.000    0.000    0.000 
#
# Total GULP energy -89721.306576 kJ/mol
# GULP energy per Si atom -5607.581661 kJ/mol
# Density = 2.883935 g / cm^3
# Si number density = 28.905139 Si / 1000 Ang^3
#
#
#
# Elastic Constant Matrix: (Units=GPa)
#
#
# Indices 1 2 3 4 5 6 
#
# 1 121.5427 15.6490 59.8595 14.8429 -39.1870 6.2798
# 2 15.6490 75.8022 23.7687 19.2011 -3.3052 3.5552
# 3 59.8595 23.7687 237.1005 16.5464 -34.2268 29.6021
# 4 14.8429 19.2011 16.5464 36.0553 13.5929 -5.0223
# 5 -39.1870 -3.3052 -34.2268 13.5929 77.7169 -4.6560
# 6 6.2798 3.5552 29.6021 -5.0223 -4.6560 37.2177
#
#
#
# Elastic Compliance Matrix: (Units=1/GPa)
#
#
# Indices 1 2 3 4 5 6 
#
# 1 0.011934 0.000066 -0.001483 -0.006854 0.006509 -0.000951
# 2 0.000066 0.015870 -0.000377 -0.009390 0.002050 -0.002238
# 3 -0.001483 -0.000377 0.005699 -0.003189 0.002039 -0.004422
# 4 -0.006854 -0.009390 -0.003189 0.042862 -0.012226 0.008844
# 5 0.006509 0.002050 0.002039 -0.012226 0.019143 -0.002171
# 6 -0.000951 -0.002238 -0.004422 0.008844 -0.002171 0.031682
#
#
# Mechanical properties :
#
#
# Convention : Reuss Voigt Hill
#
# Bulk Modulus (GPa) = 33.42830 70.33331 51.88080
# Shear Modulus (GPa) = 35.52434 52.54252 44.03343
#
# Velocity S-wave (km/s) = 3.50951 4.26814 3.90728
# Velocity P-wave (km/s) = 5.29265 6.97672 6.19220
#
# Compressibility (1/GPa) = 0.02991478
#
# Stress axis : x y z
#
# Youngs Moduli (GPa) = 83.79328 63.01276 175.48050
#
# Poissons Ratio (x) = -0.00414 0.26022
# Poissons Ratio (y) = -0.00551 0.06612
# Poissons Ratio (z) = 0.12426 0.02374
#
# Static dielectric constant tensor:
#      x y z
#    x 2.341490 0.015660 -0.032470 
#    y 0.015660 2.165780 -0.015530 
#    z -0.032470 -0.015530 2.219360 
# 
# From -- ./inp_files/557508.got.cif
#   From: 2010.05.17/outbox.cif.g08.bks.cpg/sg2_279_cif.got.tgz:557508.got - 2010.06.03 11:33:40.
