data_PCOD9085747
_publ_section_title
;
Structure prediction by ZEFSAII (Michael W. Deem and Ramdas Pophale) SiO2 
 PCOD9085747
Probable space group: P -1
;
_chemical_formula_sum "Si O2"
_cell_formula_units_Z 16
_cell_length_a 10.560824
_cell_length_b 16.574363
_cell_length_c 8.302071
_cell_angle_alpha 96.346165
_cell_angle_beta 57.400668
_cell_angle_gamma 49.429746
_cell_volume 645.092755
_symmetry_space_group_name_H-M "P -1"
_symmetry_group_IT_number 2
_symmetry_cell_setting 'triclinic'
loop_
_space_group_symop_operation_xyz
x,y,z
-x,-y,-z
loop_
_atom_site_type_symbol
_atom_site_label
_atom_site_fract_x
_atom_site_fract_y
_atom_site_fract_z
Si Si1 0.390895 0.491840 0.856964
Si Si2 0.301830 0.708482 0.086534
Si Si3 0.397389 0.002316 0.734214
Si Si4 0.881240 0.310659 0.297945
Si Si5 0.797759 0.676594 0.326962
Si Si6 0.873205 0.624285 0.900233
Si Si7 0.716830 0.111925 0.827946
Si Si8 0.200832 0.099695 0.320665
O O1 0.535805 0.370014 0.868710
O O2 0.578690 0.404664 0.547964
O O3 0.411649 0.578487 0.896813
O O4 0.065591 0.615143 0.115055
O O5 0.320131 0.789825 0.020406
O O6 0.978522 0.840860 0.384658
O O7 0.524817 0.988254 0.804071
O O8 0.530302 0.851553 0.604394
O O9 0.500000 0.000000 0.500000
O O10 0.065408 0.171730 0.018469
O O11 0.953219 0.371058 0.221699
O O12 0.010499 0.245686 0.377125
O O13 0.915983 0.546919 0.319942
O O14 0.756335 0.664113 0.170822
O O15 0.587957 0.758158 0.021442
O O16 0.771925 0.995524 0.820873
O O17 0.000000 0.000000 0.500000
#
# Coordination Sequence:
#
# PCOD9085747 Si02
#       8
#     2   2   2   2   2   2   2   2
#     4  10  20  38  63  94 123 172 213 268 319 384
#     4   9  18  35  61  90 124 167 217 255 315 396
#     4  12  22  41  64  92 123 182 217 259 320 408
#     4  11  24  40  64  98 136 160 221 277 327 375
#     4  11  23  42  70  88 133 176 223 255 326 408
#     4  11  23  41  62 100 127 174 215 273 325 388
#     4  10  19  35  62  95 128 170 215 267 320 388
#     4  10  20  37  62  92 129 164 212 268 326 370
#
# _framework density 24.802633
#
# number of rings (size 3 to 8) (size 9 to 14) (size 15 to 20)
#    0.000    1.500    5.000    0.375    0.000    0.500 
#    2.250    1.250    0.000    3.000    0.000    0.000 
#    0.000    0.000    0.000    0.000    0.000    0.000 
#
# Total GULP energy -89310.197493 kJ/mol
# GULP energy per Si atom -5581.887343 kJ/mol
# Density = 2.474618 g / cm^3
# Si number density = 24.802633 Si / 1000 Ang^3
#
#
#
# Elastic Constant Matrix: (Units=GPa)
#
#
# Indices 1 2 3 4 5 6 
#
# 1 51.5797 26.1304 19.3018 14.2696 -10.6574 16.6835
# 2 26.1304 108.1931 16.2231 19.1726 4.8512 37.2406
# 3 19.3018 16.2231 120.2825 19.5805 -5.7191 34.1724
# 4 14.2696 19.1726 19.5805 36.0530 5.8944 18.8247
# 5 -10.6574 4.8512 -5.7191 5.8944 33.6134 9.0716
# 6 16.6835 37.2406 34.1724 18.8247 9.0716 41.2292
#
#
#
# Elastic Compliance Matrix: (Units=1/GPa)
#
#
# Indices 1 2 3 4 5 6 
#
# 1 0.028379 -0.003428 -0.000060 -0.007418 0.012885 -0.007786
# 2 -0.003428 0.014531 0.002720 -0.000786 0.001165 -0.013889
# 3 -0.000060 0.002720 0.012203 -0.002319 0.005498 -0.012698
# 4 -0.007418 -0.000786 -0.002319 0.039035 -0.006579 -0.010742
# 5 0.012885 0.001165 0.005498 -0.006579 0.040257 -0.016677
# 6 -0.007786 -0.013889 -0.012698 -0.010742 -0.016677 0.059049
#
#
# Mechanical properties :
#
#
# Convention : Reuss Voigt Hill
#
# Bulk Modulus (GPa) = 18.66500 44.81843 31.74171
# Shear Modulus (GPa) = 23.49081 36.73911 30.11496
#
# Velocity S-wave (km/s) = 3.08085 3.85289 3.48829
# Velocity P-wave (km/s) = 4.49414 6.15648 5.38978
#
# Compressibility (1/GPa) = 0.05357622
#
# Stress axis : x y z
#
# Youngs Moduli (GPa) = 35.23687 68.81944 81.94807
#
# Poissons Ratio (x) = 0.23594 0.00488
# Poissons Ratio (y) = 0.12081 -0.22287
# Poissons Ratio (z) = 0.00210 -0.18716
#
# Static dielectric constant tensor:
#      x y z
#    x 1.986640 -0.010940 -0.011510 
#    y -0.010940 1.994780 0.006610 
#    z -0.011510 0.006610 2.047010 
# 
# From -- ./inp_files/279505.got.cif
#   From: 2010.05.17/outbox.cif.g08.bks.cpg/sg2_140_cif.got.tgz:279505.got - 2010.06.03 11:33:40.
