data_PCOD9085832
_publ_section_title
;
Structure prediction by ZEFSAII (Michael W. Deem and Ramdas Pophale) SiO2 
 PCOD9085832
Probable space group: P -1
;
_chemical_formula_sum "Si O2"
_cell_formula_units_Z 16
_cell_length_a 17.377037
_cell_length_b 5.433472
_cell_length_c 20.121868
_cell_angle_alpha 117.985422
_cell_angle_beta 27.978362
_cell_angle_gamma 131.169711
_cell_volume 636.231249
_symmetry_space_group_name_H-M "P -1"
_symmetry_group_IT_number 2
_symmetry_cell_setting 'triclinic'
loop_
_space_group_symop_operation_xyz
x,y,z
-x,-y,-z
loop_
_atom_site_type_symbol
_atom_site_label
_atom_site_fract_x
_atom_site_fract_y
_atom_site_fract_z
Si Si1 0.722028 0.712216 0.826566
Si Si2 0.744337 0.385480 0.420077
Si Si3 0.247543 0.229947 0.418380
Si Si4 0.750207 0.354297 0.632774
Si Si5 0.716682 0.658048 0.071874
Si Si6 0.702931 0.271115 0.152915
Si Si7 0.874792 0.503011 0.803218
Si Si8 0.366608 0.637325 0.636036
O O1 0.710997 0.530987 0.743858
O O2 0.848795 0.657505 0.776362
O O3 0.792899 0.101903 0.811091
O O4 0.500000 0.500000 0.000000
O O5 0.757364 0.674412 0.490419
O O6 0.788982 0.485294 0.321624
O O7 0.894986 0.305799 0.324050
O O8 0.517399 0.050745 0.564027
O O9 0.146116 0.373431 0.471354
O O10 0.474656 0.436838 0.242174
O O11 0.153891 0.833548 0.436988
O O12 0.533673 0.024162 0.725366
O O13 0.796201 0.551776 0.059018
O O14 0.794556 0.053016 0.061351
O O15 0.758094 0.545709 0.957016
O O16 0.706648 0.426616 0.240830
O O17 0.500000 0.500000 0.500000
#
# Coordination Sequence:
#
# PCOD9085832 Si02
#       8
#     2   2   2   2   2   2   2   2
#     4  12  24  44  70 101 137 190 233 270 344 421
#     4  11  26  43  68 106 138 178 226 291 348 403
#     4  10  19  38  65  90 132 178 221 264 335 409
#     4  10  19  35  63  93 122 172 231 267 312 399
#     4  10  19  39  63  92 127 180 218 264 338 397
#     4  10  20  38  67  96 125 175 231 271 320 415
#     4  12  27  44  68 106 146 172 228 300 338 389
#     4  11  23  43  76  98 133 188 234 270 350 431
#
# _framework density 25.148091000000001
#
# number of rings (size 3 to 8) (size 9 to 14) (size 15 to 20)
#    0.000    1.250    2.500    6.375    3.500    0.000 
#    0.000    5.000    0.000    0.000    0.000    0.000 
#    0.000    0.000    0.000    0.000    0.000    0.000 
#
# Total GULP energy -89655.390622 kJ/mol
# GULP energy per Si atom -5603.461914 kJ/mol
# Density = 2.509085 g / cm^3
# Si number density = 25.148091 Si / 1000 Ang^3
#
#
#
# Elastic Constant Matrix: (Units=GPa)
#
#
# Indices 1 2 3 4 5 6 
#
# 1 177.3596 59.8080 34.4205 30.8956 22.1019 -7.5539
# 2 59.8080 112.2754 31.3241 42.7967 12.6621 -27.2814
# 3 34.4205 31.3241 97.4181 18.8437 14.6888 15.9546
# 4 30.8956 42.7967 18.8437 42.4657 6.7326 0.1167
# 5 22.1019 12.6621 14.6888 6.7326 43.1485 10.6057
# 6 -7.5539 -27.2814 15.9546 0.1167 10.6057 54.0377
#
#
#
# Elastic Compliance Matrix: (Units=1/GPa)
#
#
# Indices 1 2 3 4 5 6 
#
# 1 0.007365 -0.002357 -0.001177 -0.002062 -0.002528 0.000688
# 2 -0.002357 0.021512 -0.004146 -0.017517 -0.004055 0.012589
# 3 -0.001177 -0.004146 0.013290 -0.000666 -0.001136 -0.005957
# 4 -0.002062 -0.017517 -0.000666 0.042694 0.002081 -0.009436
# 5 -0.002528 -0.004055 -0.001136 0.002081 0.027561 -0.007479
# 6 0.000688 0.012589 -0.005957 -0.009436 -0.007479 0.028205
#
#
# Mechanical properties :
#
#
# Convention : Reuss Voigt Hill
#
# Bulk Modulus (GPa) = 37.30393 70.90648 54.10521
# Shear Modulus (GPa) = 30.31729 45.36374 37.84052
#
# Velocity S-wave (km/s) = 3.47587 4.25180 3.88326
# Velocity P-wave (km/s) = 5.56550 7.23606 6.45505
#
# Compressibility (1/GPa) = 0.02680682
#
# Stress axis : x y z
#
# Youngs Moduli (GPa) = 135.77987 46.48504 75.24478
#
# Poissons Ratio (x) = 0.10954 0.08857
# Poissons Ratio (y) = 0.31997 0.31200
# Poissons Ratio (z) = 0.15983 0.19275
#
# Static dielectric constant tensor:
#      x y z
#    x 2.082540 0.019780 -0.051180 
#    y 0.019780 2.004140 -0.022520 
#    z -0.051180 -0.022520 1.982650 
# 
# From -- ./inp_files/126716.got.cif
#   From: 2010.05.17/outbox.cif.g08.bks.cpg/sg2_64_cif.got.tgz:126716.got - 2010.06.03 11:33:40.
