data_PCOD9085407
_publ_section_title
;
Structure prediction by ZEFSAII (Michael W. Deem and Ramdas Pophale) SiO2 
 PCOD9085407
Probable space group: P -1
;
_chemical_formula_sum "Si O2"
_cell_formula_units_Z 16
_cell_length_a 31.891920
_cell_length_b 15.062815
_cell_length_c 10.258131
_cell_angle_alpha 43.552235
_cell_angle_beta 35.718558
_cell_angle_gamma 17.812821
_cell_volume 847.367686
_symmetry_space_group_name_H-M "P -1"
_symmetry_group_IT_number 2
_symmetry_cell_setting 'triclinic'
loop_
_space_group_symop_operation_xyz
x,y,z
-x,-y,-z
loop_
_atom_site_type_symbol
_atom_site_label
_atom_site_fract_x
_atom_site_fract_y
_atom_site_fract_z
Si Si1 0.278896 0.100534 0.704245
Si Si2 0.584744 0.758944 0.642679
Si Si3 0.497693 0.050795 0.805394
Si Si4 0.047898 0.240377 0.105841
Si Si5 0.040241 0.829452 0.777229
Si Si6 0.441904 0.448135 0.223182
Si Si7 0.113557 0.688156 0.034007
Si Si8 0.952201 0.895622 0.472530
O O1 0.136552 0.399898 0.833443
O O2 0.357800 0.075949 0.434720
O O3 0.437704 0.800528 0.705544
O O4 0.184999 0.128078 0.856672
O O5 0.783461 0.445243 0.450809
O O6 0.536713 0.690185 0.800458
O O7 0.500000 0.000000 0.500000
O O8 0.540948 0.873337 0.776588
O O9 0.309310 0.400326 0.869709
O O10 0.500000 0.000000 0.000000
O O11 0.074796 0.074602 0.122433
O O12 0.044290 0.203707 0.306092
O O13 0.977716 0.077360 0.689972
O O14 0.080730 0.701717 0.952631
O O15 0.245633 0.764258 0.419589
O O16 0.500000 0.500000 0.000000
O O17 0.048718 0.703642 0.300122
O O18 0.000000 0.000000 0.000000
#
# Coordination Sequence:
#
# PCOD9085407 Si02
#       8
#     2   2   2   2   2   2   2   2
#     4  11  22  37  60  86 124 160 199 250 313 362
#     4  11  19  37  66  91 118 165 217 251 299 369
#     4  12  23  40  65  92 124 157 212 264 307 364
#     4  11  21  36  59  89 120 155 201 255 303 355
#     4  10  19  35  60  88 121 157 206 249 298 370
#     4  11  21  40  65  93 126 161 209 255 309 372
#     4  10  21  37  58  88 122 159 196 252 312 357
#     4  10  21  37  61  90 119 158 205 251 307 361
#
# _framework density 18.882003000000001
#
# number of rings (size 3 to 8) (size 9 to 14) (size 15 to 20)
#    0.000    1.250    5.000    2.625    0.000    0.000 
#    2.250    1.250    0.000    7.500    0.000    0.000 
#    0.000    0.000    0.000    0.000    0.000    0.000 
#
# Total GULP energy -89263.930132 kJ/mol
# GULP energy per Si atom -5578.995633 kJ/mol
# Density = 1.883903 g / cm^3
# Si number density = 18.882003 Si / 1000 Ang^3
#
#
#
# Elastic Constant Matrix: (Units=GPa)
#
#
# Indices 1 2 3 4 5 6 
#
# 1 103.1667 12.2212 78.1442 -7.8441 -5.3930 9.9959
# 2 12.2212 45.9471 13.4632 9.1291 1.0575 -1.0226
# 3 78.1442 13.4632 121.7208 -1.8986 -7.5414 3.1808
# 4 -7.8441 9.1291 -1.8986 30.2502 2.1350 -1.9281
# 5 -5.3930 1.0575 -7.5414 2.1350 37.7846 -3.3977
# 6 9.9959 -1.0226 3.1808 -1.9281 -3.3977 22.7791
#
#
#
# Elastic Compliance Matrix: (Units=1/GPa)
#
#
# Indices 1 2 3 4 5 6 
#
# 1 0.020757 -0.002931 -0.012764 0.005044 -0.000426 -0.007094
# 2 -0.002931 0.024506 -0.001043 -0.008061 -0.000700 0.001745
# 3 -0.012764 -0.001043 0.016527 -0.001878 0.001915 0.003373
# 4 0.005044 -0.008061 -0.001878 0.036820 -0.001457 0.000586
# 5 -0.000426 -0.000700 0.001915 -0.001457 0.027233 0.003827
# 6 -0.007094 0.001745 0.003373 0.000586 0.003827 0.047241
#
#
# Mechanical properties :
#
#
# Convention : Reuss Voigt Hill
#
# Bulk Modulus (GPa) = 35.32031 53.16578 44.24304
# Shear Modulus (GPa) = 23.14822 29.29652 26.22237
#
# Velocity S-wave (km/s) = 3.50514 3.94325 3.73064
# Velocity P-wave (km/s) = 5.92687 6.99645 6.48375
#
# Compressibility (1/GPa) = 0.02831232
#
# Stress axis : x y z
#
# Youngs Moduli (GPa) = 48.17614 40.80627 60.50830
#
# Poissons Ratio (x) = 0.11961 0.77233
# Poissons Ratio (y) = 0.14122 0.06314
# Poissons Ratio (z) = 0.61493 0.04258
#
# Static dielectric constant tensor:
#      x y z
#    x 1.706090 0.021760 -0.045400 
#    y 0.021760 1.720400 -0.075730 
#    z -0.045400 -0.075730 1.794190 
# 
# From -- ./inp_files/271613.got.cif
#   From: 2010.05.17/outbox.cif.g08.bks.cpg/sg2_136_cif.got.tgz:271613.got - 2010.06.03 11:33:40.
