data_PCOD9085756
_publ_section_title
;
Structure prediction by ZEFSAII (Michael W. Deem and Ramdas Pophale) SiO2 
 PCOD9085756
Probable space group: P -1
;
_chemical_formula_sum "Si O2"
_cell_formula_units_Z 14
_cell_length_a 13.354490
_cell_length_b 16.867365
_cell_length_c 5.097574
_cell_angle_alpha 95.951817
_cell_angle_beta 81.560523
_cell_angle_gamma 146.219477
_cell_volume 631.181533
_symmetry_space_group_name_H-M "P -1"
_symmetry_group_IT_number 2
_symmetry_cell_setting 'triclinic'
loop_
_space_group_symop_operation_xyz
x,y,z
-x,-y,-z
loop_
_atom_site_type_symbol
_atom_site_label
_atom_site_fract_x
_atom_site_fract_y
_atom_site_fract_z
Si Si1 0.793239 0.870697 0.941867
Si Si2 0.483554 0.064472 0.331113
Si Si3 0.284988 0.087378 0.538492
Si Si4 0.809106 0.209466 0.007125
Si Si5 0.529284 0.574284 0.765440
Si Si6 0.163782 0.387254 0.742807
Si Si7 0.011654 0.222059 0.238111
O O1 0.106497 0.926910 0.664159
O O2 0.758781 0.911816 0.737251
O O3 0.682393 0.821356 0.231440
O O4 0.000000 0.000000 0.000000
O O5 0.669702 0.186906 0.133281
O O6 0.500000 0.000000 0.500000
O O7 0.439734 0.121115 0.490556
O O8 0.314241 0.931706 0.163015
O O9 0.868949 0.201247 0.241205
O O10 0.004251 0.348140 0.838607
O O11 0.500000 0.500000 0.500000
O O12 0.370384 0.537714 0.790909
O O13 0.718861 0.741584 0.794507
O O14 0.500000 0.500000 0.000000
O O15 0.148804 0.343998 0.442790
O O16 0.099260 0.275760 0.934528
#
# Coordination Sequence:
#
# PCOD9085756 Si02
#       7
#     2   2   2   2   2   2   2
#     4  12  30  47  68 101 142 179 227 288 361 404
#     4  11  18  32  60 104 142 172 228 271 339 402
#     4  12  23  42  67  97 149 178 215 282 358 394
#     4   9  19  30  56  99 136 169 220 280 316 394
#     4  12  28  47  73  97 128 180 242 290 336 419
#     4  10  20  38  61  93 132 163 230 271 339 378
#     4  10  19  35  62  99 126 179 208 278 326 391
#
# _framework density 22.180624999999999
#
# number of rings (size 3 to 8) (size 9 to 14) (size 15 to 20)
#    0.857    0.286    2.857    3.857    8.000    0.000 
#    0.000    0.000    0.000    1.714    0.000    0.000 
#    0.000    0.000    0.000    0.000    0.000    0.000 
#
# Total GULP energy -78098.349713 kJ/mol
# GULP energy per Si atom -5578.453551 kJ/mol
# Density = 2.213014 g / cm^3
# Si number density = 22.180625 Si / 1000 Ang^3
#
#
#
# Elastic Constant Matrix: (Units=GPa)
#
#
# Indices 1 2 3 4 5 6 
#
# 1 73.0644 23.6626 39.3546 6.3440 -6.8462 19.4878
# 2 23.6626 106.6006 22.9495 12.5149 -12.3319 27.1494
# 3 39.3546 22.9495 122.7565 17.9012 -5.3652 18.0971
# 4 6.3440 12.5149 17.9012 29.7695 12.9897 -1.3146
# 5 -6.8462 -12.3319 -5.3652 12.9897 51.8112 -5.1404
# 6 19.4878 27.1494 18.0971 -1.3146 -5.1404 33.3991
#
#
#
# Elastic Compliance Matrix: (Units=1/GPa)
#
#
# Indices 1 2 3 4 5 6 
#
# 1 0.018667 -0.000823 -0.004323 -0.002060 0.001574 -0.007719
# 2 -0.000823 0.013570 0.000673 -0.008237 0.004205 -0.010592
# 3 -0.004323 0.000673 0.011137 -0.007171 0.002142 -0.004012
# 4 -0.002060 -0.008237 -0.007171 0.048409 -0.013967 0.011538
# 5 0.001574 0.004205 0.002142 -0.013967 0.024000 -0.002353
# 6 -0.007719 -0.010592 -0.004012 0.011538 -0.002353 0.045321
#
#
# Mechanical properties :
#
#
# Convention : Reuss Voigt Hill
#
# Bulk Modulus (GPa) = 29.04663 52.70608 40.87636
# Shear Modulus (GPa) = 27.54443 37.42628 32.48535
#
# Velocity S-wave (km/s) = 3.52778 4.11218 3.83114
# Velocity P-wave (km/s) = 5.45138 6.80886 6.16758
#
# Compressibility (1/GPa) = 0.03442740
#
# Stress axis : x y z
#
# Youngs Moduli (GPa) = 53.57057 73.69429 89.78999
#
# Poissons Ratio (x) = 0.06065 0.38821
# Poissons Ratio (y) = 0.04409 -0.06047
# Poissons Ratio (z) = 0.23161 -0.04963
#
# Static dielectric constant tensor:
#      x y z
#    x 1.857430 0.058520 -0.052770 
#    y 0.058520 1.843830 -0.049400 
#    z -0.052770 -0.049400 1.876570 
# 
# From -- ./inp_files/84626.got.cif
#   From: 2010.05.17/outbox.cif.g08.bks.cpg/sg2_43_cif.got.tgz:84626.got - 2010.06.03 11:33:40.
