data_PCOD9085343
_publ_section_title
;
Structure prediction by ZEFSAII (Michael W. Deem and Ramdas Pophale) SiO2 
 PCOD9085343
Probable space group: P -1
;
_chemical_formula_sum "Si O2"
_cell_formula_units_Z 14
_cell_length_a 4.913967
_cell_length_b 26.525199
_cell_length_c 13.535479
_cell_angle_alpha 155.642692
_cell_angle_beta 91.780574
_cell_angle_gamma 101.675825
_cell_volume 602.743122
_symmetry_space_group_name_H-M "P -1"
_symmetry_group_IT_number 2
_symmetry_cell_setting 'triclinic'
loop_
_space_group_symop_operation_xyz
x,y,z
-x,-y,-z
loop_
_atom_site_type_symbol
_atom_site_label
_atom_site_fract_x
_atom_site_fract_y
_atom_site_fract_z
Si Si1 0.879000 0.056535 0.819773
Si Si2 0.595588 0.927659 0.288725
Si Si3 0.280142 0.351852 0.669284
Si Si4 0.894993 0.035803 0.165926
Si Si5 0.393044 0.380374 0.434160
Si Si6 0.649990 0.394779 0.256081
Si Si7 0.293126 0.711372 0.576526
O O1 0.065103 0.041185 0.698741
O O2 0.553964 0.039988 0.749760
O O3 0.886555 0.959793 0.733517
O O4 0.074571 0.219433 0.163486
O O5 0.500000 0.000000 0.500000
O O6 0.409938 0.762734 0.036040
O O7 0.528506 0.318286 0.562641
O O8 0.992167 0.202493 0.454914
O O9 0.076579 0.361159 0.593565
O O10 0.500000 0.500000 0.000000
O O11 0.521897 0.890009 0.913758
O O12 0.000000 0.000000 0.000000
O O13 0.401237 0.365160 0.288507
O O14 0.404435 0.529639 0.702436
O O15 0.669839 0.371991 0.478599
O O16 0.000000 0.500000 0.500000
#
# Coordination Sequence:
#
# PCOD9085343 Si02
#       7
#     2   2   2   2   2   2   2
#     4  10  21  39  63  89 121 162 207 263 303 370
#     4  11  23  40  59  86 127 165 206 247 311 373
#     4  11  23  41  61  89 129 161 194 257 318 368
#     4   9  21  40  68  95 122 161 218 259 316 373
#     4   9  20  35  59  92 114 155 207 259 306 354
#     4  10  19  35  60  84 123 154 199 258 308 356
#     4  10  22  39  65  89 119 162 211 251 300 378
#
# _framework density 23.227143000000002
#
# number of rings (size 3 to 8) (size 9 to 14) (size 15 to 20)
#    0.000    2.000    1.429    1.286    2.000    9.143 
#    2.571    0.000    0.000    0.000    0.000    0.000 
#    0.000    0.000    0.000    0.000    0.000    0.000 
#
# Total GULP energy -77995.567240 kJ/mol
# GULP energy per Si atom -5571.111946 kJ/mol
# Density = 2.317428 g / cm^3
# Si number density = 23.227143 Si / 1000 Ang^3
#
#
#
# Elastic Constant Matrix: (Units=GPa)
#
#
# Indices 1 2 3 4 5 6 
#
# 1 88.3521 11.2470 23.4067 -0.4435 1.8615 -6.4541
# 2 11.2470 126.9535 48.6899 24.1578 -1.1985 -14.8181
# 3 23.4067 48.6899 140.8520 10.3589 -18.4112 -0.4878
# 4 -0.4435 24.1578 10.3589 36.2859 -2.1908 -7.1571
# 5 1.8615 -1.1985 -18.4112 -2.1908 22.2952 -7.9779
# 6 -6.4541 -14.8181 -0.4878 -7.1571 -7.9779 41.5978
#
#
#
# Elastic Compliance Matrix: (Units=1/GPa)
#
#
# Indices 1 2 3 4 5 6 
#
# 1 0.012125 -0.000250 -0.002304 0.001136 -0.002271 0.001525
# 2 -0.000250 0.010557 -0.003439 -0.005712 -0.001983 0.002318
# 3 -0.002304 -0.003439 0.009727 -0.000014 0.008066 0.000076
# 4 0.001136 -0.005712 -0.000014 0.032553 0.004429 0.004591
# 5 -0.002271 -0.001983 0.008066 0.004429 0.055788 0.010497
# 6 0.001525 0.002318 0.000076 0.004591 0.010497 0.027906
#
#
# Mechanical properties :
#
#
# Convention : Reuss Voigt Hill
#
# Bulk Modulus (GPa) = 48.96303 58.09387 53.52845
# Shear Modulus (GPa) = 29.85991 38.22339 34.04165
#
# Velocity S-wave (km/s) = 3.58936 4.06104 3.83247
# Velocity P-wave (km/s) = 6.18901 6.85966 6.53295
#
# Compressibility (1/GPa) = 0.02042357
#
# Stress axis : x y z
#
# Youngs Moduli (GPa) = 82.47120 94.72616 102.80977
#
# Poissons Ratio (x) = 0.02372 0.23683
# Poissons Ratio (y) = 0.02065 0.35354
# Poissons Ratio (z) = 0.18998 0.32574
#
# Static dielectric constant tensor:
#      x y z
#    x 1.959590 0.110220 -0.041250 
#    y 0.110220 2.056840 0.064170 
#    z -0.041250 0.064170 1.967790 
# 
# From -- ./inp_files/118371.got.cif
#   From: 2010.05.17/outbox.cif.g08.bks.cpg/sg2_60_cif.got.tgz:118371.got - 2010.06.03 11:33:40.
