data_PCOD9085393
_publ_section_title
;
Structure prediction by ZEFSAII (Michael W. Deem and Ramdas Pophale) SiO2 
 PCOD9085393
Probable space group: P -1
;
_chemical_formula_sum "Si O2"
_cell_formula_units_Z 16
_cell_length_a 9.799536
_cell_length_b 5.315119
_cell_length_c 14.286141
_cell_angle_alpha 108.909851
_cell_angle_beta 76.596193
_cell_angle_gamma 79.627027
_cell_volume 657.916238
_symmetry_space_group_name_H-M "P -1"
_symmetry_group_IT_number 2
_symmetry_cell_setting 'triclinic'
loop_
_space_group_symop_operation_xyz
x,y,z
-x,-y,-z
loop_
_atom_site_type_symbol
_atom_site_label
_atom_site_fract_x
_atom_site_fract_y
_atom_site_fract_z
Si Si1 0.386963 0.496196 0.783679
Si Si2 0.080621 0.854174 0.105607
Si Si3 0.684257 0.039968 0.674879
Si Si4 0.700208 0.136343 0.465048
Si Si5 0.501044 0.288816 0.372426
Si Si6 0.405568 0.783397 0.000256
Si Si7 0.073809 0.567315 0.868135
Si Si8 0.002086 0.184935 0.429852
O O1 0.554860 0.312841 0.748266
O O2 0.384508 0.609947 0.693834
O O3 0.366446 0.728702 0.893581
O O4 0.243152 0.394106 0.809194
O O5 0.028593 0.636587 0.152044
O O6 0.248561 0.864692 0.087078
O O7 0.063121 0.714115 0.989779
O O8 0.977754 0.167380 0.159497
O O9 0.702197 0.012713 0.553974
O O10 0.603285 0.817724 0.693281
O O11 0.851395 0.958618 0.668075
O O12 0.592538 0.051478 0.398779
O O13 0.613115 0.457531 0.530494
O O14 0.854877 0.150025 0.403412
O O15 0.500000 0.500000 0.000000
O O16 0.500000 0.000000 0.000000
O O17 0.000000 0.500000 0.500000
O O18 0.000000 0.000000 0.500000
#
# Coordination Sequence:
#
# PCOD9085393 Si02
#       8
#     2   2   2   2   2   2   2   2
#     4  10  24  37  60  92 120 162 206 268 326 366
#     4   9  18  35  60  87 112 151 198 246 299 370
#     4  10  20  35  61  89 126 167 208 257 313 376
#     4   9  19  35  57  91 118 166 214 248 302 371
#     4  10  19  35  60  87 125 158 208 262 308 367
#     4  11  24  42  67  92 123 167 213 255 313 392
#     4   9  18  34  59  86 115 147 196 248 305 366
#     4  10  19  36  59  86 120 168 210 247 297 372
#
# _framework density 24.319203000000002
#
# number of rings (size 3 to 8) (size 9 to 14) (size 15 to 20)
#    0.000    2.250    1.250    1.125    3.500    2.000 
#    0.000    1.250    5.500    0.000    0.000    0.000 
#    0.000    0.000    0.000    0.000    0.000    0.000 
#
# Total GULP energy -89149.014747 kJ/mol
# GULP energy per Si atom -5571.813422 kJ/mol
# Density = 2.426385 g / cm^3
# Si number density = 24.319203 Si / 1000 Ang^3
#
#
#
# Elastic Constant Matrix: (Units=GPa)
#
#
# Indices 1 2 3 4 5 6 
#
# 1 144.5584 42.5260 24.2980 -3.0449 -36.4986 26.6379
# 2 42.5260 123.8922 13.7839 5.9287 -16.1477 18.7118
# 3 24.2980 13.7839 70.7727 3.4097 -28.9707 -0.2975
# 4 -3.0449 5.9287 3.4097 14.5974 -1.6930 -0.6203
# 5 -36.4986 -16.1477 -28.9707 -1.6930 30.2383 -9.6830
# 6 26.6379 18.7118 -0.2975 -0.6203 -9.6830 42.1865
#
#
#
# Elastic Compliance Matrix: (Units=1/GPa)
#
#
# Indices 1 2 3 4 5 6 
#
# 1 0.011281 -0.002055 0.001871 0.004198 0.013580 -0.003020
# 2 -0.002055 0.009590 -0.000583 -0.004196 0.000948 -0.002804
# 3 0.001871 -0.000583 0.024999 -0.001777 0.027578 0.005557
# 4 0.004198 -0.004196 -0.001777 0.072224 0.005666 0.001561
# 5 0.013580 0.000948 0.027578 0.005666 0.079780 0.009594
# 6 -0.003020 -0.002804 0.005557 0.001561 0.009594 0.029119
#
#
# Mechanical properties :
#
#
# Convention : Reuss Voigt Hill
#
# Bulk Modulus (GPa) = 22.55552 55.60435 39.07994
# Shear Modulus (GPa) = 20.55020 34.64548 27.59784
#
# Velocity S-wave (km/s) = 2.91008 3.77850 3.37236
# Velocity P-wave (km/s) = 4.53721 6.47689 5.59180
#
# Compressibility (1/GPa) = 0.04433504
#
# Stress axis : x y z
#
# Youngs Moduli (GPa) = 88.64172 104.27699 40.00165
#
# Poissons Ratio (x) = 0.21432 -0.07485
# Poissons Ratio (y) = 0.18219 0.02334
# Poissons Ratio (z) = -0.16587 0.06084
#
# Static dielectric constant tensor:
#      x y z
#    x 1.594710 -0.113250 -0.284960 
#    y -0.113250 1.927060 -0.084840 
#    z -0.284960 -0.084840 1.748570 
# 
# From -- ./inp_files/553728.got.cif
#   From: 2010.05.17/outbox.cif.g08.bks.cpg/sg2_277_cif.got.tgz:553728.got - 2010.06.03 11:33:40.
