data_PCOD9085905
_publ_section_title
;
Structure prediction by ZEFSAII (Michael W. Deem and Ramdas Pophale) SiO2 
 PCOD9085905
Probable space group: P -1
;
_chemical_formula_sum "Si O2"
_cell_formula_units_Z 14
_cell_length_a 8.242360
_cell_length_b 9.220934
_cell_length_c 17.005351
_cell_angle_alpha 63.315933
_cell_angle_beta 36.566948
_cell_angle_gamma 88.548006
_cell_volume 534.303911
_symmetry_space_group_name_H-M "P -1"
_symmetry_group_IT_number 2
_symmetry_cell_setting 'triclinic'
loop_
_space_group_symop_operation_xyz
x,y,z
-x,-y,-z
loop_
_atom_site_type_symbol
_atom_site_label
_atom_site_fract_x
_atom_site_fract_y
_atom_site_fract_z
Si Si1 0.256847 0.135608 0.607018
Si Si2 0.992778 0.293848 0.118289
Si Si3 0.063067 0.638785 0.310996
Si Si4 0.749249 0.826082 0.576763
Si Si5 0.061183 0.838963 0.988288
Si Si6 0.249742 0.749694 0.385594
Si Si7 0.064044 0.533772 0.171263
O O1 0.074221 0.231448 0.685847
O O2 0.140035 0.071655 0.577700
O O3 0.673995 0.322059 0.395215
O O4 0.156286 0.932453 0.736955
O O5 0.659991 0.286901 0.230861
O O6 0.145306 0.301522 0.972941
O O7 0.199785 0.464363 0.066175
O O8 0.741832 0.405401 0.525328
O O9 0.230756 0.625402 0.170331
O O10 0.281833 0.733061 0.283692
O O11 0.868111 0.683752 0.563838
O O12 0.000000 0.000000 0.500000
O O13 0.464248 0.010835 0.762463
O O14 0.035189 0.698015 0.101122
O O15 0.000000 0.000000 0.000000
#
# Coordination Sequence:
#
# PCOD9085905 Si02
#       7
#     2   2   2   2   2   2   2
#     4  10  21  38  65  94 122 163 212 260 305 365
#     4  11  23  41  66  94 125 164 213 258 310 367
#     4  10  21  40  64  94 124 162 216 262 302 366
#     4  10  19  35  64  92 121 157 205 261 305 354
#     4  12  24  40  63  87 130 171 205 253 315 383
#     4  10  22  39  66  93 124 166 209 257 314 366
#     4  11  22  36  60  92 125 161 205 254 309 372
#
# _framework density 26.202314000000001
#
# number of rings (size 3 to 8) (size 9 to 14) (size 15 to 20)
#    0.000    1.429    1.429    5.143    2.000    1.714 
#    0.000    0.000    0.000   11.143    0.000    0.000 
#    0.000    0.000    0.000    0.000    0.000    0.000 
#
# Total GULP energy -78306.946592 kJ/mol
# GULP energy per Si atom -5593.353328 kJ/mol
# Density = 2.614268 g / cm^3
# Si number density = 26.202314 Si / 1000 Ang^3
#
#
#
# Elastic Constant Matrix: (Units=GPa)
#
#
# Indices 1 2 3 4 5 6 
#
# 1 111.0939 74.0588 24.3890 5.6489 23.3492 36.2455
# 2 74.0588 175.8975 49.9925 9.1500 30.7854 2.3566
# 3 24.3890 49.9925 58.1903 -11.1779 3.8489 -0.8386
# 4 5.6489 9.1500 -11.1779 58.6570 -8.5707 18.0232
# 5 23.3492 30.7854 3.8489 -8.5707 40.3188 12.7455
# 6 36.2455 2.3566 -0.8386 18.0232 12.7455 61.0332
#
#
#
# Elastic Compliance Matrix: (Units=1/GPa)
#
#
# Indices 1 2 3 4 5 6 
#
# 1 0.017248 -0.006780 -0.001056 0.002282 -0.000913 -0.010479
# 2 -0.006780 0.012748 -0.008675 -0.006428 -0.008593 0.007108
# 3 -0.001056 -0.008675 0.026157 0.008337 0.007357 -0.002676
# 4 0.002282 -0.006428 0.008337 0.024303 0.011285 -0.010525
# 5 -0.000913 -0.008593 0.007357 0.011285 0.036761 -0.010034
# 6 -0.010479 0.007108 -0.002676 -0.010525 -0.010034 0.027500
#
#
# Mechanical properties :
#
#
# Convention : Reuss Voigt Hill
#
# Bulk Modulus (GPa) = 43.23317 71.34025 57.28671
# Shear Modulus (GPa) = 26.96165 45.11789 36.03977
#
# Velocity S-wave (km/s) = 3.21125 4.15409 3.71272
# Velocity P-wave (km/s) = 5.50319 7.09185 6.34742
#
# Compressibility (1/GPa) = 0.02313039
#
# Stress axis : x y z
#
# Youngs Moduli (GPa) = 57.97807 78.44164 38.23141
#
# Poissons Ratio (x) = 0.53185 0.04039
# Poissons Ratio (y) = 0.39310 0.33164
# Poissons Ratio (z) = 0.06125 0.68045
#
# Static dielectric constant tensor:
#      x y z
#    x 2.080090 -0.012530 -0.064110 
#    y -0.012530 2.104280 0.099520 
#    z -0.064110 0.099520 2.119110 
# 
# From -- ./inp_files/238326.got.cif
#   From: 2010.05.17/outbox.cif.g08.bks.cpg/sg2_120_cif.got.tgz:238326.got - 2010.06.03 11:33:40.
