data_PCOD9085772
_publ_section_title
;
Structure prediction by ZEFSAII (Michael W. Deem and Ramdas Pophale) SiO2 
 PCOD9085772
Probable space group: P -1
;
_chemical_formula_sum "Si O2"
_cell_formula_units_Z 12
_cell_length_a 7.788379
_cell_length_b 11.288536
_cell_length_c 9.918509
_cell_angle_alpha 43.861887
_cell_angle_beta 122.725611
_cell_angle_gamma 122.873562
_cell_volume 490.515209
_symmetry_space_group_name_H-M "P -1"
_symmetry_group_IT_number 2
_symmetry_cell_setting 'triclinic'
loop_
_space_group_symop_operation_xyz
x,y,z
-x,-y,-z
loop_
_atom_site_type_symbol
_atom_site_label
_atom_site_fract_x
_atom_site_fract_y
_atom_site_fract_z
Si Si1 0.746043 0.745519 0.482836
Si Si2 0.255567 0.302638 0.175961
Si Si3 0.081815 0.203687 0.906540
Si Si4 0.750921 0.391129 0.661053
Si Si5 0.451954 0.711617 0.905712
Si Si6 0.298947 0.899518 0.906205
O O1 0.818022 0.752656 0.661573
O O2 0.818904 0.599832 0.545742
O O3 0.488707 0.669724 0.445115
O O4 0.808123 0.938224 0.287218
O O5 0.089079 0.214456 0.064079
O O6 0.465589 0.259060 0.237778
O O7 0.302628 0.514834 0.010842
O O8 0.331506 0.282141 0.921079
O O9 0.915942 0.314419 0.708135
O O10 0.000000 0.000000 0.000000
O O11 0.741454 0.294437 0.882070
O O12 0.357999 0.858423 0.811985
O O13 0.500000 0.000000 0.000000
#
# Coordination Sequence:
#
# PCOD9085772 Si02
#       6
#     2   2   2   2   2   2
#     4  10  20  37  61  91 115 163 203 237 299 367
#     4   9  20  38  63  86 120 160 203 238 304 363
#     4  10  20  38  62  89 118 162 195 249 308 346
#     4  10  21  37  62  86 123 153 201 251 296 351
#     4   9  19  39  63  84 118 165 196 238 309 357
#     4  10  19  35  63  85 117 160 197 240 294 364
#
# _framework density 24.464074
#
# number of rings (size 3 to 8) (size 9 to 14) (size 15 to 20)
#    1.000    1.333    1.667    2.000    0.000    1.333 
#    0.000    1.667    3.667    0.000    0.000    0.000 
#    0.000    0.000    0.000    0.000    0.000    0.000 
#
# Total GULP energy -66892.931467 kJ/mol
# GULP energy per Si atom -5574.410956 kJ/mol
# Density = 2.440839 g / cm^3
# Si number density = 24.464074 Si / 1000 Ang^3
#
#
#
# Elastic Constant Matrix: (Units=GPa)
#
#
# Indices 1 2 3 4 5 6 
#
# 1 38.6622 26.2706 25.3742 -18.3349 13.0730 -2.3772
# 2 26.2706 162.5631 34.2592 -32.2880 12.2263 -9.5341
# 3 25.3742 34.2592 55.7661 -30.0891 16.4260 -4.3369
# 4 -18.3349 -32.2880 -30.0891 49.1274 -13.3144 5.5763
# 5 13.0730 12.2263 16.4260 -13.3144 31.3442 -6.9465
# 6 -2.3772 -9.5341 -4.3369 5.5763 -6.9465 27.4370
#
#
#
# Elastic Compliance Matrix: (Units=1/GPa)
#
#
# Indices 1 2 3 4 5 6 
#
# 1 0.040202 -0.002661 -0.012450 0.003677 -0.008134 -0.002216
# 2 -0.002661 0.007608 -0.002073 0.002753 0.000780 0.001723
# 3 -0.012450 -0.002073 0.033678 0.012995 -0.006285 -0.000708
# 4 0.003677 0.002753 0.012995 0.032850 0.004020 -0.002329
# 5 -0.008134 0.000780 -0.006285 0.004020 0.041844 0.008350
# 6 -0.002216 0.001723 -0.000708 -0.002329 0.008350 0.039329
#
#
# Mechanical properties :
#
#
# Convention : Reuss Voigt Hill
#
# Bulk Modulus (GPa) = 21.22286 47.64436 34.43361
# Shear Modulus (GPa) = 20.35942 32.98755 26.67348
#
# Velocity S-wave (km/s) = 2.88795 3.67605 3.30557
# Velocity P-wave (km/s) = 4.45132 6.12661 5.35488
#
# Compressibility (1/GPa) = 0.04711899
#
# Stress axis : x y z
#
# Youngs Moduli (GPa) = 24.87433 131.44813 29.69257
#
# Poissons Ratio (x) = 0.34977 0.36968
# Poissons Ratio (y) = 0.06619 0.06156
# Poissons Ratio (z) = 0.30969 0.27254
#
# Static dielectric constant tensor:
#      x y z
#    x 1.923730 0.014470 -0.037220 
#    y 0.014470 1.911440 0.041090 
#    z -0.037220 0.041090 1.881000 
# 
# From -- ./inp_files/278540.got.cif
#   From: 2010.05.17/outbox.cif.g08.bks.cpg/sg2_140_cif.got.tgz:278540.got - 2010.06.03 11:33:40.
