data_PCOD9085787
_publ_section_title
;
Structure prediction by ZEFSAII (Michael W. Deem and Ramdas Pophale) SiO2 
 PCOD9085787
Probable space group: P -1
;
_chemical_formula_sum "Si O2"
_cell_formula_units_Z 16
_cell_length_a 9.326974
_cell_length_b 15.586644
_cell_length_c 8.110094
_cell_angle_alpha 90.846924
_cell_angle_beta 68.949654
_cell_angle_gamma 136.339731
_cell_volume 702.551403
_symmetry_space_group_name_H-M "P -1"
_symmetry_group_IT_number 2
_symmetry_cell_setting 'triclinic'
loop_
_space_group_symop_operation_xyz
x,y,z
-x,-y,-z
loop_
_atom_site_type_symbol
_atom_site_label
_atom_site_fract_x
_atom_site_fract_y
_atom_site_fract_z
Si Si1 0.410480 0.445867 0.848928
Si Si2 0.702986 0.766795 0.945434
Si Si3 0.739012 0.432185 0.114820
Si Si4 0.620404 0.064123 0.635029
Si Si5 0.925374 0.616301 0.544597
Si Si6 0.888394 0.027396 0.444373
Si Si7 0.785309 0.386864 0.422947
Si Si8 0.622475 0.876185 0.212331
O O1 0.261784 0.464895 0.856378
O O2 0.659373 0.540593 0.652089
O O3 0.500000 0.500000 0.000000
O O4 0.281958 0.299026 0.919906
O O5 0.442044 0.660327 0.964055
O O6 0.890101 0.824575 0.725302
O O7 0.744622 0.875886 0.017479
O O8 0.637429 0.341479 0.317963
O O9 0.000000 0.500000 0.000000
O O10 0.706694 0.005005 0.630555
O O11 0.442524 0.052836 0.801803
O O12 0.869606 0.224662 0.549560
O O13 0.500000 0.000000 0.500000
O O14 0.908997 0.530198 0.420861
O O15 0.012482 0.600907 0.672187
O O16 0.759719 0.940330 0.329767
O O17 0.000000 0.000000 0.500000
O O18 0.613784 0.279830 0.637731
#
# Coordination Sequence:
#
# PCOD9085787 Si02
#       8
#     2   2   2   2   2   2   2   2
#     4  10  20  36  57  86 124 163 198 247 312 370
#     4  11  22  42  63  88 124 163 206 256 315 375
#     4  11  24  36  57  91 129 159 206 255 307 362
#     4   9  20  37  61  89 119 165 205 242 301 374
#     4  10  19  35  63  87 124 161 204 241 312 369
#     4  11  23  42  64  90 121 160 209 262 306 365
#     4  10  20  36  61  93 121 160 200 255 303 369
#     4  10  21  40  66  90 120 164 209 245 313 376
#
# _framework density 22.774134
#
# number of rings (size 3 to 8) (size 9 to 14) (size 15 to 20)
#    0.000    1.750    1.250    4.125    3.500    1.500 
#    2.250    1.875    0.000    0.000    0.000    0.000 
#    0.000    0.000    0.000    0.000    0.000    0.000 
#
# Total GULP energy -89144.776534 kJ/mol
# GULP energy per Si atom -5571.548533 kJ/mol
# Density = 2.272230 g / cm^3
# Si number density = 22.774134 Si / 1000 Ang^3
#
#
#
# Elastic Constant Matrix: (Units=GPa)
#
#
# Indices 1 2 3 4 5 6 
#
# 1 165.7573 22.6162 13.5508 16.0034 -7.7475 -21.0087
# 2 22.6162 65.1061 -5.9187 9.0371 -11.5306 1.6031
# 3 13.5508 -5.9187 26.7138 2.3401 -11.5552 -4.5691
# 4 16.0034 9.0371 2.3401 28.0602 -5.8493 -16.5686
# 5 -7.7475 -11.5306 -11.5552 -5.8493 30.8011 6.0909
# 6 -21.0087 1.6031 -4.5691 -16.5686 6.0909 34.0588
#
#
#
# Elastic Compliance Matrix: (Units=1/GPa)
#
#
# Indices 1 2 3 4 5 6 
#
# 1 0.007358 -0.003337 -0.004606 -0.000762 -0.002078 0.004079
# 2 -0.003337 0.020601 0.010324 -0.007658 0.010732 -0.007288
# 3 -0.004606 0.010324 0.051529 -0.000859 0.022027 -0.000772
# 4 -0.000762 -0.007658 -0.000859 0.054246 0.001811 0.025840
# 5 -0.002078 0.010732 0.022027 0.001811 0.045783 -0.006139
# 6 0.004079 -0.007288 -0.000772 0.025840 -0.006139 0.045785
#
#
# Mechanical properties :
#
#
# Convention : Reuss Voigt Hill
#
# Bulk Modulus (GPa) = 11.86973 35.34153 23.60563
# Shear Modulus (GPa) = 20.11071 33.73929 26.92500
#
# Velocity S-wave (km/s) = 2.97484 3.85317 3.44213
# Velocity P-wave (km/s) = 4.12587 5.94540 5.11716
#
# Compressibility (1/GPa) = 0.08424790
#
# Stress axis : x y z
#
# Youngs Moduli (GPa) = 135.90092 48.54209 19.40655
#
# Poissons Ratio (x) = 0.16201 0.08940
# Poissons Ratio (y) = 0.45357 -0.20035
# Poissons Ratio (z) = 0.62602 -0.50114
#
# Static dielectric constant tensor:
#      x y z
#    x 1.903030 -0.020910 0.007770 
#    y -0.020910 1.956860 -0.102460 
#    z 0.007770 -0.102460 2.019050 
# 
# From -- ./inp_files/202023.got.cif
#   From: 2010.05.17/outbox.cif.g08.bks.cpg/sg2_102_cif.got.tgz:202023.got - 2010.06.03 11:33:40.
