data_PCOD9085686
_publ_section_title
;
Structure prediction by ZEFSAII (Michael W. Deem and Ramdas Pophale) SiO2 
 PCOD9085686
Probable space group: P -1
;
_chemical_formula_sum "Si O2"
_cell_formula_units_Z 16
_cell_length_a 14.860826
_cell_length_b 9.233437
_cell_length_c 9.405826
_cell_angle_alpha 70.735613
_cell_angle_beta 53.124864
_cell_angle_gamma 39.211464
_cell_volume 628.997447
_symmetry_space_group_name_H-M "P -1"
_symmetry_group_IT_number 2
_symmetry_cell_setting 'triclinic'
loop_
_space_group_symop_operation_xyz
x,y,z
-x,-y,-z
loop_
_atom_site_type_symbol
_atom_site_label
_atom_site_fract_x
_atom_site_fract_y
_atom_site_fract_z
Si Si1 0.780341 0.123426 0.412145
Si Si2 0.846419 0.200196 0.722314
Si Si3 0.482876 0.654332 0.623544
Si Si4 0.292586 0.372263 0.787031
Si Si5 0.439409 0.166947 0.297654
Si Si6 0.234868 0.042079 0.271168
Si Si7 0.111069 0.555289 0.624009
Si Si8 0.359127 0.377121 0.029723
O O1 0.623190 0.371772 0.568289
O O2 0.707622 0.194798 0.298656
O O3 0.793704 0.948055 0.536660
O O4 0.969157 0.996603 0.305389
O O5 0.805288 0.079347 0.732128
O O6 0.863378 0.318392 0.544837
O O7 0.700967 0.404892 0.906373
O O8 0.558418 0.683307 0.416163
O O9 0.497990 0.734352 0.727491
O O10 0.131813 0.556291 0.772670
O O11 0.262486 0.458785 0.946943
O O12 0.386736 0.110939 0.791308
O O13 0.285944 0.275945 0.514940
O O14 0.337357 0.278360 0.209074
O O15 0.436347 0.856814 0.115433
O O16 0.078954 0.309637 0.274498
#
# Coordination Sequence:
#
# PCOD9085686 Si02
#       8
#     2   2   2   2   2   2   2   2
#     4  10  19  35  62  89 118 143 186 236 276 347
#     4  10  20  36  59  83 119 155 179 224 293 344
#     4  10  19  35  62  92 110 145 195 232 279 331
#     4  11  20  39  61  83 112 150 197 236 276 325
#     4  10  21  39  62  78 114 155 191 233 284 330
#     4  11  19  37  59  85 119 149 184 229 290 339
#     4   9  19  36  62  83 105 148 194 228 275 339
#     4  11  23  37  56  85 117 149 191 231 286 338
#
# _framework density 25.437304000000001
#
# number of rings (size 3 to 8) (size 9 to 14) (size 15 to 20)
#    0.000    1.750    1.250    7.500    0.000    0.000 
#    2.250    2.500    8.250    0.000    0.000    0.000 
#    0.000    0.000    0.000    0.000    0.000    0.000 
#
# Total GULP energy -89297.116939 kJ/mol
# GULP energy per Si atom -5581.069809 kJ/mol
# Density = 2.537941 g / cm^3
# Si number density = 25.437304 Si / 1000 Ang^3
#
#
#
# Elastic Constant Matrix: (Units=GPa)
#
#
# Indices 1 2 3 4 5 6 
#
# 1 85.0698 36.8383 16.7683 -8.4024 25.9727 -30.6103
# 2 36.8383 90.4736 7.2317 -7.1058 24.4736 -32.6197
# 3 16.7683 7.2317 63.7017 -10.6295 30.6928 -7.2563
# 4 -8.4024 -7.1058 -10.6295 41.4250 -8.2903 10.6499
# 5 25.9727 24.4736 30.6928 -8.2903 34.0920 -4.2484
# 6 -30.6103 -32.6197 -7.2563 10.6499 -4.2484 58.4701
#
#
#
# Elastic Compliance Matrix: (Units=1/GPa)
#
#
# Indices 1 2 3 4 5 6 
#
# 1 0.019855 -0.000117 0.004435 -0.000974 -0.018057 0.009745
# 2 -0.000117 0.020000 0.009106 -0.001353 -0.021435 0.010915
# 3 0.004435 0.009106 0.033181 0.001086 -0.038461 0.008527
# 4 -0.000974 -0.001353 0.001086 0.026718 0.006544 -0.005521
# 5 -0.018057 -0.021435 -0.038461 0.006544 0.092116 -0.020683
# 6 0.009745 0.010915 0.008527 -0.005521 -0.020683 0.028855
#
#
# Mechanical properties :
#
#
# Convention : Reuss Voigt Hill
#
# Bulk Modulus (GPa) = 10.01184 40.10243 25.05713
# Shear Modulus (GPa) = 22.00959 38.69121 30.35040
#
# Velocity S-wave (km/s) = 2.94470 3.90429 3.45794
# Velocity P-wave (km/s) = 3.93778 6.01033 5.08085
#
# Compressibility (1/GPa) = 0.09988179
#
# Stress axis : x y z
#
# Youngs Moduli (GPa) = 50.36534 49.99907 30.13775
#
# Poissons Ratio (x) = 0.00587 -0.13365
# Poissons Ratio (y) = 0.00592 -0.27443
# Poissons Ratio (z) = -0.22335 -0.45528
#
# Static dielectric constant tensor:
#      x y z
#    x 2.137100 0.079170 -0.021110 
#    y 0.079170 2.134090 -0.062460 
#    z -0.021110 -0.062460 2.042700 
# 
# From -- ./inp_files/333252.got.cif
#   From: 2010.05.17/outbox.cif.g08.bks.cpg/sg2_167_cif.got.tgz:333252.got - 2010.06.03 11:33:40.
