data_PCOD9085399
_publ_section_title
;
Structure prediction by ZEFSAII (Michael W. Deem and Ramdas Pophale) SiO2 
 PCOD9085399
Probable space group: P -1
;
_chemical_formula_sum "Si O2"
_cell_formula_units_Z 10
_cell_length_a 21.984932
_cell_length_b 17.932534
_cell_length_c 9.016964
_cell_angle_alpha 153.375219
_cell_angle_beta 154.617720
_cell_angle_gamma 15.120981
_cell_volume 389.894002
_symmetry_space_group_name_H-M "P -1"
_symmetry_group_IT_number 2
_symmetry_cell_setting 'triclinic'
loop_
_space_group_symop_operation_xyz
x,y,z
-x,-y,-z
loop_
_atom_site_type_symbol
_atom_site_label
_atom_site_fract_x
_atom_site_fract_y
_atom_site_fract_z
Si Si1 0.415375 0.607670 0.675458
Si Si2 0.814277 0.003734 0.525477
Si Si3 0.974391 0.246002 0.752832
Si Si4 0.416890 0.143353 0.734024
Si Si5 0.902513 0.700922 0.464828
O O1 0.500000 0.500000 0.500000
O O2 0.678379 0.310525 0.801876
O O3 0.234611 0.651525 0.436694
O O4 0.237793 0.938682 0.861036
O O5 0.014585 0.825555 0.519648
O O6 0.883683 0.846848 0.550272
O O7 0.617342 0.065311 0.119262
O O8 0.930226 0.485439 0.082011
O O9 0.334563 0.082704 0.564370
O O10 0.154913 0.488124 0.734718
O O11 0.500000 0.000000 0.500000
#
# Coordination Sequence:
#
# PCOD9085399 Si02
#       5
#     2   2   2   2   2
#     4   9  20  35  57  87 117 155 195 237 290 344
#     4  11  21  38  63  89 118 153 194 240 292 346
#     4  10  19  35  60  88 115 154 198 236 288 351
#     4  11  23  36  56  91 126 151 185 246 297 338
#     4  11  23  37  61  93 116 151 200 238 287 355
#
# _framework density 25.647997
#
# number of rings (size 3 to 8) (size 9 to 14) (size 15 to 20)
#    0.000    1.600    4.000    1.200    0.000    0.000 
#    0.000    0.000    0.000   18.000    0.000    0.000 
#    0.000    0.000    0.000    0.000    0.000    0.000 
#
# Total GULP energy -55887.015002 kJ/mol
# GULP energy per Si atom -5588.701500 kJ/mol
# Density = 2.558962 g / cm^3
# Si number density = 25.647997 Si / 1000 Ang^3
#
#
#
# Elastic Constant Matrix: (Units=GPa)
#
#
# Indices 1 2 3 4 5 6 
#
# 1 209.8159 71.6012 51.8079 2.7959 24.5338 -1.3742
# 2 71.6012 49.3006 16.9104 24.0373 1.9011 -1.4401
# 3 51.8079 16.9104 77.5153 -17.8348 -2.5792 -5.2152
# 4 2.7959 24.0373 -17.8348 41.2539 4.7987 3.7551
# 5 24.5338 1.9011 -2.5792 4.7987 34.0163 5.0170
# 6 -1.3742 -1.4401 -5.2152 3.7551 5.0170 67.4178
#
#
#
# Elastic Compliance Matrix: (Units=1/GPa)
#
#
# Indices 1 2 3 4 5 6 
#
# 1 0.019756 -0.040003 0.000499 0.024018 -0.015273 -0.000614
# 2 -0.040003 0.121761 -0.016882 -0.079441 0.031597 0.002553
# 3 0.000499 -0.016882 0.020557 0.018731 -0.000535 0.000236
# 4 0.024018 -0.079441 0.018731 0.079829 -0.022349 -0.002542
# 5 -0.015273 0.031597 -0.000535 -0.022349 0.041989 -0.001558
# 6 -0.000614 0.002553 0.000236 -0.002542 -0.001558 0.015151
#
#
# Mechanical properties :
#
#
# Convention : Reuss Voigt Hill
#
# Bulk Modulus (GPa) = 20.28214 68.58564 44.43389
# Shear Modulus (GPa) = 11.67548 41.62507 26.65028
#
# Velocity S-wave (km/s) = 2.13590 4.03294 3.22697
# Velocity P-wave (km/s) = 3.74270 6.96314 5.58986
#
# Compressibility (1/GPa) = 0.04930447
#
# Stress axis : x y z
#
# Youngs Moduli (GPa) = 50.61801 8.21279 48.64452
#
# Poissons Ratio (x) = 0.32854 -0.02430
# Poissons Ratio (y) = 2.02487 0.82119
# Poissons Ratio (z) = -0.02528 0.13864
#
# Static dielectric constant tensor:
#      x y z
#    x 2.002290 -0.032030 -0.005730 
#    y -0.032030 2.108540 0.000090 
#    z -0.005730 0.000090 2.105840 
# 
# From -- ./inp_files/60222.got.cif
#   From: 2010.05.17/outbox.cif.g08.bks.cpg/sg2_31_cif.got.tgz:60222.got - 2010.06.03 11:33:40.
