data_PCOD9085549
_publ_section_title
;
Structure prediction by ZEFSAII (Michael W. Deem and Ramdas Pophale) SiO2 
 PCOD9085549
Probable space group: P -1
;
_chemical_formula_sum "Si O2"
_cell_formula_units_Z 16
_cell_length_a 10.878677
_cell_length_b 8.365662
_cell_length_c 7.939904
_cell_angle_alpha 82.012351
_cell_angle_beta 99.315991
_cell_angle_gamma 111.077606
_cell_volume 662.788176
_symmetry_space_group_name_H-M "P -1"
_symmetry_group_IT_number 2
_symmetry_cell_setting 'triclinic'
loop_
_space_group_symop_operation_xyz
x,y,z
-x,-y,-z
loop_
_atom_site_type_symbol
_atom_site_label
_atom_site_fract_x
_atom_site_fract_y
_atom_site_fract_z
Si Si1 0.104012 0.960584 0.154060
Si Si2 0.676094 0.121518 0.651561
Si Si3 0.438205 0.601637 0.344897
Si Si4 0.963688 0.799599 0.474731
Si Si5 0.684315 0.685958 0.900316
Si Si6 0.275407 0.229496 0.738554
Si Si7 0.793693 0.149435 0.309819
Si Si8 0.470841 0.864449 0.858341
O O1 0.202841 0.155584 0.190685
O O2 0.222272 0.879926 0.172656
O O3 0.016235 0.825738 0.291202
O O4 0.000000 0.000000 0.000000
O O5 0.648514 0.297893 0.606499
O O6 0.737460 0.087699 0.495008
O O7 0.538943 0.977176 0.693887
O O8 0.500000 0.500000 0.500000
O O9 0.355760 0.480362 0.197357
O O10 0.573033 0.734416 0.278167
O O11 0.806517 0.714918 0.433231
O O12 0.053956 0.736161 0.631125
O O13 0.000000 0.000000 0.500000
O O14 0.551543 0.733991 0.896814
O O15 0.733533 0.680507 0.101545
O O16 0.212632 0.021535 0.769500
O O17 0.686571 0.218791 0.192558
O O18 0.500000 0.000000 0.000000
#
# Coordination Sequence:
#
# PCOD9085549 Si02
#       8
#     2   2   2   2   2   2   2   2
#     4  10  20  39  68  95 115 155 205 266 307 365
#     4  10  22  37  60  88 125 156 207 251 312 358
#     4  12  26  39  59  88 129 173 203 245 311 378
#     4   9  20  33  60  90 120 152 198 252 310 353
#     4  11  23  37  62  94 124 155 207 250 320 373
#     4  11  21  39  59  90 123 161 202 259 305 362
#     4  10  19  35  61  87 118 151 203 257 306 346
#     4  11  19  33  60  92 119 151 205 267 305 354
#
# _framework density 24.140439000000001
#
# number of rings (size 3 to 8) (size 9 to 14) (size 15 to 20)
#    0.000    1.500    3.750    1.500    7.000    0.000 
#    0.000    0.625    0.000    6.750    0.000    0.000 
#    0.000    0.000    0.000    0.000    0.000    0.000 
#
# Total GULP energy -89237.130019 kJ/mol
# GULP energy per Si atom -5577.320626 kJ/mol
# Density = 2.408549 g / cm^3
# Si number density = 24.140439 Si / 1000 Ang^3
#
#
#
# Elastic Constant Matrix: (Units=GPa)
#
#
# Indices 1 2 3 4 5 6 
#
# 1 99.2314 21.1813 30.8786 14.2329 36.9345 -3.8104
# 2 21.1813 36.9526 16.9336 8.4846 14.9752 -7.6795
# 3 30.8786 16.9336 99.8711 15.5731 27.1820 -9.3379
# 4 14.2329 8.4846 15.5731 29.0738 0.7679 3.9794
# 5 36.9345 14.9752 27.1820 0.7679 59.4303 1.0189
# 6 -3.8104 -7.6795 -9.3379 3.9794 1.0189 22.6202
#
#
#
# Elastic Compliance Matrix: (Units=1/GPa)
#
#
# Indices 1 2 3 4 5 6 
#
# 1 0.014980 -0.002939 -0.000658 -0.006279 -0.008234 0.002729
# 2 -0.002939 0.037509 -0.000305 -0.011116 -0.007589 0.014410
# 3 -0.000658 -0.000305 0.013720 -0.007753 -0.005811 0.007075
# 4 -0.006279 -0.011116 -0.007753 0.046893 0.009930 -0.016729
# 5 -0.008234 -0.007589 -0.005811 0.009930 0.026544 -0.009305
# 6 0.002729 0.014410 0.007075 -0.016729 -0.009305 0.055843
#
#
# Mechanical properties :
#
#
# Convention : Reuss Voigt Hill
#
# Bulk Modulus (GPa) = 17.12200 41.56023 29.34111
# Shear Modulus (GPa) = 22.44558 33.36230 27.90394
#
# Velocity S-wave (km/s) = 3.05256 3.72157 3.40354
# Velocity P-wave (km/s) = 4.41952 5.97664 5.25606
#
# Compressibility (1/GPa) = 0.05840438
#
# Stress axis : x y z
#
# Youngs Moduli (GPa) = 66.75763 26.66049 72.88676
#
# Poissons Ratio (x) = 0.07836 0.04795
# Poissons Ratio (y) = 0.19621 0.02222
# Poissons Ratio (z) = 0.04391 0.00813
#
# Static dielectric constant tensor:
#      x y z
#    x 2.015760 0.030530 0.026750 
#    y 0.030530 1.927300 -0.046700 
#    z 0.026750 -0.046700 2.093070 
# 
# From -- ./inp_files/176374.got.cif
#   From: 2010.05.17/outbox.cif.g08.bks.cpg/sg2_89_cif.got.tgz:176374.got - 2010.06.03 11:33:40.
