data_PCOD9085532
_publ_section_title
;
Structure prediction by ZEFSAII (Michael W. Deem and Ramdas Pophale) SiO2 
 PCOD9085532
Probable space group: P -1
;
_chemical_formula_sum "Si O2"
_cell_formula_units_Z 12
_cell_length_a 5.281617
_cell_length_b 14.839422
_cell_length_c 7.120885
_cell_angle_alpha 86.334104
_cell_angle_beta 114.560199
_cell_angle_gamma 109.712412
_cell_volume 475.966253
_symmetry_space_group_name_H-M "P -1"
_symmetry_group_IT_number 2
_symmetry_cell_setting 'triclinic'
loop_
_space_group_symop_operation_xyz
x,y,z
-x,-y,-z
loop_
_atom_site_type_symbol
_atom_site_label
_atom_site_fract_x
_atom_site_fract_y
_atom_site_fract_z
Si Si1 0.252227 0.276847 0.055865
Si Si2 0.690191 0.519150 0.864986
Si Si3 0.329565 0.037368 0.670315
Si Si4 0.736963 0.217895 0.625012
Si Si5 0.688340 0.912847 0.937440
Si Si6 0.352324 0.324395 0.660710
O O1 0.265508 0.368629 0.172136
O O2 0.327396 0.184594 0.159151
O O3 0.426888 0.310931 0.906928
O O4 0.922805 0.232708 0.875698
O O5 0.488066 0.439137 0.671466
O O6 0.500000 0.500000 0.000000
O O7 0.000000 0.500000 0.000000
O O8 0.434912 0.953445 0.792477
O O9 0.558617 0.104636 0.583056
O O10 0.000000 0.000000 0.500000
O O11 0.330803 0.103509 0.842700
O O12 0.516016 0.275522 0.579623
O O13 0.997457 0.270435 0.551642
O O14 0.000000 0.000000 0.000000
#
# Coordination Sequence:
#
# PCOD9085532 Si02
#       6
#     2   2   2   2   2   2
#     4   9  18  28  52  78 118 150 196 241 305 351
#     4  10  16  26  46  80 119 149 192 249 294 364
#     4  11  24  39  60  88 121 163 211 252 308 371
#     4  10  17  32  51  77 113 151 193 247 291 357
#     4  11  21  40  60  85 123 163 198 263 309 359
#     4   9  16  28  47  78 115 147 190 242 298 349
#
# _framework density 25.211872
#
# number of rings (size 3 to 8) (size 9 to 14) (size 15 to 20)
#    1.000    1.000    5.000    0.000    0.000    0.667 
#    0.000    0.000    0.000    0.000    0.000    2.333 
#    0.000    1.333    0.000    0.000    0.000    0.000 
#
# Total GULP energy -67047.493152 kJ/mol
# GULP energy per Si atom -5587.291096 kJ/mol
# Density = 2.515449 g / cm^3
# Si number density = 25.211872 Si / 1000 Ang^3
#
#
#
# Elastic Constant Matrix: (Units=GPa)
#
#
# Indices 1 2 3 4 5 6 
#
# 1 166.4444 59.2424 39.8989 6.8880 33.9533 -10.8872
# 2 59.2424 206.9193 53.7289 19.0573 26.5454 -30.4634
# 3 39.8989 53.7289 86.0617 9.4457 9.2998 -6.4806
# 4 6.8880 19.0573 9.4457 37.2628 -1.0792 -0.5960
# 5 33.9533 26.5454 9.2998 -1.0792 37.9417 8.8251
# 6 -10.8872 -30.4634 -6.4806 -0.5960 8.8251 52.4496
#
#
#
# Elastic Compliance Matrix: (Units=1/GPa)
#
#
# Indices 1 2 3 4 5 6 
#
# 1 0.008439 -0.000370 -0.002621 -0.000878 -0.007239 0.002421
# 2 -0.000370 0.007407 -0.003207 -0.002984 -0.005238 0.004676
# 3 -0.002621 -0.003207 0.014839 -0.001618 0.001086 -0.000774
# 4 -0.000878 -0.002984 -0.001618 0.029029 0.004694 -0.002575
# 5 -0.007239 -0.005238 0.001086 0.004694 0.038902 -0.010903
# 6 0.002421 0.004676 -0.000774 -0.002575 -0.010903 0.023994
#
#
# Mechanical properties :
#
#
# Convention : Reuss Voigt Hill
#
# Bulk Modulus (GPa) = 54.67639 85.01843 69.84741
# Shear Modulus (GPa) = 35.43554 45.96785 40.70170
#
# Velocity S-wave (km/s) = 3.75308 4.27460 4.02230
# Velocity P-wave (km/s) = 6.36511 7.62612 7.02397
#
# Compressibility (1/GPa) = 0.01828943
#
# Stress axis : x y z
#
# Youngs Moduli (GPa) = 118.49349 135.01612 67.39168
#
# Poissons Ratio (x) = 0.04991 0.17662
# Poissons Ratio (y) = 0.04381 0.21613
# Poissons Ratio (z) = 0.31055 0.43300
#
# Static dielectric constant tensor:
#      x y z
#    x 1.947400 0.021240 0.041150 
#    y 0.021240 2.060870 0.007580 
#    z 0.041150 0.007580 2.018150 
# 
# From -- ./inp_files/135435.got.cif
#   From: 2010.05.17/outbox.cif.g08.bks.cpg/sg2_68_cif.got.tgz:135435.got - 2010.06.03 11:33:40.
