data_PCOD9085789
_publ_section_title
;
Structure prediction by ZEFSAII (Michael W. Deem and Ramdas Pophale) SiO2 
 PCOD9085789
Probable space group: P -1
;
_chemical_formula_sum "Si O2"
_cell_formula_units_Z 10
_cell_length_a 7.232821
_cell_length_b 6.854235
_cell_length_c 12.085031
_cell_angle_alpha 79.831494
_cell_angle_beta 141.822711
_cell_angle_gamma 86.545664
_cell_volume 344.440653
_symmetry_space_group_name_H-M "P -1"
_symmetry_group_IT_number 2
_symmetry_cell_setting 'triclinic'
loop_
_space_group_symop_operation_xyz
x,y,z
-x,-y,-z
loop_
_atom_site_type_symbol
_atom_site_label
_atom_site_fract_x
_atom_site_fract_y
_atom_site_fract_z
Si Si1 0.127381 0.732408 0.381930
Si Si2 0.595938 0.137727 0.711446
Si Si3 0.466983 0.792615 0.068062
Si Si4 0.902395 0.208617 0.304474
Si Si5 0.342811 0.339243 0.204265
O O1 0.187365 0.793446 0.280121
O O2 0.460103 0.605251 0.607323
O O3 0.833717 0.647067 0.255145
O O4 0.006083 0.950640 0.374305
O O5 0.631100 0.173102 0.854171
O O6 0.229817 0.235304 0.492869
O O7 0.677413 0.889131 0.758299
O O8 0.228127 0.722824 0.886793
O O9 0.500000 0.000000 0.000000
O O10 0.404682 0.699431 0.772948
O O11 0.000000 0.500000 0.000000
#
# Coordination Sequence:
#
# PCOD9085789 Si02
#       5
#     2   2   2   2   2
#     4  10  20  38  62  88 112 150 199 240 280 338
#     4  11  20  40  63  88 113 149 201 241 277 344
#     4  10  19  35  63  88 112 148 200 241 282 330
#     4  10  19  37  62  83 116 153 193 236 286 338
#     4  11  20  36  60  86 119 158 186 232 300 344
#
# _framework density 29.032578000000001
#
# number of rings (size 3 to 8) (size 9 to 14) (size 15 to 20)
#    0.000    1.600    6.000    3.600    0.000    3.200 
#    3.600    5.000    0.000    1.200    0.000   11.200 
#    0.000    0.000    0.000    0.000    0.000    0.000 
#
# Total GULP energy -56183.940879 kJ/mol
# GULP energy per Si atom -5618.394088 kJ/mol
# Density = 2.896650 g / cm^3
# Si number density = 29.032578 Si / 1000 Ang^3
#
#
#
# Elastic Constant Matrix: (Units=GPa)
#
#
# Indices 1 2 3 4 5 6 
#
# 1 239.3304 46.8779 87.6412 7.2430 0.1770 -18.8350
# 2 46.8779 91.2681 50.8292 -5.2778 11.5067 -17.1011
# 3 87.6412 50.8292 258.3152 24.9435 30.7110 -26.6339
# 4 7.2430 -5.2778 24.9435 70.0104 -14.5117 13.1003
# 5 0.1770 11.5067 30.7110 -14.5117 74.3116 1.1222
# 6 -18.8350 -17.1011 -26.6339 13.1003 1.1222 26.6872
#
#
#
# Elastic Compliance Matrix: (Units=1/GPa)
#
#
# Indices 1 2 3 4 5 6 
#
# 1 0.005114 -0.001763 -0.001317 -0.000279 0.000731 0.001271
# 2 -0.001763 0.014019 -0.001311 0.000153 -0.001692 0.006426
# 3 -0.001317 -0.001311 0.005965 -0.003899 -0.003114 0.006228
# 4 -0.000279 0.000153 -0.003899 0.019450 0.005594 -0.013772
# 5 0.000731 -0.001692 -0.003114 0.005594 0.016204 -0.007103
# 6 0.001271 0.006426 0.006228 -0.013772 -0.007103 0.055761
#
#
# Mechanical properties :
#
#
# Convention : Reuss Voigt Hill
#
# Bulk Modulus (GPa) = 61.29602 106.62336 83.95969
# Shear Modulus (GPa) = 38.24550 61.10620 49.67585
#
# Velocity S-wave (km/s) = 3.63344 4.59273 4.14096
# Velocity P-wave (km/s) = 6.22585 8.05787 7.20037
#
# Compressibility (1/GPa) = 0.01631427
#
# Stress axis : x y z
#
# Youngs Moduli (GPa) = 195.54374 71.33190 167.64345
#
# Poissons Ratio (x) = 0.12578 0.22080
# Poissons Ratio (y) = 0.34482 0.21985
# Poissons Ratio (z) = 0.25754 0.09355
#
# Static dielectric constant tensor:
#      x y z
#    x 2.156950 -0.040730 0.026910 
#    y -0.040730 2.411110 -0.069160 
#    z 0.026910 -0.069160 2.286430 
# 
# From -- ./inp_files/381840.got.cif
#   From: 2010.05.17/outbox.cif.g08.bks.cpg/sg2_191_cif.got.tgz:381840.got - 2010.06.03 11:33:40.
