data_PCOD9085419
_publ_section_title
;
Structure prediction by ZEFSAII (Michael W. Deem and Ramdas Pophale) SiO2 
 PCOD9085419
Probable space group: P -1
;
_chemical_formula_sum "Si O2"
_cell_formula_units_Z 14
_cell_length_a 10.380184
_cell_length_b 14.280126
_cell_length_c 9.107736
_cell_angle_alpha 75.066424
_cell_angle_beta 56.998831
_cell_angle_gamma 31.030743
_cell_volume 510.917412
_symmetry_space_group_name_H-M "P -1"
_symmetry_group_IT_number 2
_symmetry_cell_setting 'triclinic'
loop_
_space_group_symop_operation_xyz
x,y,z
-x,-y,-z
loop_
_atom_site_type_symbol
_atom_site_label
_atom_site_fract_x
_atom_site_fract_y
_atom_site_fract_z
Si Si1 0.775826 0.811236 0.517532
Si Si2 0.623817 0.006342 0.049122
Si Si3 0.758120 0.219490 0.242606
Si Si4 0.289914 0.662606 0.335407
Si Si5 0.525572 0.706306 0.343274
Si Si6 0.944069 0.643336 0.042770
Si Si7 0.406733 0.402521 0.096855
O O1 0.933248 0.816195 0.496981
O O2 0.088066 0.597942 0.319906
O O3 0.500000 0.000000 0.500000
O O4 0.636419 0.823073 0.730917
O O5 0.867044 0.795666 0.069071
O O6 0.865979 0.960523 0.882550
O O7 0.500000 0.000000 0.000000
O O8 0.539756 0.438763 0.324712
O O9 0.603315 0.224094 0.440681
O O10 0.682245 0.231168 0.118325
O O11 0.291125 0.761893 0.382846
O O12 0.411611 0.620911 0.113008
O O13 0.622271 0.758187 0.207332
O O14 0.878028 0.458616 0.183952
O O15 0.217920 0.450079 0.064261
#
# Coordination Sequence:
#
# PCOD9085419 Si02
#       7
#     2   2   2   2   2   2   2
#     4  11  19  33  57  87 114 151 184 242 295 327
#     4  12  24  36  58  91 120 146 193 244 289 342
#     4  11  20  36  61  88 113 146 203 240 276 340
#     4  10  19  35  60  89 113 152 197 241 279 340
#     4  10  21  37  62  83 117 154 192 241 283 340
#     4  10  22  40  56  89 118 151 192 237 295 341
#     4  10  20  36  62  86 117 147 197 243 281 340
#
# _framework density 27.401688
#
# number of rings (size 3 to 8) (size 9 to 14) (size 15 to 20)
#    0.000    1.429    4.286    3.857    4.000    0.571 
#    0.000    2.857    0.000    0.857    0.000    0.000 
#    0.000    0.000    0.000    0.000    0.000    0.000 
#
# Total GULP energy -78168.372712 kJ/mol
# GULP energy per Si atom -5583.455194 kJ/mol
# Density = 2.733932 g / cm^3
# Si number density = 27.401688 Si / 1000 Ang^3
#
#
#
# Elastic Constant Matrix: (Units=GPa)
#
#
# Indices 1 2 3 4 5 6 
#
# 1 82.5659 12.3359 4.8858 0.8696 -26.1145 -30.3735
# 2 12.3359 87.7038 25.9947 12.2886 0.4976 -20.6677
# 3 4.8858 25.9947 173.5444 -1.1830 -13.1280 -14.9922
# 4 0.8696 12.2886 -1.1830 37.7983 -3.1451 1.3282
# 5 -26.1145 0.4976 -13.1280 -3.1451 51.6708 6.1035
# 6 -30.3735 -20.6677 -14.9922 1.3282 6.1035 47.1969
#
#
#
# Elastic Compliance Matrix: (Units=1/GPa)
#
#
# Indices 1 2 3 4 5 6 
#
# 1 0.018956 -0.000403 0.001148 0.000046 0.008546 0.011281
# 2 -0.000403 0.014026 -0.001765 -0.004953 -0.001761 0.005689
# 3 0.001148 -0.001765 0.006300 0.000856 0.002052 0.001678
# 4 0.000046 -0.004953 0.000856 0.028394 0.002368 -0.002973
# 5 0.008546 -0.001761 0.002052 0.002368 0.024095 0.002198
# 6 0.011281 0.005689 0.001678 -0.002973 0.002198 0.031271
#
#
# Mechanical properties :
#
#
# Convention : Reuss Voigt Hill
#
# Bulk Modulus (GPa) = 26.85068 47.80521 37.32794
# Shear Modulus (GPa) = 36.36416 47.37304 41.86860
#
# Velocity S-wave (km/s) = 3.64686 4.16244 3.91315
# Velocity P-wave (km/s) = 5.24909 6.37065 5.83687
#
# Compressibility (1/GPa) = 0.03724301
#
# Stress axis : x y z
#
# Youngs Moduli (GPa) = 52.75261 71.29387 158.72329
#
# Poissons Ratio (x) = 0.02873 -0.18222
# Poissons Ratio (y) = 0.02126 0.28016
# Poissons Ratio (z) = -0.06056 0.12584
#
# Static dielectric constant tensor:
#      x y z
#    x 2.204670 -0.013240 0.037150 
#    y -0.013240 2.291830 0.008190 
#    z 0.037150 0.008190 2.084660 
# 
# From -- ./inp_files/154257.got.cif
#   From: 2010.05.17/outbox.cif.g08.bks.cpg/sg2_78_cif.got.tgz:154257.got - 2010.06.03 11:33:40.
