data_PCOD9085783
_publ_section_title
;
Structure prediction by ZEFSAII (Michael W. Deem and Ramdas Pophale) SiO2 
 PCOD9085783
Probable space group: P -1
;
_chemical_formula_sum "Si O2"
_cell_formula_units_Z 14
_cell_length_a 12.157297
_cell_length_b 8.963884
_cell_length_c 7.611889
_cell_angle_alpha 105.757028
_cell_angle_beta 56.630233
_cell_angle_gamma 128.696862
_cell_volume 537.337205
_symmetry_space_group_name_H-M "P -1"
_symmetry_group_IT_number 2
_symmetry_cell_setting 'triclinic'
loop_
_space_group_symop_operation_xyz
x,y,z
-x,-y,-z
loop_
_atom_site_type_symbol
_atom_site_label
_atom_site_fract_x
_atom_site_fract_y
_atom_site_fract_z
Si Si1 0.597038 0.155829 0.804062
Si Si2 0.264238 0.862569 0.842038
Si Si3 0.632145 0.514285 0.020290
Si Si4 0.590855 0.365552 0.408572
Si Si5 0.847598 0.120294 0.681736
Si Si6 0.218967 0.123919 0.785586
Si Si7 0.184431 0.232226 0.491605
O O1 0.748847 0.148858 0.634049
O O2 0.449470 0.059103 0.766104
O O3 0.666051 0.372681 0.853908
O O4 0.500000 0.000000 0.000000
O O5 0.301591 0.715364 0.701188
O O6 0.166693 0.919168 0.831695
O O7 0.178509 0.806906 0.090050
O O8 0.593263 0.425750 0.224373
O O9 0.761854 0.739200 0.029205
O O10 0.500000 0.500000 0.000000
O O11 0.402182 0.226365 0.580358
O O12 0.676375 0.549509 0.517455
O O13 0.036578 0.215454 0.520930
O O14 0.768140 0.892951 0.688606
O O15 0.125385 0.130829 0.704065
#
# Coordination Sequence:
#
# PCOD9085783 Si02
#       7
#     2   2   2   2   2   2   2
#     4  10  19  35  63  87 118 155 208 247 296 360
#     4  11  22  39  64  93 121 163 204 252 308 365
#     4  11  20  35  58  95 119 159 201 247 309 357
#     4  11  23  39  61  95 126 157 201 262 308 355
#     4  10  22  41  67  82 122 171 207 242 306 373
#     4  11  24  36  63  93 127 158 203 258 307 354
#     4  10  23  41  63  89 121 167 204 252 309 358
#
# _framework density 26.054404999999999
#
# number of rings (size 3 to 8) (size 9 to 14) (size 15 to 20)
#    0.000    1.429    4.286    3.000    6.000    1.143 
#    0.000    0.000    0.000    2.571    0.000    0.000 
#    0.000    0.000    0.000    0.000    0.000    0.000 
#
# Total GULP energy -78307.858522 kJ/mol
# GULP energy per Si atom -5593.418466 kJ/mol
# Density = 2.599510 g / cm^3
# Si number density = 26.054405 Si / 1000 Ang^3
#
#
#
# Elastic Constant Matrix: (Units=GPa)
#
#
# Indices 1 2 3 4 5 6 
#
# 1 114.0609 20.8626 25.6906 -3.8184 -9.5162 -18.2338
# 2 20.8626 83.6392 44.1882 34.2048 -8.1953 -21.1230
# 3 25.6906 44.1882 63.2209 21.2106 -10.0227 -16.4708
# 4 -3.8184 34.2048 21.2106 43.9248 -17.8455 -3.5090
# 5 -9.5162 -8.1953 -10.0227 -17.8455 47.3733 9.3363
# 6 -18.2338 -21.1230 -16.4708 -3.5090 9.3363 40.5558
#
#
#
# Elastic Compliance Matrix: (Units=1/GPa)
#
#
# Indices 1 2 3 4 5 6 
#
# 1 0.010784 -0.002322 -0.003768 0.005853 0.002783 0.001975
# 2 -0.002322 0.027198 -0.010747 -0.018177 -0.006598 0.008704
# 3 -0.003768 -0.010747 0.027373 -0.004590 0.000807 0.003243
# 4 0.005853 -0.018177 -0.004590 0.045402 0.015821 -0.008414
# 5 0.002783 -0.006598 0.000807 0.015821 0.028025 -0.006940
# 6 0.001975 0.008704 0.003243 -0.008414 -0.006940 0.032265
#
#
# Mechanical properties :
#
#
# Convention : Reuss Voigt Hill
#
# Bulk Modulus (GPa) = 31.56258 49.15596 40.35927
# Shear Modulus (GPa) = 23.22559 37.71610 30.47085
#
# Velocity S-wave (km/s) = 2.98892 3.80885 3.42352
# Velocity P-wave (km/s) = 4.90427 6.18472 5.58134
#
# Compressibility (1/GPa) = 0.03168309
#
# Stress axis : x y z
#
# Youngs Moduli (GPa) = 92.72648 36.76718 36.53300
#
# Poissons Ratio (x) = 0.08537 0.13764
# Poissons Ratio (y) = 0.21529 0.39261
# Poissons Ratio (z) = 0.34935 0.39512
#
# Static dielectric constant tensor:
#      x y z
#    x 2.069790 0.007590 0.006940 
#    y 0.007590 2.060660 -0.046040 
#    z 0.006940 -0.046040 2.102850 
# 
# From -- ./inp_files/244895.got.cif
#   From: 2010.05.17/outbox.cif.g08.bks.cpg/sg2_123_cif.got.tgz:244895.got - 2010.06.03 11:33:40.
