data_PCOD9085493
_publ_section_title
;
Structure prediction by ZEFSAII (Michael W. Deem and Ramdas Pophale) SiO2 
 PCOD9085493
Probable space group: P -1
;
_chemical_formula_sum "Si O2"
_cell_formula_units_Z 14
_cell_length_a 7.801250
_cell_length_b 13.793892
_cell_length_c 14.271055
_cell_angle_alpha 30.117092
_cell_angle_beta 130.681167
_cell_angle_gamma 115.848649
_cell_volume 550.384319
_symmetry_space_group_name_H-M "P -1"
_symmetry_group_IT_number 2
_symmetry_cell_setting 'triclinic'
loop_
_space_group_symop_operation_xyz
x,y,z
-x,-y,-z
loop_
_atom_site_type_symbol
_atom_site_label
_atom_site_fract_x
_atom_site_fract_y
_atom_site_fract_z
Si Si1 0.564132 0.269699 0.753103
Si Si2 0.061408 0.036654 0.216452
Si Si3 0.210686 0.608708 0.691216
Si Si4 0.359202 0.298198 0.154435
Si Si5 0.422713 0.354683 0.817403
Si Si6 0.729277 0.055480 0.329493
Si Si7 0.447105 0.792608 0.406280
O O1 0.500000 0.500000 0.500000
O O2 0.385161 0.262027 0.780879
O O3 0.582861 0.151871 0.760698
O O4 0.818889 0.192608 0.960030
O O5 0.033454 0.837451 0.422961
O O6 0.227431 0.939576 0.266350
O O7 0.204862 0.149301 0.238479
O O8 0.192188 0.499669 0.872498
O O9 0.212645 0.453285 0.736864
O O10 0.475931 0.639920 0.762788
O O11 0.556889 0.184216 0.242321
O O12 0.472358 0.559868 0.630513
O O13 0.633197 0.194949 0.086361
O O14 0.674950 0.845957 0.475503
O O15 0.000000 0.000000 0.500000
#
# Coordination Sequence:
#
# PCOD9085493 Si02
#       7
#     2   2   2   2   2   2   2
#     4  10  21  39  57  85 116 147 193 237 278 332
#     4  10  19  35  61  80 108 152 191 227 280 335
#     4   9  18  36  56  82 114 148 187 226 279 341
#     4   9  19  36  55  83 116 145 188 232 273 338
#     4   9  20  38  54  83 116 145 185 234 278 333
#     4  10  21  36  58  87 116 143 187 235 283 338
#     4   9  20  40  59  80 111 154 187 231 280 331
#
# _framework density 25.436772000000001
#
# number of rings (size 3 to 8) (size 9 to 14) (size 15 to 20)
#    0.000    2.571    0.000    0.857    2.000    1.143 
#   15.429    2.857    0.000   14.571    0.000    0.000 
#    0.000    0.000    0.000    0.000    0.000    0.000 
#
# Total GULP energy -78262.944075 kJ/mol
# GULP energy per Si atom -5590.210291 kJ/mol
# Density = 2.537888 g / cm^3
# Si number density = 25.436772 Si / 1000 Ang^3
#
#
#
# Elastic Constant Matrix: (Units=GPa)
#
#
# Indices 1 2 3 4 5 6 
#
# 1 40.7470 14.0706 26.2486 2.4248 -1.9313 -12.5936
# 2 14.0706 47.7934 -10.8579 7.9777 -3.2308 -22.1057
# 3 26.2486 -10.8579 147.5235 -1.9387 -3.3875 0.8961
# 4 2.4248 7.9777 -1.9387 31.5202 -1.0273 -9.8578
# 5 -1.9313 -3.2308 -3.3875 -1.0273 38.1141 7.7512
# 6 -12.5936 -22.1057 0.8961 -9.8578 7.7512 39.2881
#
#
#
# Elastic Compliance Matrix: (Units=1/GPa)
#
#
# Indices 1 2 3 4 5 6 
#
# 1 0.033769 -0.008685 -0.006693 0.001216 -0.000925 0.006578
# 2 -0.008685 0.031281 0.003718 -0.002606 -0.000408 0.014158
# 3 -0.006693 0.003718 0.008263 -0.000018 0.000792 -0.000403
# 4 0.001216 -0.002606 -0.000018 0.034701 -0.000810 0.007791
# 5 -0.000925 -0.000408 0.000792 -0.000810 0.027458 -0.006164
# 6 0.006578 0.014158 -0.000403 0.007791 -0.006164 0.038708
#
#
# Mechanical properties :
#
#
# Convention : Reuss Voigt Hill
#
# Bulk Modulus (GPa) = 20.00266 32.77627 26.38946
# Shear Modulus (GPa) = 23.34649 35.55798 29.45224
#
# Velocity S-wave (km/s) = 3.03285 3.74290 3.40643
# Velocity P-wave (km/s) = 4.48832 5.62072 5.08613
#
# Compressibility (1/GPa) = 0.04999335
#
# Stress axis : x y z
#
# Youngs Moduli (GPa) = 29.61274 31.96820 121.01412
#
# Poissons Ratio (x) = 0.27766 0.80994
# Poissons Ratio (y) = 0.25720 -0.44994
# Poissons Ratio (z) = 0.19820 -0.11886
#
# Static dielectric constant tensor:
#      x y z
#    x 2.049540 -0.079760 -0.012390 
#    y -0.079760 2.086770 -0.039420 
#    z -0.012390 -0.039420 1.980000 
# 
# From -- ./inp_files/177185.got.cif
#   From: 2010.05.17/outbox.cif.g08.bks.cpg/sg2_89_cif.got.tgz:177185.got - 2010.06.03 11:33:40.
