data_PCOD9085488
_publ_section_title
;
Structure prediction by ZEFSAII (Michael W. Deem and Ramdas Pophale) SiO2 
 PCOD9085488
Probable space group: P -1
;
_chemical_formula_sum "Si O2"
_cell_formula_units_Z 15
_cell_length_a 13.421103
_cell_length_b 10.024128
_cell_length_c 13.423416
_cell_angle_alpha 132.147948
_cell_angle_beta 135.692687
_cell_angle_gamma 33.663119
_cell_volume 685.828474
_symmetry_space_group_name_H-M "P -1"
_symmetry_group_IT_number 2
_symmetry_cell_setting 'triclinic'
loop_
_space_group_symop_operation_xyz
x,y,z
-x,-y,-z
loop_
_atom_site_type_symbol
_atom_site_label
_atom_site_fract_x
_atom_site_fract_y
_atom_site_fract_z
Si Si1 0.540848 0.573736 0.465372
Si Si2 0.509973 0.118574 0.936193
Si Si3 0.546753 0.291372 0.858812
Si Si4 0.722437 0.284730 0.262005
Si Si5 0.124505 0.836332 0.243781
Si Si6 0.089825 0.601569 0.923357
Si Si7 0.235245 0.380983 0.213017
Si Si8 0.000000 0.000000 0.000000
O O1 0.500000 0.500000 0.500000
O O2 0.684909 0.339899 0.379688
O O3 0.328550 0.764283 0.358621
O O4 0.646438 0.658860 0.624744
O O5 0.505690 0.160449 0.835614
O O6 0.293816 0.324789 0.926825
O O7 0.624120 0.833232 0.875188
O O8 0.634638 0.169217 0.103482
O O9 0.405679 0.445780 0.742722
O O10 0.772540 0.114236 0.908825
O O11 0.500000 0.500000 0.000000
O O12 0.943320 0.096241 0.289372
O O13 0.147536 0.632182 0.221875
O O14 0.084900 0.798821 0.083295
O O15 0.932009 0.610797 0.865818
O O16 0.064626 0.732972 0.869791
#
# Coordination Sequence:
#
# PCOD9085488 Si02
#       8
#     2   2   2   2   2   2   2   1
#     4  10  24  44  62  89 127 175 208 257 321 383
#     4  11  22  37  63  97 130 160 208 267 312 367
#     4  10  19  35  60  98 121 160 212 259 303 374
#     4  11  21  39  67  92 124 166 216 259 306 388
#     4  11  23  41  66  92 124 171 215 253 321 383
#     4  12  22  36  65  99 121 167 209 267 315 365
#     4  11  25  41  60  95 134 156 215 269 315 370
#     4  12  18  34  64  88 130 160 206 254 320 364
#
# _framework density 21.871359000000002
#
# number of rings (size 3 to 8) (size 9 to 14) (size 15 to 20)
#    0.000    1.067    6.667    1.200    0.000    5.867 
#    0.000    0.667    0.000    1.600    0.000    0.000 
#    0.000    0.000    0.000    0.000    0.000    0.000 
#
# Total GULP energy -83569.742371 kJ/mol
# GULP energy per Si atom -5571.316158 kJ/mol
# Density = 2.182158 g / cm^3
# Si number density = 21.871359 Si / 1000 Ang^3
#
#
#
# Elastic Constant Matrix: (Units=GPa)
#
#
# Indices 1 2 3 4 5 6 
#
# 1 100.3518 53.4456 28.3858 -0.6605 -7.3556 -16.8681
# 2 53.4456 145.2628 34.4144 -5.6730 -2.5630 -38.4266
# 3 28.3858 34.4144 96.0439 -4.3326 -6.0089 -19.7389
# 4 -0.6605 -5.6730 -4.3326 22.7878 -9.7783 -0.2116
# 5 -7.3556 -2.5630 -6.0089 -9.7783 28.5389 -0.4820
# 6 -16.8681 -38.4266 -19.7389 -0.2116 -0.4820 53.3575
#
#
#
# Elastic Compliance Matrix: (Units=1/GPa)
#
#
# Indices 1 2 3 4 5 6 
#
# 1 0.013023 -0.004143 -0.002126 0.000043 0.002558 0.000370
# 2 -0.004143 0.010295 -0.001144 0.002526 0.000578 0.005697
# 3 -0.002126 -0.001144 0.012453 0.003422 0.003197 0.003153
# 4 0.000043 0.002526 0.003422 0.053498 0.019347 0.003486
# 5 0.002558 0.000578 0.003197 0.019347 0.043102 0.002873
# 6 0.000370 0.005697 0.003153 0.003486 0.002873 0.024167
#
#
# Mechanical properties :
#
#
# Convention : Reuss Voigt Hill
#
# Bulk Modulus (GPa) = 47.74504 63.79445 55.76974
# Shear Modulus (GPa) = 28.03548 35.96435 31.99991
#
# Velocity S-wave (km/s) = 3.58416 4.05947 3.82919
# Velocity P-wave (km/s) = 6.24544 7.15568 6.71600
#
# Compressibility (1/GPa) = 0.02094459
#
# Stress axis : x y z
#
# Youngs Moduli (GPa) = 76.78821 97.13337 80.30440
#
# Poissons Ratio (x) = 0.40242 0.17076
# Poissons Ratio (y) = 0.31813 0.09184
# Poissons Ratio (z) = 0.16328 0.11108
#
# Static dielectric constant tensor:
#      x y z
#    x 2.183360 0.305240 -0.163720 
#    y 0.305240 2.079380 -0.146510 
#    z -0.163720 -0.146510 1.878490 
# 
# From -- ./inp_files/532068.got.cif
#   From: 2010.05.17/outbox.cif.g08.bks.cpg/sg2_267_cif.got.tgz:532068.got - 2010.06.03 11:33:40.
