data_PCOD9085536
_publ_section_title
;
Structure prediction by ZEFSAII (Michael W. Deem and Ramdas Pophale) SiO2 
 PCOD9085536
Probable space group: P -1
;
_chemical_formula_sum "Si O2"
_cell_formula_units_Z 16
_cell_length_a 10.805937
_cell_length_b 16.167331
_cell_length_c 14.428177
_cell_angle_alpha 144.936023
_cell_angle_beta 151.409052
_cell_angle_gamma 53.835962
_cell_volume 612.496868
_symmetry_space_group_name_H-M "P -1"
_symmetry_group_IT_number 2
_symmetry_cell_setting 'triclinic'
loop_
_space_group_symop_operation_xyz
x,y,z
-x,-y,-z
loop_
_atom_site_type_symbol
_atom_site_label
_atom_site_fract_x
_atom_site_fract_y
_atom_site_fract_z
Si Si1 0.408520 0.106483 0.104212
Si Si2 0.358138 0.436440 0.691655
Si Si3 0.677680 0.408692 0.460252
Si Si4 0.191292 0.406617 0.033841
Si Si5 0.267355 0.725837 0.143940
Si Si6 0.139206 0.905807 0.380849
Si Si7 0.876729 0.200652 0.272937
Si Si8 0.420717 0.224149 0.775213
O O1 0.650836 0.294182 0.426058
O O2 0.126122 0.105587 0.869760
O O3 0.500000 0.000000 0.000000
O O4 0.316475 0.996464 0.035171
O O5 0.547164 0.506067 0.787205
O O6 0.565634 0.380328 0.830508
O O7 0.040451 0.284341 0.361893
O O8 0.364404 0.592989 0.886624
O O9 0.380102 0.418988 0.260185
O O10 0.722384 0.300515 0.307809
O O11 0.937775 0.588822 0.788456
O O12 0.000000 0.500000 0.000000
O O13 0.985907 0.209112 0.716869
O O14 0.293266 0.826060 0.345112
O O15 0.417058 0.827314 0.243863
O O16 0.333451 0.099900 0.689828
O O17 0.133591 0.223624 0.538499
#
# Coordination Sequence:
#
# PCOD9085536 Si02
#       8
#     2   2   2   2   2   2   2   2
#     4   8  17  31  53  85 118 141 182 245 289 332
#     4  11  20  36  63  84 122 156 194 236 290 357
#     4  10  19  35  61  86 118 149 197 239 289 348
#     4  11  24  40  53  84 121 165 193 232 296 358
#     4  11  19  36  62  94 111 151 196 249 294 340
#     4  10  21  36  58  84 119 154 195 236 299 347
#     4   9  16  34  58  91 110 144 194 245 288 333
#     4  10  19  35  61  91 119 144 195 252 291 343
#
# _framework density 26.122582000000001
#
# number of rings (size 3 to 8) (size 9 to 14) (size 15 to 20)
#    0.000    2.000    3.750    1.125    0.000    3.000 
#    0.000    0.000    0.000    0.750    0.000    0.000 
#    0.000    0.000    0.000    0.000    0.000    0.000 
#
# Total GULP energy -89369.203497 kJ/mol
# GULP energy per Si atom -5585.575219 kJ/mol
# Density = 2.606313 g / cm^3
# Si number density = 26.122582 Si / 1000 Ang^3
#
#
#
# Elastic Constant Matrix: (Units=GPa)
#
#
# Indices 1 2 3 4 5 6 
#
# 1 123.2682 41.7741 32.6443 22.0823 32.2562 0.1346
# 2 41.7741 135.1281 35.3538 20.1992 22.9134 4.7379
# 3 32.6443 35.3538 86.7862 28.7914 22.6031 -2.1649
# 4 22.0823 20.1992 28.7914 46.7669 8.6096 8.5713
# 5 32.2562 22.9134 22.6031 8.6096 37.0891 4.4769
# 6 0.1346 4.7379 -2.1649 8.5713 4.4769 36.6110
#
#
#
# Elastic Compliance Matrix: (Units=1/GPa)
#
#
# Indices 1 2 3 4 5 6 
#
# 1 0.011517 -0.001636 -0.000360 -0.003348 -0.008243 0.001940
# 2 -0.001636 0.009088 -0.001986 -0.001332 -0.002592 -0.000659
# 3 -0.000360 -0.001986 0.017610 -0.009222 -0.007581 0.004386
# 4 -0.003348 -0.001332 -0.009222 0.030034 0.003324 -0.007799
# 5 -0.008243 -0.002592 -0.007581 0.003324 0.040280 -0.005786
# 6 0.001940 -0.000659 0.004386 -0.007799 -0.005786 0.030185
#
#
# Mechanical properties :
#
#
# Convention : Reuss Voigt Hill
#
# Bulk Modulus (GPa) = 33.05636 62.74743 47.90189
# Shear Modulus (GPa) = 31.89602 39.78740 35.84171
#
# Velocity S-wave (km/s) = 3.49809 3.90693 3.70815
# Velocity P-wave (km/s) = 5.38492 6.66518 6.05896
#
# Compressibility (1/GPa) = 0.03025137
#
# Stress axis : x y z
#
# Youngs Moduli (GPa) = 86.83038 110.04096 56.78550
#
# Poissons Ratio (x) = 0.18003 0.02041
# Poissons Ratio (y) = 0.14206 0.11277
# Poissons Ratio (z) = 0.03122 0.21854
#
# Static dielectric constant tensor:
#      x y z
#    x 2.243700 0.092660 0.047210 
#    y 0.092660 2.027880 -0.007930 
#    z 0.047210 -0.007930 2.188000 
# 
# From -- ./inp_files/261975.got.cif
#   From: 2010.05.17/outbox.cif.g08.bks.cpg/sg2_131_cif.got.tgz:261975.got - 2010.06.03 11:33:40.
