data_PCOD9085879
_publ_section_title
;
Structure prediction by ZEFSAII (Michael W. Deem and Ramdas Pophale) SiO2 
 PCOD9085879
Probable space group: P -1
;
_chemical_formula_sum "Si O2"
_cell_formula_units_Z 15
_cell_length_a 8.025537
_cell_length_b 6.334180
_cell_length_c 17.944220
_cell_angle_alpha 49.399776
_cell_angle_beta 79.687537
_cell_angle_gamma 87.768938
_cell_volume 677.731328
_symmetry_space_group_name_H-M "P -1"
_symmetry_group_IT_number 2
_symmetry_cell_setting 'triclinic'
loop_
_space_group_symop_operation_xyz
x,y,z
-x,-y,-z
loop_
_atom_site_type_symbol
_atom_site_label
_atom_site_fract_x
_atom_site_fract_y
_atom_site_fract_z
Si Si1 0.031223 0.882687 0.641171
Si Si2 0.335606 0.869715 0.129453
Si Si3 0.844560 0.541613 0.168071
Si Si4 0.000000 0.500000 0.000000
Si Si5 0.216140 0.852210 0.300723
Si Si6 0.525175 0.733199 0.723689
Si Si7 0.738707 0.786059 0.561739
Si Si8 0.287020 0.876870 0.961286
O O1 0.046350 0.589738 0.746910
O O2 0.886736 0.846446 0.598145
O O3 0.202240 0.017301 0.556998
O O4 0.959030 0.083785 0.662050
O O5 0.215815 0.915305 0.198203
O O6 0.398276 0.563535 0.204414
O O7 0.508204 0.081391 0.071675
O O8 0.255492 0.879091 0.052436
O O9 0.672074 0.327948 0.228223
O O10 0.790911 0.844023 0.124871
O O11 0.935035 0.550311 0.079454
O O12 0.195522 0.619284 0.983319
O O13 0.254303 0.536666 0.385582
O O14 0.370081 0.051217 0.279396
O O15 0.569597 0.821804 0.614317
#
# Coordination Sequence:
#
# PCOD9085879 Si02
#       8
#     2   2   2   1   2   2   2   2
#     4  10  22  38  60  92 119 157 196 249 309 355
#     4   9  20  39  65  84 117 167 211 241 291 357
#     4  11  25  40  57  88 129 157 195 247 311 355
#     4  12  26  38  58  88 130 156 198 250 308 350
#     4  10  19  35  64  87 117 152 205 247 291 357
#     4   9  20  39  61  89 118 157 203 246 294 361
#     4   9  20  40  64  86 118 154 207 248 291 362
#     4  10  23  42  59  87 121 164 208 250 293 359
#
# _framework density 22.132666
#
# number of rings (size 3 to 8) (size 9 to 14) (size 15 to 20)
#    0.000    2.133    0.000    1.600    7.467    1.600 
#    0.000    4.667    0.000    0.000    0.000    0.000 
#    0.000    0.000    0.000    0.000    0.000    0.000 
#
# Total GULP energy -83614.372328 kJ/mol
# GULP energy per Si atom -5574.291489 kJ/mol
# Density = 2.208229 g / cm^3
# Si number density = 22.132666 Si / 1000 Ang^3
#
#
#
# Elastic Constant Matrix: (Units=GPa)
#
#
# Indices 1 2 3 4 5 6 
#
# 1 61.6134 20.2756 25.2042 11.5676 -11.6057 2.6874
# 2 20.2756 59.8332 19.5060 14.7452 -1.7065 11.4923
# 3 25.2042 19.5060 67.8885 19.0058 -6.5997 -1.7023
# 4 11.5676 14.7452 19.0058 24.2350 0.6675 -7.8019
# 5 -11.6057 -1.7065 -6.5997 0.6675 33.5978 -0.3744
# 6 2.6874 11.4923 -1.7023 -7.8019 -0.3744 26.8319
#
#
#
# Elastic Compliance Matrix: (Units=1/GPa)
#
#
# Indices 1 2 3 4 5 6 
#
# 1 0.021810 -0.003935 -0.005006 -0.004966 0.006425 -0.002171
# 2 -0.003935 0.026035 -0.001380 -0.018058 -0.000129 -0.016097
# 3 -0.005006 -0.001380 0.021085 -0.013884 0.002601 -0.001570
# 4 -0.004966 -0.018058 -0.013884 0.075050 -0.006527 0.029082
# 5 0.006425 -0.000129 0.002601 -0.006527 0.032596 -0.001866
# 6 -0.002171 -0.016097 -0.001570 0.029082 -0.001866 0.052712
#
#
# Mechanical properties :
#
#
# Convention : Reuss Voigt Hill
#
# Bulk Modulus (GPa) = 20.70894 35.47854 28.09374
# Shear Modulus (GPa) = 18.79504 25.22290 22.00897
#
# Velocity S-wave (km/s) = 2.91726 3.37949 3.15685
# Velocity P-wave (km/s) = 4.55239 5.59399 5.09985
#
# Compressibility (1/GPa) = 0.04828833
#
# Stress axis : x y z
#
# Youngs Moduli (GPa) = 45.84992 38.41006 47.42596
#
# Poissons Ratio (x) = 0.15113 0.23743
# Poissons Ratio (y) = 0.18040 0.06546
# Poissons Ratio (z) = 0.22954 0.05302
#
# Static dielectric constant tensor:
#      x y z
#    x 1.823150 -0.004600 -0.021230 
#    y -0.004600 1.775800 -0.008940 
#    z -0.021230 -0.008940 1.858690 
# 
# From -- ./inp_files/35545.got.cif
#   From: 2010.05.17/outbox.cif.g08.bks.cpg/sg2_18_cif.got.tgz:35545.got - 2010.06.03 11:33:40.
