data_PCOD9085812
_publ_section_title
;
Structure prediction by ZEFSAII (Michael W. Deem and Ramdas Pophale) SiO2 
 PCOD9085812
Probable space group: P -1
;
_chemical_formula_sum "Si O2"
_cell_formula_units_Z 16
_cell_length_a 21.154894
_cell_length_b 19.131342
_cell_length_c 13.607602
_cell_angle_alpha 148.628736
_cell_angle_beta 21.721774
_cell_angle_gamma 158.730250
_cell_volume 736.482895
_symmetry_space_group_name_H-M "P -1"
_symmetry_group_IT_number 2
_symmetry_cell_setting 'triclinic'
loop_
_space_group_symop_operation_xyz
x,y,z
-x,-y,-z
loop_
_atom_site_type_symbol
_atom_site_label
_atom_site_fract_x
_atom_site_fract_y
_atom_site_fract_z
Si Si1 0.885536 0.804369 0.379776
Si Si2 0.604345 0.007178 0.754446
Si Si3 0.092253 0.062729 0.682226
Si Si4 0.793087 0.016261 0.223406
Si Si5 0.913620 0.572325 0.425807
Si Si6 0.310580 0.837281 0.773435
Si Si7 0.724340 0.632648 0.609768
Si Si8 0.734882 0.677425 0.964834
O O1 0.761663 0.786497 0.437235
O O2 0.733082 0.644677 0.494028
O O3 0.000000 0.000000 0.500000
O O4 0.118525 0.848155 0.063303
O O5 0.739183 0.940688 0.500100
O O6 0.414202 0.885428 0.793759
O O7 0.812585 0.236502 0.707088
O O8 0.500000 0.000000 0.000000
O O9 0.878970 0.846449 0.685166
O O10 0.948147 0.087333 0.986081
O O11 0.992082 0.171256 0.202464
O O12 0.559096 0.980587 0.521754
O O13 0.704141 0.814737 0.139503
O O14 0.834948 0.375751 0.308771
O O15 0.873954 0.593984 0.395604
O O16 0.743972 0.577112 0.741594
O O17 0.457162 0.471560 0.851826
#
# Coordination Sequence:
#
# PCOD9085812 Si02
#       8
#     2   2   2   2   2   2   2   2
#     4  10  24  44  64  88 130 182 213 252 331 399
#     4  11  22  39  65  98 131 170 213 278 317 379
#     4  10  21  41  63  91 130 175 215 251 330 390
#     4  11  20  36  65  95 128 170 214 267 330 378
#     4  11  21  36  63 101 133 156 218 275 328 370
#     4  12  23  40  69  99 126 168 221 274 324 376
#     4  10  19  35  63  90 126 169 208 264 316 389
#     4  11  19  37  61 101 133 159 210 277 331 369
#
# _framework density 21.724876999999999
#
# number of rings (size 3 to 8) (size 9 to 14) (size 15 to 20)
#    0.000    1.250    5.000    4.125    0.000    2.500 
#    0.000    0.625    5.500    3.750    0.000    0.000 
#    0.000    0.000    0.000    0.000    0.000    0.000 
#
# Total GULP energy -89360.645317 kJ/mol
# GULP energy per Si atom -5585.040332 kJ/mol
# Density = 2.167543 g / cm^3
# Si number density = 21.724877 Si / 1000 Ang^3
#
#
#
# Elastic Constant Matrix: (Units=GPa)
#
#
# Indices 1 2 3 4 5 6 
#
# 1 71.7520 14.4115 -2.1773 -0.8358 9.6062 -7.5431
# 2 14.4115 55.4101 14.1561 0.1114 -10.6519 7.1853
# 3 -2.1773 14.1561 86.1914 10.9879 8.7665 -3.2839
# 4 -0.8358 0.1114 10.9879 28.5425 -2.6990 5.9106
# 5 9.6062 -10.6519 8.7665 -2.6990 28.1697 -9.3290
# 6 -7.5431 7.1853 -3.2839 5.9106 -9.3290 26.3861
#
#
#
# Elastic Compliance Matrix: (Units=1/GPa)
#
#
# Indices 1 2 3 4 5 6 
#
# 1 0.017097 -0.007408 0.002973 -0.002407 -0.008154 0.004931
# 2 -0.007408 0.024746 -0.006318 0.004588 0.012182 -0.006364
# 3 0.002973 -0.006318 0.014472 -0.006842 -0.007483 0.003258
# 4 -0.002407 0.004588 -0.006842 0.040132 0.005243 -0.009925
# 5 -0.008154 0.012182 -0.007483 0.005243 0.048872 0.009525
# 6 0.004931 -0.006364 0.003258 -0.009925 0.009525 0.047038
#
#
# Mechanical properties :
#
#
# Convention : Reuss Voigt Hill
#
# Bulk Modulus (GPa) = 28.72866 29.57045 29.14956
# Shear Modulus (GPa) = 22.17621 29.08388 25.63004
#
# Velocity S-wave (km/s) = 3.19842 3.66284 3.43848
# Velocity P-wave (km/s) = 5.18579 5.61511 5.40471
#
# Compressibility (1/GPa) = 0.03480844
#
# Stress axis : x y z
#
# Youngs Moduli (GPa) = 58.48916 40.41056 69.09753
#
# Poissons Ratio (x) = 0.29938 -0.20541
# Poissons Ratio (y) = 0.43331 0.43655
# Poissons Ratio (z) = -0.17388 0.25531
#
# Static dielectric constant tensor:
#      x y z
#    x 1.843530 -0.005560 0.022370 
#    y -0.005560 1.819050 -0.038230 
#    z 0.022370 -0.038230 1.814080 
# 
# From -- ./inp_files/543227.got.cif
#   From: 2010.05.17/outbox.cif.g08.bks.cpg/sg2_272_cif.got.tgz:543227.got - 2010.06.03 11:33:40.
