data_PCOD9085495
_publ_section_title
;
Structure prediction by ZEFSAII (Michael W. Deem and Ramdas Pophale) SiO2 
 PCOD9085495
Probable space group: P -1
;
_chemical_formula_sum "Si O2"
_cell_formula_units_Z 14
_cell_length_a 7.266743
_cell_length_b 12.697433
_cell_length_c 11.129835
_cell_angle_alpha 143.576831
_cell_angle_beta 98.777483
_cell_angle_gamma 70.676185
_cell_volume 563.423382
_symmetry_space_group_name_H-M "P -1"
_symmetry_group_IT_number 2
_symmetry_cell_setting 'triclinic'
loop_
_space_group_symop_operation_xyz
x,y,z
-x,-y,-z
loop_
_atom_site_type_symbol
_atom_site_label
_atom_site_fract_x
_atom_site_fract_y
_atom_site_fract_z
Si Si1 0.920027 0.747666 0.693510
Si Si2 0.212163 0.853909 0.077961
Si Si3 0.632566 0.466267 0.363623
Si Si4 0.805357 0.770996 0.960791
Si Si5 0.798703 0.975406 0.509205
Si Si6 0.050187 0.639189 0.349203
Si Si7 0.623167 0.155091 0.422239
O O1 0.143042 0.642364 0.668734
O O2 0.941950 0.651173 0.476968
O O3 0.859238 0.967134 0.854172
O O4 0.784385 0.742475 0.789555
O O5 0.259514 0.921682 0.273962
O O6 0.020659 0.792644 0.022548
O O7 0.384505 0.684769 0.875142
O O8 0.500000 0.500000 0.500000
O O9 0.563686 0.668447 0.476482
O O10 0.654906 0.972829 0.174774
O O11 0.825585 0.580605 0.859511
O O12 0.634772 0.072904 0.482318
O O13 0.000000 0.000000 0.500000
O O14 0.881852 0.750359 0.338566
O O15 0.197117 0.759559 0.491189
#
# Coordination Sequence:
#
# PCOD9085495 Si02
#       7
#     2   2   2   2   2   2   2
#     4  10  19  36  57  83 109 141 187 225 271 328
#     4  10  19  35  61  81 106 151 182 222 274 319
#     4  11  19  32  59  80 113 147 175 223 280 326
#     4  11  19  33  59  82 107 145 182 226 275 318
#     4   9  18  37  56  82 108 139 191 228 258 322
#     4  10  20  34  57  83 107 141 189 225 268 320
#     4  11  21  37  55  80 116 141 180 227 271 323
#
# _framework density 24.848098
#
# number of rings (size 3 to 8) (size 9 to 14) (size 15 to 20)
#    0.000    1.714    5.714    3.000    0.000    1.143 
#    0.000    0.714   12.571    3.429    0.000    0.000 
#    0.000    0.000    0.000    0.000    0.000    0.000 
#
# Total GULP energy -78264.115160 kJ/mol
# GULP energy per Si atom -5590.293940 kJ/mol
# Density = 2.479154 g / cm^3
# Si number density = 24.848098 Si / 1000 Ang^3
#
#
#
# Elastic Constant Matrix: (Units=GPa)
#
#
# Indices 1 2 3 4 5 6 
#
# 1 71.3808 39.1249 29.9233 6.4427 -4.9405 -9.1618
# 2 39.1249 215.3727 87.6257 27.7338 -16.2601 -11.8435
# 3 29.9233 87.6257 189.1803 42.3813 -24.1202 4.3069
# 4 6.4427 27.7338 42.3813 53.1583 3.0962 -3.5412
# 5 -4.9405 -16.2601 -24.1202 3.0962 31.8512 9.1742
# 6 -9.1618 -11.8435 4.3069 -3.5412 9.1742 24.3419
#
#
#
# Elastic Compliance Matrix: (Units=1/GPa)
#
#
# Indices 1 2 3 4 5 6 
#
# 1 0.016768 -0.002023 -0.002582 0.001698 -0.002568 0.006999
# 2 -0.002023 0.006263 -0.002332 -0.001038 0.000543 0.002343
# 3 -0.002582 -0.002332 0.009722 -0.007284 0.008846 -0.008221
# 4 0.001698 -0.001038 -0.007284 0.026224 -0.011039 0.009398
# 5 -0.002568 0.000543 0.008846 -0.011039 0.045054 -0.020854
# 6 0.006999 0.002343 -0.008221 0.009398 -0.020854 0.055536
#
#
# Mechanical properties :
#
#
# Convention : Reuss Voigt Hill
#
# Bulk Modulus (GPa) = 52.97435 87.69798 70.33617
# Shear Modulus (GPa) = 27.81874 43.15429 35.48652
#
# Velocity S-wave (km/s) = 3.34960 4.17192 3.78317
# Velocity P-wave (km/s) = 6.02705 7.65355 6.88848
#
# Compressibility (1/GPa) = 0.01887706
#
# Stress axis : x y z
#
# Youngs Moduli (GPa) = 59.63709 159.66344 102.86424
#
# Poissons Ratio (x) = 0.32302 0.26563
# Poissons Ratio (y) = 0.12066 0.23992
# Poissons Ratio (z) = 0.15400 0.37240
#
# Static dielectric constant tensor:
#      x y z
#    x 2.155250 -0.023150 0.085590 
#    y -0.023150 1.946190 -0.011180 
#    z 0.085590 -0.011180 2.000270 
# 
# From -- ./inp_files/391612.got.cif
#   From: 2010.05.17/outbox.cif.g08.bks.cpg/sg2_196_cif.got.tgz:391612.got - 2010.06.03 11:33:40.
