data_PCOD9085053
_publ_section_title
;
Structure prediction by ZEFSAII (Michael W. Deem and Ramdas Pophale) SiO2 
 PCOD9085053
Probable space group: P -1
;
_chemical_formula_sum "Si O2"
_cell_formula_units_Z 14
_cell_length_a 7.630634
_cell_length_b 27.504648
_cell_length_c 14.434480
_cell_angle_alpha 22.130643
_cell_angle_beta 134.354503
_cell_angle_gamma 144.666264
_cell_volume 637.375441
_symmetry_space_group_name_H-M "P -1"
_symmetry_group_IT_number 2
_symmetry_cell_setting 'triclinic'
loop_
_space_group_symop_operation_xyz
x,y,z
-x,-y,-z
loop_
_atom_site_type_symbol
_atom_site_label
_atom_site_fract_x
_atom_site_fract_y
_atom_site_fract_z
Si Si1 0.430915 0.509424 0.316434
Si Si2 0.862746 0.502561 0.162607
Si Si3 0.174675 0.223309 0.871225
Si Si4 0.498957 0.441477 0.950994
Si Si5 0.326401 0.989505 0.362523
Si Si6 0.332693 0.123445 0.659648
Si Si7 0.650892 0.899069 0.510176
O O1 0.298604 0.348164 0.612365
O O2 0.755326 0.668406 0.201715
O O3 0.190755 0.547159 0.180698
O O4 0.431662 0.472732 0.273711
O O5 0.729836 0.515216 0.994243
O O6 0.645401 0.310594 0.458416
O O7 0.816963 0.599082 0.051608
O O8 0.374853 0.157285 0.067594
O O9 0.821297 0.049601 0.037852
O O10 0.486816 0.287198 0.193920
O O11 0.452618 0.942953 0.409546
O O12 0.950620 0.865145 0.456454
O O13 0.500000 0.000000 0.500000
O O14 0.342887 0.080505 0.633268
O O15 0.000000 0.000000 0.500000
#
# Coordination Sequence:
#
# PCOD9085053 Si02
#       7
#     2   2   2   2   2   2   2
#     4  11  21  43  61  87 125 163 190 254 302 358
#     4  10  23  39  63  88 123 157 205 247 296 352
#     4   9  23  41  61  90 123 156 205 240 309 357
#     4  10  23  37  60  94 118 154 207 243 302 362
#     4  10  19  35  58  86 121 150 189 258 287 341
#     4   9  21  39  54  91 116 153 203 242 291 356
#     4  11  19  32  62  90 113 154 198 246 303 340
#
# _framework density 21.965076
#
# number of rings (size 3 to 8) (size 9 to 14) (size 15 to 20)
#    0.857    1.143    1.429    2.143    2.000    7.429 
#    2.571    2.143    0.000    0.000    0.000    0.000 
#    0.000    0.000    0.000    0.000    0.000    0.000 
#
# Total GULP energy -78067.634223 kJ/mol
# GULP energy per Si atom -5576.259587 kJ/mol
# Density = 2.191508 g / cm^3
# Si number density = 21.965076 Si / 1000 Ang^3
#
#
#
# Elastic Constant Matrix: (Units=GPa)
#
#
# Indices 1 2 3 4 5 6 
#
# 1 136.9898 22.4161 20.0888 5.1262 6.7531 -14.2067
# 2 22.4161 33.7117 21.3742 -2.0863 -3.6462 -0.0134
# 3 20.0888 21.3742 110.5420 3.8105 -3.0000 -26.5640
# 4 5.1262 -2.0863 3.8105 30.1196 -0.9836 -4.6834
# 5 6.7531 -3.6462 -3.0000 -0.9836 26.3494 -0.8969
# 6 -14.2067 -0.0134 -26.5640 -4.6834 -0.8969 25.1482
#
#
#
# Elastic Compliance Matrix: (Units=1/GPa)
#
#
# Indices 1 2 3 4 5 6 
#
# 1 0.009136 -0.007210 0.001139 -0.001366 -0.003056 0.005997
# 2 -0.007210 0.041673 -0.010007 0.003440 0.006135 -0.013761
# 3 0.001139 -0.010007 0.014667 -0.000220 0.000533 0.016109
# 4 -0.001366 0.003440 -0.000220 0.034634 0.002282 0.005529
# 5 -0.003056 0.006135 0.000533 0.002282 0.039753 0.000683
# 6 0.005997 -0.013761 0.016109 0.005529 0.000683 0.061215
#
#
# Mechanical properties :
#
#
# Convention : Reuss Voigt Hill
#
# Bulk Modulus (GPa) = 30.01044 45.44466 37.72755
# Shear Modulus (GPa) = 20.46325 30.81440 25.63883
#
# Velocity S-wave (km/s) = 3.05557 3.74957 3.42022
# Velocity P-wave (km/s) = 5.11284 6.28332 5.72806
#
# Compressibility (1/GPa) = 0.03332173
#
# Stress axis : x y z
#
# Youngs Moduli (GPa) = 109.45355 23.99645 68.17828
#
# Poissons Ratio (x) = 0.17301 -0.07766
# Poissons Ratio (y) = 0.78916 0.68223
# Poissons Ratio (z) = -0.12468 0.24012
#
# Static dielectric constant tensor:
#      x y z
#    x 1.790280 0.024940 -0.008830 
#    y 0.024940 1.730220 -0.027390 
#    z -0.008830 -0.027390 1.857020 
# 
# From -- ./inp_files/509093.got.cif
#   From: 2010.05.17/outbox.cif.g08.bks.cpg/sg2_255_cif.got.tgz:509093.got - 2010.06.03 11:33:40.
