data_PCOD9085562
_publ_section_title
;
Structure prediction by ZEFSAII (Michael W. Deem and Ramdas Pophale) SiO2 
 PCOD9085562
Probable space group: P -1
;
_chemical_formula_sum "Si O2"
_cell_formula_units_Z 16
_cell_length_a 18.499500
_cell_length_b 12.751975
_cell_length_c 12.093325
_cell_angle_alpha 54.431578
_cell_angle_beta 19.561342
_cell_angle_gamma 55.825941
_cell_volume 776.000815
_symmetry_space_group_name_H-M "P -1"
_symmetry_group_IT_number 2
_symmetry_cell_setting 'triclinic'
loop_
_space_group_symop_operation_xyz
x,y,z
-x,-y,-z
loop_
_atom_site_type_symbol
_atom_site_label
_atom_site_fract_x
_atom_site_fract_y
_atom_site_fract_z
Si Si1 0.849728 0.629534 0.402118
Si Si2 0.253981 0.466031 0.168224
Si Si3 0.279767 0.547172 0.725641
Si Si4 0.549190 0.084485 0.482512
Si Si5 0.516648 0.227531 0.829424
Si Si6 0.364364 0.355474 0.538169
Si Si7 0.482947 0.019727 0.162935
Si Si8 0.968299 0.886605 0.200961
O O1 0.713792 0.556139 0.733562
O O2 0.737554 0.647520 0.434584
O O3 0.896708 0.763252 0.312837
O O4 0.082100 0.559088 0.087067
O O5 0.000000 0.500000 0.500000
O O6 0.336351 0.334691 0.066340
O O7 0.406248 0.577160 0.842006
O O8 0.500000 0.500000 0.500000
O O9 0.315953 0.685223 0.530574
O O10 0.233965 0.446265 0.757072
O O11 0.396099 0.212724 0.627157
O O12 0.518808 0.004279 0.688644
O O13 0.500000 0.000000 0.500000
O O14 0.792260 0.132467 0.085177
O O15 0.452331 0.115981 0.905190
O O16 0.600601 0.141350 0.866898
O O17 0.231861 0.060892 0.468747
O O18 0.000000 0.000000 0.000000
#
# Coordination Sequence:
#
# PCOD9085562 Si02
#       8
#     2   2   2   2   2   2   2   2
#     4  12  22  40  63  92 130 165 217 269 320 388
#     4  11  23  40  65  95 126 171 216 269 322 387
#     4  11  22  40  64  92 127 171 220 263 322 385
#     4  11  23  39  63  94 129 164 215 267 323 392
#     4  10  21  37  64  94 126 163 219 256 325 380
#     4  11  24  39  61  94 128 167 213 268 332 380
#     4  10  20  38  63  90 126 170 211 266 320 385
#     4  10  19  35  61  88 117 165 212 256 318 374
#
# _framework density 20.618535000000001
#
# number of rings (size 3 to 8) (size 9 to 14) (size 15 to 20)
#    0.000    1.250    1.250    7.500    0.000    0.000 
#    0.000    0.000    0.000    5.250    0.000    0.000 
#    0.000    0.000    0.000    0.000    0.000    0.000 
#
# Total GULP energy -89301.539104 kJ/mol
# GULP energy per Si atom -5581.346194 kJ/mol
# Density = 2.057161 g / cm^3
# Si number density = 20.618535 Si / 1000 Ang^3
#
#
#
# Elastic Constant Matrix: (Units=GPa)
#
#
# Indices 1 2 3 4 5 6 
#
# 1 112.7221 35.8283 18.6470 -0.9183 8.8655 8.8634
# 2 35.8283 122.1077 18.5037 -4.6116 7.9961 9.8248
# 3 18.6470 18.5037 47.7613 10.2566 13.6285 14.0074
# 4 -0.9183 -4.6116 10.2566 31.2846 -3.3194 9.8024
# 5 8.8655 7.9961 13.6285 -3.3194 40.5820 -0.9657
# 6 8.8634 9.8248 14.0074 9.8024 -0.9657 32.7984
#
#
#
# Elastic Compliance Matrix: (Units=1/GPa)
#
#
# Indices 1 2 3 4 5 6 
#
# 1 0.010255 -0.002400 -0.002729 0.001152 -0.000787 -0.001254
# 2 -0.002400 0.009586 -0.002752 0.002812 -0.000256 -0.001896
# 3 -0.002729 -0.002752 0.030477 -0.008672 -0.010024 -0.009158
# 4 0.001152 0.002812 -0.008672 0.038557 0.005050 -0.008825
# 5 -0.000787 -0.000256 -0.010024 0.005050 0.028736 0.003907
# 6 -0.001254 -0.001896 -0.009158 -0.008825 0.003907 0.038060
#
#
# Mechanical properties :
#
#
# Convention : Reuss Voigt Hill
#
# Bulk Modulus (GPa) = 28.93727 47.61655 38.27691
# Shear Modulus (GPa) = 27.32955 34.90713 31.11834
#
# Velocity S-wave (km/s) = 3.64467 4.11907 3.88911
# Velocity P-wave (km/s) = 5.63707 6.76509 6.22668
#
# Compressibility (1/GPa) = 0.03455751
#
# Stress axis : x y z
#
# Youngs Moduli (GPa) = 97.50912 104.31854 32.81109
#
# Poissons Ratio (x) = 0.25032 0.08955
# Poissons Ratio (y) = 0.23398 0.09029
# Poissons Ratio (z) = 0.26613 0.28707
#
# Static dielectric constant tensor:
#      x y z
#    x 1.763950 -0.026100 0.003680 
#    y -0.026100 1.734460 0.007540 
#    z 0.003680 0.007540 1.788810 
# 
# From -- ./inp_files/189191.got.cif
#   From: 2010.05.17/outbox.cif.g08.bks.cpg/sg2_95_cif.got.tgz:189191.got - 2010.06.03 11:33:40.
