data_PCOD9085939
_publ_section_title
;
Structure prediction by ZEFSAII (Michael W. Deem and Ramdas Pophale) SiO2 
 PCOD9085939
Probable space group: P -1
;
_chemical_formula_sum "Si O2"
_cell_formula_units_Z 14
_cell_length_a 20.740187
_cell_length_b 21.213915
_cell_length_c 9.841752
_cell_angle_alpha 25.985730
_cell_angle_beta 33.907181
_cell_angle_gamma 19.324371
_cell_volume 622.801963
_symmetry_space_group_name_H-M "P -1"
_symmetry_group_IT_number 2
_symmetry_cell_setting 'triclinic'
loop_
_space_group_symop_operation_xyz
x,y,z
-x,-y,-z
loop_
_atom_site_type_symbol
_atom_site_label
_atom_site_fract_x
_atom_site_fract_y
_atom_site_fract_z
Si Si1 0.262109 0.273247 0.738647
Si Si2 0.287377 0.173556 0.197867
Si Si3 0.551938 0.374760 0.508001
Si Si4 0.151351 0.635949 0.606378
Si Si5 0.996150 0.790563 0.291847
Si Si6 0.903471 0.196705 0.170063
Si Si7 0.089440 0.196606 0.036775
O O1 0.181477 0.510078 0.459075
O O2 0.484489 0.058296 0.717938
O O3 0.264432 0.187082 0.047619
O O4 0.133453 0.313084 0.780991
O O5 0.175536 0.153680 0.500431
O O6 0.201775 0.415030 0.921406
O O7 0.500000 0.500000 0.500000
O O8 0.354363 0.514400 0.515288
O O9 0.682013 0.362368 0.223241
O O10 0.703181 0.087995 0.811511
O O11 0.048884 0.791703 0.346177
O O12 0.005480 0.782205 0.705356
O O13 0.975975 0.923063 0.948693
O O14 0.937763 0.317321 0.947083
O O15 0.000000 0.000000 0.500000
#
# Coordination Sequence:
#
# PCOD9085939 Si02
#       7
#     2   2   2   2   2   2   2
#     4  10  19  35  65 100 129 161 199 257 325 391
#     4  10  19  36  62 102 135 154 195 263 333 376
#     4  11  23  41  65  87 124 175 216 255 311 371
#     4  11  20  37  70  95 125 166 206 261 322 377
#     4  11  22  40  63  99 131 159 210 266 316 375
#     4  10  25  45  61  84 131 175 215 262 309 369
#     4  11  20  40  66  91 124 169 207 251 324 383
#
# _framework density 22.479057000000001
#
# number of rings (size 3 to 8) (size 9 to 14) (size 15 to 20)
#    0.000    1.429    5.714    0.857    0.000    1.143 
#    5.143    3.571    0.000    0.000    0.000    0.000 
#    0.000    0.000    0.000    0.000    0.000    0.000 
#
# Total GULP energy -78234.668748 kJ/mol
# GULP energy per Si atom -5588.190625 kJ/mol
# Density = 2.242789 g / cm^3
# Si number density = 22.479057 Si / 1000 Ang^3
#
#
#
# Elastic Constant Matrix: (Units=GPa)
#
#
# Indices 1 2 3 4 5 6 
#
# 1 145.1214 22.1697 45.9138 33.5608 -9.7066 -3.4889
# 2 22.1697 96.3616 38.1988 25.3516 -5.1186 4.8324
# 3 45.9138 38.1988 119.0791 29.4191 3.4597 -8.8499
# 4 33.5608 25.3516 29.4191 32.4837 4.5989 -9.8310
# 5 -9.7066 -5.1186 3.4597 4.5989 36.2710 11.1002
# 6 -3.4889 4.8324 -8.8499 -9.8310 11.1002 39.8939
#
#
#
# Elastic Compliance Matrix: (Units=1/GPa)
#
#
# Indices 1 2 3 4 5 6 
#
# 1 0.010627 0.002568 -0.002154 -0.013504 0.006667 -0.005042
# 2 0.002568 0.016101 -0.003020 -0.016210 0.007934 -0.008598
# 3 -0.002154 -0.003020 0.011660 -0.005038 -0.002123 0.002113
# 4 -0.013504 -0.016210 -0.005038 0.072141 -0.021759 0.023497
# 5 0.006667 0.007934 -0.002123 -0.021759 0.038625 -0.016958
# 6 -0.005042 -0.008598 0.002113 0.023497 -0.016958 0.036645
#
#
# Mechanical properties :
#
#
# Convention : Reuss Voigt Hill
#
# Bulk Modulus (GPa) = 30.14058 63.68073 46.91066
# Shear Modulus (GPa) = 24.74389 38.68171 31.71280
#
# Velocity S-wave (km/s) = 3.32136 4.15274 3.76010
# Velocity P-wave (km/s) = 5.30528 7.16827 6.30595
#
# Compressibility (1/GPa) = 0.03317786
#
# Stress axis : x y z
#
# Youngs Moduli (GPa) = 94.09622 62.10751 85.75996
#
# Poissons Ratio (x) = -0.15952 0.18472
# Poissons Ratio (y) = -0.24168 0.25901
# Poissons Ratio (z) = 0.20267 0.18757
#
# Static dielectric constant tensor:
#      x y z
#    x 1.852140 0.004630 -0.015270 
#    y 0.004630 1.814330 -0.035470 
#    z -0.015270 -0.035470 1.929220 
# 
# From -- ./inp_files/349643.got.cif
#   From: 2010.05.17/outbox.cif.g08.bks.cpg/sg2_175_cif.got.tgz:349643.got - 2010.06.03 11:33:40.
