data_PCOD9085751
_publ_section_title
;
Structure prediction by ZEFSAII (Michael W. Deem and Ramdas Pophale) SiO2 
 PCOD9085751
Probable space group: P -1
;
_chemical_formula_sum "Si O2"
_cell_formula_units_Z 16
_cell_length_a 11.605328
_cell_length_b 9.011867
_cell_length_c 11.602365
_cell_angle_alpha 40.206706
_cell_angle_beta 65.542937
_cell_angle_gamma 53.580844
_cell_volume 628.528980
_symmetry_space_group_name_H-M "P -1"
_symmetry_group_IT_number 2
_symmetry_cell_setting 'triclinic'
loop_
_space_group_symop_operation_xyz
x,y,z
-x,-y,-z
loop_
_atom_site_type_symbol
_atom_site_label
_atom_site_fract_x
_atom_site_fract_y
_atom_site_fract_z
Si Si1 0.047133 0.105609 0.776939
Si Si2 0.413142 0.697889 0.644472
Si Si3 0.857406 0.400943 0.235377
Si Si4 0.516862 0.162187 0.000798
Si Si5 0.040954 0.365016 0.382222
Si Si6 0.637175 0.212535 0.135031
Si Si7 0.690458 0.924442 0.722989
Si Si8 0.131208 0.094926 0.139839
O O1 0.067743 0.218115 0.579166
O O2 0.013702 0.333836 0.746107
O O3 0.197052 0.849006 0.893811
O O4 0.908394 0.065154 0.839633
O O5 0.272671 0.661467 0.693919
O O6 0.391203 0.846229 0.687185
O O7 0.428822 0.850100 0.439612
O O8 0.530007 0.402139 0.797146
O O9 0.926564 0.320654 0.380545
O O10 0.980745 0.252369 0.177643
O O11 0.827127 0.698301 0.057148
O O12 0.629250 0.048636 0.126083
O O13 0.370574 0.243749 0.086144
O O14 0.500000 0.000000 0.000000
O O15 0.182275 0.248916 0.313495
O O16 0.500000 0.500000 0.000000
O O17 0.751919 0.037791 0.729547
#
# Coordination Sequence:
#
# PCOD9085751 Si02
#       8
#     2   2   2   2   2   2   2   2
#     4  11  21  41  63 106 145 174 231 287 355 402
#     4  11  21  43  70  98 137 180 234 284 342 417
#     4  10  19  35  62  96 138 179 214 275 349 412
#     4  11  27  47  70  98 138 184 241 292 335 416
#     4  10  23  37  66 103 142 180 219 295 353 418
#     4  10  23  42  70  95 136 195 229 284 338 412
#     4  11  22  44  73 104 133 187 231 279 365 417
#     4  10  20  35  65 101 133 177 225 281 343 420
#
# _framework density 25.456264999999998
#
# number of rings (size 3 to 8) (size 9 to 14) (size 15 to 20)
#    0.000    1.500    3.750    0.750    1.750    3.500 
#    0.000    3.750    0.000    0.000    0.000    0.000 
#    0.000    0.000    0.000    0.000    0.000    0.000 
#
# Total GULP energy -89439.905270 kJ/mol
# GULP energy per Si atom -5589.994079 kJ/mol
# Density = 2.539832 g / cm^3
# Si number density = 25.456265 Si / 1000 Ang^3
#
#
#
# Elastic Constant Matrix: (Units=GPa)
#
#
# Indices 1 2 3 4 5 6 
#
# 1 119.8127 39.5558 28.3945 10.2272 20.0834 23.5931
# 2 39.5558 105.8803 42.5899 13.9077 0.2820 24.1647
# 3 28.3945 42.5899 114.3463 6.7820 16.4797 0.6407
# 4 10.2272 13.9077 6.7820 29.0079 7.5787 -0.9956
# 5 20.0834 0.2820 16.4797 7.5787 37.3405 13.3409
# 6 23.5931 24.1647 0.6407 -0.9956 13.3409 42.6178
#
#
#
# Elastic Compliance Matrix: (Units=1/GPa)
#
#
# Indices 1 2 3 4 5 6 
#
# 1 0.010914 -0.002723 -0.001027 -0.001385 -0.003943 -0.003280
# 2 -0.002723 0.016657 -0.006382 -0.008490 0.009853 -0.011124
# 3 -0.001027 -0.006382 0.012286 0.002784 -0.007701 0.006478
# 4 -0.001385 -0.008490 0.002784 0.042061 -0.012708 0.010499
# 5 -0.003943 0.009853 -0.007701 -0.012708 0.040630 -0.016303
# 6 -0.003280 -0.011124 0.006478 0.010499 -0.016303 0.036839
#
#
# Mechanical properties :
#
#
# Convention : Reuss Voigt Hill
#
# Bulk Modulus (GPa) = 51.04065 62.34662 56.69363
# Shear Modulus (GPa) = 26.85545 37.09318 31.97432
#
# Velocity S-wave (km/s) = 3.25155 3.82138 3.54792
# Velocity P-wave (km/s) = 5.84727 6.63441 6.25324
#
# Compressibility (1/GPa) = 0.01959223
#
# Stress axis : x y z
#
# Youngs Moduli (GPa) = 91.62609 60.03586 81.39378
#
# Poissons Ratio (x) = 0.16349 0.08360
# Poissons Ratio (y) = 0.24951 0.51945
# Poissons Ratio (z) = 0.09411 0.38315
#
# Static dielectric constant tensor:
#      x y z
#    x 2.004050 -0.007480 0.037810 
#    y -0.007480 2.063040 -0.057730 
#    z 0.037810 -0.057730 2.029020 
# 
# From -- ./inp_files/416303.got.cif
#   From: 2010.05.17/outbox.cif.g08.bks.cpg/sg2_209_cif.got.tgz:416303.got - 2010.06.03 11:33:40.
