data_PCOD9085621
_publ_section_title
;
Structure prediction by ZEFSAII (Michael W. Deem and Ramdas Pophale) SiO2 
 PCOD9085621
Probable space group: P -1
;
_chemical_formula_sum "Si O2"
_cell_formula_units_Z 15
_cell_length_a 13.817102
_cell_length_b 9.169113
_cell_length_c 17.383239
_cell_angle_alpha 122.433803
_cell_angle_beta 21.977118
_cell_angle_gamma 112.398238
_cell_volume 646.737176
_symmetry_space_group_name_H-M "P -1"
_symmetry_group_IT_number 2
_symmetry_cell_setting 'triclinic'
loop_
_space_group_symop_operation_xyz
x,y,z
-x,-y,-z
loop_
_atom_site_type_symbol
_atom_site_label
_atom_site_fract_x
_atom_site_fract_y
_atom_site_fract_z
Si Si1 0.822271 0.300237 0.670219
Si Si2 0.028126 0.922190 0.352213
Si Si3 0.336750 0.805583 0.695852
Si Si4 0.195372 0.384256 0.135138
Si Si5 0.927239 0.476990 0.193477
Si Si6 0.500000 0.000000 0.500000
Si Si7 0.610144 0.024356 0.148357
Si Si8 0.920647 0.233395 0.900829
O O1 0.909605 0.472077 0.676670
O O2 0.796902 0.209678 0.746537
O O3 0.027838 0.129532 0.421245
O O4 0.514615 0.367753 0.880717
O O5 0.083605 0.840278 0.203579
O O6 0.711444 0.944382 0.611189
O O7 0.628640 0.641729 0.454064
O O8 0.111870 0.712362 0.853017
O O9 0.343481 0.877028 0.625433
O O10 0.317088 0.972569 0.814629
O O11 0.029392 0.459165 0.200566
O O12 0.216244 0.174139 0.073078
O O13 0.113271 0.551131 0.021882
O O14 0.788354 0.886217 0.306096
O O15 0.677781 0.193013 0.111406
#
# Coordination Sequence:
#
# PCOD9085621 Si02
#       8
#     2   2   2   2   2   1   2   2
#     4   9  19  36  68  83 119 166 203 254 319 339
#     4  10  19  42  64  88 120 164 206 255 301 368
#     4  10  21  39  62  91 122 170 199 252 302 369
#     4  10  19  35  61  94 116 159 203 261 303 363
#     4  10  20  38  62  84 130 159 206 252 303 357
#     4  10  20  38  60  92 124 156 204 244 302 362
#     4  11  22  38  65  90 122 164 205 244 315 360
#     4  11  22  38  63  90 125 166 202 253 298 369
#
# _framework density 23.193346999999999
#
# number of rings (size 3 to 8) (size 9 to 14) (size 15 to 20)
#    0.000    1.867    4.000    0.800    0.000    2.667 
#    0.000    9.333    8.800    0.000    0.000    0.000 
#    0.000    0.000    0.000    0.000    0.000    0.000 
#
# Total GULP energy -83549.431738 kJ/mol
# GULP energy per Si atom -5569.962116 kJ/mol
# Density = 2.314056 g / cm^3
# Si number density = 23.193347 Si / 1000 Ang^3
#
#
#
# Elastic Constant Matrix: (Units=GPa)
#
#
# Indices 1 2 3 4 5 6 
#
# 1 99.5601 27.3443 5.1289 6.9574 -15.8725 -1.3141
# 2 27.3443 116.5720 17.2554 -8.8017 -7.2734 8.4494
# 3 5.1289 17.2554 25.9114 7.3592 -2.5564 -6.0977
# 4 6.9574 -8.8017 7.3592 29.2412 -3.2312 2.3027
# 5 -15.8725 -7.2734 -2.5564 -3.2312 19.5655 9.6144
# 6 -1.3141 8.4494 -6.0977 2.3027 9.6144 43.6999
#
#
#
# Elastic Compliance Matrix: (Units=1/GPa)
#
#
# Indices 1 2 3 4 5 6 
#
# 1 0.012359 -0.002597 0.000785 -0.002843 0.009123 -0.000874
# 2 -0.002597 0.012032 -0.010505 0.007851 0.004928 -0.005368
# 3 0.000785 -0.010505 0.052777 -0.018087 -0.004997 0.011472
# 4 -0.002843 0.007851 -0.018087 0.043527 0.009634 -0.008540
# 5 0.009123 0.004928 -0.004997 0.009634 0.069747 -0.017228
# 6 -0.000874 -0.005368 0.011472 -0.008540 -0.017228 0.029736
#
#
# Mechanical properties :
#
#
# Convention : Reuss Voigt Hill
#
# Bulk Modulus (GPa) = 19.03564 37.94452 28.49008
# Shear Modulus (GPa) = 19.06038 31.32232 25.19135
#
# Velocity S-wave (km/s) = 2.86982 3.67888 3.29925
# Velocity P-wave (km/s) = 4.38251 5.86866 5.17917
#
# Compressibility (1/GPa) = 0.05253303
#
# Stress axis : x y z
#
# Youngs Moduli (GPa) = 80.91491 83.11169 18.94755
#
# Poissons Ratio (x) = 0.21587 -0.01488
# Poissons Ratio (y) = 0.21016 0.19905
# Poissons Ratio (z) = -0.06354 0.87312
#
# Static dielectric constant tensor:
#      x y z
#    x 1.877410 0.037560 -0.001810 
#    y 0.037560 1.912320 0.015140 
#    z -0.001810 0.015140 1.915280 
# 
# From -- ./inp_files/325306.got.cif
#   From: 2010.05.17/outbox.cif.g08.bks.cpg/sg2_163_cif.got.tgz:325306.got - 2010.06.03 11:33:40.
