data_PCOD9085639
_publ_section_title
;
Structure prediction by ZEFSAII (Michael W. Deem and Ramdas Pophale) SiO2 
 PCOD9085639
Probable space group: P -1
;
_chemical_formula_sum "Si O2"
_cell_formula_units_Z 16
_cell_length_a 11.947208
_cell_length_b 9.323995
_cell_length_c 10.651918
_cell_angle_alpha 63.387941
_cell_angle_beta 78.355052
_cell_angle_gamma 129.431194
_cell_volume 581.699255
_symmetry_space_group_name_H-M "P -1"
_symmetry_group_IT_number 2
_symmetry_cell_setting 'triclinic'
loop_
_space_group_symop_operation_xyz
x,y,z
-x,-y,-z
loop_
_atom_site_type_symbol
_atom_site_label
_atom_site_fract_x
_atom_site_fract_y
_atom_site_fract_z
Si Si1 0.100784 0.361754 0.675296
Si Si2 0.347814 0.635295 0.153993
Si Si3 0.637384 0.046014 0.691708
Si Si4 0.312909 0.140896 0.905928
Si Si5 0.622062 0.677376 0.773960
Si Si6 0.015852 0.690442 0.762637
Si Si7 0.739552 0.790662 0.363607
Si Si8 0.234962 0.612838 0.808453
O O1 0.193643 0.620619 0.480352
O O2 0.153917 0.256793 0.638653
O O3 0.204951 0.471733 0.746837
O O4 0.861452 0.099725 0.859979
O O5 0.258959 0.352067 0.258253
O O6 0.146047 0.505688 0.237203
O O7 0.510059 0.877830 0.915137
O O8 0.492274 0.215658 0.828092
O O9 0.713238 0.958576 0.664845
O O10 0.469359 0.900718 0.682470
O O11 0.437355 0.441280 0.807645
O O12 0.201676 0.039838 0.840409
O O13 0.500000 0.500000 0.000000
O O14 0.128556 0.655243 0.775011
O O15 0.188659 0.027945 0.602401
O O16 0.870787 0.558767 0.968268
O O17 0.500000 0.500000 0.500000
#
# Coordination Sequence:
#
# PCOD9085639 Si02
#       8
#     2   2   2   2   2   2   2   2
#     4  12  24  37  68 104 134 166 227 280 338 377
#     4   8  20  39  67  90 129 184 218 261 327 411
#     4  10  19  35  61  97 130 165 218 278 318 389
#     4  10  22  41  67  97 129 176 223 271 331 398
#     4   8  17  35  64  90 129 172 221 256 325 393
#     4  10  21  41  68  91 132 179 226 261 336 395
#     4  12  26  42  66 100 139 172 220 288 334 386
#     4  10  21  38  64  96 130 178 223 268 322 403
#
# _framework density 27.505621999999999
#
# number of rings (size 3 to 8) (size 9 to 14) (size 15 to 20)
#    0.750    1.250    1.250    2.250    5.250    1.500 
#    0.000    1.250    2.750    0.000    0.000    0.000 
#    0.000    0.000    0.000    0.000    0.000    0.000 
#
# Total GULP energy -89527.568957 kJ/mol
# GULP energy per Si atom -5595.473060 kJ/mol
# Density = 2.744302 g / cm^3
# Si number density = 27.505622 Si / 1000 Ang^3
#
#
#
# Elastic Constant Matrix: (Units=GPa)
#
#
# Indices 1 2 3 4 5 6 
#
# 1 134.8285 20.1591 47.9884 -22.3525 9.5708 1.7870
# 2 20.1591 90.1435 19.1999 -7.4131 8.4247 -0.9020
# 3 47.9884 19.1999 143.8357 -22.0826 -9.3159 1.7400
# 4 -22.3525 -7.4131 -22.0826 41.5871 4.3337 4.9098
# 5 9.5708 8.4247 -9.3159 4.3337 37.4698 -3.6878
# 6 1.7870 -0.9020 1.7400 4.9098 -3.6878 40.5952
#
#
#
# Elastic Compliance Matrix: (Units=1/GPa)
#
#
# Indices 1 2 3 4 5 6 
#
# 1 0.009401 -0.000910 -0.002610 0.003993 -0.003417 -0.001116
# 2 -0.000910 0.011948 -0.001285 0.001270 -0.002926 -0.000059
# 3 -0.002610 -0.001285 0.008589 0.002685 0.002745 -0.000357
# 4 0.003993 0.001270 0.002685 0.028789 -0.004375 -0.004142
# 5 -0.003417 -0.002926 0.002745 -0.004375 0.029722 0.003197
# 6 -0.001116 -0.000059 -0.000357 -0.004142 0.003197 0.025488
#
#
# Mechanical properties :
#
#
# Convention : Reuss Voigt Hill
#
# Bulk Modulus (GPa) = 49.19276 60.38918 54.79097
# Shear Modulus (GPa) = 38.36619 42.69444 40.53031
#
# Velocity S-wave (km/s) = 3.73882 3.94408 3.84282
# Velocity P-wave (km/s) = 6.04664 6.53788 6.29705
#
# Compressibility (1/GPa) = 0.02032819
#
# Stress axis : x y z
#
# Youngs Moduli (GPa) = 106.37077 83.69614 116.42794
#
# Poissons Ratio (x) = 0.07616 0.30386
# Poissons Ratio (y) = 0.09679 0.14962
# Poissons Ratio (z) = 0.27762 0.10756
#
# Static dielectric constant tensor:
#      x y z
#    x 2.043820 0.005200 0.070260 
#    y 0.005200 2.323900 0.163550 
#    z 0.070260 0.163550 2.376160 
# 
# From -- ./inp_files/216402.got.cif
#   From: 2010.05.17/outbox.cif.g08.bks.cpg/sg2_109_cif.got.tgz:216402.got - 2010.06.03 11:33:40.
