data_PCOD9085638
_publ_section_title
;
Structure prediction by ZEFSAII (Michael W. Deem and Ramdas Pophale) SiO2 
 PCOD9085638
Probable space group: P -1
;
_chemical_formula_sum "Si O2"
_cell_formula_units_Z 16
_cell_length_a 13.347524
_cell_length_b 9.111277
_cell_length_c 11.267721
_cell_angle_alpha 79.792426
_cell_angle_beta 134.760109
_cell_angle_gamma 124.041457
_cell_volume 749.443731
_symmetry_space_group_name_H-M "P -1"
_symmetry_group_IT_number 2
_symmetry_cell_setting 'triclinic'
loop_
_space_group_symop_operation_xyz
x,y,z
-x,-y,-z
loop_
_atom_site_type_symbol
_atom_site_label
_atom_site_fract_x
_atom_site_fract_y
_atom_site_fract_z
Si Si1 0.539556 0.533121 0.668915
Si Si2 0.961366 0.858290 0.234061
Si Si3 0.233160 0.529786 0.966441
Si Si4 0.976689 0.257925 0.452655
Si Si5 0.299348 0.674824 0.742601
Si Si6 0.070743 0.677328 0.950915
Si Si7 0.333036 0.121920 0.121837
Si Si8 0.148905 0.251312 0.378175
O O1 0.500000 0.500000 0.500000
O O2 0.650992 0.474692 0.834214
O O3 0.619968 0.744794 0.744903
O O4 0.340092 0.389205 0.578262
O O5 0.988191 0.824600 0.395117
O O6 0.938125 0.692822 0.163174
O O7 0.784589 0.840886 0.062067
O O8 0.123120 0.078568 0.314407
O O9 0.171224 0.652327 0.934847
O O10 0.320366 0.603063 0.897288
O O11 0.789970 0.223342 0.318474
O O12 0.140981 0.486253 0.563501
O O13 0.996855 0.177852 0.361366
O O14 0.484258 0.800944 0.806016
O O15 0.208650 0.896432 0.077436
O O16 0.000000 0.500000 0.000000
O O17 0.893313 0.646261 0.763410
#
# Coordination Sequence:
#
# PCOD9085638 Si02
#       8
#     2   2   2   2   2   2   2   2
#     4  11  24  41  63  91 128 166 215 262 308 369
#     4   9  22  36  61  92 126 161 202 248 316 375
#     4  10  22  41  61  94 125 168 208 257 318 370
#     4  10  19  35  61  97 128 163 200 253 315 374
#     4  10  20  37  65  95 132 161 205 261 318 379
#     4  11  24  44  64  88 124 171 218 260 309 374
#     4  10  23  42  65  94 125 167 210 260 318 373
#     4  11  21  40  61  90 125 165 210 256 309 368
#
# _framework density 21.349167999999999
#
# number of rings (size 3 to 8) (size 9 to 14) (size 15 to 20)
#    0.000    1.750    2.500    1.125    1.750    4.000 
#    0.000    6.250    0.000    0.000    0.000    0.000 
#    0.000    0.000    0.000    0.000    0.000    0.000 
#
# Total GULP energy -89258.690175 kJ/mol
# GULP energy per Si atom -5578.668136 kJ/mol
# Density = 2.130058 g / cm^3
# Si number density = 21.349168 Si / 1000 Ang^3
#
#
#
# Elastic Constant Matrix: (Units=GPa)
#
#
# Indices 1 2 3 4 5 6 
#
# 1 71.4038 28.5048 26.1775 6.7193 -7.2086 -2.4223
# 2 28.5048 107.5647 49.2535 -8.8756 1.3278 -23.8070
# 3 26.1775 49.2535 92.5540 -2.5113 -13.2545 -4.1702
# 4 6.7193 -8.8756 -2.5113 20.6786 5.8252 -10.6612
# 5 -7.2086 1.3278 -13.2545 5.8252 27.3417 3.1413
# 6 -2.4223 -23.8070 -4.1702 -10.6612 3.1413 29.2373
#
#
#
# Elastic Compliance Matrix: (Units=1/GPa)
#
#
# Indices 1 2 3 4 5 6 
#
# 1 0.022679 -0.014194 0.001687 -0.029033 0.016172 -0.021763
# 2 -0.014194 0.034440 -0.014988 0.049134 -0.028399 0.045697
# 3 0.001687 -0.014988 0.019369 -0.018475 0.016545 -0.017816
# 4 -0.029033 0.049134 -0.018475 0.141412 -0.059805 0.092958
# 5 0.016172 -0.028399 0.016545 -0.059805 0.068562 -0.048598
# 6 -0.021763 0.045697 -0.017816 0.092958 -0.048598 0.106186
#
#
# Mechanical properties :
#
#
# Convention : Reuss Voigt Hill
#
# Bulk Modulus (GPa) = 46.51705 53.26600 49.89152
# Shear Modulus (GPa) = 10.99373 26.62396 18.80884
#
# Velocity S-wave (km/s) = 2.27171 3.53522 2.97140
# Velocity P-wave (km/s) = 5.35881 6.45506 5.93231
#
# Compressibility (1/GPa) = 0.02149750
#
# Stress axis : x y z
#
# Youngs Moduli (GPa) = 44.09290 29.03615 51.63006
#
# Poissons Ratio (x) = 0.41215 -0.08709
# Poissons Ratio (y) = 0.62587 0.77381
# Poissons Ratio (z) = -0.07438 0.43518
#
# Static dielectric constant tensor:
#      x y z
#    x 1.839100 0.015040 -0.013350 
#    y 0.015040 1.799210 0.019980 
#    z -0.013350 0.019980 1.758320 
# 
# From -- ./inp_files/225751.got.cif
#   From: 2010.05.17/outbox.cif.g08.bks.cpg/sg2_113_cif.got.tgz:225751.got - 2010.06.03 11:33:40.
