data_PCOD9085289
_publ_section_title
;
Structure prediction by ZEFSAII (Michael W. Deem and Ramdas Pophale) SiO2 
 PCOD9085289
Probable space group: P -1
;
_chemical_formula_sum "Si O2"
_cell_formula_units_Z 16
_cell_length_a 10.909218
_cell_length_b 7.669033
_cell_length_c 7.906352
_cell_angle_alpha 78.205810
_cell_angle_beta 82.778806
_cell_angle_gamma 99.311787
_cell_volume 630.282814
_symmetry_space_group_name_H-M "P -1"
_symmetry_group_IT_number 2
_symmetry_cell_setting 'triclinic'
loop_
_space_group_symop_operation_xyz
x,y,z
-x,-y,-z
loop_
_atom_site_type_symbol
_atom_site_label
_atom_site_fract_x
_atom_site_fract_y
_atom_site_fract_z
Si Si1 0.856001 0.498316 0.006162
Si Si2 0.520042 0.590737 0.255897
Si Si3 0.671498 0.299845 0.339578
Si Si4 0.042334 0.062579 0.704655
Si Si5 0.405085 0.013150 0.859915
Si Si6 0.780199 0.992866 0.564833
Si Si7 0.870464 0.141008 0.999783
Si Si8 0.330198 0.326726 0.144718
O O1 0.815949 0.318865 0.933808
O O2 0.809963 0.659814 0.890893
O O3 0.786051 0.439696 0.204872
O O4 0.000000 0.500000 0.000000
O O5 0.581121 0.439434 0.372931
O O6 0.542476 0.795434 0.280180
O O7 0.385022 0.483861 0.237976
O O8 0.591253 0.632032 0.050213
O O9 0.608110 0.158127 0.231613
O O10 0.723972 0.166091 0.484305
O O11 0.916222 0.053584 0.619073
O O12 0.994790 0.149557 0.863154
O O13 0.171843 0.129736 0.568138
O O14 0.078392 0.880033 0.814897
O O15 0.500000 0.000000 0.000000
O O16 0.259770 0.008191 0.950156
O O17 0.681403 0.864412 0.724008
#
# Coordination Sequence:
#
# PCOD9085289 Si02
#       8
#     2   2   2   2   2   2   2   2
#     4  10  19  35  59  91 124 165 206 261 308 379
#     4  10  21  41  62  94 119 167 220 256 295 390
#     4  10  23  40  61  92 130 161 211 259 318 374
#     4  10  21  35  65  85 125 159 216 248 319 382
#     4  11  20  37  67  92 124 164 213 262 302 362
#     4  11  21  40  60  94 127 167 194 269 336 366
#     4  10  20  39  61  96 117 171 216 254 298 399
#     4  10  21  36  62  87 124 163 212 255 314 378
#
# _framework density 25.385429999999999
#
# number of rings (size 3 to 8) (size 9 to 14) (size 15 to 20)
#    0.000    1.750    2.500    4.500    1.750    3.500 
#    0.000    2.500    0.000    0.000    0.000    0.000 
#    0.000    0.000    0.000    0.000    0.000    0.000 
#
# Total GULP energy -89200.039993 kJ/mol
# GULP energy per Si atom -5575.002500 kJ/mol
# Density = 2.532765 g / cm^3
# Si number density = 25.385430 Si / 1000 Ang^3
#
#
#
# Elastic Constant Matrix: (Units=GPa)
#
#
# Indices 1 2 3 4 5 6 
#
# 1 163.2606 32.3532 47.7520 -21.0539 23.1803 2.0077
# 2 32.3532 77.8907 21.1436 -25.6303 12.6511 -5.0633
# 3 47.7520 21.1436 84.6585 -32.0571 16.5683 -5.2760
# 4 -21.0539 -25.6303 -32.0571 40.9844 -9.0561 2.6218
# 5 23.1803 12.6511 16.5683 -9.0561 45.8535 0.3968
# 6 2.0077 -5.0633 -5.2760 2.6218 0.3968 46.0993
#
#
#
# Elastic Compliance Matrix: (Units=1/GPa)
#
#
# Indices 1 2 3 4 5 6 
#
# 1 0.007901 -0.002194 -0.003819 -0.000712 -0.002141 -0.000963
# 2 -0.002194 0.017149 0.001258 0.010014 -0.002113 0.001572
# 3 -0.003819 0.001258 0.019308 0.013193 -0.002803 0.001788
# 4 -0.000712 0.010014 0.013193 0.040791 0.000884 0.000313
# 5 -0.002141 -0.002113 -0.002803 0.000884 0.024667 -0.000722
# 6 -0.000963 0.001572 0.001788 0.000313 -0.000722 0.022100
#
#
# Mechanical properties :
#
#
# Convention : Reuss Voigt Hill
#
# Bulk Modulus (GPa) = 28.69716 58.70082 43.69899
# Shear Modulus (GPa) = 32.67057 41.55817 37.11437
#
# Velocity S-wave (km/s) = 3.59134 4.05048 3.82780
# Velocity P-wave (km/s) = 5.34099 6.71187 6.06529
#
# Compressibility (1/GPa) = 0.03484665
#
# Stress axis : x y z
#
# Youngs Moduli (GPa) = 126.56403 58.31297 51.79180
#
# Poissons Ratio (x) = 0.12796 0.19781
# Poissons Ratio (y) = 0.27772 -0.06515
# Poissons Ratio (z) = 0.48339 -0.07336
#
# Static dielectric constant tensor:
#      x y z
#    x 2.001060 -0.005140 -0.069050 
#    y -0.005140 2.191550 0.096530 
#    z -0.069050 0.096530 2.186750 
# 
# From -- ./inp_files/243040.got.cif
#   From: 2010.05.17/outbox.cif.g08.bks.cpg/sg2_122_cif.got.tgz:243040.got - 2010.06.03 11:33:40.
