data_PCOD9085272
_publ_section_title
;
Structure prediction by ZEFSAII (Michael W. Deem and Ramdas Pophale) SiO2 
 PCOD9085272
Probable space group: P -1
;
_chemical_formula_sum "Si O2"
_cell_formula_units_Z 16
_cell_length_a 10.318930
_cell_length_b 5.487753
_cell_length_c 11.583858
_cell_angle_alpha 99.333162
_cell_angle_beta 98.775045
_cell_angle_gamma 98.618686
_cell_volume 629.371378
_symmetry_space_group_name_H-M "P -1"
_symmetry_group_IT_number 2
_symmetry_cell_setting 'triclinic'
loop_
_space_group_symop_operation_xyz
x,y,z
-x,-y,-z
loop_
_atom_site_type_symbol
_atom_site_label
_atom_site_fract_x
_atom_site_fract_y
_atom_site_fract_z
Si Si1 0.069672 0.582901 0.846968
Si Si2 0.698092 0.236102 0.776129
Si Si3 0.024741 0.778469 0.627835
Si Si4 0.609531 0.884724 0.316968
Si Si5 0.364776 0.654023 0.823147
Si Si6 0.673502 0.774593 0.914282
Si Si7 0.089828 0.096806 0.875329
Si Si8 0.807364 0.059435 0.552690
O O1 0.231277 0.636773 0.880313
O O2 0.017064 0.331505 0.886303
O O3 0.041100 0.566218 0.704989
O O4 0.016636 0.831990 0.894987
O O5 0.548654 0.169138 0.702808
O O6 0.710667 0.517468 0.848516
O O7 0.786352 0.210626 0.675041
O O8 0.707652 0.014201 0.852085
O O9 0.092503 0.021535 0.733834
O O10 0.879256 0.830848 0.584514
O O11 0.101005 0.779746 0.519235
O O12 0.643485 0.621709 0.254366
O O13 0.641719 0.127891 0.255307
O O14 0.676078 0.951189 0.454516
O O15 0.511940 0.723831 0.907642
O O16 0.765192 0.837277 0.043651
#
# Coordination Sequence:
#
# PCOD9085272 Si02
#       8
#     2   2   2   2   2   2   2   2
#     4  10  19  37  58  89 124 154 200 248 297 355
#     4  10  23  40  63  94 120 160 201 245 304 362
#     4   9  23  40  63  94 120 160 205 250 299 358
#     4  10  20  37  60  88 123 160 196 246 298 361
#     4  10  19  35  59  90 123 155 200 244 303 363
#     4  10  22  41  62  89 124 157 203 249 298 364
#     4  10  21  40  62  86 125 158 202 250 300 355
#     4  11  20  44  63  91 124 162 200 253 301 359
#
# _framework density 25.422191000000002
#
# number of rings (size 3 to 8) (size 9 to 14) (size 15 to 20)
#    0.750    1.250    1.250    2.625    0.000    2.000 
#    6.750    6.875    0.000    0.000    0.000    0.000 
#    0.000    0.000    0.000    0.000    0.000    0.000 
#
# Total GULP energy -89533.088095 kJ/mol
# GULP energy per Si atom -5595.818006 kJ/mol
# Density = 2.536433 g / cm^3
# Si number density = 25.422191 Si / 1000 Ang^3
#
#
#
# Elastic Constant Matrix: (Units=GPa)
#
#
# Indices 1 2 3 4 5 6 
#
# 1 78.6528 52.3452 41.1346 -0.8127 13.0548 -0.1553
# 2 52.3452 218.1144 62.4667 -14.6874 3.5353 -17.1090
# 3 41.1346 62.4667 142.8275 -0.6811 24.4394 -4.2847
# 4 -0.8127 -14.6874 -0.6811 40.4342 -2.0448 2.8196
# 5 13.0548 3.5353 24.4394 -2.0448 51.6687 1.5407
# 6 -0.1553 -17.1090 -4.2847 2.8196 1.5407 37.1978
#
#
#
# Elastic Compliance Matrix: (Units=1/GPa)
#
#
# Indices 1 2 3 4 5 6 
#
# 1 0.016945 -0.003351 -0.003021 -0.000945 -0.002612 -0.001639
# 2 -0.003351 0.006244 -0.001911 0.002067 0.001333 0.002426
# 3 -0.003021 -0.001911 0.009325 -0.000805 -0.003560 0.000391
# 4 -0.000945 0.002067 -0.000805 0.025607 0.001526 -0.001150
# 5 -0.002612 0.001333 -0.003560 0.001526 0.021691 -0.000822
# 6 -0.001639 0.002426 0.000391 -0.001150 -0.000822 0.028159
#
#
# Mechanical properties :
#
#
# Convention : Reuss Voigt Hill
#
# Bulk Modulus (GPa) = 62.71098 83.49863 73.10480
# Shear Modulus (GPa) = 38.50481 44.77002 41.63741
#
# Velocity S-wave (km/s) = 3.89603 4.20105 4.05141
# Velocity P-wave (km/s) = 6.70523 7.51318 7.12067
#
# Compressibility (1/GPa) = 0.01594617
#
# Stress axis : x y z
#
# Youngs Moduli (GPa) = 59.01451 160.14727 107.24400
#
# Poissons Ratio (x) = 0.53669 0.32402
# Poissons Ratio (y) = 0.19777 0.20497
# Poissons Ratio (z) = 0.17830 0.30608
#
# Static dielectric constant tensor:
#      x y z
#    x 2.003990 0.013780 -0.004110 
#    y 0.013780 2.062370 0.028510 
#    z -0.004110 0.028510 1.961710 
# 
# From -- ./inp_files/410855.got.cif
#   From: 2010.05.17/outbox.cif.g08.bks.cpg/sg2_206_cif.got.tgz:410855.got - 2010.06.03 11:33:40.
