data_PCOD9085672
_publ_section_title
;
Structure prediction by ZEFSAII (Michael W. Deem and Ramdas Pophale) SiO2 
 PCOD9085672
Probable space group: P -1
;
_chemical_formula_sum "Si O2"
_cell_formula_units_Z 16
_cell_length_a 9.922455
_cell_length_b 33.056247
_cell_length_c 16.354915
_cell_angle_alpha 18.538834
_cell_angle_beta 134.883155
_cell_angle_gamma 145.635794
_cell_volume 869.692449
_symmetry_space_group_name_H-M "P -1"
_symmetry_group_IT_number 2
_symmetry_cell_setting 'triclinic'
loop_
_space_group_symop_operation_xyz
x,y,z
-x,-y,-z
loop_
_atom_site_type_symbol
_atom_site_label
_atom_site_fract_x
_atom_site_fract_y
_atom_site_fract_z
Si Si1 0.666941 0.945799 0.971312
Si Si2 0.983217 0.614513 0.879099
Si Si3 0.221469 0.050017 0.281569
Si Si4 0.658542 0.220207 0.439549
Si Si5 0.086294 0.674432 0.168782
Si Si6 0.031747 0.918463 0.744544
Si Si7 0.206761 0.750935 0.893123
Si Si8 0.114347 0.144765 0.647220
O O1 0.746993 0.123498 0.697008
O O2 0.390958 0.830556 0.027371
O O3 0.665186 0.841672 0.242762
O O4 0.872890 0.009932 0.865005
O O5 0.837559 0.681061 0.669796
O O6 0.240832 0.733211 0.701772
O O7 0.070148 0.654467 0.933791
O O8 0.803978 0.409553 0.176342
O O9 0.511998 0.191187 0.095612
O O10 0.145856 0.117918 0.186452
O O11 0.237400 0.918403 0.583113
O O12 0.995546 0.943713 0.319141
O O13 0.345124 0.076852 0.593930
O O14 0.000000 0.500000 0.500000
O O15 0.958797 0.742305 0.022088
O O16 0.055388 0.654795 0.095891
O O17 0.000000 0.000000 0.500000
#
# Coordination Sequence:
#
# PCOD9085672 Si02
#       8
#     2   2   2   2   2   2   2   2
#     4   9  18  36  57  77 109 153 182 222 281 340
#     4   9  18  34  59  85 107 148 189 235 273 330
#     4  10  19  35  62  88 108 145 200 236 274 334
#     4   9  19  35  54  84 116 144 186 228 290 330
#     4  11  23  40  56  83 120 152 183 229 295 342
#     4  11  21  37  59  86 113 148 190 240 282 332
#     4  10  19  37  62  84 112 150 191 235 282 335
#     4   9  17  33  58  82 106 143 194 227 268 335
#
# _framework density 18.397307000000001
#
# number of rings (size 3 to 8) (size 9 to 14) (size 15 to 20)
#    0.000    2.250    2.500    0.750    3.500    1.000 
#    4.500    5.625    0.000    0.000    0.000    0.000 
#    0.000    0.000    0.000    0.000    0.000    0.000 
#
# Total GULP energy -89127.945817 kJ/mol
# GULP energy per Si atom -5570.496614 kJ/mol
# Density = 1.835543 g / cm^3
# Si number density = 18.397307 Si / 1000 Ang^3
#
#
#
# Elastic Constant Matrix: (Units=GPa)
#
#
# Indices 1 2 3 4 5 6 
#
# 1 115.0252 22.3617 39.7040 3.7907 20.6102 -21.1559
# 2 22.3617 38.8532 11.7199 12.5760 11.2091 -13.9002
# 3 39.7040 11.7199 86.4824 1.1263 15.8432 -22.9925
# 4 3.7907 12.5760 1.1263 23.2833 -0.1956 -0.4917
# 5 20.6102 11.2091 15.8432 -0.1956 18.8121 -4.6005
# 6 -21.1559 -13.9002 -22.9925 -0.4917 -4.6005 22.7971
#
#
#
# Elastic Compliance Matrix: (Units=1/GPa)
#
#
# Indices 1 2 3 4 5 6 
#
# 1 0.012705 -0.000680 -0.001905 -0.001538 -0.010122 0.007379
# 2 -0.000680 0.053607 0.007721 -0.028768 -0.029881 0.033192
# 3 -0.001905 0.007721 0.019148 -0.004495 -0.013957 0.019339
# 4 -0.001538 -0.028768 -0.004495 0.058723 0.018708 -0.018460
# 5 -0.010122 -0.029881 -0.013957 0.018708 0.088259 -0.023475
# 6 0.007379 0.033192 0.019339 -0.018460 -0.023475 0.085320
#
#
# Mechanical properties :
#
#
# Convention : Reuss Voigt Hill
#
# Bulk Modulus (GPa) = 10.44574 43.10355 26.77465
# Shear Modulus (GPa) = 14.73187 24.08353 19.40770
#
# Velocity S-wave (km/s) = 2.83284 3.62204 3.25148
# Velocity P-wave (km/s) = 4.04848 6.40097 5.35549
#
# Compressibility (1/GPa) = 0.09573278
#
# Stress axis : x y z
#
# Youngs Moduli (GPa) = 78.71069 18.65420 52.22459
#
# Poissons Ratio (x) = 0.01268 0.09946
# Poissons Ratio (y) = 0.05350 -0.40320
# Poissons Ratio (z) = 0.14991 -0.14402
#
# Static dielectric constant tensor:
#      x y z
#    x 1.796420 0.325590 -0.732500 
#    y 0.325590 2.308190 -1.584870 
#    z -0.732500 -1.584870 5.572460 
# 
# From -- ./inp_files/285044.got.cif
#   From: 2010.05.17/outbox.cif.g08.bks.cpg/sg2_143_cif.got.tgz:285044.got - 2010.06.03 11:33:40.
