data_PCOD9085030
_publ_section_title
;
Structure prediction by ZEFSAII (Michael W. Deem and Ramdas Pophale) SiO2 
 PCOD9085030
Probable space group: P -1
;
_chemical_formula_sum "Si O2"
_cell_formula_units_Z 16
_cell_length_a 8.968587
_cell_length_b 14.244771
_cell_length_c 8.317381
_cell_angle_alpha 93.235780
_cell_angle_beta 132.957008
_cell_angle_gamma 68.961978
_cell_volume 697.747066
_symmetry_space_group_name_H-M "P -1"
_symmetry_group_IT_number 2
_symmetry_cell_setting 'triclinic'
loop_
_space_group_symop_operation_xyz
x,y,z
-x,-y,-z
loop_
_atom_site_type_symbol
_atom_site_label
_atom_site_fract_x
_atom_site_fract_y
_atom_site_fract_z
Si Si1 0.117828 0.248906 0.286051
Si Si2 0.623668 0.935180 0.742250
Si Si3 0.611052 0.623992 0.639007
Si Si4 0.398639 0.239627 0.095842
Si Si5 0.500435 0.147957 0.810305
Si Si6 0.648244 0.305058 0.839330
Si Si7 0.043882 0.573721 0.288966
Si Si8 0.288848 0.490573 0.770172
O O1 0.151333 0.155262 0.177027
O O2 0.247072 0.314126 0.318076
O O3 0.254052 0.196814 0.544390
O O4 0.848427 0.312183 0.088181
O O5 0.523252 0.862322 0.744216
O O6 0.500000 0.000000 0.500000
O O7 0.612572 0.022771 0.866906
O O8 0.535627 0.674919 0.763517
O O9 0.393541 0.653143 0.369131
O O10 0.784981 0.503335 0.725937
O O11 0.484579 0.193142 0.980380
O O12 0.126545 0.311530 0.884442
O O13 0.654292 0.191402 0.832233
O O14 0.407487 0.379854 0.752160
O O15 0.172224 0.572423 0.548645
O O16 0.886206 0.518816 0.233716
O O17 0.500000 0.500000 0.000000
#
# Coordination Sequence:
#
# PCOD9085030 Si02
#       8
#     2   2   2   2   2   2   2   2
#     4   9  19  36  61  84 113 151 192 230 280 342
#     4   9  20  39  61  82 109 153 192 237 292 337
#     4   9  20  36  55  82 121 154 189 223 276 342
#     4  11  20  36  60  86 116 150 188 242 284 334
#     4  10  20  36  58  86 113 144 192 242 288 329
#     4  10  19  35  58  85 112 153 191 229 277 342
#     4  10  20  35  55  86 115 154 188 225 279 335
#     4  10  20  33  57  85 119 149 186 227 277 338
#
# _framework density 22.930947
#
# number of rings (size 3 to 8) (size 9 to 14) (size 15 to 20)
#    0.000    2.250    1.250    2.250    3.500    0.500 
#    0.000    5.000    0.000   13.500    0.000    0.000 
#    0.000    0.000    0.000    0.000    0.000    0.000 
#
# Total GULP energy -89210.967795 kJ/mol
# GULP energy per Si atom -5575.685487 kJ/mol
# Density = 2.287875 g / cm^3
# Si number density = 22.930947 Si / 1000 Ang^3
#
#
#
# Elastic Constant Matrix: (Units=GPa)
#
#
# Indices 1 2 3 4 5 6 
#
# 1 45.2999 38.2792 40.0172 9.8067 0.9964 -8.1337
# 2 38.2792 124.4727 23.6563 5.6138 -8.8099 -9.1424
# 3 40.0172 23.6563 113.8324 13.8454 -3.3700 12.5356
# 4 9.8067 5.6138 13.8454 38.2768 0.5669 -10.3174
# 5 0.9964 -8.8099 -3.3700 0.5669 37.7468 8.8263
# 6 -8.1337 -9.1424 12.5356 -10.3174 8.8263 34.3904
#
#
#
# Elastic Compliance Matrix: (Units=1/GPa)
#
#
# Indices 1 2 3 4 5 6 
#
# 1 0.051209 -0.011732 -0.017856 0.000077 -0.009910 0.018068
# 2 -0.011732 0.011408 0.001969 0.000226 0.003443 -0.001276
# 3 -0.017856 0.001969 0.016891 -0.005380 0.005534 -0.012891
# 4 0.000077 0.000226 -0.005380 0.031430 -0.003812 0.012447
# 5 -0.009910 0.003443 0.005534 -0.003812 0.031045 -0.012557
# 6 0.018068 -0.001276 -0.012891 0.012447 -0.012557 0.044668
#
#
# Mechanical properties :
#
#
# Convention : Reuss Voigt Hill
#
# Bulk Modulus (GPa) = 41.20808 54.16783 47.68796
# Shear Modulus (GPa) = 20.00161 34.19295 27.09728
#
# Velocity S-wave (km/s) = 2.95660 3.86570 3.44130
# Velocity P-wave (km/s) = 5.44654 6.60290 6.05240
#
# Compressibility (1/GPa) = 0.02426708
#
# Stress axis : x y z
#
# Youngs Moduli (GPa) = 19.52790 87.66078 59.20348
#
# Poissons Ratio (x) = 1.02848 1.05716
# Poissons Ratio (y) = 0.22911 -0.11656
# Poissons Ratio (z) = 0.34870 -0.17258
#
# Static dielectric constant tensor:
#      x y z
#    x 1.925050 -0.042160 -0.062030 
#    y -0.042160 1.884590 0.010260 
#    z -0.062030 0.010260 1.919070 
# 
# From -- ./inp_files/270090.got.cif
#   From: 2010.05.17/outbox.cif.g08.bks.cpg/sg2_136_cif.got.tgz:270090.got - 2010.06.03 11:33:40.
