data_PCOD9085412
_publ_section_title
;
Structure prediction by ZEFSAII (Michael W. Deem and Ramdas Pophale) SiO2 
 PCOD9085412
Probable space group: P -1
;
_chemical_formula_sum "Si O2"
_cell_formula_units_Z 14
_cell_length_a 20.344463
_cell_length_b 11.707391
_cell_length_c 8.552026
_cell_angle_alpha 38.110023
_cell_angle_beta 151.525397
_cell_angle_gamma 147.439911
_cell_volume 514.202086
_symmetry_space_group_name_H-M "P -1"
_symmetry_group_IT_number 2
_symmetry_cell_setting 'triclinic'
loop_
_space_group_symop_operation_xyz
x,y,z
-x,-y,-z
loop_
_atom_site_type_symbol
_atom_site_label
_atom_site_fract_x
_atom_site_fract_y
_atom_site_fract_z
Si Si1 0.566280 0.506338 0.459566
Si Si2 0.351716 0.194555 0.933729
Si Si3 0.930905 0.706683 0.702009
Si Si4 0.149901 0.745972 0.852708
Si Si5 0.259061 0.682740 0.839772
Si Si6 0.834613 0.782174 0.916962
Si Si7 0.267124 0.001587 0.273962
O O1 0.500000 0.500000 0.500000
O O2 0.517525 0.589253 0.116852
O O3 0.741409 0.728039 0.614524
O O4 0.608003 0.319424 0.766164
O O5 0.199272 0.223118 0.626653
O O6 0.298491 0.977303 0.959805
O O7 0.387233 0.132509 0.244476
O O8 0.999632 0.739843 0.633541
O O9 0.850654 0.457461 0.851250
O O10 0.089640 0.838975 0.002069
O O11 0.150240 0.716752 0.699360
O O12 0.311801 0.857066 0.628305
O O13 0.177985 0.447946 0.842887
O O14 0.747384 0.832628 0.819446
O O15 0.000000 0.000000 0.000000
#
# Coordination Sequence:
#
# PCOD9085412 Si02
#       7
#     2   2   2   2   2   2   2
#     4  10  23  47  67  85 125 172 215 255 310 381
#     4  11  22  40  60  90 126 173 211 251 310 385
#     4  10  21  36  58  94 135 167 205 255 315 377
#     4  10  19  35  60  88 129 165 212 249 312 374
#     4  10  23  39  59  96 129 159 212 265 312 367
#     4  10  22  40  66  94 132 164 207 261 318 365
#     4  11  22  35  59  94 128 162 202 264 320 365
#
# _framework density 27.226648000000001
#
# number of rings (size 3 to 8) (size 9 to 14) (size 15 to 20)
#    0.857    0.857    1.429    4.286    0.000    9.143 
#    0.000    4.286    0.000    0.000    0.000    0.000 
#    0.000    0.000    0.000    0.000    0.000    0.000 
#
# Total GULP energy -78261.963973 kJ/mol
# GULP energy per Si atom -5590.140284 kJ/mol
# Density = 2.716468 g / cm^3
# Si number density = 27.226648 Si / 1000 Ang^3
#
#
#
# Elastic Constant Matrix: (Units=GPa)
#
#
# Indices 1 2 3 4 5 6 
#
# 1 146.6331 26.0054 65.3216 -39.4009 -28.6566 -1.3503
# 2 26.0054 151.9323 63.7220 -49.6532 -12.4965 -20.5749
# 3 65.3216 63.7220 125.7147 -38.4573 -32.8018 2.5160
# 4 -39.4009 -49.6532 -38.4573 54.0493 14.1025 -7.5717
# 5 -28.6566 -12.4965 -32.8018 14.1025 49.5968 -17.1678
# 6 -1.3503 -20.5749 2.5160 -7.5717 -17.1678 49.5454
#
#
#
# Elastic Compliance Matrix: (Units=1/GPa)
#
#
# Indices 1 2 3 4 5 6 
#
# 1 0.010877 0.003226 -0.004067 0.007629 0.003727 0.004300
# 2 0.003226 0.012961 -0.004338 0.011865 0.001687 0.008088
# 3 -0.004067 -0.004338 0.014162 0.001678 0.005254 -0.000554
# 4 0.007629 0.011865 0.001678 0.037269 0.001852 0.011387
# 5 0.003727 0.001687 0.005254 0.001852 0.029513 0.011044
# 6 0.004300 0.008088 -0.000554 0.011387 0.011044 0.029255
#
#
# Mechanical properties :
#
#
# Convention : Reuss Voigt Hill
#
# Bulk Modulus (GPa) = 36.17645 81.59758 58.88701
# Shear Modulus (GPa) = 32.55048 48.58704 40.56876
#
# Velocity S-wave (km/s) = 3.46141 4.22896 3.86429
# Velocity P-wave (km/s) = 5.41213 7.34032 6.44870
#
# Compressibility (1/GPa) = 0.02764229
#
# Stress axis : x y z
#
# Youngs Moduli (GPa) = 91.93492 77.15684 70.61188
#
# Poissons Ratio (x) = -0.24891 0.28716
# Poissons Ratio (y) = -0.29659 0.30632
# Poissons Ratio (z) = 0.37388 0.33471
#
# Static dielectric constant tensor:
#      x y z
#    x 2.454880 0.305680 0.084960 
#    y 0.305680 2.407250 0.148070 
#    z 0.084960 0.148070 2.319120 
# 
# From -- ./inp_files/344991.got.cif
#   From: 2010.05.17/outbox.cif.g08.bks.cpg/sg2_173_cif.got.tgz:344991.got - 2010.06.03 11:33:40.
