data_PCOD9085304
_publ_section_title
;
Structure prediction by ZEFSAII (Michael W. Deem and Ramdas Pophale) SiO2 
 PCOD9085304
Probable space group: P -1
;
_chemical_formula_sum "Si O2"
_cell_formula_units_Z 14
_cell_length_a 14.127349
_cell_length_b 5.115226
_cell_length_c 8.570448
_cell_angle_alpha 79.535099
_cell_angle_beta 116.577717
_cell_angle_gamma 84.718553
_cell_volume 533.998511
_symmetry_space_group_name_H-M "P -1"
_symmetry_group_IT_number 2
_symmetry_cell_setting 'triclinic'
loop_
_space_group_symop_operation_xyz
x,y,z
-x,-y,-z
loop_
_atom_site_type_symbol
_atom_site_label
_atom_site_fract_x
_atom_site_fract_y
_atom_site_fract_z
Si Si1 0.393242 0.216293 0.421365
Si Si2 0.891918 0.395122 0.756729
Si Si3 0.286111 0.788851 0.542822
Si Si4 0.315758 0.983422 0.927256
Si Si5 0.557338 0.665971 0.223914
Si Si6 0.235849 0.484484 0.035036
Si Si7 0.938025 0.934538 0.612683
O O1 0.425069 0.372400 0.575641
O O2 0.346373 0.404999 0.226101
O O3 0.500000 0.000000 0.500000
O O4 0.311795 0.015286 0.420053
O O5 0.813916 0.038839 0.456521
O O6 0.857117 0.447904 0.906402
O O7 0.953065 0.108024 0.761360
O O8 0.949978 0.625309 0.706422
O O9 0.387029 0.647052 0.740621
O O10 0.222328 0.591159 0.420801
O O11 0.436681 0.823134 0.089606
O O12 0.246475 0.745884 0.914084
O O13 0.247125 0.217528 0.965133
O O14 0.358292 0.166436 0.805015
O O15 0.000000 0.000000 0.500000
#
# Coordination Sequence:
#
# PCOD9085304 Si02
#       7
#     2   2   2   2   2   2   2
#     4  12  21  34  61  82 120 157 205 242 294 339
#     4  10  20  35  60  87 120 145 194 243 295 357
#     4  10  21  35  59  87 121 150 200 245 295 348
#     4  11  27  37  56  79 124 162 208 238 297 338
#     4  11  24  38  53  84 121 162 203 252 284 350
#     4  12  21  41  56  85 112 161 198 245 291 348
#     4  10  19  35  59  94 123 145 180 253 317 352
#
# _framework density 26.217303000000001
#
# number of rings (size 3 to 8) (size 9 to 14) (size 15 to 20)
#    0.857    0.286    4.286    3.000    2.000    2.286 
#    0.000    0.000    0.000    0.000    0.000    6.000 
#    0.000    0.000    0.000    0.000    0.000    0.000 
#
# Total GULP energy -78081.487387 kJ/mol
# GULP energy per Si atom -5577.249099 kJ/mol
# Density = 2.615763 g / cm^3
# Si number density = 26.217303 Si / 1000 Ang^3
#
#
#
# Elastic Constant Matrix: (Units=GPa)
#
#
# Indices 1 2 3 4 5 6 
#
# 1 92.3604 11.8980 4.3225 -2.8973 -36.5304 7.6836
# 2 11.8980 132.7007 29.3329 -14.7400 -11.4077 18.5475
# 3 4.3225 29.3329 83.3273 -21.8198 -14.2020 13.7344
# 4 -2.8973 -14.7400 -21.8198 30.6698 2.5654 -11.5089
# 5 -36.5304 -11.4077 -14.2020 2.5654 46.2278 -12.3899
# 6 7.6836 18.5475 13.7344 -11.5089 -12.3899 27.4738
#
#
#
# Elastic Compliance Matrix: (Units=1/GPa)
#
#
# Indices 1 2 3 4 5 6 
#
# 1 0.016098 -0.000758 0.001983 0.002206 0.013574 0.002064
# 2 -0.000758 0.008768 -0.002112 0.001030 -0.000310 -0.004360
# 3 0.001983 -0.002112 0.016293 0.010073 0.005316 -0.000657
# 4 0.002206 0.001030 0.010073 0.045890 0.006821 0.015952
# 5 0.013574 -0.000310 0.005316 0.006821 0.037115 0.013350
# 6 0.002064 -0.004360 -0.000657 0.015952 0.013350 0.051796
#
#
# Mechanical properties :
#
#
# Convention : Reuss Voigt Hill
#
# Bulk Modulus (GPa) = 25.39003 44.38834 34.88919
# Shear Modulus (GPa) = 26.19678 38.39662 32.29670
#
# Velocity S-wave (km/s) = 3.16447 3.83110 3.51363
# Velocity P-wave (km/s) = 4.80180 6.04462 5.45870
#
# Compressibility (1/GPa) = 0.03938554
#
# Stress axis : x y z
#
# Youngs Moduli (GPa) = 62.11790 114.05635 61.37431
#
# Poissons Ratio (x) = 0.08648 -0.12170
# Poissons Ratio (y) = 0.04710 0.12960
# Poissons Ratio (z) = -0.12317 0.24085
#
# Static dielectric constant tensor:
#      x y z
#    x 3.901850 -2.977570 -0.806340 
#    y -2.977570 6.184630 1.590520 
#    z -0.806340 1.590520 2.442360 
# 
# From -- ./inp_files/99622.got.cif
#   From: 2010.05.17/outbox.cif.g08.bks.cpg/sg2_50_cif.got.tgz:99622.got - 2010.06.03 11:33:40.
