data_PCOD9085569
_publ_section_title
;
Structure prediction by ZEFSAII (Michael W. Deem and Ramdas Pophale) SiO2 
 PCOD9085569
Probable space group: P -1
;
_chemical_formula_sum "Si O2"
_cell_formula_units_Z 16
_cell_length_a 21.047767
_cell_length_b 11.952229
_cell_length_c 14.427203
_cell_angle_alpha 28.068451
_cell_angle_beta 147.936608
_cell_angle_gamma 149.601212
_cell_volume 805.262466
_symmetry_space_group_name_H-M "P -1"
_symmetry_group_IT_number 2
_symmetry_cell_setting 'triclinic'
loop_
_space_group_symop_operation_xyz
x,y,z
-x,-y,-z
loop_
_atom_site_type_symbol
_atom_site_label
_atom_site_fract_x
_atom_site_fract_y
_atom_site_fract_z
Si Si1 0.953240 0.221131 0.592637
Si Si2 0.908410 0.553631 0.155992
Si Si3 0.852331 0.213370 0.162941
Si Si4 0.417596 0.916264 0.556394
Si Si5 0.181971 0.051653 0.193693
Si Si6 0.207677 0.292802 0.751059
Si Si7 0.678689 0.116119 0.839127
Si Si8 0.147316 0.312684 0.446629
O O1 0.891287 0.281580 0.381199
O O2 0.000000 0.500000 0.500000
O O3 0.084804 0.200911 0.737777
O O4 0.856316 0.007067 0.701495
O O5 0.870153 0.453612 0.077305
O O6 0.825472 0.671789 0.026405
O O7 0.061307 0.798689 0.176423
O O8 0.002439 0.286098 0.256669
O O9 0.819476 0.921214 0.378449
O O10 0.741372 0.171605 0.979020
O O11 0.318292 0.600016 0.673460
O O12 0.500000 0.000000 0.500000
O O13 0.321325 0.057443 0.338492
O O14 0.521230 0.998119 0.710126
O O15 0.149596 0.281568 0.583666
O O16 0.274695 0.097202 0.985937
O O17 0.745859 0.394673 0.664113
#
# Coordination Sequence:
#
# PCOD9085569 Si02
#       8
#     2   2   2   2   2   2   2   2
#     4  10  19  35  61  88 122 147 195 261 293 358
#     4  10  20  39  64  91 120 152 199 263 305 349
#     4  10  21  37  60  89 125 159 207 254 303 355
#     4  12  23  42  62  88 132 164 195 254 304 371
#     4  10  23  39  63  97 116 155 208 245 315 359
#     4  11  21  39  61  96 121 158 203 251 315 349
#     4  11  25  36  61  91 124 169 204 242 306 380
#     4  10  20  39  57  90 127 155 208 255 298 360
#
# _framework density 19.869298000000001
#
# number of rings (size 3 to 8) (size 9 to 14) (size 15 to 20)
#    0.000    1.500    5.000    0.750    1.750    3.000 
#    2.250    0.625    0.000    1.500    0.000    0.000 
#    0.000    0.000    0.000    0.000    0.000    0.000 
#
# Total GULP energy -89234.120622 kJ/mol
# GULP energy per Si atom -5577.132539 kJ/mol
# Density = 1.982407 g / cm^3
# Si number density = 19.869298 Si / 1000 Ang^3
#
#
#
# Elastic Constant Matrix: (Units=GPa)
#
#
# Indices 1 2 3 4 5 6 
#
# 1 83.2933 37.0515 46.2379 10.7796 17.2977 -4.0751
# 2 37.0515 93.5227 43.4533 16.5805 9.7400 -14.0055
# 3 46.2379 43.4533 97.2337 13.0129 23.0730 -4.7983
# 4 10.7796 16.5805 13.0129 40.0386 2.3597 -6.9909
# 5 17.2977 9.7400 23.0730 2.3597 33.3173 -0.0589
# 6 -4.0751 -14.0055 -4.7983 -6.9909 -0.0589 31.9800
#
#
#
# Elastic Compliance Matrix: (Units=1/GPa)
#
#
# Indices 1 2 3 4 5 6 
#
# 1 0.017855 -0.003892 -0.005632 -0.001216 -0.004147 -0.000548
# 2 -0.003892 0.015604 -0.004687 -0.003079 0.000931 0.004963
# 3 -0.005632 -0.004687 0.017007 -0.001744 -0.007361 -0.000613
# 4 -0.001216 -0.003079 -0.001744 0.027855 0.000774 0.004325
# 5 -0.004147 0.000931 -0.007361 0.000774 0.036936 -0.000988
# 6 -0.000548 0.004963 -0.000613 0.004325 -0.000988 0.034225
#
#
# Mechanical properties :
#
#
# Convention : Reuss Voigt Hill
#
# Bulk Modulus (GPa) = 45.35979 58.61501 51.98740
# Shear Modulus (GPa) = 26.99036 30.88765 28.93901
#
# Velocity S-wave (km/s) = 3.68964 3.94705 3.82051
# Velocity P-wave (km/s) = 6.40546 7.09483 6.75894
#
# Compressibility (1/GPa) = 0.02204596
#
# Stress axis : x y z
#
# Youngs Moduli (GPa) = 56.00677 64.08557 58.79949
#
# Poissons Ratio (x) = 0.24939 0.33114
# Poissons Ratio (y) = 0.21795 0.27558
# Poissons Ratio (z) = 0.31541 0.30036
#
# Static dielectric constant tensor:
#      x y z
#    x 1.750450 -0.023500 -0.072190 
#    y -0.023500 1.728140 -0.009770 
#    z -0.072190 -0.009770 1.807350 
# 
# From -- ./inp_files/540947.got.cif
#   From: 2010.05.17/outbox.cif.g08.bks.cpg/sg2_271_cif.got.tgz:540947.got - 2010.06.03 11:33:40.
