data_PCOD9085653
_publ_section_title
;
Structure prediction by ZEFSAII (Michael W. Deem and Ramdas Pophale) SiO2 
 PCOD9085653
Probable space group: P -1
;
_chemical_formula_sum "Si O2"
_cell_formula_units_Z 16
_cell_length_a 9.141538
_cell_length_b 13.543695
_cell_length_c 12.559673
_cell_angle_alpha 137.239914
_cell_angle_beta 52.593361
_cell_angle_gamma 128.911264
_cell_volume 789.366790
_symmetry_space_group_name_H-M "P -1"
_symmetry_group_IT_number 2
_symmetry_cell_setting 'triclinic'
loop_
_space_group_symop_operation_xyz
x,y,z
-x,-y,-z
loop_
_atom_site_type_symbol
_atom_site_label
_atom_site_fract_x
_atom_site_fract_y
_atom_site_fract_z
Si Si1 0.462820 0.700359 0.148949
Si Si2 0.927987 0.903907 0.721051
Si Si3 0.541251 0.547780 0.207974
Si Si4 0.874597 0.612291 0.657742
Si Si5 0.190699 0.995979 0.347910
Si Si6 0.677697 0.043996 0.537129
Si Si7 0.914217 0.786197 0.000302
Si Si8 0.964978 0.657737 0.105010
O O1 0.466216 0.620837 0.198081
O O2 0.307853 0.785582 0.298623
O O3 0.693826 0.794780 0.105649
O O4 0.414084 0.592162 0.982332
O O5 0.134738 0.961694 0.612629
O O6 0.908331 0.744504 0.659052
O O7 0.940010 0.039840 0.907384
O O8 0.777107 0.902291 0.692053
O O9 0.356922 0.485453 0.316026
O O10 0.751827 0.650716 0.239683
O O11 0.000000 0.500000 0.500000
O O12 0.928728 0.701520 0.817800
O O13 0.354674 0.043136 0.404485
O O14 0.129388 0.817051 0.195208
O O15 0.000000 0.000000 0.500000
O O16 0.500000 0.000000 0.500000
O O17 0.939180 0.684424 0.010273
O O18 0.000000 0.500000 0.000000
#
# Coordination Sequence:
#
# PCOD9085653 Si02
#       8
#     2   2   2   2   2   2   2   2
#     4   9  16  31  53  86 109 135 188 250 280 328
#     4  10  20  37  56  82 120 156 184 238 299 346
#     4   9  19  32  54  82 116 150 188 234 291 339
#     4  11  22  36  57  83 120 157 201 237 279 353
#     4   9  21  35  54  86 116 147 182 239 303 334
#     4  11  19  32  61  88 111 138 194 244 289 346
#     4   9  19  35  56  82 112 153 196 237 292 331
#     4  10  19  35  62  84 115 151 193 242 292 347
#
# _framework density 20.269409
#
# number of rings (size 3 to 8) (size 9 to 14) (size 15 to 20)
#    0.000    2.250    1.250    2.625    1.750    2.000 
#    0.000    0.000    2.750    8.250    0.000    0.000 
#    0.000    0.000    0.000    0.000    0.000    0.000 
#
# Total GULP energy -89121.051403 kJ/mol
# GULP energy per Si atom -5570.065713 kJ/mol
# Density = 2.022328 g / cm^3
# Si number density = 20.269409 Si / 1000 Ang^3
#
#
#
# Elastic Constant Matrix: (Units=GPa)
#
#
# Indices 1 2 3 4 5 6 
#
# 1 100.2214 35.8794 14.4567 -7.4553 19.3832 -22.2602
# 2 35.8794 93.3262 23.2124 3.3192 5.7145 -23.8548
# 3 14.4567 23.2124 84.1283 9.1354 -2.6002 -17.6758
# 4 -7.4553 3.3192 9.1354 20.3166 -11.0122 -5.0557
# 5 19.3832 5.7145 -2.6002 -11.0122 19.7704 -1.0730
# 6 -22.2602 -23.8548 -17.6758 -5.0557 -1.0730 25.5249
#
#
#
# Elastic Compliance Matrix: (Units=1/GPa)
#
#
# Indices 1 2 3 4 5 6 
#
# 1 0.016205 -0.002474 -0.000340 0.002056 -0.013452 0.011426
# 2 -0.002474 0.014858 -0.001417 -0.001319 -0.002226 0.010393
# 3 -0.000340 -0.001417 0.014392 -0.004051 0.000791 0.007577
# 4 0.002056 -0.001319 -0.004051 0.078870 0.042587 0.015167
# 5 -0.013452 -0.002226 0.000791 0.042587 0.088178 -0.001122
# 6 0.011426 0.010393 0.007577 0.015167 -0.001122 0.067058
#
#
# Mechanical properties :
#
#
# Convention : Reuss Voigt Hill
#
# Bulk Modulus (GPa) = 27.03183 47.19699 37.11441
# Shear Modulus (GPa) = 16.64696 26.73087 21.68892
#
# Velocity S-wave (km/s) = 2.86892 3.63544 3.27468
# Velocity P-wave (km/s) = 4.93350 6.39979 5.71388
#
# Compressibility (1/GPa) = 0.03699342
#
# Stress axis : x y z
#
# Youngs Moduli (GPa) = 61.70804 67.30261 69.48233
#
# Poissons Ratio (x) = 0.16653 0.02365
# Poissons Ratio (y) = 0.15268 0.09842
# Poissons Ratio (z) = 0.02100 0.09534
#
# Static dielectric constant tensor:
#      x y z
#    x 1.808290 -0.009400 0.019020 
#    y -0.009400 1.786300 0.083440 
#    z 0.019020 0.083440 1.790930 
# 
# From -- ./inp_files/391299.got.cif
#   From: 2010.05.17/outbox.cif.g08.bks.cpg/sg2_196_cif.got.tgz:391299.got - 2010.06.03 11:33:40.
