data_PCOD9085277
_publ_section_title
;
Structure prediction by ZEFSAII (Michael W. Deem and Ramdas Pophale) SiO2 
 PCOD9085277
Probable space group: P -1
;
_chemical_formula_sum "Si O2"
_cell_formula_units_Z 16
_cell_length_a 11.689453
_cell_length_b 15.564343
_cell_length_c 11.309652
_cell_angle_alpha 58.194290
_cell_angle_beta 151.636908
_cell_angle_gamma 133.507305
_cell_volume 690.201685
_symmetry_space_group_name_H-M "P -1"
_symmetry_group_IT_number 2
_symmetry_cell_setting 'triclinic'
loop_
_space_group_symop_operation_xyz
x,y,z
-x,-y,-z
loop_
_atom_site_type_symbol
_atom_site_label
_atom_site_fract_x
_atom_site_fract_y
_atom_site_fract_z
Si Si1 0.927101 0.233754 0.945448
Si Si2 0.593411 0.640442 0.868332
Si Si3 0.288500 0.403446 0.606392
Si Si4 0.436749 0.206741 0.842364
Si Si5 0.599898 0.963200 0.234942
Si Si6 0.172695 0.715665 0.431722
Si Si7 0.052444 0.397078 0.156555
Si Si8 0.712568 0.171693 0.321079
O O1 0.189629 0.243436 0.104382
O O2 0.082575 0.340460 0.106094
O O3 0.675099 0.117403 0.869955
O O4 0.781434 0.262074 0.684179
O O5 0.473932 0.518562 0.774081
O O6 0.327000 0.647656 0.658987
O O7 0.823307 0.651320 0.164982
O O8 0.389592 0.312248 0.749578
O O9 0.277453 0.443544 0.434172
O O10 0.963992 0.313746 0.426914
O O11 0.282937 0.114780 0.657710
O O12 0.443605 0.147467 0.015213
O O13 0.765523 0.280741 0.037765
O O14 0.801600 0.085590 0.405633
O O15 0.500000 0.000000 0.000000
O O16 0.318536 0.834317 0.562265
O O17 0.000000 0.500000 0.000000
#
# Coordination Sequence:
#
# PCOD9085277 Si02
#       8
#     2   2   2   2   2   2   2   2
#     4   9  21  38  63  93 135 166 221 265 330 381
#     4  10  24  42  65  98 134 170 218 270 325 390
#     4  11  23  37  64  97 129 172 217 267 334 392
#     4   9  21  37  60  93 126 164 213 270 325 389
#     4   9  19  43  66  93 131 168 219 276 327 387
#     4  10  24  44  65  99 131 176 221 267 330 389
#     4  10  19  35  59  90 128 165 207 265 326 392
#     4  10  23  40  65  88 132 171 226 267 327 384
#
# _framework density 23.181630999999999
#
# number of rings (size 3 to 8) (size 9 to 14) (size 15 to 20)
#    0.750    1.500    0.000    2.250    5.250    6.000 
#    0.000    3.125    0.000    0.000    0.000    0.000 
#    0.000    0.000    0.000    0.000    0.000    0.000 
#
# Total GULP energy -89117.723661 kJ/mol
# GULP energy per Si atom -5569.857729 kJ/mol
# Density = 2.312887 g / cm^3
# Si number density = 23.181631 Si / 1000 Ang^3
#
#
#
# Elastic Constant Matrix: (Units=GPa)
#
#
# Indices 1 2 3 4 5 6 
#
# 1 96.4846 28.3332 43.5288 2.7668 -17.8098 -16.6105
# 2 28.3332 80.3087 34.0550 11.2809 -11.4880 -22.0435
# 3 43.5288 34.0550 111.6428 -4.4611 -16.5499 -25.0482
# 4 2.7668 11.2809 -4.4611 35.7598 -7.6487 3.9959
# 5 -17.8098 -11.4880 -16.5499 -7.6487 40.9826 7.6165
# 6 -16.6105 -22.0435 -25.0482 3.9959 7.6165 55.4585
#
#
#
# Elastic Compliance Matrix: (Units=1/GPa)
#
#
# Indices 1 2 3 4 5 6 
#
# 1 0.013615 -0.002398 -0.003860 -0.000134 0.003491 0.000911
# 2 -0.002398 0.016955 -0.003329 -0.006058 0.000323 0.004909
# 3 -0.003860 -0.003329 0.012573 0.003175 0.002573 0.002617
# 4 -0.000134 -0.006058 0.003175 0.032097 0.006295 -0.004191
# 5 0.003491 0.000323 0.002573 0.006295 0.028602 -0.002046
# 6 0.000911 0.004909 0.002617 -0.004191 -0.002046 0.022021
#
#
# Mechanical properties :
#
#
# Convention : Reuss Voigt Hill
#
# Bulk Modulus (GPa) = 41.72376 55.58558 48.65467
# Shear Modulus (GPa) = 32.67376 38.60814 35.64095
#
# Velocity S-wave (km/s) = 3.75836 4.08544 3.92531
# Velocity P-wave (km/s) = 6.07218 6.80329 6.44811
#
# Compressibility (1/GPa) = 0.02396716
#
# Stress axis : x y z
#
# Youngs Moduli (GPa) = 73.44645 58.98132 79.53365
#
# Poissons Ratio (x) = 0.14145 0.30702
# Poissons Ratio (y) = 0.17614 0.26480
# Poissons Ratio (z) = 0.28353 0.19638
#
# Static dielectric constant tensor:
#      x y z
#    x 1.957150 0.012500 0.004570 
#    y 0.012500 1.899920 0.008870 
#    z 0.004570 0.008870 1.956530 
# 
# From -- ./inp_files/126701.got.cif
#   From: 2010.05.17/outbox.cif.g08.bks.cpg/sg2_64_cif.got.tgz:126701.got - 2010.06.03 11:33:40.
