data_PCOD9085421
_publ_section_title
;
Structure prediction by ZEFSAII (Michael W. Deem and Ramdas Pophale) SiO2 
 PCOD9085421
Probable space group: P -1
;
_chemical_formula_sum "Si O2"
_cell_formula_units_Z 12
_cell_length_a 9.055903
_cell_length_b 11.726548
_cell_length_c 14.384808
_cell_angle_alpha 38.503634
_cell_angle_beta 29.406109
_cell_angle_gamma 41.875756
_cell_volume 456.971369
_symmetry_space_group_name_H-M "P -1"
_symmetry_group_IT_number 2
_symmetry_cell_setting 'triclinic'
loop_
_space_group_symop_operation_xyz
x,y,z
-x,-y,-z
loop_
_atom_site_type_symbol
_atom_site_label
_atom_site_fract_x
_atom_site_fract_y
_atom_site_fract_z
Si Si1 0.374887 0.157864 0.040023
Si Si2 0.405178 0.532426 0.201720
Si Si3 0.316396 0.726086 0.647839
Si Si4 0.908561 0.484981 0.250633
Si Si5 0.915133 0.217809 0.936788
Si Si6 0.703708 0.864683 0.680691
O O1 0.031605 0.256341 0.135121
O O2 0.348976 0.101531 0.199708
O O3 0.601698 0.300873 0.827162
O O4 0.500000 0.000000 0.000000
O O5 0.432749 0.346653 0.364966
O O6 0.153789 0.624790 0.206800
O O7 0.745593 0.522160 0.976459
O O8 0.313005 0.933693 0.482252
O O9 0.321872 0.575245 0.658273
O O10 0.846348 0.696351 0.187926
O O11 0.992617 0.298646 0.388732
O O12 0.570343 0.220294 0.160607
O O13 0.000000 0.000000 0.000000
#
# Coordination Sequence:
#
# PCOD9085421 Si02
#       6
#     2   2   2   2   2   2
#     4   9  17  32  55  86 115 148 188 233 277 333
#     4   9  19  33  55  82 110 151 193 226 280 349
#     4  10  19  35  60  89 115 144 190 240 280 335
#     4   9  17  36  59  79 108 154 191 222 279 359
#     4  10  21  38  57  79 112 156 197 234 281 342
#     4   9  19  36  58  85 114 151 190 231 285 342
#
# _framework density 26.259851000000001
#
# number of rings (size 3 to 8) (size 9 to 14) (size 15 to 20)
#    0.000    3.333    0.000    6.000    0.000    5.333 
#    0.000    9.167    0.000    2.000    0.000    7.000 
#    0.000    0.000    0.000    0.000    0.000    0.000 
#
# Total GULP energy -66915.594622 kJ/mol
# GULP energy per Si atom -5576.299552 kJ/mol
# Density = 2.620008 g / cm^3
# Si number density = 26.259851 Si / 1000 Ang^3
#
#
#
# Elastic Constant Matrix: (Units=GPa)
#
#
# Indices 1 2 3 4 5 6 
#
# 1 89.8877 43.1128 38.9635 -35.5787 11.5473 -1.1838
# 2 43.1128 108.9749 24.8280 -44.5802 9.1061 13.8078
# 3 38.9635 24.8280 75.4121 -28.3844 6.7807 -0.2499
# 4 -35.5787 -44.5802 -28.3844 51.4386 -18.0161 -1.4636
# 5 11.5473 9.1061 6.7807 -18.0161 34.6253 -23.1361
# 6 -1.1838 13.8078 -0.2499 -1.4636 -23.1361 39.6161
#
#
#
# Elastic Compliance Matrix: (Units=1/GPa)
#
#
# Indices 1 2 3 4 5 6 
#
# 1 0.017740 -0.003443 -0.005595 0.006815 0.001528 0.002839
# 2 -0.003443 0.015755 0.000874 0.011093 -0.001401 -0.005997
# 3 -0.005595 0.000874 0.018802 0.008761 0.004089 0.002358
# 4 0.006815 0.011093 0.008761 0.049020 0.028535 0.014868
# 5 0.001528 -0.001401 0.004089 0.028535 0.071936 0.043625
# 6 0.002839 -0.005997 0.002358 0.014868 0.043625 0.053459
#
#
# Mechanical properties :
#
#
# Convention : Reuss Voigt Hill
#
# Bulk Modulus (GPa) = 27.80369 54.23149 41.01759
# Shear Modulus (GPa) = 19.60553 36.29402 27.94978
#
# Velocity S-wave (km/s) = 2.73536 3.72171 3.26598
# Velocity P-wave (km/s) = 4.53730 6.25818 5.46589
#
# Compressibility (1/GPa) = 0.03596645
#
# Stress axis : x y z
#
# Youngs Moduli (GPa) = 56.36877 63.47363 53.18695
#
# Poissons Ratio (x) = 0.21856 0.29760
# Poissons Ratio (y) = 0.19409 -0.04646
# Poissons Ratio (z) = 0.31540 -0.05545
#
# Static dielectric constant tensor:
#      x y z
#    x 2.144860 0.041400 0.055090 
#    y 0.041400 2.179860 0.062310 
#    z 0.055090 0.062310 2.178830 
# 
# From -- ./inp_files/156652.got.cif
#   From: 2010.05.17/outbox.cif.g08.bks.cpg/sg2_79_cif.got.tgz:156652.got - 2010.06.03 11:33:40.
