data_PCOD9085190
_publ_section_title
;
Structure prediction by ZEFSAII (Michael W. Deem and Ramdas Pophale) SiO2 
 PCOD9085190
Probable space group: P -1
;
_chemical_formula_sum "Si O2"
_cell_formula_units_Z 15
_cell_length_a 12.747494
_cell_length_b 9.414293
_cell_length_c 10.392066
_cell_angle_alpha 46.921994
_cell_angle_beta 52.335687
_cell_angle_gamma 82.997820
_cell_volume 619.875748
_symmetry_space_group_name_H-M "P -1"
_symmetry_group_IT_number 2
_symmetry_cell_setting 'triclinic'
loop_
_space_group_symop_operation_xyz
x,y,z
-x,-y,-z
loop_
_atom_site_type_symbol
_atom_site_label
_atom_site_fract_x
_atom_site_fract_y
_atom_site_fract_z
Si Si1 0.198912 0.650941 0.398898
Si Si2 0.500000 0.500000 0.000000
Si Si3 0.916445 0.357356 0.959065
Si Si4 0.392107 0.418529 0.365268
Si Si5 0.334948 0.142379 0.059776
Si Si6 0.532476 0.259250 0.578622
Si Si7 0.862654 0.661924 0.009432
Si Si8 0.343414 0.789995 0.930933
O O1 0.271443 0.490516 0.448107
O O2 0.027163 0.501667 0.668943
O O3 0.238736 0.743584 0.166449
O O4 0.281712 0.881522 0.280512
O O5 0.368083 0.298559 0.323379
O O6 0.622827 0.408124 0.993088
O O7 0.001836 0.252161 0.040511
O O8 0.905292 0.539842 0.943347
O O9 0.750063 0.190745 0.129067
O O10 0.551049 0.660510 0.045978
O O11 0.439964 0.321815 0.506353
O O12 0.449602 0.221462 0.801381
O O13 0.191688 0.172841 0.111071
O O14 0.706937 0.459214 0.316282
O O15 0.500308 0.019727 0.702741
#
# Coordination Sequence:
#
# PCOD9085190 Si02
#       8
#     2   1   2   2   2   2   2   2
#     4  10  21  36  57  84 116 152 186 230 285 340
#     4  10  22  36  54  84 116 146 186 230 282 334
#     4  11  22  39  56  82 120 153 185 228 285 344
#     4  10  19  35  59  85 115 148 189 240 280 329
#     4  10  19  36  60  86 111 146 195 239 280 329
#     4  10  20  38  64  87 108 146 197 240 279 327
#     4  10  22  37  59  85 115 151 189 235 280 335
#     4  10  22  40  61  85 113 148 190 237 284 333
#
# _framework density 24.198395999999999
#
# number of rings (size 3 to 8) (size 9 to 14) (size 15 to 20)
#    0.000    1.867    0.000    5.600    0.000    4.800 
#    0.000   12.667    0.000    0.000    0.000    0.000 
#    0.000    0.000    0.000    0.000    0.000    0.000 
#
# Total GULP energy -83616.493941 kJ/mol
# GULP energy per Si atom -5574.432929 kJ/mol
# Density = 2.414332 g / cm^3
# Si number density = 24.198396 Si / 1000 Ang^3
#
#
#
# Elastic Constant Matrix: (Units=GPa)
#
#
# Indices 1 2 3 4 5 6 
#
# 1 114.6958 6.0161 1.4231 3.3275 -12.3801 -8.5684
# 2 6.0161 83.9432 21.8300 17.0062 -9.4580 -12.5834
# 3 1.4231 21.8300 40.3826 13.5624 4.4800 -2.3765
# 4 3.3275 17.0062 13.5624 25.9804 -1.9630 -6.1184
# 5 -12.3801 -9.4580 4.4800 -1.9630 23.0102 -0.0477
# 6 -8.5684 -12.5834 -2.3765 -6.1184 -0.0477 27.4227
#
#
#
# Elastic Compliance Matrix: (Units=1/GPa)
#
#
# Indices 1 2 3 4 5 6 
#
# 1 0.009549 0.000736 -0.001217 0.000127 0.005695 0.003254
# 2 0.000736 0.016817 -0.008089 -0.004780 0.008488 0.006194
# 3 -0.001217 -0.008089 0.035274 -0.014912 -0.012129 -0.004383
# 4 0.000127 -0.004780 -0.014912 0.051706 0.005435 0.008100
# 5 0.005695 0.008488 -0.012129 0.005435 0.052849 0.005928
# 6 0.003254 0.006194 -0.004383 0.008100 0.005928 0.041763
#
#
# Mechanical properties :
#
#
# Convention : Reuss Voigt Hill
#
# Bulk Modulus (GPa) = 22.47183 33.06221 27.76702
# Shear Modulus (GPa) = 20.83924 29.26616 25.05270
#
# Velocity S-wave (km/s) = 2.93778 3.48145 3.22110
# Velocity P-wave (km/s) = 4.56224 5.46382 5.03326
#
# Compressibility (1/GPa) = 0.04450015
#
# Stress axis : x y z
#
# Youngs Moduli (GPa) = 104.71933 59.46437 28.34912
#
# Poissons Ratio (x) = -0.04376 0.03451
# Poissons Ratio (y) = -0.07706 0.22931
# Poissons Ratio (z) = 0.12748 0.48099
#
# Static dielectric constant tensor:
#      x y z
#    x 1.746000 -0.513660 -0.061500 
#    y -0.513660 0.604570 -0.240170 
#    z -0.061500 -0.240170 1.910110 
# 
# From -- ./inp_files/216710.got.cif
#   From: 2010.05.17/outbox.cif.g08.bks.cpg/sg2_109_cif.got.tgz:216710.got - 2010.06.03 11:33:40.
