data_PCOD9085802
_publ_section_title
;
Structure prediction by ZEFSAII (Michael W. Deem and Ramdas Pophale) SiO2 
 PCOD9085802
Probable space group: P -1
;
_chemical_formula_sum "Si O2"
_cell_formula_units_Z 14
_cell_length_a 11.026000
_cell_length_b 7.900934
_cell_length_c 12.379849
_cell_angle_alpha 108.349438
_cell_angle_beta 67.662453
_cell_angle_gamma 58.676849
_cell_volume 648.690546
_symmetry_space_group_name_H-M "P -1"
_symmetry_group_IT_number 2
_symmetry_cell_setting 'triclinic'
loop_
_space_group_symop_operation_xyz
x,y,z
-x,-y,-z
loop_
_atom_site_type_symbol
_atom_site_label
_atom_site_fract_x
_atom_site_fract_y
_atom_site_fract_z
Si Si1 0.472550 0.548470 0.146835
Si Si2 0.203535 0.706733 0.845430
Si Si3 0.827530 0.892731 0.710813
Si Si4 0.342186 0.922444 0.746118
Si Si5 0.607220 0.055567 0.031080
Si Si6 0.225135 0.390727 0.467340
Si Si7 0.270944 0.241645 0.646925
O O1 0.657819 0.435923 0.125023
O O2 0.296203 0.856127 0.273004
O O3 0.500000 0.500000 0.000000
O O4 0.453555 0.367456 0.160556
O O5 0.208400 0.501095 0.758717
O O6 0.295142 0.761107 0.743398
O O7 0.000000 0.000000 0.000000
O O8 0.780821 0.738731 0.656190
O O9 0.051821 0.699808 0.582840
O O10 0.761773 0.969796 0.873413
O O11 0.568485 0.727024 0.612646
O O12 0.768007 0.866583 0.269854
O O13 0.303705 0.055073 0.902753
O O14 0.500000 0.000000 0.000000
O O15 0.182413 0.312057 0.572372
O O16 0.500000 0.000000 0.500000
#
# Coordination Sequence:
#
# PCOD9085802 Si02
#       7
#     2   2   2   2   2   2   2
#     4   9  20  36  62  87 123 164 201 261 322 367
#     4  11  25  42  65  98 131 168 222 273 322 389
#     4  10  20  39  65  92 128 166 212 268 316 380
#     4  10  22  43  65  93 129 173 209 272 328 381
#     4  10  19  35  63  89 121 161 212 260 316 375
#     4  10  21  38  66  93 128 170 215 259 319 393
#     4  10  23  41  66  90 132 175 213 263 328 388
#
# _framework density 21.581939999999999
#
# number of rings (size 3 to 8) (size 9 to 14) (size 15 to 20)
#    0.000    2.000    1.429    1.714    8.000    2.857 
#    0.000    2.857    6.286    0.000    0.000    0.000 
#    0.000    0.000    0.000    0.000    0.000    0.000 
#
# Total GULP energy -78072.843431 kJ/mol
# GULP energy per Si atom -5576.631674 kJ/mol
# Density = 2.153282 g / cm^3
# Si number density = 21.581940 Si / 1000 Ang^3
#
#
#
# Elastic Constant Matrix: (Units=GPa)
#
#
# Indices 1 2 3 4 5 6 
#
# 1 30.2820 15.6497 20.8993 3.1756 -1.4114 -3.6208
# 2 15.6497 122.6521 53.1747 -1.0988 0.3635 -17.1046
# 3 20.8993 53.1747 93.2389 23.5994 3.6615 -1.6300
# 4 3.1756 -1.0988 23.5994 44.4685 -7.7710 2.2878
# 5 -1.4114 0.3635 3.6615 -7.7710 26.8548 -5.3310
# 6 -3.6208 -17.1046 -1.6300 2.2878 -5.3310 35.5013
#
#
#
# Elastic Compliance Matrix: (Units=1/GPa)
#
#
# Indices 1 2 3 4 5 6 
#
# 1 0.040325 -0.000355 -0.009712 0.002949 0.005110 0.004073
# 2 -0.000355 0.012779 -0.008571 0.005225 0.003668 0.005941
# 3 -0.009712 -0.008571 0.020978 -0.011738 -0.007551 -0.004534
# 4 0.002949 0.005225 -0.011738 0.030436 0.010879 0.001952
# 5 0.005110 0.003668 -0.007551 0.010879 0.043167 0.007723
# 6 0.004073 0.005941 -0.004534 0.001952 0.007723 0.032272
#
#
# Mechanical properties :
#
#
# Convention : Reuss Voigt Hill
#
# Bulk Modulus (GPa) = 27.16970 47.29115 37.23042
# Shear Modulus (GPa) = 21.78624 31.79490 26.79057
#
# Velocity S-wave (km/s) = 3.18066 3.84242 3.52709
# Velocity P-wave (km/s) = 5.10932 6.45333 5.82025
#
# Compressibility (1/GPa) = 0.03680571
#
# Stress axis : x y z
#
# Youngs Moduli (GPa) = 24.79827 78.25480 47.66839
#
# Poissons Ratio (x) = 0.02781 0.46296
# Poissons Ratio (y) = 0.00881 0.40856
# Poissons Ratio (z) = 0.24084 0.67071
#
# Static dielectric constant tensor:
#      x y z
#    x 1.809810 0.009440 0.008100 
#    y 0.009440 1.861440 -0.000260 
#    z 0.008100 -0.000260 1.852830 
# 
# From -- ./inp_files/515892.got.cif
#   From: 2010.05.17/outbox.cif.g08.bks.cpg/sg2_258_cif.got.tgz:515892.got - 2010.06.03 11:33:40.
