data_PCOD9085275
_publ_section_title
;
Structure prediction by ZEFSAII (Michael W. Deem and Ramdas Pophale) SiO2 
 PCOD9085275
Probable space group: P -1
;
_chemical_formula_sum "Si O2"
_cell_formula_units_Z 16
_cell_length_a 15.215053
_cell_length_b 17.809205
_cell_length_c 12.010141
_cell_angle_alpha 16.954319
_cell_angle_beta 52.060538
_cell_angle_gamma 49.614347
_cell_volume 722.676818
_symmetry_space_group_name_H-M "P -1"
_symmetry_group_IT_number 2
_symmetry_cell_setting 'triclinic'
loop_
_space_group_symop_operation_xyz
x,y,z
-x,-y,-z
loop_
_atom_site_type_symbol
_atom_site_label
_atom_site_fract_x
_atom_site_fract_y
_atom_site_fract_z
Si Si1 0.250647 0.294753 0.551952
Si Si2 0.356899 0.773126 0.770488
Si Si3 0.328989 0.501325 0.571520
Si Si4 0.498987 0.082661 0.734752
Si Si5 0.120983 0.221025 0.543641
Si Si6 0.731805 0.642681 0.948990
Si Si7 0.488132 0.589959 0.153174
Si Si8 0.124038 0.620377 0.384864
O O1 0.363334 0.110288 0.786533
O O2 0.201820 0.169296 0.663955
O O3 0.154501 0.421621 0.538828
O O4 0.293148 0.546816 0.115973
O O5 0.461721 0.773813 0.606449
O O6 0.272246 0.066372 0.411649
O O7 0.404645 0.727406 0.924054
O O8 0.419256 0.652225 0.234527
O O9 0.229113 0.532476 0.514434
O O10 0.271920 0.550154 0.669360
O O11 0.410758 0.201270 0.934505
O O12 0.514559 0.274297 0.552192
O O13 0.170887 0.391459 0.172458
O O14 0.994692 0.370996 0.472961
O O15 0.117235 0.927299 0.920486
O O16 0.607494 0.667920 0.952989
#
# Coordination Sequence:
#
# PCOD9085275 Si02
#       8
#     2   2   2   2   2   2   2   2
#     4  11  20  40  68  91 122 156 210 256 310 357
#     4  10  19  35  59  90 124 160 198 258 306 361
#     4  11  23  39  58  91 133 164 194 253 314 376
#     4  10  21  35  61  92 129 160 195 256 313 376
#     4  11  24  43  68  90 117 168 214 259 298 352
#     4  11  22  36  59  90 127 162 205 250 307 367
#     4  11  19  34  57  88 126 159 203 247 305 368
#     4  11  24  44  65  91 124 160 215 257 299 364
#
# _framework density 22.139908999999999
#
# number of rings (size 3 to 8) (size 9 to 14) (size 15 to 20)
#    0.000    1.250    3.750    4.500    0.000    4.500 
#    0.000    0.000    0.000    3.750    0.000    0.000 
#    0.000    0.000    0.000    0.000    0.000    0.000 
#
# Total GULP energy -89398.887491 kJ/mol
# GULP energy per Si atom -5587.430468 kJ/mol
# Density = 2.208952 g / cm^3
# Si number density = 22.139909 Si / 1000 Ang^3
#
#
#
# Elastic Constant Matrix: (Units=GPa)
#
#
# Indices 1 2 3 4 5 6 
#
# 1 33.5600 21.9162 9.8171 9.7871 -4.4796 -7.2459
# 2 21.9162 158.2801 39.9286 39.6496 -2.2582 -9.4857
# 3 9.8171 39.9286 54.3766 23.1049 -4.2344 -4.2792
# 4 9.7871 39.6496 23.1049 52.6095 1.4789 -3.6984
# 5 -4.4796 -2.2582 -4.2344 1.4789 26.8825 1.6556
# 6 -7.2459 -9.4857 -4.2792 -3.6984 1.6556 38.9513
#
#
#
# Elastic Compliance Matrix: (Units=1/GPa)
#
#
# Indices 1 2 3 4 5 6 
#
# 1 0.035131 -0.003255 -0.001856 -0.003058 0.005147 0.005029
# 2 -0.003255 0.008909 -0.004114 -0.004244 -0.000253 0.000720
# 3 -0.001856 -0.004114 0.025381 -0.007768 0.003737 0.000545
# 4 -0.003058 -0.004244 -0.007768 0.026300 -0.003548 0.000192
# 5 0.005147 -0.000253 0.003737 -0.003548 0.038861 -0.000682
# 6 0.005029 0.000720 0.000545 0.000192 -0.000682 0.026891
#
#
# Mechanical properties :
#
#
# Convention : Reuss Voigt Hill
#
# Bulk Modulus (GPa) = 19.61938 43.28229 31.45083
# Shear Modulus (GPa) = 25.39180 35.32563 30.35871
#
# Velocity S-wave (km/s) = 3.39023 3.99878 3.70702
# Velocity P-wave (km/s) = 4.91993 6.39627 5.70605
#
# Compressibility (1/GPa) = 0.05097001
#
# Stress axis : x y z
#
# Youngs Moduli (GPa) = 28.46495 112.24332 39.40030
#
# Poissons Ratio (x) = 0.36538 0.07314
# Poissons Ratio (y) = 0.09266 0.16209
# Poissons Ratio (z) = 0.05284 0.46175
#
# Static dielectric constant tensor:
#      x y z
#    x 1.781180 0.035740 0.020840 
#    y 0.035740 1.871940 0.013630 
#    z 0.020840 0.013630 1.909570 
# 
# From -- ./inp_files/209008.got.cif
#   From: 2010.05.17/outbox.cif.g08.bks.cpg/sg2_105_cif.got.tgz:209008.got - 2010.06.03 11:33:40.
