data_PCOD9085428
_publ_section_title
;
Structure prediction by ZEFSAII (Michael W. Deem and Ramdas Pophale) SiO2 
 PCOD9085428
Probable space group: P -1
;
_chemical_formula_sum "Si O2"
_cell_formula_units_Z 14
_cell_length_a 9.904075
_cell_length_b 10.642629
_cell_length_c 11.428553
_cell_angle_alpha 77.474910
_cell_angle_beta 58.113247
_cell_angle_gamma 124.913345
_cell_volume 558.860042
_symmetry_space_group_name_H-M "P -1"
_symmetry_group_IT_number 2
_symmetry_cell_setting 'triclinic'
loop_
_space_group_symop_operation_xyz
x,y,z
-x,-y,-z
loop_
_atom_site_type_symbol
_atom_site_label
_atom_site_fract_x
_atom_site_fract_y
_atom_site_fract_z
Si Si1 0.012234 0.650354 0.828701
Si Si2 0.545517 0.139432 0.582713
Si Si3 0.834057 0.802583 0.832483
Si Si4 0.367786 0.290784 0.533433
Si Si5 0.499826 0.186531 0.083190
Si Si6 0.312369 0.674959 0.278608
Si Si7 0.879422 0.739565 0.561833
O O1 0.149180 0.714296 0.623666
O O2 0.856539 0.682647 0.910573
O O3 0.305863 0.873750 0.716214
O O4 0.771178 0.380207 0.005617
O O5 0.520435 0.256689 0.495899
O O6 0.501476 0.149892 0.734323
O O7 0.566335 0.709244 0.944578
O O8 0.924156 0.824208 0.654006
O O9 0.040834 0.035340 0.764372
O O10 0.500000 0.500000 0.500000
O O11 0.313078 0.294677 0.423294
O O12 0.198774 0.937164 0.321380
O O13 0.599606 0.202171 0.908564
O O14 0.000000 0.500000 0.500000
O O15 0.294585 0.508929 0.316353
#
# Coordination Sequence:
#
# PCOD9085428 Si02
#       7
#     2   2   2   2   2   2   2
#     4  10  20  39  67  90 122 169 208 257 310 374
#     4  10  21  39  63  90 128 168 204 255 323 363
#     4  10  21  41  64  93 125 164 215 257 306 370
#     4  10  19  35  60  89 126 167 201 253 315 363
#     4  11  22  38  65  98 119 164 216 252 312 374
#     4  12  23  41  64  93 127 168 203 261 317 367
#     4  11  23  41  65  94 126 166 211 260 306 368
#
# _framework density 25.050995
#
# number of rings (size 3 to 8) (size 9 to 14) (size 15 to 20)
#    0.000    1.429    4.286    2.143    0.000    0.571 
#    0.000   12.143    0.000    9.429    0.000    0.000 
#    0.000    0.000    0.000    0.000    0.000    0.000 
#
# Total GULP energy -78030.406846 kJ/mol
# GULP energy per Si atom -5573.600489 kJ/mol
# Density = 2.499398 g / cm^3
# Si number density = 25.050995 Si / 1000 Ang^3
#
#
#
# Elastic Constant Matrix: (Units=GPa)
#
#
# Indices 1 2 3 4 5 6 
#
# 1 67.7853 18.3675 3.0437 -7.0746 2.5886 -20.0905
# 2 18.3675 178.5065 47.6203 -10.4966 16.1560 14.4953
# 3 3.0437 47.6203 106.4958 -3.5118 14.4362 2.1160
# 4 -7.0746 -10.4966 -3.5118 27.8383 2.8124 -10.0494
# 5 2.5886 16.1560 14.4362 2.8124 29.0558 -2.6760
# 6 -20.0905 14.4953 2.1160 -10.0494 -2.6760 30.9680
#
#
#
# Elastic Compliance Matrix: (Units=1/GPa)
#
#
# Indices 1 2 3 4 5 6 
#
# 1 0.022970 -0.003579 0.000903 0.011948 0.000218 0.020412
# 2 -0.003579 0.007430 -0.002706 -0.000303 -0.002988 -0.005971
# 3 0.000903 -0.002706 0.011162 0.001473 -0.004153 0.001209
# 4 0.011948 -0.000303 0.001473 0.047722 -0.004136 0.022921
# 5 0.000218 -0.002988 -0.004153 -0.004136 0.038876 0.003841
# 6 0.020412 -0.005971 0.001209 0.022921 0.003841 0.056016
#
#
# Mechanical properties :
#
#
# Convention : Reuss Voigt Hill
#
# Bulk Modulus (GPa) = 32.47123 54.53898 43.50510
# Shear Modulus (GPa) = 24.36577 36.48948 30.42763
#
# Velocity S-wave (km/s) = 3.12211 3.82069 3.48893
# Velocity P-wave (km/s) = 5.09774 6.42511 5.79953
#
# Compressibility (1/GPa) = 0.03079649
#
# Stress axis : x y z
#
# Youngs Moduli (GPa) = 43.53501 134.59359 89.59109
#
# Poissons Ratio (x) = 0.48171 -0.08087
# Poissons Ratio (y) = 0.15581 0.24246
# Poissons Ratio (z) = -0.03930 0.36424
#
# Static dielectric constant tensor:
#      x y z
#    x 2.092060 -0.011450 0.027950 
#    y -0.011450 2.112760 -0.020380 
#    z 0.027950 -0.020380 2.050410 
# 
# From -- ./inp_files/425920.got.cif
#   From: 2010.05.17/outbox.cif.g08.bks.cpg/sg2_213_cif.got.tgz:425920.got - 2010.06.03 11:33:40.
