data_PCOD9085620
_publ_section_title
;
Structure prediction by ZEFSAII (Michael W. Deem and Ramdas Pophale) SiO2 
 PCOD9085620
Probable space group: P -1
;
_chemical_formula_sum "Si O2"
_cell_formula_units_Z 12
_cell_length_a 15.834143
_cell_length_b 5.725146
_cell_length_c 13.215654
_cell_angle_alpha 78.120365
_cell_angle_beta 152.812393
_cell_angle_gamma 99.470074
_cell_volume 535.202626
_symmetry_space_group_name_H-M "P -1"
_symmetry_group_IT_number 2
_symmetry_cell_setting 'triclinic'
loop_
_space_group_symop_operation_xyz
x,y,z
-x,-y,-z
loop_
_atom_site_type_symbol
_atom_site_label
_atom_site_fract_x
_atom_site_fract_y
_atom_site_fract_z
Si Si1 0.089680 0.446572 0.444582
Si Si2 0.363852 0.791369 0.786313
Si Si3 0.645395 0.771156 0.418529
Si Si4 0.748280 0.876884 0.188807
Si Si5 0.219873 0.767238 0.978573
Si Si6 0.973993 0.780119 0.913880
O O1 0.176560 0.662571 0.575130
O O2 0.235282 0.406691 0.511169
O O3 0.109782 0.239402 0.569357
O O4 0.890331 0.431015 0.183665
O O5 0.365138 0.993324 0.682792
O O6 0.340503 0.896934 0.864269
O O7 0.578707 0.695031 0.015285
O O8 0.436887 0.703417 0.224124
O O9 0.768296 0.808117 0.644832
O O10 0.806769 0.986617 0.136077
O O11 0.119054 0.804372 0.974408
O O12 0.000000 0.500000 0.000000
O O13 0.000000 0.000000 0.000000
#
# Coordination Sequence:
#
# PCOD9085620 Si02
#       6
#     2   2   2   2   2   2
#     4  10  19  35  61  93 137 175 212 262 318 386
#     4   9  18  34  60  91 134 175 207 265 316 387
#     4   9  22  42  64  95 133 165 218 266 334 398
#     4   9  18  35  55  94 133 172 218 255 317 391
#     4  10  22  42  63  96 128 173 220 271 330 401
#     4  11  27  50  74  96 131 169 222 291 349 392
#
# _framework density 22.421415
#
# number of rings (size 3 to 8) (size 9 to 14) (size 15 to 20)
#    0.000    2.333    0.000    2.000    4.667    2.000 
#    9.000    0.000    0.000    0.000    0.000    0.000 
#    0.000    0.000    0.000    0.000    0.000    0.000 
#
# Total GULP energy -66953.554082 kJ/mol
# GULP energy per Si atom -5579.462840 kJ/mol
# Density = 2.237038 g / cm^3
# Si number density = 22.421415 Si / 1000 Ang^3
#
#
#
# Elastic Constant Matrix: (Units=GPa)
#
#
# Indices 1 2 3 4 5 6 
#
# 1 146.3820 56.5763 74.4897 19.1946 3.6387 18.6514
# 2 56.5763 78.6920 47.4801 30.7339 -6.5373 3.2784
# 3 74.4897 47.4801 197.8448 27.3731 10.1782 -4.7318
# 4 19.1946 30.7339 27.3731 28.9208 6.1427 1.0390
# 5 3.6387 -6.5373 10.1782 6.1427 42.6173 1.3171
# 6 18.6514 3.2784 -4.7318 1.0390 1.3171 24.1245
#
#
#
# Elastic Compliance Matrix: (Units=1/GPa)
#
#
# Indices 1 2 3 4 5 6 
#
# 1 0.012485 -0.008563 -0.003432 0.004812 -0.001967 -0.009262
# 2 -0.008563 0.031387 -0.000704 -0.029199 0.009832 0.002937
# 3 -0.003432 -0.000704 0.007190 -0.003695 -0.001135 0.004380
# 4 0.004812 -0.029199 -0.003695 0.068952 -0.013863 -0.002690
# 5 -0.001967 0.009832 -0.001135 -0.013863 0.027439 -0.000939
# 6 -0.009262 0.002937 0.004380 -0.002690 -0.000939 0.049240
#
#
# Mechanical properties :
#
#
# Convention : Reuss Voigt Hill
#
# Bulk Modulus (GPa) = 38.96342 86.66788 62.81565
# Shear Modulus (GPa) = 21.67819 35.42404 28.55112
#
# Velocity S-wave (km/s) = 3.11280 3.97913 3.57232
# Velocity P-wave (km/s) = 5.50771 7.73623 6.71506
#
# Compressibility (1/GPa) = 0.02566510
#
# Stress axis : x y z
#
# Youngs Moduli (GPa) = 80.09356 31.85993 139.08037
#
# Poissons Ratio (x) = 0.27280 0.47732
# Poissons Ratio (y) = 0.68581 0.09796
# Poissons Ratio (z) = 0.27488 0.02244
#
# Static dielectric constant tensor:
#      x y z
#    x 1.828510 -0.043800 0.051760 
#    y -0.043800 1.975260 -0.036140 
#    z 0.051760 -0.036140 1.860180 
# 
# From -- ./inp_files/30166.got.cif
#   From: 2010.05.17/outbox.cif.g08.bks.cpg/sg2_16_cif.got.tgz:30166.got - 2010.06.03 11:33:40.
