data_PCOD9085218
_publ_section_title
;
Structure prediction by ZEFSAII (Michael W. Deem and Ramdas Pophale) SiO2 
 PCOD9085218
Probable space group: P -1
;
_chemical_formula_sum "Si O2"
_cell_formula_units_Z 16
_cell_length_a 11.315908
_cell_length_b 6.964396
_cell_length_c 11.097979
_cell_angle_alpha 105.612522
_cell_angle_beta 103.257095
_cell_angle_gamma 62.723194
_cell_volume 742.918115
_symmetry_space_group_name_H-M "P -1"
_symmetry_group_IT_number 2
_symmetry_cell_setting 'triclinic'
loop_
_space_group_symop_operation_xyz
x,y,z
-x,-y,-z
loop_
_atom_site_type_symbol
_atom_site_label
_atom_site_fract_x
_atom_site_fract_y
_atom_site_fract_z
Si Si1 0.276712 0.042806 0.466264
Si Si2 0.433001 0.553744 0.155950
Si Si3 0.661805 0.769270 0.841546
Si Si4 0.668434 0.141402 0.031251
Si Si5 0.080563 0.851103 0.380232
Si Si6 0.088759 0.375951 0.297856
Si Si7 0.952454 0.094180 0.141894
Si Si8 0.529208 0.882186 0.315492
O O1 0.150895 0.245482 0.413729
O O2 0.334288 0.113874 0.607872
O O3 0.227396 0.850054 0.432189
O O4 0.405249 0.969970 0.396189
O O5 0.343912 0.464704 0.196158
O O6 0.527863 0.325343 0.075158
O O7 0.535489 0.643953 0.248144
O O8 0.334800 0.756942 0.086337
O O9 0.790903 0.734828 0.788048
O O10 0.528246 0.945877 0.777202
O O11 0.674021 0.898751 0.984352
O O12 0.798912 0.134077 0.124248
O O13 0.065716 0.624843 0.348094
O O14 0.000000 0.000000 0.500000
O O15 0.032213 0.942071 0.248316
O O16 0.972178 0.316374 0.208766
O O17 0.000000 0.000000 0.000000
#
# Coordination Sequence:
#
# PCOD9085218 Si02
#       8
#     2   2   2   2   2   2   2   2
#     4   9  20  39  59  84 123 157 202 259 301 372
#     4  10  21  35  58  85 122 157 193 256 316 364
#     4  10  19  35  59  86 120 155 205 255 302 371
#     4  10  22  38  55  88 123 157 199 252 315 361
#     4  11  26  42  61  93 125 162 210 260 311 367
#     4  10  22  39  64  88 119 167 207 257 313 362
#     4  11  24  43  66  91 126 165 211 260 301 373
#     4   9  19  35  58  87 115 158 203 246 311 366
#
# _framework density 21.536691999999999
#
# number of rings (size 3 to 8) (size 9 to 14) (size 15 to 20)
#    0.000    2.000    1.250    1.125    3.500    7.500 
#    0.000    3.750    0.000    0.000    0.000    0.000 
#    0.000    0.000    0.000    0.000    0.000    0.000 
#
# Total GULP energy -89154.494065 kJ/mol
# GULP energy per Si atom -5572.155879 kJ/mol
# Density = 2.148767 g / cm^3
# Si number density = 21.536692 Si / 1000 Ang^3
#
#
#
# Elastic Constant Matrix: (Units=GPa)
#
#
# Indices 1 2 3 4 5 6 
#
# 1 65.0339 15.6178 36.9367 3.6195 34.0762 13.6762
# 2 15.6178 94.8962 40.8507 37.5861 14.2843 24.9984
# 3 36.9367 40.8507 98.6626 20.0867 34.8742 9.8435
# 4 3.6195 37.5861 20.0867 28.9446 11.4554 4.9381
# 5 34.0762 14.2843 34.8742 11.4554 45.4451 12.5236
# 6 13.6762 24.9984 9.8435 4.9381 12.5236 31.9705
#
#
#
# Elastic Compliance Matrix: (Units=1/GPa)
#
#
# Indices 1 2 3 4 5 6 
#
# 1 0.029148 -0.005148 -0.004477 0.014313 -0.020015 -0.001436
# 2 -0.005148 0.034106 -0.006896 -0.040986 0.014770 -0.021798
# 3 -0.004477 -0.006896 0.017394 0.000216 -0.009424 0.005610
# 4 0.014313 -0.040986 0.000216 0.092946 -0.027593 0.022311
# 5 -0.020015 0.014770 -0.009424 -0.027593 0.050901 -0.015763
# 6 -0.001436 -0.021798 0.005610 0.022311 -0.015763 0.049939
#
#
# Mechanical properties :
#
#
# Convention : Reuss Voigt Hill
#
# Bulk Modulus (GPa) = 21.00538 49.48924 35.24731
# Shear Modulus (GPa) = 15.46332 32.28453 23.87392
#
# Velocity S-wave (km/s) = 2.68246 3.87595 3.33306
# Velocity P-wave (km/s) = 4.40097 6.56198 5.58696
#
# Compressibility (1/GPa) = 0.04760684
#
# Stress axis : x y z
#
# Youngs Moduli (GPa) = 34.30737 29.32008 57.49010
#
# Poissons Ratio (x) = 0.15095 0.25738
# Poissons Ratio (y) = 0.17662 0.39645
# Poissons Ratio (z) = 0.15359 0.20219
#
# Static dielectric constant tensor:
#      x y z
#    x 1.834610 0.061230 -0.049380 
#    y 0.061230 1.797240 0.005200 
#    z -0.049380 0.005200 1.875010 
# 
# From -- ./inp_files/411112.got.cif
#   From: 2010.05.17/outbox.cif.g08.bks.cpg/sg2_206_cif.got.tgz:411112.got - 2010.06.03 11:33:40.
