data_PCOD9085444
_publ_section_title
;
Structure prediction by ZEFSAII (Michael W. Deem and Ramdas Pophale) SiO2 
 PCOD9085444
Probable space group: P -1
;
_chemical_formula_sum "Si O2"
_cell_formula_units_Z 16
_cell_length_a 10.876383
_cell_length_b 12.295117
_cell_length_c 8.221356
_cell_angle_alpha 63.575772
_cell_angle_beta 60.184864
_cell_angle_gamma 92.533010
_cell_volume 802.827808
_symmetry_space_group_name_H-M "P -1"
_symmetry_group_IT_number 2
_symmetry_cell_setting 'triclinic'
loop_
_space_group_symop_operation_xyz
x,y,z
-x,-y,-z
loop_
_atom_site_type_symbol
_atom_site_label
_atom_site_fract_x
_atom_site_fract_y
_atom_site_fract_z
Si Si1 0.405823 0.306518 0.102773
Si Si2 0.453285 0.856455 0.055477
Si Si3 0.878884 0.324460 0.054931
Si Si4 0.689559 0.337534 0.449760
Si Si5 0.345748 0.936296 0.744812
Si Si6 0.200725 0.397327 0.639653
Si Si7 0.740410 0.504007 0.818672
Si Si8 0.623195 0.785738 0.447461
O O1 0.291733 0.387309 0.118511
O O2 0.376642 0.236593 0.344038
O O3 0.415522 0.204863 0.026984
O O4 0.574086 0.412294 0.930411
O O5 0.337768 0.761246 0.318227
O O6 0.380711 0.864593 0.924938
O O7 0.500000 0.000000 0.000000
O O8 0.843375 0.355875 0.240553
O O9 0.780423 0.173436 0.195871
O O10 0.816854 0.416746 0.922271
O O11 0.047051 0.347977 0.873341
O O12 0.693901 0.473343 0.427625
O O13 0.548487 0.275511 0.462848
O O14 0.500000 0.000000 0.500000
O O15 0.308697 0.062679 0.735854
O O16 0.175788 0.433489 0.444463
O O17 0.282649 0.293193 0.643505
#
# Coordination Sequence:
#
# PCOD9085444 Si02
#       8
#     2   2   2   2   2   2   2   2
#     4  10  19  35  60  91 113 147 202 249 283 347
#     4  12  21  34  59  96 116 146 195 251 294 342
#     4  12  23  40  61  86 124 161 192 246 300 356
#     4  12  22  38  60  88 123 158 194 244 293 355
#     4  12  20  40  65  88 115 154 205 240 293 355
#     4  11  25  38  59  92 121 155 200 246 302 347
#     4  10  19  37  61  84 115 153 199 243 293 342
#     4  11  22  39  63  89 116 159 201 247 290 346
#
# _framework density 19.929555000000001
#
# number of rings (size 3 to 8) (size 9 to 14) (size 15 to 20)
#    0.000    0.750    7.500    1.125    0.000    1.500 
#    0.000    0.000    0.000    0.750    0.000    0.000 
#    0.000    0.000    0.000    0.000    0.000    0.000 
#
# Total GULP energy -89401.605230 kJ/mol
# GULP energy per Si atom -5587.600327 kJ/mol
# Density = 1.988419 g / cm^3
# Si number density = 19.929555 Si / 1000 Ang^3
#
#
#
# Elastic Constant Matrix: (Units=GPa)
#
#
# Indices 1 2 3 4 5 6 
#
# 1 14.3811 9.4988 26.6884 -2.1039 -4.0878 -6.7408
# 2 9.4988 175.9270 40.3220 -0.1735 -10.2776 -10.8270
# 3 26.6884 40.3220 106.9535 10.0643 0.5591 -22.8545
# 4 -2.1039 -0.1735 10.0643 36.0403 -2.4059 0.0061
# 5 -4.0878 -10.2776 0.5591 -2.4059 17.7491 3.1455
# 6 -6.7408 -10.8270 -22.8545 0.0061 3.1455 22.7957
#
#
#
# Elastic Compliance Matrix: (Units=1/GPa)
#
#
# Indices 1 2 3 4 5 6 
#
# 1 0.171306 0.004318 -0.047392 0.026411 0.047263 -0.001336
# 2 0.004318 0.006616 -0.003775 0.001684 0.005187 -0.000082
# 3 -0.047392 -0.003775 0.026618 -0.011412 -0.017851 0.013346
# 4 0.026411 0.001684 -0.011412 0.033335 0.012751 -0.004600
# 5 0.047263 0.005187 -0.017851 0.012751 0.074603 -0.011755
# 6 -0.001336 -0.000082 0.013346 -0.004600 -0.011755 0.058438
#
#
# Mechanical properties :
#
#
# Convention : Reuss Voigt Hill
#
# Bulk Modulus (GPa) = 9.02189 50.03111 29.52650
# Shear Modulus (GPa) = 9.96890 30.03385 20.00137
#
# Velocity S-wave (km/s) = 2.23896 3.88622 3.17141
# Velocity P-wave (km/s) = 3.34972 6.73019 5.31583
#
# Compressibility (1/GPa) = 0.11084152
#
# Stress axis : x y z
#
# Youngs Moduli (GPa) = 5.83752 151.15208 37.56904
#
# Poissons Ratio (x) = -0.65263 1.78047
# Poissons Ratio (y) = -0.02520 0.14181
# Poissons Ratio (z) = 0.27665 0.57055
#
# Static dielectric constant tensor:
#      x y z
#    x 1.706000 0.004760 0.024490 
#    y 0.004760 1.759710 0.020630 
#    z 0.024490 0.020630 1.698770 
# 
# From -- ./inp_files/181655.got.cif
#   From: 2010.05.17/outbox.cif.g08.bks.cpg/sg2_91_cif.got.tgz:181655.got - 2010.06.03 11:33:40.
