data_PCOD9085767
_publ_section_title
;
Structure prediction by ZEFSAII (Michael W. Deem and Ramdas Pophale) SiO2 
 PCOD9085767
Probable space group: P -1
;
_chemical_formula_sum "Si O2"
_cell_formula_units_Z 16
_cell_length_a 10.813541
_cell_length_b 7.572247
_cell_length_c 9.092811
_cell_angle_alpha 105.619507
_cell_angle_beta 85.290245
_cell_angle_gamma 74.618271
_cell_volume 681.849900
_symmetry_space_group_name_H-M "P -1"
_symmetry_group_IT_number 2
_symmetry_cell_setting 'triclinic'
loop_
_space_group_symop_operation_xyz
x,y,z
-x,-y,-z
loop_
_atom_site_type_symbol
_atom_site_label
_atom_site_fract_x
_atom_site_fract_y
_atom_site_fract_z
Si Si1 0.956947 0.906097 0.839312
Si Si2 0.876849 0.426130 0.455143
Si Si3 0.465539 0.751746 0.916621
Si Si4 0.416588 0.389256 0.808793
Si Si5 0.207706 0.239779 0.668486
Si Si6 0.688391 0.878224 0.835273
Si Si7 0.387545 0.922257 0.427055
Si Si8 0.059870 0.817338 0.345979
O O1 0.840710 0.808382 0.841730
O O2 0.072930 0.746428 0.707755
O O3 0.896286 0.088887 0.778083
O O4 0.000000 0.000000 0.000000
O O5 0.781880 0.616294 0.434144
O O6 0.000000 0.500000 0.500000
O O7 0.844530 0.338149 0.591659
O O8 0.382895 0.615510 0.841719
O O9 0.594659 0.743879 0.811805
O O10 0.520643 0.675820 0.054173
O O11 0.374196 0.966761 0.996191
O O12 0.295921 0.303737 0.791648
O O13 0.532671 0.295682 0.661248
O O14 0.270231 0.016409 0.569711
O O15 0.057038 0.264423 0.714255
O O16 0.663009 0.984104 0.704247
O O17 0.500000 0.000000 0.500000
O O18 0.000000 0.000000 0.500000
#
# Coordination Sequence:
#
# PCOD9085767 Si02
#       8
#     2   2   2   2   2   2   2   2
#     4  11  24  38  60  93 127 159 209 252 302 370
#     4   9  19  39  60  85 121 165 203 243 306 368
#     4   9  20  38  59  83 112 161 191 236 317 358
#     4   9  19  36  58  86 115 146 202 245 303 359
#     4  10  19  35  63  83 122 149 202 251 293 354
#     4  10  20  38  60  80 125 152 198 251 301 359
#     4   9  18  36  59  88 111 153 197 254 294 353
#     4   9  19  38  59  86 119 165 203 235 309 365
#
# _framework density 23.465575999999999
#
# number of rings (size 3 to 8) (size 9 to 14) (size 15 to 20)
#    0.000    2.500    0.000    2.250    3.500    0.000 
#    0.000   23.750    0.000    0.000    0.000    0.000 
#    0.000    0.000    0.000    0.000    0.000    0.000 
#
# Total GULP energy -89163.617006 kJ/mol
# GULP energy per Si atom -5572.726063 kJ/mol
# Density = 2.341217 g / cm^3
# Si number density = 23.465576 Si / 1000 Ang^3
#
#
#
# Elastic Constant Matrix: (Units=GPa)
#
#
# Indices 1 2 3 4 5 6 
#
# 1 103.0023 4.1157 26.0255 8.6994 13.8017 7.5813
# 2 4.1157 55.5297 10.2899 3.3449 2.5032 7.1851
# 3 26.0255 10.2899 65.3838 5.5582 19.6081 4.7168
# 4 8.6994 3.3449 5.5582 20.8664 2.3486 4.7649
# 5 13.8017 2.5032 19.6081 2.3486 25.7924 2.7083
# 6 7.5813 7.1851 4.7168 4.7649 2.7083 30.4644
#
#
#
# Elastic Compliance Matrix: (Units=1/GPa)
#
#
# Indices 1 2 3 4 5 6 
#
# 1 0.011323 0.000300 -0.003211 -0.003187 -0.003188 -0.001609
# 2 0.000300 0.019102 -0.002939 -0.001591 0.000780 -0.003945
# 3 -0.003211 -0.002939 0.021469 -0.002272 -0.014088 -0.000224
# 4 -0.003187 -0.001591 -0.002272 0.051650 -0.000431 -0.006520
# 5 -0.003188 0.000780 -0.014088 -0.000431 0.051329 -0.001705
# 6 -0.001609 -0.003945 -0.000224 -0.006520 -0.001705 0.035362
#
#
# Mechanical properties :
#
#
# Convention : Reuss Voigt Hill
#
# Bulk Modulus (GPa) = 24.88050 33.86422 29.37236
# Shear Modulus (GPa) = 23.21966 27.65694 25.43830
#
# Velocity S-wave (km/s) = 3.14908 3.43682 3.29609
# Velocity P-wave (km/s) = 4.88347 5.49653 5.19904
#
# Compressibility (1/GPa) = 0.04019212
#
# Stress axis : x y z
#
# Youngs Moduli (GPa) = 88.31873 52.35050 46.57850
#
# Poissons Ratio (x) = -0.01569 0.14957
# Poissons Ratio (y) = -0.02647 0.13692
# Poissons Ratio (z) = 0.28360 0.15388
#
# Static dielectric constant tensor:
#      x y z
#    x 2.017830 -0.003970 -0.066750 
#    y -0.003970 1.945490 0.016100 
#    z -0.066750 0.016100 1.970730 
# 
# From -- ./inp_files/240441.got.cif
#   From: 2010.05.17/outbox.cif.g08.bks.cpg/sg2_121_cif.got.tgz:240441.got - 2010.06.03 11:33:40.
