data_PCOD9085723
_publ_section_title
;
Structure prediction by ZEFSAII (Michael W. Deem and Ramdas Pophale) SiO2 
 PCOD9085723
Probable space group: P -1
;
_chemical_formula_sum "Si O2"
_cell_formula_units_Z 14
_cell_length_a 12.906525
_cell_length_b 7.676092
_cell_length_c 7.318779
_cell_angle_alpha 109.428557
_cell_angle_beta 46.830887
_cell_angle_gamma 109.958333
_cell_volume 491.848187
_symmetry_space_group_name_H-M "P -1"
_symmetry_group_IT_number 2
_symmetry_cell_setting 'triclinic'
loop_
_space_group_symop_operation_xyz
x,y,z
-x,-y,-z
loop_
_atom_site_type_symbol
_atom_site_label
_atom_site_fract_x
_atom_site_fract_y
_atom_site_fract_z
Si Si1 0.251753 0.412045 0.896582
Si Si2 0.567379 0.288115 0.951587
Si Si3 0.957426 0.716457 0.374155
Si Si4 0.773514 0.048446 0.754099
Si Si5 0.667463 0.990640 0.281756
Si Si6 0.046611 0.793633 0.885789
Si Si7 0.672754 0.513212 0.580511
O O1 0.309036 0.215085 0.758296
O O2 0.298027 0.502880 0.674461
O O3 0.079885 0.347646 0.114116
O O4 0.331593 0.552446 0.996777
O O5 0.639253 0.105396 0.829115
O O6 0.572625 0.354194 0.759122
O O7 0.409704 0.308111 0.223835
O O8 0.830781 0.543740 0.492313
O O9 0.094852 0.773934 0.354223
O O10 0.019206 0.714880 0.096011
O O11 0.863837 0.885762 0.541012
O O12 0.719285 0.016774 0.017263
O O13 0.500000 0.000000 0.500000
O O14 0.780964 0.143461 0.310874
O O15 0.000000 0.000000 0.000000
#
# Coordination Sequence:
#
# PCOD9085723 Si02
#       7
#     2   2   2   2   2   2   2
#     4  10  20  40  63  84 124 164 198 250 305 364
#     4  11  23  39  60  89 126 162 199 251 311 366
#     4   9  19  39  61  84 119 158 205 254 293 358
#     4  10  21  38  62  91 120 158 204 250 307 362
#     4  10  19  35  62  92 120 155 204 255 302 356
#     4   8  17  35  59  86 114 155 201 243 297 357
#     4  10  22  40  59  87 123 163 205 246 303 366
#
# _framework density 28.464068000000001
#
# number of rings (size 3 to 8) (size 9 to 14) (size 15 to 20)
#    0.000    2.286    0.000    2.143    0.000    2.286 
#    0.000   22.143    0.000    0.000    0.000    0.000 
#    0.000    0.000    0.000    0.000    0.000    0.000 
#
# Total GULP energy -78444.795662 kJ/mol
# GULP energy per Si atom -5603.199690 kJ/mol
# Density = 2.839928 g / cm^3
# Si number density = 28.464068 Si / 1000 Ang^3
#
#
#
# Elastic Constant Matrix: (Units=GPa)
#
#
# Indices 1 2 3 4 5 6 
#
# 1 123.7550 44.2658 73.3767 -15.1122 -45.9833 1.9528
# 2 44.2658 104.5803 37.8492 4.8615 -8.1307 9.1473
# 3 73.3767 37.8492 164.0529 -9.7234 -27.2360 4.8447
# 4 -15.1122 4.8615 -9.7234 45.1013 -13.4994 -16.4534
# 5 -45.9833 -8.1307 -27.2360 -13.4994 72.1471 -13.5570
# 6 1.9528 9.1473 4.8447 -16.4534 -13.5570 62.5419
#
#
#
# Elastic Compliance Matrix: (Units=1/GPa)
#
#
# Indices 1 2 3 4 5 6 
#
# 1 0.020003 -0.007046 -0.004384 0.013454 0.014201 0.007363
# 2 -0.007046 0.013299 -0.001178 -0.007550 -0.005764 -0.004870
# 3 -0.004384 -0.001178 0.008416 0.000519 0.000322 -0.000136
# 4 0.013454 -0.007550 0.000519 0.038253 0.017815 0.014569
# 5 0.014201 -0.005764 0.000322 0.017815 0.027800 0.011088
# 6 0.007363 -0.004870 -0.000136 0.014569 0.011088 0.022718
#
#
# Mechanical properties :
#
#
# Convention : Reuss Voigt Hill
#
# Bulk Modulus (GPa) = 60.58880 78.15240 69.37060
# Shear Modulus (GPa) = 31.01623 51.75116 41.38369
#
# Velocity S-wave (km/s) = 3.30458 4.26857 3.81713
# Velocity P-wave (km/s) = 5.99105 7.19794 6.62205
#
# Compressibility (1/GPa) = 0.01650470
#
# Stress axis : x y z
#
# Youngs Moduli (GPa) = 49.99213 75.19282 118.81710
#
# Poissons Ratio (x) = 0.52977 0.52087
# Poissons Ratio (y) = 0.35222 0.13992
# Poissons Ratio (z) = 0.21916 0.08855
#
# Static dielectric constant tensor:
#      x y z
#    x 2.206000 0.021600 0.008470 
#    y 0.021600 2.333220 0.041310 
#    z 0.008470 0.041310 2.192340 
# 
# From -- ./inp_files/199655.got.cif
#   From: 2010.05.17/outbox.cif.g08.bks.cpg/sg2_100_cif.got.tgz:199655.got - 2010.06.03 11:33:40.
