data_PCOD9085951
_publ_section_title
;
Structure prediction by ZEFSAII (Michael W. Deem and Ramdas Pophale) SiO2 
 PCOD9085951
Probable space group: P -1
;
_chemical_formula_sum "Si O2"
_cell_formula_units_Z 14
_cell_length_a 8.989406
_cell_length_b 20.301269
_cell_length_c 11.220296
_cell_angle_alpha 147.993496
_cell_angle_beta 69.175519
_cell_angle_gamma 134.583026
_cell_volume 597.100393
_symmetry_space_group_name_H-M "P -1"
_symmetry_group_IT_number 2
_symmetry_cell_setting 'triclinic'
loop_
_space_group_symop_operation_xyz
x,y,z
-x,-y,-z
loop_
_atom_site_type_symbol
_atom_site_label
_atom_site_fract_x
_atom_site_fract_y
_atom_site_fract_z
Si Si1 0.562563 0.231973 0.422902
Si Si2 0.445990 0.438217 0.780251
Si Si3 0.891461 0.222198 0.206798
Si Si4 0.624967 0.358240 0.994624
Si Si5 0.452917 0.616222 0.676312
Si Si6 0.254769 0.766677 0.385191
Si Si7 0.116081 0.917961 0.751220
O O1 0.575070 0.385998 0.636325
O O2 0.707443 0.228758 0.284954
O O3 0.690906 0.283347 0.592139
O O4 0.260882 0.983278 0.133990
O O5 0.541303 0.627134 0.981227
O O6 0.500000 0.500000 0.000000
O O7 0.143197 0.227455 0.484155
O O8 0.177169 0.447032 0.421605
O O9 0.941578 0.190942 0.275634
O O10 0.613663 0.362924 0.145729
O O11 0.925536 0.564621 0.166787
O O12 0.573537 0.188365 0.699079
O O13 0.500000 0.500000 0.500000
O O14 0.717511 0.852536 0.916328
O O15 0.319741 0.949952 0.676989
#
# Coordination Sequence:
#
# PCOD9085951 Si02
#       7
#     2   2   2   2   2   2   2
#     4  10  19  35  65  91 120 160 203 254 302 357
#     4  11  20  35  65  94 118 158 202 253 313 356
#     4  10  22  42  62  86 125 165 205 247 300 361
#     4  10  20  38  63  88 121 163 199 249 304 358
#     4  12  24  39  64  92 125 161 208 248 297 372
#     4   9  18  40  64  86 119 158 209 247 298 362
#     4  10  23  40  65  91 117 170 204 243 310 364
#
# _framework density 23.446643000000002
#
# number of rings (size 3 to 8) (size 9 to 14) (size 15 to 20)
#    0.000    1.714    5.714    0.857    2.000    1.714 
#    0.000    7.143    6.286    0.000    0.000    0.000 
#    0.000    0.000    0.000    0.000    0.000    0.000 
#
# Total GULP energy -78025.825342 kJ/mol
# GULP energy per Si atom -5573.273239 kJ/mol
# Density = 2.339328 g / cm^3
# Si number density = 23.446643 Si / 1000 Ang^3
#
#
#
# Elastic Constant Matrix: (Units=GPa)
#
#
# Indices 1 2 3 4 5 6 
#
# 1 117.4004 14.8558 46.0509 -1.7514 -26.4900 3.2666
# 2 14.8558 53.2663 31.5695 -6.5879 -15.2385 0.9160
# 3 46.0509 31.5695 102.3475 -5.1415 -16.7947 -1.4233
# 4 -1.7514 -6.5879 -5.1415 34.7669 4.6726 -6.9735
# 5 -26.4900 -15.2385 -16.7947 4.6726 50.6960 -10.6365
# 6 3.2666 0.9160 -1.4233 -6.9735 -10.6365 24.0507
#
#
#
# Elastic Compliance Matrix: (Units=1/GPa)
#
#
# Indices 1 2 3 4 5 6 
#
# 1 0.011255 0.000847 -0.004584 -0.000565 0.004685 0.000076
# 2 0.000847 0.024595 -0.006839 0.003334 0.005688 0.002026
# 3 -0.004584 -0.006839 0.014122 0.000933 0.000616 0.002262
# 4 -0.000565 0.003334 0.000933 0.031325 0.000039 0.009105
# 5 0.004685 0.005688 0.000616 0.000039 0.026361 0.010853
# 6 0.000076 0.002026 0.002262 0.009105 0.010853 0.049065
#
#
# Mechanical properties :
#
#
# Convention : Reuss Voigt Hill
#
# Bulk Modulus (GPa) = 34.69680 50.88518 42.79099
# Shear Modulus (GPa) = 26.66925 33.93859 30.30392
#
# Velocity S-wave (km/s) = 3.37626 3.80871 3.59898
# Velocity P-wave (km/s) = 5.47989 6.41025 5.96324
#
# Compressibility (1/GPa) = 0.02882110
#
# Stress axis : x y z
#
# Youngs Moduli (GPa) = 88.84587 40.65860 70.81150
#
# Poissons Ratio (x) = -0.03444 0.32461
# Poissons Ratio (y) = -0.07525 0.48425
# Poissons Ratio (z) = 0.40728 0.27805
#
# Static dielectric constant tensor:
#      x y z
#    x 1.931680 0.056480 -0.015440 
#    y 0.056480 1.940400 -0.008330 
#    z -0.015440 -0.008330 2.040400 
# 
# From -- ./inp_files/405077.got.cif
#   From: 2010.05.17/outbox.cif.g08.bks.cpg/sg2_203_cif.got.tgz:405077.got - 2010.06.03 11:33:40.
