data_PCOD9085278
_publ_section_title
;
Structure prediction by ZEFSAII (Michael W. Deem and Ramdas Pophale) SiO2 
 PCOD9085278
Probable space group: P -1
;
_chemical_formula_sum "Si O2"
_cell_formula_units_Z 16
_cell_length_a 27.514217
_cell_length_b 15.487413
_cell_length_c 17.707164
_cell_angle_alpha 28.068315
_cell_angle_beta 160.958470
_cell_angle_gamma 161.156712
_cell_volume 789.714800
_symmetry_space_group_name_H-M "P -1"
_symmetry_group_IT_number 2
_symmetry_cell_setting 'triclinic'
loop_
_space_group_symop_operation_xyz
x,y,z
-x,-y,-z
loop_
_atom_site_type_symbol
_atom_site_label
_atom_site_fract_x
_atom_site_fract_y
_atom_site_fract_z
Si Si1 0.195212 0.635673 0.517033
Si Si2 0.283221 0.872267 0.082113
Si Si3 0.808559 0.933100 0.812377
Si Si4 0.241947 0.271832 0.622546
Si Si5 0.287867 0.380928 0.931937
Si Si6 0.127419 0.907058 0.976699
Si Si7 0.100587 0.493158 0.319241
Si Si8 0.681379 0.515761 0.584966
O O1 0.153137 0.446296 0.667574
O O2 0.098231 0.473744 0.420852
O O3 0.458761 0.872000 0.722219
O O4 0.136338 0.799133 0.309961
O O5 0.268964 0.640847 0.254993
O O6 0.164838 0.887252 0.959837
O O7 0.135375 0.746681 0.884636
O O8 0.573337 0.706287 0.599461
O O9 0.769013 0.791203 0.943931
O O10 0.000000 0.000000 0.000000
O O11 0.262220 0.489893 0.522600
O O12 0.264484 0.296514 0.547010
O O13 0.451932 0.344658 0.898157
O O14 0.000000 0.000000 0.500000
O O15 0.249977 0.202629 0.947037
O O16 0.872623 0.713368 0.773365
O O17 0.187141 0.775839 0.210208
#
# Coordination Sequence:
#
# PCOD9085278 Si02
#       8
#     2   2   2   2   2   2   2   2
#     4  11  24  39  61  94 125 157 207 257 303 365
#     4  10  19  35  59  90 129 175 202 233 295 367
#     4  10  23  47  70  84 110 159 212 266 324 360
#     4  11  21  33  53  89 130 173 201 230 291 366
#     4  11  25  38  60  95 124 157 208 255 304 367
#     4  11  19  36  58  90 131 167 204 237 298 370
#     4  11  20  34  58  86 130 174 201 239 294 362
#     4   9  19  35  58  87 118 160 204 250 292 356
#
# _framework density 20.260477999999999
#
# number of rings (size 3 to 8) (size 9 to 14) (size 15 to 20)
#    0.000    1.500    3.750    2.250    1.750    2.500 
#    0.000    0.625    0.000    0.750    0.000    0.000 
#    0.000    0.000    0.000    0.000    0.000    0.000 
#
# Total GULP energy -89070.220630 kJ/mol
# GULP energy per Si atom -5566.888789 kJ/mol
# Density = 2.021436 g / cm^3
# Si number density = 20.260478 Si / 1000 Ang^3
#
#
#
# Elastic Constant Matrix: (Units=GPa)
#
#
# Indices 1 2 3 4 5 6 
#
# 1 36.4724 17.5659 53.2235 3.7471 3.7265 1.0335
# 2 17.5659 63.6832 31.3482 0.9636 -3.0455 -2.9454
# 3 53.2235 31.3482 121.1870 -17.9419 -0.2764 -2.6826
# 4 3.7471 0.9636 -17.9419 31.7506 7.5760 -7.5979
# 5 3.7265 -3.0455 -0.2764 7.5760 29.7057 1.3240
# 6 1.0335 -2.9454 -2.6826 -7.5979 1.3240 10.7272
#
#
#
# Elastic Compliance Matrix: (Units=1/GPa)
#
#
# Indices 1 2 3 4 5 6 
#
# 1 0.205222 -0.006885 -0.109125 -0.120246 0.009230 -0.135260
# 2 -0.006885 0.018823 -0.001759 -0.000195 0.002607 0.004932
# 3 -0.109125 -0.001759 0.069219 0.073155 -0.008076 0.080152
# 4 -0.120246 -0.000195 0.073155 0.119859 -0.020047 0.117194
# 5 0.009230 0.002607 -0.008076 -0.020047 0.038754 -0.021175
# 6 -0.135260 0.004932 0.080152 0.117194 -0.021175 0.213271
#
#
# Mechanical properties :
#
#
# Convention : Reuss Voigt Hill
#
# Bulk Modulus (GPa) = 17.32304 47.29086 32.30695
# Shear Modulus (GPa) = 5.43520 22.38372 13.90946
#
# Velocity S-wave (km/s) = 1.63966 3.32746 2.62302
# Velocity P-wave (km/s) = 3.48617 6.17695 5.01538
#
# Compressibility (1/GPa) = 0.05772660
#
# Stress axis : x y z
#
# Youngs Moduli (GPa) = 4.87277 53.12524 14.44680
#
# Poissons Ratio (x) = 0.36575 1.57651
# Poissons Ratio (y) = 0.03355 0.02542
# Poissons Ratio (z) = 0.53174 0.09346
#
# Static dielectric constant tensor:
#      x y z
#    x 1.706550 0.030390 -0.079870 
#    y 0.030390 1.821070 -0.052970 
#    z -0.079870 -0.052970 1.791530 
# 
# From -- ./inp_files/294963.got.cif
#   From: 2010.05.17/outbox.cif.g08.bks.cpg/sg2_148_cif.got.tgz:294963.got - 2010.06.03 11:33:40.
