data_PCOD9085122
_publ_section_title
;
Structure prediction by ZEFSAII (Michael W. Deem and Ramdas Pophale) SiO2 
 PCOD9085122
Probable space group: P -1
;
_chemical_formula_sum "Si O2"
_cell_formula_units_Z 16
_cell_length_a 5.699850
_cell_length_b 7.552589
_cell_length_c 21.539272
_cell_angle_alpha 122.465925
_cell_angle_beta 120.290687
_cell_angle_gamma 69.451169
_cell_volume 671.403988
_symmetry_space_group_name_H-M "P -1"
_symmetry_group_IT_number 2
_symmetry_cell_setting 'triclinic'
loop_
_space_group_symop_operation_xyz
x,y,z
-x,-y,-z
loop_
_atom_site_type_symbol
_atom_site_label
_atom_site_fract_x
_atom_site_fract_y
_atom_site_fract_z
Si Si1 0.803792 0.736143 0.403434
Si Si2 0.759986 0.260064 0.682933
Si Si3 0.061957 0.618097 0.727318
Si Si4 0.657187 0.597373 0.834569
Si Si5 0.815933 0.889076 0.006379
Si Si6 0.753035 0.378536 0.472765
Si Si7 0.229586 0.031797 0.179241
Si Si8 0.727219 0.002365 0.317726
O O1 0.505405 0.777486 0.400241
O O2 0.842626 0.484915 0.344296
O O3 0.069725 0.774538 0.483378
O O4 0.736806 0.857465 0.352963
O O5 0.730629 0.373725 0.768147
O O6 0.882005 0.445248 0.696571
O O7 0.963148 0.048188 0.673432
O O8 0.332634 0.617786 0.804603
O O9 0.910380 0.847426 0.757405
O O10 0.787574 0.662656 0.928472
O O11 0.715426 0.782243 0.827735
O O12 0.500000 0.000000 0.000000
O O13 0.000000 0.000000 0.000000
O O14 0.011396 0.894851 0.093395
O O15 0.500000 0.500000 0.500000
O O16 0.649573 0.235482 0.377713
O O17 0.000000 0.500000 0.500000
O O18 0.523063 0.936151 0.225421
#
# Coordination Sequence:
#
# PCOD9085122 Si02
#       8
#     2   2   2   2   2   2   2   2
#     4  10  23  43  66  90 130 176 212 262 331 387
#     4   9  21  38  63  90 124 174 218 253 327 389
#     4   9  17  34  62  86 124 161 225 264 317 374
#     4   9  18  34  61  90 125 169 217 272 317 380
#     4  10  19  35  58  96 130 169 215 274 323 371
#     4  12  30  47  72 101 131 165 221 275 322 381
#     4  10  20  34  60  94 125 167 220 270 319 380
#     4  11  25  42  65  93 136 171 215 265 330 395
#
# _framework density 23.830660000000002
#
# number of rings (size 3 to 8) (size 9 to 14) (size 15 to 20)
#    0.000    2.000    1.250    1.125   10.500    1.500 
#    0.000    0.625    0.000    6.750    0.000    0.000 
#    0.000    0.000    0.000    0.000    0.000    0.000 
#
# Total GULP energy -89134.916984 kJ/mol
# GULP energy per Si atom -5570.932312 kJ/mol
# Density = 2.377642 g / cm^3
# Si number density = 23.830660 Si / 1000 Ang^3
#
#
#
# Elastic Constant Matrix: (Units=GPa)
#
#
# Indices 1 2 3 4 5 6 
#
# 1 100.0137 37.2411 28.2746 -8.3904 10.1056 -20.1566
# 2 37.2411 53.8700 29.9425 -6.9700 -8.6534 -14.2855
# 3 28.2746 29.9425 158.0932 -14.9911 19.3876 -18.0705
# 4 -8.3904 -6.9700 -14.9911 28.7644 -11.1587 0.4538
# 5 10.1056 -8.6534 19.3876 -11.1587 30.6496 -9.7818
# 6 -20.1566 -14.2855 -18.0705 0.4538 -9.7818 45.3811
#
#
#
# Elastic Compliance Matrix: (Units=1/GPa)
#
#
# Indices 1 2 3 4 5 6 
#
# 1 0.015504 -0.012527 0.000719 -0.001790 -0.009363 0.001229
# 2 -0.012527 0.039352 -0.006147 0.013028 0.027091 0.010085
# 3 0.000719 -0.006147 0.008271 0.000294 -0.007047 0.000156
# 4 -0.001790 0.013028 0.000294 0.046586 0.023611 0.008047
# 5 -0.009363 0.027091 -0.007047 0.023611 0.061039 0.014484
# 6 0.001229 0.010085 0.000156 0.008047 0.014484 0.028859
#
#
# Mechanical properties :
#
#
# Convention : Reuss Voigt Hill
#
# Bulk Modulus (GPa) = 36.74334 55.87705 46.31019
# Shear Modulus (GPa) = 20.44216 35.39359 27.91788
#
# Velocity S-wave (km/s) = 2.93202 3.85803 3.42645
# Velocity P-wave (km/s) = 5.18790 6.58364 5.92700
#
# Compressibility (1/GPa) = 0.02721582
#
# Stress axis : x y z
#
# Youngs Moduli (GPa) = 64.50155 25.41194 120.90438
#
# Poissons Ratio (x) = 0.31834 -0.08690
# Poissons Ratio (y) = 0.80802 0.74317
# Poissons Ratio (z) = -0.04636 0.15620
#
# Static dielectric constant tensor:
#      x y z
#    x 2.209070 0.005240 -0.020590 
#    y 0.005240 1.942890 -0.000180 
#    z -0.020590 -0.000180 1.954190 
# 
# From -- ./inp_files/282150.got.cif
#   From: 2010.05.17/outbox.cif.g08.bks.cpg/sg2_142_cif.got.tgz:282150.got - 2010.06.03 11:33:40.
