data_PCOD9085093
_publ_section_title
;
Structure prediction by ZEFSAII (Michael W. Deem and Ramdas Pophale) SiO2 
 PCOD9085093
Probable space group: P -1
;
_chemical_formula_sum "Si O2"
_cell_formula_units_Z 16
_cell_length_a 7.325280
_cell_length_b 15.763902
_cell_length_c 14.222305
_cell_angle_alpha 129.231458
_cell_angle_beta 132.679284
_cell_angle_gamma 79.536174
_cell_volume 842.571251
_symmetry_space_group_name_H-M "P -1"
_symmetry_group_IT_number 2
_symmetry_cell_setting 'triclinic'
loop_
_space_group_symop_operation_xyz
x,y,z
-x,-y,-z
loop_
_atom_site_type_symbol
_atom_site_label
_atom_site_fract_x
_atom_site_fract_y
_atom_site_fract_z
Si Si1 0.970706 0.169883 0.671111
Si Si2 0.485886 0.473673 0.639418
Si Si3 0.905742 0.636333 0.752871
Si Si4 0.447656 0.224096 0.516144
Si Si5 0.495749 0.685348 0.920635
Si Si6 0.975202 0.928067 0.576074
Si Si7 0.897071 0.859183 0.843929
Si Si8 0.484907 0.913734 0.018541
O O1 0.719516 0.205791 0.617365
O O2 0.044259 0.155262 0.578486
O O3 0.890964 0.035535 0.592479
O O4 0.237276 0.266605 0.886002
O O5 0.759640 0.544076 0.721657
O O6 0.245019 0.420779 0.439099
O O7 0.495151 0.363186 0.623859
O O8 0.447851 0.567487 0.761954
O O9 0.838813 0.753928 0.826654
O O10 0.225287 0.665175 0.873292
O O11 0.210780 0.147877 0.455301
O O12 0.341048 0.175946 0.340159
O O13 0.550916 0.798879 0.949580
O O14 0.296735 0.000760 0.768811
O O15 0.165928 0.855363 0.890782
O O16 0.000000 0.000000 0.000000
O O17 0.500000 0.000000 0.000000
#
# Coordination Sequence:
#
# PCOD9085093 Si02
#       8
#     2   2   2   2   2   2   2   2
#     4  10  23  39  58  87 114 156 194 230 287 344
#     4  10  22  39  60  84 115 154 192 237 287 339
#     4   9  21  40  57  85 119 148 189 238 292 341
#     4  11  22  38  57  86 115 154 196 232 284 341
#     4  10  22  39  60  82 115 154 192 232 286 342
#     4  10  21  40  60  82 123 150 185 243 289 337
#     4  10  20  33  58  89 116 144 187 241 294 343
#     4  10  19  35  58  90 111 140 191 236 294 345
#
# _framework density 18.989491999999998
#
# number of rings (size 3 to 8) (size 9 to 14) (size 15 to 20)
#    0.000    2.000    1.250    1.500    1.750    3.500 
#    2.250    1.250    0.000    0.000    0.000    0.000 
#    0.000    0.000    0.000    0.000    0.000    0.000 
#
# Total GULP energy -89176.815045 kJ/mol
# GULP energy per Si atom -5573.550940 kJ/mol
# Density = 1.894627 g / cm^3
# Si number density = 18.989492 Si / 1000 Ang^3
#
#
#
# Elastic Constant Matrix: (Units=GPa)
#
#
# Indices 1 2 3 4 5 6 
#
# 1 40.4454 9.8448 9.6750 -3.0208 15.6645 4.2882
# 2 9.8448 83.0284 32.7541 4.9613 1.6031 1.0749
# 3 9.6750 32.7541 70.0776 8.6454 8.0498 -19.8611
# 4 -3.0208 4.9613 8.6454 32.8586 -11.7383 5.1994
# 5 15.6645 1.6031 8.0498 -11.7383 31.0993 4.7846
# 6 4.2882 1.0749 -19.8611 5.1994 4.7846 28.3342
#
#
#
# Elastic Compliance Matrix: (Units=1/GPa)
#
#
# Indices 1 2 3 4 5 6 
#
# 1 0.032124 -0.002399 -0.002592 -0.000771 -0.015077 -0.003900
# 2 -0.002399 0.016699 -0.011721 0.004355 0.006626 -0.010405
# 3 -0.002592 -0.011721 0.033212 -0.018644 -0.018440 0.030652
# 4 -0.000771 0.004355 -0.018644 0.048639 0.027453 -0.026679
# 5 -0.015077 0.006626 -0.018440 0.027453 0.058514 -0.025814
# 6 -0.003900 -0.010405 0.030652 -0.026679 -0.025814 0.067019
#
#
# Mechanical properties :
#
#
# Convention : Reuss Voigt Hill
#
# Bulk Modulus (GPa) = 20.57169 33.12214 26.84692
# Shear Modulus (GPa) = 16.34873 27.87691 22.11282
#
# Velocity S-wave (km/s) = 2.93735 3.83563 3.41615
# Velocity P-wave (km/s) = 4.72872 6.09067 5.45239
#
# Compressibility (1/GPa) = 0.04861048
#
# Stress axis : x y z
#
# Youngs Moduli (GPa) = 31.12949 59.88422 30.10970
#
# Poissons Ratio (x) = 0.14364 0.07805
# Poissons Ratio (y) = 0.07467 0.35292
# Poissons Ratio (z) = 0.08070 0.70191
#
# Static dielectric constant tensor:
#      x y z
#    x 1.638540 0.040820 -0.009930 
#    y 0.040820 1.899950 -0.041460 
#    z -0.009930 -0.041460 1.706610 
# 
# From -- ./inp_files/400985.got.cif
#   From: 2010.05.17/outbox.cif.g08.bks.cpg/sg2_201_cif.got.tgz:400985.got - 2010.06.03 11:33:40.
