data_PCOD9085535
_publ_section_title
;
Structure prediction by ZEFSAII (Michael W. Deem and Ramdas Pophale) SiO2 
 PCOD9085535
Probable space group: P -1
;
_chemical_formula_sum "Si O2"
_cell_formula_units_Z 14
_cell_length_a 12.466016
_cell_length_b 8.679188
_cell_length_c 7.715415
_cell_angle_alpha 54.097267
_cell_angle_beta 64.252035
_cell_angle_gamma 86.570900
_cell_volume 586.898614
_symmetry_space_group_name_H-M "P -1"
_symmetry_group_IT_number 2
_symmetry_cell_setting 'triclinic'
loop_
_space_group_symop_operation_xyz
x,y,z
-x,-y,-z
loop_
_atom_site_type_symbol
_atom_site_label
_atom_site_fract_x
_atom_site_fract_y
_atom_site_fract_z
Si Si1 0.422044 0.045577 0.741602
Si Si2 0.547274 0.338723 0.190670
Si Si3 0.976538 0.346180 0.271711
Si Si4 0.765694 0.166145 0.747047
Si Si5 0.066244 0.109886 0.108947
Si Si6 0.798061 0.510260 0.768156
Si Si7 0.190624 0.122102 0.692766
O O1 0.497356 0.259443 0.471246
O O2 0.296862 0.023001 0.732971
O O3 0.479935 0.868438 0.762191
O O4 0.363307 0.997169 0.009536
O O5 0.500000 0.500000 0.000000
O O6 0.695142 0.426803 0.040161
O O7 0.053111 0.197329 0.246186
O O8 0.059757 0.454152 0.301189
O O9 0.830614 0.250449 0.465638
O O10 0.000000 0.500000 0.000000
O O11 0.763983 0.352325 0.742107
O O12 0.875243 0.072545 0.793838
O O13 0.153466 0.230814 0.817948
O O14 0.929935 0.041434 0.173300
O O15 0.776287 0.714790 0.583978
#
# Coordination Sequence:
#
# PCOD9085535 Si02
#       7
#     2   2   2   2   2   2   2
#     4   9  20  35  60  89 115 152 199 249 298 346
#     4  10  19  36  59  92 116 150 204 255 290 345
#     4  12  25  36  55  90 126 159 197 245 297 361
#     4  10  21  38  58  84 121 160 198 239 298 359
#     4  10  22  35  56  85 122 157 195 236 302 359
#     4  11  22  36  60  89 120 155 200 246 296 354
#     4  10  19  35  61  86 117 158 197 242 298 359
#
# _framework density 23.854203999999999
#
# number of rings (size 3 to 8) (size 9 to 14) (size 15 to 20)
#    0.000    1.714    2.857    1.714    8.000    0.000 
#    0.000    0.000    0.000    4.286    3.714    0.000 
#    0.000    0.000    0.000    0.000    0.000    0.000 
#
# Total GULP energy -77960.185925 kJ/mol
# GULP energy per Si atom -5568.584709 kJ/mol
# Density = 2.379991 g / cm^3
# Si number density = 23.854204 Si / 1000 Ang^3
#
#
#
# Elastic Constant Matrix: (Units=GPa)
#
#
# Indices 1 2 3 4 5 6 
#
# 1 28.7937 14.6998 10.5246 -4.1006 -5.0411 -15.4343
# 2 14.6998 51.7869 24.5821 -2.0167 3.1329 -17.5917
# 3 10.5246 24.5821 214.8700 3.7453 -16.1978 -10.5084
# 4 -4.1006 -2.0167 3.7453 37.3159 -14.4721 9.2383
# 5 -5.0411 3.1329 -16.1978 -14.4721 28.3845 0.6016
# 6 -15.4343 -17.5917 -10.5084 9.2383 0.6016 24.3079
#
#
#
# Elastic Compliance Matrix: (Units=1/GPa)
#
#
# Indices 1 2 3 4 5 6 
#
# 1 0.056457 -0.006680 0.000291 0.003068 0.011865 0.029679
# 2 -0.006680 0.029223 -0.002733 -0.007494 -0.010191 0.018826
# 3 0.000291 -0.002733 0.005224 0.000791 0.003736 0.000072
# 4 0.003068 -0.007494 0.000791 0.040144 0.022693 -0.018952
# 5 0.011865 -0.010191 0.003736 0.022693 0.052338 -0.008146
# 6 0.029679 0.018826 0.000072 -0.018952 -0.008146 0.081044
#
#
# Mechanical properties :
#
#
# Convention : Reuss Voigt Hill
#
# Bulk Modulus (GPa) = 13.76264 43.89594 28.82929
# Shear Modulus (GPa) = 16.29236 34.37795 25.33515
#
# Velocity S-wave (km/s) = 2.61626 3.80039 3.26250
# Velocity P-wave (km/s) = 3.86114 6.13995 5.12871
#
# Compressibility (1/GPa) = 0.07266046
#
# Stress axis : x y z
#
# Youngs Moduli (GPa) = 17.71261 34.21941 191.43288
#
# Poissons Ratio (x) = 0.22859 -0.05578
# Poissons Ratio (y) = 0.11832 0.52318
# Poissons Ratio (z) = -0.00516 0.09352
#
# Static dielectric constant tensor:
#      x y z
#    x 1.899880 -0.171580 0.016330 
#    y -0.171580 3.169500 0.032500 
#    z 0.016330 0.032500 2.160650 
# 
# From -- ./inp_files/207152.got.cif
#   From: 2010.05.17/outbox.cif.g08.bks.cpg/sg2_104_cif.got.tgz:207152.got - 2010.06.03 11:33:40.
