data_PCOD9085464
_publ_section_title
;
Structure prediction by ZEFSAII (Michael W. Deem and Ramdas Pophale) SiO2 
 PCOD9085464
Probable space group: P -1
;
_chemical_formula_sum "Si O2"
_cell_formula_units_Z 14
_cell_length_a 15.907088
_cell_length_b 9.639814
_cell_length_c 8.391326
_cell_angle_alpha 148.475652
_cell_angle_beta 122.760026
_cell_angle_gamma 62.295713
_cell_volume 565.754961
_symmetry_space_group_name_H-M "P -1"
_symmetry_group_IT_number 2
_symmetry_cell_setting 'triclinic'
loop_
_space_group_symop_operation_xyz
x,y,z
-x,-y,-z
loop_
_atom_site_type_symbol
_atom_site_label
_atom_site_fract_x
_atom_site_fract_y
_atom_site_fract_z
Si Si1 0.732129 0.451788 0.164826
Si Si2 0.967936 0.091650 0.379739
Si Si3 0.443144 0.979411 0.090603
Si Si4 0.165480 0.398415 0.262662
Si Si5 0.456106 0.538171 0.210377
Si Si6 0.707664 0.296829 0.536725
Si Si7 0.181868 0.032011 0.401173
O O1 0.762280 0.540299 0.456711
O O2 0.770037 0.687599 0.318805
O O3 0.615825 0.411409 0.963777
O O4 0.789734 0.181901 0.914044
O O5 0.064256 0.062303 0.337999
O O6 0.926109 0.389642 0.623322
O O7 0.880154 0.890008 0.049694
O O8 0.000000 0.000000 0.500000
O O9 0.455891 0.252767 0.464323
O O10 0.502918 0.756974 0.031038
O O11 0.336662 0.868640 0.819489
O O12 0.500000 0.000000 0.000000
O O13 0.224581 0.468928 0.231518
O O14 0.382565 0.584475 0.333389
O O15 0.769030 0.099167 0.519529
#
# Coordination Sequence:
#
# PCOD9085464 Si02
#       7
#     2   2   2   2   2   2   2
#     4  11  24  43  63  94 126 168 208 248 314 371
#     4  12  26  43  66  95 127 157 212 262 313 356
#     4  10  19  35  60  93 119 156 209 257 295 361
#     4  12  27  42  65  94 130 161 206 264 307 372
#     4  10  21  37  62  87 125 160 205 253 301 368
#     4  10  22  39  65  94 121 164 210 256 310 358
#     4  11  24  42  67  87 126 170 209 254 306 373
#
# _framework density 24.745697
#
# number of rings (size 3 to 8) (size 9 to 14) (size 15 to 20)
#    0.000    1.143    1.429    6.429    4.000    8.000 
#    0.000    1.429    0.000    0.000    0.000    1.000 
#    0.000    0.000    0.000    0.000    0.000    0.000 
#
# Total GULP energy -78540.235112 kJ/mol
# GULP energy per Si atom -5610.016794 kJ/mol
# Density = 2.468937 g / cm^3
# Si number density = 24.745697 Si / 1000 Ang^3
#
#
#
# Elastic Constant Matrix: (Units=GPa)
#
#
# Indices 1 2 3 4 5 6 
#
# 1 85.2070 32.5338 16.4319 6.1483 11.6962 -6.3120
# 2 32.5338 78.5354 0.5910 -11.2521 -2.3751 3.4082
# 3 16.4319 0.5910 93.7300 -3.5203 6.2444 6.8733
# 4 6.1483 -11.2521 -3.5203 48.3454 1.4001 -0.7620
# 5 11.6962 -2.3751 6.2444 1.4001 29.5332 6.5714
# 6 -6.3120 3.4082 6.8733 -0.7620 6.5714 25.7723
#
#
#
# Elastic Compliance Matrix: (Units=1/GPa)
#
#
# Indices 1 2 3 4 5 6 
#
# 1 0.017740 -0.008541 -0.003249 -0.004095 -0.008710 0.008440
# 2 -0.008541 0.017408 0.001653 0.005001 0.005554 -0.006103
# 3 -0.003249 0.001653 0.011596 0.001585 -0.000216 -0.004005
# 4 -0.004095 0.005001 0.001585 0.022429 0.000999 -0.001679
# 5 -0.008710 0.005554 -0.000216 0.000999 0.040681 -0.013153
# 6 0.008440 -0.006103 -0.004005 -0.001679 -0.013153 0.046048
#
#
# Mechanical properties :
#
#
# Convention : Reuss Voigt Hill
#
# Bulk Modulus (GPa) = 37.77787 39.62065 38.69926
# Shear Modulus (GPa) = 27.02717 34.59121 30.80919
#
# Velocity S-wave (km/s) = 3.30843 3.74286 3.53233
# Velocity P-wave (km/s) = 5.46752 5.89276 5.68412
#
# Compressibility (1/GPa) = 0.02647052
#
# Stress axis : x y z
#
# Youngs Moduli (GPa) = 56.36973 57.44430 86.23908
#
# Poissons Ratio (x) = 0.49063 0.28016
# Poissons Ratio (y) = 0.48145 -0.14255
# Poissons Ratio (z) = 0.18313 -0.09495
#
# Static dielectric constant tensor:
#      x y z
#    x 1.963760 0.009770 -0.014760 
#    y 0.009770 1.914970 -0.044660 
#    z -0.014760 -0.044660 1.947770 
# 
# From -- ./inp_files/90098.got.cif
#   From: 2010.05.17/outbox.cif.g08.bks.cpg/sg2_46_cif.got.tgz:90098.got - 2010.06.03 11:33:40.
