data_PCOD9085212
_publ_section_title
;
Structure prediction by ZEFSAII (Michael W. Deem and Ramdas Pophale) SiO2 
 PCOD9085212
Probable space group: P -1
;
_chemical_formula_sum "Si O2"
_cell_formula_units_Z 14
_cell_length_a 13.771597
_cell_length_b 9.335234
_cell_length_c 8.493763
_cell_angle_alpha 71.036476
_cell_angle_beta 49.111878
_cell_angle_gamma 101.883069
_cell_volume 632.881636
_symmetry_space_group_name_H-M "P -1"
_symmetry_group_IT_number 2
_symmetry_cell_setting 'triclinic'
loop_
_space_group_symop_operation_xyz
x,y,z
-x,-y,-z
loop_
_atom_site_type_symbol
_atom_site_label
_atom_site_fract_x
_atom_site_fract_y
_atom_site_fract_z
Si Si1 0.581338 0.796324 0.768104
Si Si2 0.070870 0.409977 0.353960
Si Si3 0.184393 0.176369 0.747969
Si Si4 0.260834 0.867910 0.293090
Si Si5 0.373652 0.078600 0.773526
Si Si6 0.336710 0.740098 0.782022
Si Si7 0.294993 0.529969 0.352841
O O1 0.714791 0.807661 0.518571
O O2 0.447004 0.758519 0.802605
O O3 0.663782 0.996353 0.689257
O O4 0.479438 0.636714 0.067173
O O5 0.185976 0.412739 0.357761
O O6 0.000000 0.500000 0.500000
O O7 0.922962 0.219150 0.510345
O O8 0.171368 0.546395 0.054993
O O9 0.222945 0.381514 0.623723
O O10 0.269822 0.151924 0.812219
O O11 0.000000 0.000000 0.000000
O O12 0.278050 0.698511 0.339979
O O13 0.345299 0.992461 0.004721
O O14 0.321066 0.908761 0.767621
O O15 0.559366 0.228981 0.489617
#
# Coordination Sequence:
#
# PCOD9085212 Si02
#       7
#     2   2   2   2   2   2   2
#     4  10  21  40  63  90 116 157 199 248 290 351
#     4   9  16  31  56  87 112 152 199 235 277 354
#     4  11  24  39  60  85 127 159 195 236 305 356
#     4  11  20  36  67  91 116 147 207 252 291 331
#     4  10  19  35  59  86 115 155 200 239 289 351
#     4   9  18  34  60  85 115 155 203 234 286 351
#     4  10  20  38  61  88 116 161 199 235 288 371
#
# _framework density 22.121040000000001
#
# number of rings (size 3 to 8) (size 9 to 14) (size 15 to 20)
#    0.000    2.000    4.286    1.714    2.000    0.000 
#    0.000    5.714    0.000    0.000    0.000    0.000 
#    0.000    0.000    0.000    0.000    0.000    0.000 
#
# Total GULP energy -78156.122973 kJ/mol
# GULP energy per Si atom -5582.580212 kJ/mol
# Density = 2.207069 g / cm^3
# Si number density = 22.121040 Si / 1000 Ang^3
#
#
#
# Elastic Constant Matrix: (Units=GPa)
#
#
# Indices 1 2 3 4 5 6 
#
# 1 62.4233 28.8892 27.4809 -9.9482 1.2787 -8.2218
# 2 28.8892 47.2917 25.6433 -12.9395 1.9439 0.7265
# 3 27.4809 25.6433 129.6748 -17.0591 -8.8421 3.0225
# 4 -9.9482 -12.9395 -17.0591 19.3356 -6.5111 0.4439
# 5 1.2787 1.9439 -8.8421 -6.5111 39.6463 -17.0584
# 6 -8.2218 0.7265 3.0225 0.4439 -17.0584 27.5616
#
#
#
# Elastic Compliance Matrix: (Units=1/GPa)
#
#
# Indices 1 2 3 4 5 6 
#
# 1 0.025142 -0.013680 -0.002145 0.003183 0.004587 0.010884
# 2 -0.013680 0.034580 -0.002155 0.013593 -0.002240 -0.006361
# 3 -0.002145 -0.002155 0.009812 0.007387 0.003832 0.000593
# 4 0.003183 0.013593 0.007387 0.074498 0.017040 0.009128
# 5 0.004587 -0.002240 0.003832 0.017040 0.039734 0.025325
# 6 0.010884 -0.006361 0.000593 0.009128 0.025325 0.055159
#
#
# Mechanical properties :
#
#
# Convention : Reuss Voigt Hill
#
# Bulk Modulus (GPa) = 29.78651 44.82407 37.30529
# Shear Modulus (GPa) = 17.47784 27.80047 22.63915
#
# Velocity S-wave (km/s) = 2.81392 3.54890 3.20257
# Velocity P-wave (km/s) = 4.90428 6.09098 5.52956
#
# Compressibility (1/GPa) = 0.03357225
#
# Stress axis : x y z
#
# Youngs Moduli (GPa) = 39.77431 28.91852 101.92002
#
# Poissons Ratio (x) = 0.39561 0.21862
# Poissons Ratio (y) = 0.54412 0.21967
# Poissons Ratio (z) = 0.08532 0.06233
#
# Static dielectric constant tensor:
#      x y z
#    x 1.858950 -0.039370 0.017000 
#    y -0.039370 1.830260 0.000950 
#    z 0.017000 0.000950 1.875390 
# 
# From -- ./inp_files/294749.got.cif
#   From: 2010.05.17/outbox.cif.g08.bks.cpg/sg2_148_cif.got.tgz:294749.got - 2010.06.03 11:33:40.
