data_PCOD9085768
_publ_section_title
;
Structure prediction by ZEFSAII (Michael W. Deem and Ramdas Pophale) SiO2 
 PCOD9085768
Probable space group: P -1
;
_chemical_formula_sum "Si O2"
_cell_formula_units_Z 16
_cell_length_a 13.629293
_cell_length_b 15.133085
_cell_length_c 8.987642
_cell_angle_alpha 143.174742
_cell_angle_beta 44.296610
_cell_angle_gamma 144.409238
_cell_volume 635.386500
_symmetry_space_group_name_H-M "P -1"
_symmetry_group_IT_number 2
_symmetry_cell_setting 'triclinic'
loop_
_space_group_symop_operation_xyz
x,y,z
-x,-y,-z
loop_
_atom_site_type_symbol
_atom_site_label
_atom_site_fract_x
_atom_site_fract_y
_atom_site_fract_z
Si Si1 0.579912 0.577533 0.334399
Si Si2 0.553196 0.934120 0.635553
Si Si3 0.991143 0.289587 0.063527
Si Si4 0.386176 0.739727 0.863314
Si Si5 0.220844 0.308579 0.247703
Si Si6 0.252019 0.614807 0.410648
Si Si7 0.177657 0.131818 0.763787
Si Si8 0.892923 0.639282 0.270394
O O1 0.510058 0.673414 0.634549
O O2 0.407812 0.390280 0.222841
O O3 0.660286 0.680379 0.230550
O O4 0.736699 0.611038 0.302873
O O5 0.434347 0.834330 0.776705
O O6 0.448581 0.785463 0.421276
O O7 0.743042 0.980284 0.508263
O O8 0.572068 0.120259 0.864237
O O9 0.158742 0.488971 0.198965
O O10 0.847052 0.294751 0.313564
O O11 0.022185 0.137156 0.871088
O O12 0.964631 0.278208 0.900068
O O13 0.193021 0.564531 0.856820
O O14 0.230390 0.469851 0.361749
O O15 0.093677 0.255685 0.453391
O O16 0.171183 0.156946 0.979186
#
# Coordination Sequence:
#
# PCOD9085768 Si02
#       8
#     2   2   2   2   2   2   2   2
#     4   9  16  28  48  72  99 122 157 208 251 276
#     4  10  18  30  53  72 102 129 171 195 237 305
#     4   9  21  31  51  73 105 125 165 207 252 282
#     4   9  17  30  47  78  98 132 158 207 245 288
#     4  10  16  26  48  74  95 124 163 200 246 284
#     4  10  18  34  48  77  97 135 163 203 243 295
#     4   9  17  29  49  75  93 129 165 204 240 290
#     4  10  18  31  49  76 104 125 155 217 252 282
#
# _framework density 25.181522999999999
#
# number of rings (size 3 to 8) (size 9 to 14) (size 15 to 20)
#    0.000    2.500    3.750    1.875    3.500    0.500 
#    0.000    0.625    0.000   12.000    3.250    2.625 
#    0.000    0.000    0.000    0.000    0.000    0.000 
#
# Total GULP energy -89219.365918 kJ/mol
# GULP energy per Si atom -5576.210370 kJ/mol
# Density = 2.512421 g / cm^3
# Si number density = 25.181523 Si / 1000 Ang^3
#
#
#
# Elastic Constant Matrix: (Units=GPa)
#
#
# Indices 1 2 3 4 5 6 
#
# 1 82.9153 7.0707 39.3207 0.0235 -0.6430 -0.6940
# 2 7.0707 34.4189 23.9060 -15.6315 6.1783 12.1608
# 3 39.3207 23.9060 142.0098 -8.1877 0.2210 -9.4328
# 4 0.0235 -15.6315 -8.1877 27.4379 -9.1896 3.6633
# 5 -0.6430 6.1783 0.2210 -9.1896 47.2952 -9.8465
# 6 -0.6940 12.1608 -9.4328 3.6633 -9.8465 23.8362
#
#
#
# Elastic Compliance Matrix: (Units=1/GPa)
#
#
# Indices 1 2 3 4 5 6 
#
# 1 0.013950 -0.000526 -0.003904 -0.001432 -0.000150 -0.000712
# 2 -0.000526 0.089195 -0.016383 0.049484 -0.015731 -0.066108
# 3 -0.003904 -0.016383 0.011519 -0.006629 0.003964 0.015459
# 4 -0.001432 0.049484 -0.006629 0.067362 -0.001455 -0.038865
# 5 -0.000150 -0.015731 0.003964 -0.001455 0.027285 0.021085
# 6 -0.000712 -0.066108 0.015459 -0.038865 0.021085 0.096460
#
#
# Mechanical properties :
#
#
# Convention : Reuss Voigt Hill
#
# Bulk Modulus (GPa) = 13.69144 44.43764 29.06454
# Shear Modulus (GPa) = 13.45017 32.31696 22.88357
#
# Velocity S-wave (km/s) = 2.31363 3.58629 3.01781
# Velocity P-wave (km/s) = 3.54769 5.90202 4.86929
#
# Compressibility (1/GPa) = 0.07303835
#
# Stress axis : x y z
#
# Youngs Moduli (GPa) = 71.68548 11.21138 86.81304
#
# Poissons Ratio (x) = 0.00590 0.33888
# Poissons Ratio (y) = 0.03773 1.42226
# Poissons Ratio (z) = 0.27983 0.18368
#
# Static dielectric constant tensor:
#      x y z
#    x 2.036420 -0.015700 -0.007980 
#    y -0.015700 2.106330 0.056870 
#    z -0.007980 0.056870 2.081400 
# 
# From -- ./inp_files/312052.got.cif
#   From: 2010.05.17/outbox.cif.g08.bks.cpg/sg2_157_cif.got.tgz:312052.got - 2010.06.03 11:33:40.
