data_PCOD9085446
_publ_section_title
;
Structure prediction by ZEFSAII (Michael W. Deem and Ramdas Pophale) SiO2 
 PCOD9085446
Probable space group: P -1
;
_chemical_formula_sum "Si O2"
_cell_formula_units_Z 16
_cell_length_a 10.052688
_cell_length_b 18.519501
_cell_length_c 9.709983
_cell_angle_alpha 67.369728
_cell_angle_beta 137.198566
_cell_angle_gamma 137.127205
_cell_volume 788.629396
_symmetry_space_group_name_H-M "P -1"
_symmetry_group_IT_number 2
_symmetry_cell_setting 'triclinic'
loop_
_space_group_symop_operation_xyz
x,y,z
-x,-y,-z
loop_
_atom_site_type_symbol
_atom_site_label
_atom_site_fract_x
_atom_site_fract_y
_atom_site_fract_z
Si Si1 0.269605 0.226948 0.746493
Si Si2 0.237055 0.951607 0.718840
Si Si3 0.352472 0.810125 0.862687
Si Si4 0.701082 0.951492 0.767966
Si Si5 0.703295 0.630889 0.541109
Si Si6 0.754128 0.782546 0.675066
Si Si7 0.433219 0.834780 0.362386
Si Si8 0.972347 0.807075 0.114482
O O1 0.391389 0.335012 0.674217
O O2 0.989500 0.124073 0.522995
O O3 0.186478 0.231303 0.833552
O O4 0.464925 0.206474 0.919433
O O5 0.380703 0.907130 0.871702
O O6 0.032381 0.902900 0.730694
O O7 0.445212 0.079222 0.734021
O O8 0.463574 0.850585 0.761764
O O9 0.022471 0.696856 0.700939
O O10 0.621902 0.910214 0.583387
O O11 0.756211 0.058334 0.759967
O O12 0.000000 0.000000 0.000000
O O13 0.500000 0.500000 0.500000
O O14 0.728582 0.690682 0.653821
O O15 0.494641 0.761243 0.445545
O O16 0.791363 0.785435 0.864171
O O17 0.115550 0.767089 0.207659
#
# Coordination Sequence:
#
# PCOD9085446 Si02
#       8
#     2   2   2   2   2   2   2   2
#     4  10  20  37  63  87 115 155 202 237 286 361
#     4  10  21  34  50  83 127 167 198 221 277 357
#     4  10  19  35  60  91 116 154 203 235 282 347
#     4  12  19  33  59  90 133 169 190 221 279 360
#     4  10  25  48  65  81 109 151 210 266 306 343
#     4  10  24  37  53  87 119 153 200 254 290 345
#     4  12  20  33  55  82 130 172 192 222 289 347
#     4  12  22  34  57  91 130 160 191 232 284 361
#
# _framework density 20.288364999999999
#
# number of rings (size 3 to 8) (size 9 to 14) (size 15 to 20)
#    0.000    1.500    5.000    2.250    0.000    5.000 
#    0.000    0.625    0.000    5.250    0.000    0.000 
#    0.000    0.000    0.000    0.000    0.000    0.000 
#
# Total GULP energy -89431.337553 kJ/mol
# GULP energy per Si atom -5589.458597 kJ/mol
# Density = 2.024219 g / cm^3
# Si number density = 20.288365 Si / 1000 Ang^3
#
#
#
# Elastic Constant Matrix: (Units=GPa)
#
#
# Indices 1 2 3 4 5 6 
#
# 1 92.3071 28.4436 42.2372 -11.3039 8.8382 1.5495
# 2 28.4436 87.5522 25.8620 -9.1727 0.1271 4.8919
# 3 42.2372 25.8620 104.2641 -27.8194 2.7015 -0.9186
# 4 -11.3039 -9.1727 -27.8194 23.4956 -0.9099 1.6689
# 5 8.8382 0.1271 2.7015 -0.9099 55.1651 -11.0566
# 6 1.5495 4.8919 -0.9186 1.6689 -11.0566 14.8708
#
#
#
# Elastic Compliance Matrix: (Units=1/GPa)
#
#
# Indices 1 2 3 4 5 6 
#
# 1 0.014359 -0.003031 -0.005072 -0.000187 -0.002593 -0.002720
# 2 -0.003031 0.013355 -0.001504 0.002294 -0.000377 -0.004708
# 3 -0.005072 -0.001504 0.016373 0.016338 0.000381 0.000484
# 4 -0.000187 0.002294 0.016338 0.063214 -0.001292 -0.007781
# 5 -0.002593 -0.000377 0.000381 -0.001292 0.021877 0.016828
# 6 -0.002720 -0.004708 0.000484 -0.007781 0.016828 0.082493
#
#
# Mechanical properties :
#
#
# Convention : Reuss Voigt Hill
#
# Bulk Modulus (GPa) = 40.20505 53.02321 46.61413
# Shear Modulus (GPa) = 20.90517 31.21168 26.05842
#
# Velocity S-wave (km/s) = 3.21347 3.92650 3.58774
# Velocity P-wave (km/s) = 5.79899 6.83726 6.33942
#
# Compressibility (1/GPa) = 0.02487249
#
# Stress axis : x y z
#
# Youngs Moduli (GPa) = 69.64269 74.87993 61.07779
#
# Poissons Ratio (x) = 0.22693 0.30978
# Poissons Ratio (y) = 0.21106 0.09189
# Poissons Ratio (z) = 0.35322 0.11265
#
# Static dielectric constant tensor:
#      x y z
#    x 1.795760 -0.044610 0.024770 
#    y -0.044610 1.698760 -0.034630 
#    z 0.024770 -0.034630 1.779010 
# 
# From -- ./inp_files/217381.got.cif
#   From: 2010.05.17/outbox.cif.g08.bks.cpg/sg2_109_cif.got.tgz:217381.got - 2010.06.03 11:33:40.
