data_PCOD9085070
_publ_section_title
;
Structure prediction by ZEFSAII (Michael W. Deem and Ramdas Pophale) SiO2 
 PCOD9085070
Probable space group: P -1
;
_chemical_formula_sum "Si O2"
_cell_formula_units_Z 16
_cell_length_a 15.112363
_cell_length_b 21.485782
_cell_length_c 24.394378
_cell_angle_alpha 160.882201
_cell_angle_beta 160.297000
_cell_angle_gamma 29.910073
_cell_volume 855.897912
_symmetry_space_group_name_H-M "P -1"
_symmetry_group_IT_number 2
_symmetry_cell_setting 'triclinic'
loop_
_space_group_symop_operation_xyz
x,y,z
-x,-y,-z
loop_
_atom_site_type_symbol
_atom_site_label
_atom_site_fract_x
_atom_site_fract_y
_atom_site_fract_z
Si Si1 0.128589 0.580520 0.310196
Si Si2 0.308914 0.691140 0.384023
Si Si3 0.604193 0.764645 0.820655
Si Si4 0.951132 0.659219 0.558975
Si Si5 0.743173 0.705542 0.039769
Si Si6 0.219622 0.942634 0.041074
Si Si7 0.347251 0.806545 0.819027
Si Si8 0.441938 0.372408 0.008415
O O1 0.201809 0.623143 0.324847
O O2 0.362640 0.704326 0.586563
O O3 0.170108 0.361184 0.161059
O O4 0.830316 0.621135 0.177876
O O5 0.062223 0.763131 0.270948
O O6 0.561000 0.863357 0.679751
O O7 0.349668 0.505602 0.218466
O O8 0.460161 0.720609 0.759253
O O9 0.724629 0.992604 0.074685
O O10 0.000000 0.500000 0.500000
O O11 0.118386 0.674342 0.612508
O O12 0.638750 0.584523 0.300977
O O13 0.069330 0.854331 0.824191
O O14 0.649580 0.686303 0.031569
O O15 0.598422 0.850287 0.043558
O O16 0.373123 0.784439 0.026850
O O17 0.000000 0.000000 0.000000
#
# Coordination Sequence:
#
# PCOD9085070 Si02
#       8
#     2   2   2   2   2   2   2   2
#     4  10  21  39  57  84 118 150 198 241 279 339
#     4  10  21  33  58  89 117 149 186 244 300 337
#     4  10  23  37  58  86 115 160 195 232 279 336
#     4  10  20  38  59  85 117 150 188 233 301 349
#     4  10  19  35  58  88 118 147 183 245 300 343
#     4  11  22  33  53  90 121 146 184 234 301 354
#     4  11  20  38  60  84 116 154 195 233 282 353
#     4  10  22  37  59  86 119 151 187 245 297 342
#
# _framework density 18.693818
#
# number of rings (size 3 to 8) (size 9 to 14) (size 15 to 20)
#    0.000    1.750    3.750    1.500    3.500    1.000 
#    0.000    1.250    0.000    0.000    0.000    0.000 
#    0.000    0.000    0.000    0.000    0.000    0.000 
#
# Total GULP energy -89167.470699 kJ/mol
# GULP energy per Si atom -5572.966919 kJ/mol
# Density = 1.865127 g / cm^3
# Si number density = 18.693818 Si / 1000 Ang^3
#
#
#
# Elastic Constant Matrix: (Units=GPa)
#
#
# Indices 1 2 3 4 5 6 
#
# 1 46.5928 21.5415 -9.2184 3.6760 -8.0630 -12.0048
# 2 21.5415 97.3007 23.7408 -18.6460 7.1929 -14.4326
# 3 -9.2184 23.7408 58.8647 -4.6390 2.6821 -13.6732
# 4 3.6760 -18.6460 -4.6390 21.5485 5.5892 -0.4807
# 5 -8.0630 7.1929 2.6821 5.5892 15.3171 -6.5227
# 6 -12.0048 -14.4326 -13.6732 -0.4807 -6.5227 24.8646
#
#
#
# Elastic Compliance Matrix: (Units=1/GPa)
#
#
# Indices 1 2 3 4 5 6 
#
# 1 0.091834 -0.041467 0.036187 -0.072724 0.117667 0.069629
# 2 -0.041467 0.034287 -0.019832 0.048344 -0.063487 -0.026744
# 3 0.036187 -0.019832 0.034955 -0.027463 0.048137 0.037278
# 4 -0.072724 0.048344 -0.027463 0.125827 -0.124382 -0.052349
# 5 0.117667 -0.063487 0.048137 -0.124382 0.239501 0.106853
# 6 0.069629 -0.026744 0.037278 -0.052349 0.106853 0.105829
#
#
# Mechanical properties :
#
#
# Convention : Reuss Voigt Hill
#
# Bulk Modulus (GPa) = 9.02111 30.54287 19.78199
# Shear Modulus (GPa) = 6.95014 23.45898 15.20456
#
# Velocity S-wave (km/s) = 1.93027 3.54631 2.85502
# Velocity P-wave (km/s) = 3.13115 5.75694 4.63392
#
# Compressibility (1/GPa) = 0.11085115
#
# Stress axis : x y z
#
# Youngs Moduli (GPa) = 10.88918 29.16527 28.60828
#
# Poissons Ratio (x) = 1.20941 -1.03524
# Poissons Ratio (y) = 0.45155 0.56736
# Poissons Ratio (z) = -0.39404 0.57840
#
# Static dielectric constant tensor:
#      x y z
#    x 1.650090 -0.015080 -0.015190 
#    y -0.015080 1.698640 0.010460 
#    z -0.015190 0.010460 1.675000 
# 
# From -- ./inp_files/319865.got.cif
#   From: 2010.05.17/outbox.cif.g08.bks.cpg/sg2_160_cif.got.tgz:319865.got - 2010.06.03 11:33:40.
