data_PCOD9085159
_publ_section_title
;
Structure prediction by ZEFSAII (Michael W. Deem and Ramdas Pophale) SiO2 
 PCOD9085159
Probable space group: P -1
;
_chemical_formula_sum "Si O2"
_cell_formula_units_Z 14
_cell_length_a 11.705328
_cell_length_b 10.642643
_cell_length_c 10.150417
_cell_angle_alpha 128.393689
_cell_angle_beta 45.308152
_cell_angle_gamma 141.590636
_cell_volume 551.430470
_symmetry_space_group_name_H-M "P -1"
_symmetry_group_IT_number 2
_symmetry_cell_setting 'triclinic'
loop_
_space_group_symop_operation_xyz
x,y,z
-x,-y,-z
loop_
_atom_site_type_symbol
_atom_site_label
_atom_site_fract_x
_atom_site_fract_y
_atom_site_fract_z
Si Si1 0.281768 0.214480 0.125943
Si Si2 0.607513 0.080127 0.105266
Si Si3 0.946621 0.459407 0.207511
Si Si4 0.264858 0.460647 0.099487
Si Si5 0.396535 0.763980 0.428960
Si Si6 0.399806 0.231980 0.516222
Si Si7 0.813721 0.700701 0.462628
O O1 0.180769 0.254378 0.114658
O O2 0.193252 0.209735 0.336060
O O3 0.512616 0.426871 0.069949
O O4 0.317972 0.045737 0.981381
O O5 0.811936 0.315234 0.100145
O O6 0.445065 0.083582 0.324251
O O7 0.500000 0.000000 0.000000
O O8 0.793561 0.350251 0.388475
O O9 0.988965 0.675177 0.302260
O O10 0.126387 0.450726 0.091886
O O11 0.306729 0.626958 0.282706
O O12 0.585608 0.778315 0.346568
O O13 0.500000 0.000000 0.500000
O O14 0.603875 0.464567 0.472925
O O15 0.210890 0.197226 0.574588
#
# Coordination Sequence:
#
# PCOD9085159 Si02
#       7
#     2   2   2   2   2   2   2
#     4  11  21  35  62  83 115 158 192 236 290 345
#     4  10  19  35  59  83 115 151 194 235 290 343
#     4  10  22  37  59  87 116 154 193 242 288 339
#     4  11  22  37  57  88 121 150 195 239 293 343
#     4  10  19  35  60  86 111 152 192 235 286 348
#     4   9  17  32  58  84 105 145 200 227 278 343
#     4   9  17  34  60  82 105 151 198 232 277 346
#
# _framework density 25.388514000000001
#
# number of rings (size 3 to 8) (size 9 to 14) (size 15 to 20)
#    0.000    2.286    4.286    2.143    0.000    0.571 
#    0.000    0.714    0.000    3.429    0.000    0.000 
#    0.000    0.000    0.000    0.000    0.000    0.000 
#
# Total GULP energy -78176.196949 kJ/mol
# GULP energy per Si atom -5584.014068 kJ/mol
# Density = 2.533073 g / cm^3
# Si number density = 25.388514 Si / 1000 Ang^3
#
#
#
# Elastic Constant Matrix: (Units=GPa)
#
#
# Indices 1 2 3 4 5 6 
#
# 1 152.5062 17.3956 -0.9841 20.6470 -23.0469 2.3073
# 2 17.3956 56.2063 29.5802 16.7002 -4.9659 -0.4632
# 3 -0.9841 29.5802 87.9171 31.3414 -2.4081 1.5568
# 4 20.6470 16.7002 31.3414 33.6918 -10.6155 -14.9331
# 5 -23.0469 -4.9659 -2.4081 -10.6155 45.6715 18.2075
# 6 2.3073 -0.4632 1.5568 -14.9331 18.2075 24.1822
#
#
#
# Elastic Compliance Matrix: (Units=1/GPa)
#
#
# Indices 1 2 3 4 5 6 
#
# 1 0.011590 -0.001107 0.008962 -0.021805 0.010260 -0.022894
# 2 -0.001107 0.023246 -0.004619 -0.008553 0.002150 -0.006053
# 3 0.008962 -0.004619 0.029980 -0.044832 0.010521 -0.038480
# 4 -0.021805 -0.008553 -0.044832 0.126110 -0.025644 0.101987
# 5 0.010260 0.002150 0.010521 -0.025644 0.041235 -0.048498
# 6 -0.022894 -0.006053 -0.038480 0.101987 -0.048498 0.145393
#
#
# Mechanical properties :
#
#
# Convention : Reuss Voigt Hill
#
# Bulk Modulus (GPa) = 14.02736 43.17924 28.60330
# Shear Modulus (GPa) = 12.66319 37.41830 25.04074
#
# Velocity S-wave (km/s) = 2.23575 3.84321 3.14395
# Velocity P-wave (km/s) = 3.49312 6.06119 4.94671
#
# Compressibility (1/GPa) = 0.07128927
#
# Stress axis : x y z
#
# Youngs Moduli (GPa) = 86.28052 43.01766 33.35544
#
# Poissons Ratio (x) = 0.04762 -0.29893
# Poissons Ratio (y) = 0.09550 0.15406
# Poissons Ratio (z) = -0.77324 0.19868
#
# Static dielectric constant tensor:
#      x y z
#    x 2.140180 -0.050400 -0.031310 
#    y -0.050400 2.044400 -0.023920 
#    z -0.031310 -0.023920 2.027340 
# 
# From -- ./inp_files/336386.got.cif
#   From: 2010.05.17/outbox.cif.g08.bks.cpg/sg2_169_cif.got.tgz:336386.got - 2010.06.03 11:33:40.
