data_PCOD9085691
_publ_section_title
;
Structure prediction by ZEFSAII (Michael W. Deem and Ramdas Pophale) SiO2 
 PCOD9085691
Probable space group: P -1
;
_chemical_formula_sum "Si O2"
_cell_formula_units_Z 16
_cell_length_a 16.719725
_cell_length_b 11.061925
_cell_length_c 9.382652
_cell_angle_alpha 50.514662
_cell_angle_beta 140.708248
_cell_angle_gamma 104.680496
_cell_volume 740.116422
_symmetry_space_group_name_H-M "P -1"
_symmetry_group_IT_number 2
_symmetry_cell_setting 'triclinic'
loop_
_space_group_symop_operation_xyz
x,y,z
-x,-y,-z
loop_
_atom_site_type_symbol
_atom_site_label
_atom_site_fract_x
_atom_site_fract_y
_atom_site_fract_z
Si Si1 0.170485 0.525609 0.111557
Si Si2 0.836005 0.755308 0.505085
Si Si3 0.390013 0.959102 0.538563
Si Si4 0.156951 0.080078 0.881874
Si Si5 0.897185 0.441511 0.319408
Si Si6 0.389162 0.921414 0.888860
Si Si7 0.587269 0.699458 0.774375
Si Si8 0.654717 0.272898 0.771524
O O1 0.216300 0.377572 0.406799
O O2 0.279392 0.601327 0.193386
O O3 0.147569 0.466467 0.967603
O O4 0.007407 0.671501 0.817790
O O5 0.798317 0.806294 0.249991
O O6 0.763524 0.923050 0.382132
O O7 0.520007 0.795083 0.758688
O O8 0.379241 0.896087 0.727640
O O9 0.413460 0.133757 0.439575
O O10 0.249813 0.022071 0.196958
O O11 0.990704 0.225994 0.581073
O O12 0.211907 0.902261 0.992787
O O13 0.000000 0.500000 0.500000
O O14 0.744999 0.527683 0.125853
O O15 0.500000 0.000000 0.000000
O O16 0.410685 0.769361 0.145353
O O17 0.474192 0.654601 0.574309
#
# Coordination Sequence:
#
# PCOD9085691 Si02
#       8
#     2   2   2   2   2   2   2   2
#     4  10  22  41  67  92 127 166 208 270 320 376
#     4   9  21  39  63  95 117 162 220 257 318 375
#     4  10  19  35  62  89 128 165 218 250 313 373
#     4   9  20  38  65  94 122 167 208 266 312 380
#     4  11  21  34  61  93 126 163 214 252 314 377
#     4  11  21  35  63  97 125 168 216 260 302 387
#     4  10  20  35  60  91 122 172 207 261 311 379
#     4  10  22  41  67  94 129 165 212 264 325 369
#
# _framework density 21.618220999999998
#
# number of rings (size 3 to 8) (size 9 to 14) (size 15 to 20)
#    0.000    2.000    2.500    0.750    1.750    5.000 
#    0.000    0.000   16.500    7.500    0.000    0.000 
#    0.000    0.000    0.000    0.000    0.000    0.000 
#
# Total GULP energy -89276.633168 kJ/mol
# GULP energy per Si atom -5579.789573 kJ/mol
# Density = 2.156902 g / cm^3
# Si number density = 21.618221 Si / 1000 Ang^3
#
#
#
# Elastic Constant Matrix: (Units=GPa)
#
#
# Indices 1 2 3 4 5 6 
#
# 1 100.5535 49.5823 56.7053 5.5870 4.3191 -19.0231
# 2 49.5823 61.1987 46.3800 13.6547 1.4627 -4.8318
# 3 56.7053 46.3800 93.2155 -5.8303 3.8679 -21.5078
# 4 5.5870 13.6547 -5.8303 27.6819 -18.3302 14.4993
# 5 4.3191 1.4627 3.8679 -18.3302 30.6212 -5.5939
# 6 -19.0231 -4.8318 -21.5078 14.4993 -5.5939 41.5606
#
#
#
# Elastic Compliance Matrix: (Units=1/GPa)
#
#
# Indices 1 2 3 4 5 6 
#
# 1 0.019848 -0.008764 -0.006422 -0.008007 -0.005112 0.006848
# 2 -0.008764 0.050446 -0.020709 -0.046550 -0.025708 0.003916
# 3 -0.006422 -0.020709 0.026221 0.025931 0.014307 0.001101
# 4 -0.008007 -0.046550 0.025931 0.130714 0.072571 -0.031492
# 5 -0.005112 -0.025708 0.014307 0.072571 0.073810 -0.013308
# 6 0.006848 0.003916 0.001101 -0.031492 -0.013308 0.037416
#
#
# Mechanical properties :
#
#
# Convention : Reuss Voigt Hill
#
# Bulk Modulus (GPa) = 40.44756 62.25588 51.35172
# Shear Modulus (GPa) = 11.94779 26.79276 19.37027
#
# Velocity S-wave (km/s) = 2.35345 3.52427 2.99660
# Velocity P-wave (km/s) = 5.11229 6.73952 5.98150
#
# Compressibility (1/GPa) = 0.02472337
#
# Stress axis : x y z
#
# Youngs Moduli (GPa) = 50.38259 19.82328 38.13728
#
# Poissons Ratio (x) = 0.17374 0.24492
# Poissons Ratio (y) = 0.44157 0.78980
# Poissons Ratio (z) = 0.32356 0.41053
#
# Static dielectric constant tensor:
#      x y z
#    x 1.790190 -0.012890 0.005890 
#    y -0.012890 1.813110 -0.054080 
#    z 0.005890 -0.054080 1.824610 
# 
# From -- ./inp_files/304891.got.cif
#   From: 2010.05.17/outbox.cif.g08.bks.cpg/sg2_153_cif.got.tgz:304891.got - 2010.06.03 11:33:40.
