data_PCOD9085483
_publ_section_title
;
Structure prediction by ZEFSAII (Michael W. Deem and Ramdas Pophale) SiO2 
 PCOD9085483
Probable space group: P -1
;
_chemical_formula_sum "Si O2"
_cell_formula_units_Z 16
_cell_length_a 11.049674
_cell_length_b 11.938888
_cell_length_c 9.562895
_cell_angle_alpha 67.668559
_cell_angle_beta 41.357413
_cell_angle_gamma 48.850048
_cell_volume 610.985374
_symmetry_space_group_name_H-M "P -1"
_symmetry_group_IT_number 2
_symmetry_cell_setting 'triclinic'
loop_
_space_group_symop_operation_xyz
x,y,z
-x,-y,-z
loop_
_atom_site_type_symbol
_atom_site_label
_atom_site_fract_x
_atom_site_fract_y
_atom_site_fract_z
Si Si1 0.676774 0.032501 0.265565
Si Si2 0.071046 0.179697 0.621221
Si Si3 0.745801 0.437292 0.381572
Si Si4 0.169807 0.818806 0.423696
Si Si5 0.200898 0.517912 0.160589
Si Si6 0.286567 0.351495 0.904823
Si Si7 0.493437 0.632726 0.767882
Si Si8 0.549673 0.968856 0.137448
O O1 0.602978 0.199366 0.276376
O O2 0.681362 0.010209 0.105066
O O3 0.500000 0.000000 0.500000
O O4 0.899403 0.913670 0.222341
O O5 0.294894 0.071512 0.380616
O O6 0.862383 0.221446 0.684351
O O7 0.025211 0.334821 0.639201
O O8 0.500000 0.500000 0.500000
O O9 0.893680 0.259062 0.371063
O O10 0.816593 0.508052 0.176631
O O11 0.684417 0.518008 0.544829
O O12 0.437809 0.738054 0.258253
O O13 0.000000 0.000000 0.500000
O O14 0.381666 0.405600 0.174042
O O15 0.171158 0.422585 0.121245
O O16 0.315121 0.591148 0.951879
O O17 0.305787 0.212704 0.886027
O O18 0.500000 0.000000 0.000000
#
# Coordination Sequence:
#
# PCOD9085483 Si02
#       8
#     2   2   2   2   2   2   2   2
#     4  10  24  44  66  90 132 186 225 263 321 393
#     4  11  23  43  65  97 133 163 227 278 325 401
#     4  10  19  35  60  95 133 170 204 257 338 394
#     4  11  20  36  67 104 127 163 212 277 335 385
#     4  11  22  39  65 102 131 164 213 279 352 385
#     4  11  22  42  69  96 137 172 214 274 336 394
#     4  11  20  39  65  94 138 175 210 266 342 400
#     4  11  24  47  69  91 129 185 229 265 324 396
#
# _framework density 26.187204999999999
#
# number of rings (size 3 to 8) (size 9 to 14) (size 15 to 20)
#    0.000    1.250    5.000    3.000    1.750    0.500 
#    2.250    6.250    0.000    0.000    0.000    0.000 
#    0.000    0.000    0.000    0.000    0.000    0.000 
#
# Total GULP energy -89605.197318 kJ/mol
# GULP energy per Si atom -5600.324832 kJ/mol
# Density = 2.612760 g / cm^3
# Si number density = 26.187205 Si / 1000 Ang^3
#
#
#
# Elastic Constant Matrix: (Units=GPa)
#
#
# Indices 1 2 3 4 5 6 
#
# 1 82.4967 12.5585 34.3508 -7.5710 10.6308 -6.7174
# 2 12.5585 191.8001 32.4574 15.7699 -1.4868 -19.9613
# 3 34.3508 32.4574 120.4853 15.1054 3.3490 -3.3816
# 4 -7.5710 15.7699 15.1054 42.2777 6.3260 15.9715
# 5 10.6308 -1.4868 3.3490 6.3260 47.7894 -7.4680
# 6 -6.7174 -19.9613 -3.3816 15.9715 -7.4680 38.7101
#
#
#
# Elastic Compliance Matrix: (Units=1/GPa)
#
#
# Indices 1 2 3 4 5 6 
#
# 1 0.015185 -0.000854 -0.004765 0.005894 -0.004076 -0.001440
# 2 -0.000854 0.006338 -0.000804 -0.004497 0.001861 0.005264
# 3 -0.004765 -0.000804 0.010567 -0.005338 0.001336 0.002142
# 4 0.005894 -0.004497 -0.005338 0.036634 -0.008830 -0.018581
# 5 -0.004076 0.001861 0.001336 -0.008830 0.024325 0.008705
# 6 -0.001440 0.005264 0.002142 -0.018581 0.008705 0.037830
#
#
# Mechanical properties :
#
#
# Convention : Reuss Voigt Hill
#
# Bulk Modulus (GPa) = 51.96638 61.50171 56.73404
# Shear Modulus (GPa) = 33.30228 46.78314 40.04271
#
# Velocity S-wave (km/s) = 3.56996 4.23127 3.91461
# Velocity P-wave (km/s) = 6.07290 6.88534 6.49184
#
# Compressibility (1/GPa) = 0.01924321
#
# Stress axis : x y z
#
# Youngs Moduli (GPa) = 65.85541 157.78424 94.63277
#
# Poissons Ratio (x) = 0.13473 0.45095
# Poissons Ratio (y) = 0.05623 0.07609
# Poissons Ratio (z) = 0.31382 0.12687
#
# Static dielectric constant tensor:
#      x y z
#    x 2.227350 -0.066510 -0.081900 
#    y -0.066510 2.066310 -0.063760 
#    z -0.081900 -0.063760 2.139120 
# 
# From -- ./inp_files/257956.got.cif
#   From: 2010.05.17/outbox.cif.g08.bks.cpg/sg2_129_cif.got.tgz:257956.got - 2010.06.03 11:33:40.
