data_PCOD9085998
_publ_section_title
;
Structure prediction by ZEFSAII (Michael W. Deem and Ramdas Pophale) SiO2 
 PCOD9085998
Probable space group: P -1
;
_chemical_formula_sum "Si O2"
_cell_formula_units_Z 16
_cell_length_a 14.731938
_cell_length_b 8.114556
_cell_length_c 9.678960
_cell_angle_alpha 110.291005
_cell_angle_beta 101.919202
_cell_angle_gamma 41.934242
_cell_volume 722.801033
_symmetry_space_group_name_H-M "P -1"
_symmetry_group_IT_number 2
_symmetry_cell_setting 'triclinic'
loop_
_space_group_symop_operation_xyz
x,y,z
-x,-y,-z
loop_
_atom_site_type_symbol
_atom_site_label
_atom_site_fract_x
_atom_site_fract_y
_atom_site_fract_z
Si Si1 0.571738 0.540437 0.933511
Si Si2 0.369805 0.545675 0.381680
Si Si3 0.909956 0.254175 0.636967
Si Si4 0.681914 0.924022 0.039926
Si Si5 0.825637 0.001770 0.902871
Si Si6 0.643319 0.058296 0.385085
Si Si7 0.054814 0.625210 0.046725
Si Si8 0.851988 0.686054 0.576328
O O1 0.566408 0.488476 0.756212
O O2 0.475526 0.846361 0.994069
O O3 0.731459 0.304509 0.951119
O O4 0.500000 0.500000 0.000000
O O5 0.226234 0.658672 0.341621
O O6 0.479754 0.260176 0.399976
O O7 0.345574 0.748248 0.527447
O O8 0.989635 0.206330 0.783757
O O9 0.863046 0.493879 0.612141
O O10 0.000000 0.000000 0.500000
O O11 0.687918 0.949295 0.213057
O O12 0.752898 0.981908 0.991296
O O13 0.781720 0.621014 0.962542
O O14 0.823796 0.888953 0.729432
O O15 0.981082 0.807744 0.943568
O O16 0.736557 0.840642 0.467164
O O17 0.000000 0.500000 0.000000
O O18 0.000000 0.500000 0.500000
#
# Coordination Sequence:
#
# PCOD9085998 Si02
#       8
#     2   2   2   2   2   2   2   2
#     4   9  18  36  64  98 126 170 227 275 325 402
#     4  10  22  41  66 100 139 173 225 284 339 402
#     4  12  27  43  65 101 142 176 223 296 345 387
#     4   9  18  35  64  93 122 169 227 263 324 406
#     4  10  19  35  66  95 122 169 233 268 315 411
#     4  10  21  39  71  98 129 183 228 263 343 425
#     4  10  20  39  65  90 125 182 226 261 336 412
#     4  12  23  39  69  99 133 181 236 273 334 417
#
# _framework density 22.136106000000002
#
# number of rings (size 3 to 8) (size 9 to 14) (size 15 to 20)
#    0.000    1.750    3.750    1.500    5.250    0.500 
#    0.000    3.125    2.750    0.000    0.000    0.000 
#    0.000    0.000    0.000    0.000    0.000    0.000 
#
# Total GULP energy -89266.603878 kJ/mol
# GULP energy per Si atom -5579.162742 kJ/mol
# Density = 2.208572 g / cm^3
# Si number density = 22.136106 Si / 1000 Ang^3
#
#
#
# Elastic Constant Matrix: (Units=GPa)
#
#
# Indices 1 2 3 4 5 6 
#
# 1 53.4158 10.5288 19.0950 6.1723 -3.8419 2.6640
# 2 10.5288 185.0085 26.1802 -6.1152 0.7372 -15.6477
# 3 19.0950 26.1802 107.2906 0.9780 2.1610 -3.4207
# 4 6.1723 -6.1152 0.9780 40.5136 3.8093 0.9555
# 5 -3.8419 0.7372 2.1610 3.8093 22.9474 -4.0235
# 6 2.6640 -15.6477 -3.4207 0.9555 -4.0235 24.8687
#
#
#
# Elastic Compliance Matrix: (Units=1/GPa)
#
#
# Indices 1 2 3 4 5 6 
#
# 1 0.021059 -0.001042 -0.003626 -0.003596 0.004038 -0.002619
# 2 -0.001042 0.005975 -0.001168 0.000980 0.000232 0.003710
# 3 -0.003626 -0.001168 0.010304 0.000243 -0.001435 0.000829
# 4 -0.003596 0.000980 0.000243 0.025870 -0.005088 -0.000782
# 5 0.004038 0.000232 -0.001435 -0.005088 0.046495 0.007234
# 6 -0.002619 0.003710 0.000829 -0.000782 0.007234 0.044141
#
#
# Mechanical properties :
#
#
# Convention : Reuss Voigt Hill
#
# Bulk Modulus (GPa) = 38.96052 50.81369 44.88710
# Shear Modulus (GPa) = 28.72408 36.99333 32.85870
#
# Velocity S-wave (km/s) = 3.60615 4.09244 3.85696
# Velocity P-wave (km/s) = 5.91420 6.73318 6.33693
#
# Compressibility (1/GPa) = 0.02566701
#
# Stress axis : x y z
#
# Youngs Moduli (GPa) = 47.48527 167.36476 97.05081
#
# Poissons Ratio (x) = 0.17437 0.35189
# Poissons Ratio (y) = 0.04947 0.11334
# Poissons Ratio (z) = 0.17217 0.19546
#
# Static dielectric constant tensor:
#      x y z
#    x 0.729120 -0.143620 -0.079490 
#    y -0.143620 1.895060 -0.022140 
#    z -0.079490 -0.022140 1.801870 
# 
# From -- ./inp_files/299226.got.cif
#   From: 2010.05.17/outbox.cif.g08.bks.cpg/sg2_150_cif.got.tgz:299226.got - 2010.06.03 11:33:40.
