data_PCOD9085513
_publ_section_title
;
Structure prediction by ZEFSAII (Michael W. Deem and Ramdas Pophale) SiO2 
 PCOD9085513
Probable space group: P -1
;
_chemical_formula_sum "Si O2"
_cell_formula_units_Z 12
_cell_length_a 8.102464
_cell_length_b 15.217204
_cell_length_c 9.529895
_cell_angle_alpha 142.070294
_cell_angle_beta 49.315933
_cell_angle_gamma 115.917644
_cell_volume 540.162534
_symmetry_space_group_name_H-M "P -1"
_symmetry_group_IT_number 2
_symmetry_cell_setting 'triclinic'
loop_
_space_group_symop_operation_xyz
x,y,z
-x,-y,-z
loop_
_atom_site_type_symbol
_atom_site_label
_atom_site_fract_x
_atom_site_fract_y
_atom_site_fract_z
Si Si1 0.621722 0.775369 0.255032
Si Si2 0.796339 0.480109 0.894290
Si Si3 0.302844 0.046000 0.819041
Si Si4 0.713973 0.450435 0.224829
Si Si5 0.000472 0.166850 0.379574
Si Si6 0.992650 0.167483 0.700485
O O1 0.593956 0.847213 0.207108
O O2 0.857707 0.790262 0.206474
O O3 0.463244 0.898291 0.587463
O O4 0.649606 0.601740 0.033114
O O5 0.824058 0.310885 0.623160
O O6 0.056442 0.502789 0.787178
O O7 0.702544 0.499266 0.129550
O O8 0.116205 0.975390 0.748895
O O9 0.195298 0.137944 0.124301
O O10 0.500000 0.500000 0.500000
O O11 0.762374 0.274962 0.974014
O O12 0.074815 0.191140 0.526903
O O13 0.000000 0.000000 0.500000
#
# Coordination Sequence:
#
# PCOD9085513 Si02
#       6
#     2   2   2   2   2   2
#     4  10  21  39  58  85 117 154 195 242 291 348
#     4   9  20  38  58  86 120 151 196 244 286 349
#     4  10  22  38  58  82 122 156 188 242 296 348
#     4   9  19  36  58  89 121 149 189 249 296 336
#     4  10  21  39  58  85 117 154 195 242 291 348
#     4  10  19  35  61  84 113 149 196 241 283 342
#
# _framework density 22.215537000000001
#
# number of rings (size 3 to 8) (size 9 to 14) (size 15 to 20)
#    0.000    2.333    1.667    1.000    0.000    4.667 
#    6.000    0.000    0.000    0.000    0.000    0.000 
#    0.000    0.000    0.000    0.000    0.000    0.000 
#
# Total GULP energy -66882.153909 kJ/mol
# GULP energy per Si atom -5573.512826 kJ/mol
# Density = 2.216497 g / cm^3
# Si number density = 22.215537 Si / 1000 Ang^3
#
#
#
# Elastic Constant Matrix: (Units=GPa)
#
#
# Indices 1 2 3 4 5 6 
#
# 1 32.1419 19.8480 17.5894 4.6794 -13.1935 -9.1773
# 2 19.8480 92.3593 73.6706 17.5607 -5.6704 -10.4076
# 3 17.5894 73.6706 180.8886 -11.4773 -12.1822 -16.2275
# 4 4.6794 17.5607 -11.4773 45.7080 11.0942 -7.3661
# 5 -13.1935 -5.6704 -12.1822 11.0942 18.9907 9.0456
# 6 -9.1773 -10.4076 -16.2275 -7.3661 9.0456 24.6656
#
#
#
# Elastic Compliance Matrix: (Units=1/GPa)
#
#
# Indices 1 2 3 4 5 6 
#
# 1 0.056177 -0.005181 -0.001609 -0.016865 0.048818 -0.005282
# 2 -0.005181 0.021224 -0.008916 -0.012216 0.006469 -0.004858
# 3 -0.001609 -0.008916 0.010104 0.008607 -0.005622 0.006919
# 4 -0.016865 -0.012216 0.008607 0.046814 -0.049803 0.026478
# 5 0.048818 0.006469 -0.005622 -0.049803 0.136779 -0.047839
# 6 -0.005282 -0.004858 0.006919 0.026478 -0.047839 0.066530
#
#
# Mechanical properties :
#
#
# Convention : Reuss Voigt Hill
#
# Bulk Modulus (GPa) = 17.82675 58.62287 38.22481
# Shear Modulus (GPa) = 12.89531 30.82498 21.86014
#
# Velocity S-wave (km/s) = 2.41189 3.72901 3.14028
# Velocity P-wave (km/s) = 3.97469 6.70718 5.51291
#
# Compressibility (1/GPa) = 0.05609547
#
# Stress axis : x y z
#
# Youngs Moduli (GPa) = 17.80081 47.11537 98.97148
#
# Poissons Ratio (x) = 0.24408 0.15924
# Poissons Ratio (y) = 0.09222 0.88239
# Poissons Ratio (z) = 0.02864 0.42006
#
# Static dielectric constant tensor:
#      x y z
#    x 1.852880 -0.003100 -0.035170 
#    y -0.003100 1.699390 -0.069240 
#    z -0.035170 -0.069240 1.740930 
# 
# From -- ./inp_files/150005.got.cif
#   From: 2010.05.17/outbox.cif.g08.bks.cpg/sg2_76_cif.got.tgz:150005.got - 2010.06.03 11:33:40.
