data_PCOD9085098
_publ_section_title
;
Structure prediction by ZEFSAII (Michael W. Deem and Ramdas Pophale) SiO2 
 PCOD9085098
Probable space group: P -1
;
_chemical_formula_sum "Si O2"
_cell_formula_units_Z 14
_cell_length_a 8.901168
_cell_length_b 18.448543
_cell_length_c 15.355557
_cell_angle_alpha 143.846192
_cell_angle_beta 28.315305
_cell_angle_gamma 141.659756
_cell_volume 680.830561
_symmetry_space_group_name_H-M "P -1"
_symmetry_group_IT_number 2
_symmetry_cell_setting 'triclinic'
loop_
_space_group_symop_operation_xyz
x,y,z
-x,-y,-z
loop_
_atom_site_type_symbol
_atom_site_label
_atom_site_fract_x
_atom_site_fract_y
_atom_site_fract_z
Si Si1 0.333376 0.583592 0.104887
Si Si2 0.304540 0.619051 0.484395
Si Si3 0.174495 0.216064 0.061665
Si Si4 0.529028 0.241909 0.634639
Si Si5 0.389696 0.532872 0.682789
Si Si6 0.801348 0.817612 0.791567
Si Si7 0.844054 0.961450 0.267503
O O1 0.307245 0.688787 0.292849
O O2 0.999073 0.497401 0.154640
O O3 0.500000 0.500000 0.000000
O O4 0.551551 0.659222 0.989477
O O5 0.497325 0.666617 0.342711
O O6 0.512395 0.563350 0.392895
O O7 0.000000 0.500000 0.500000
O O8 0.147139 0.729120 0.710188
O O9 0.272883 0.160751 0.048565
O O10 0.157149 0.114208 0.895571
O O11 0.189673 0.143350 0.740410
O O12 0.815214 0.181867 0.396981
O O13 0.500000 0.500000 0.500000
O O14 0.577018 0.678058 0.749162
O O15 0.838267 0.919901 0.793844
O O16 0.500000 0.000000 0.500000
#
# Coordination Sequence:
#
# PCOD9085098 Si02
#       7
#     2   2   2   2   2   2   2
#     4  11  22  36  57  89 125 156 205 248 313 366
#     4  11  19  37  61  90 128 155 202 250 309 372
#     4  10  20  35  60  92 119 161 202 258 302 358
#     4   9  18  36  58  86 114 165 194 253 301 354
#     4  12  22  36  62  90 124 167 196 253 314 362
#     4  10  19  35  58  90 121 158 210 246 299 366
#     4   9  19  35  61  90 120 164 211 245 300 367
#
# _framework density 20.563120000000001
#
# number of rings (size 3 to 8) (size 9 to 14) (size 15 to 20)
#    0.000    1.714    4.286    2.143    0.000    0.571 
#    0.000    0.000    0.000    8.571    7.429    0.000 
#    0.000    0.000    0.000    0.000    0.000    0.000 
#
# Total GULP energy -77960.754108 kJ/mol
# GULP energy per Si atom -5568.625293 kJ/mol
# Density = 2.051632 g / cm^3
# Si number density = 20.563120 Si / 1000 Ang^3
#
#
#
# Elastic Constant Matrix: (Units=GPa)
#
#
# Indices 1 2 3 4 5 6 
#
# 1 97.2351 51.8625 25.2510 -19.8648 4.9993 -23.7741
# 2 51.8625 147.4576 30.5540 -29.3314 9.9751 -29.9096
# 3 25.2510 30.5540 76.7733 -2.4978 17.7102 0.7423
# 4 -19.8648 -29.3314 -2.4978 34.9737 -2.7487 15.2834
# 5 4.9993 9.9751 17.7102 -2.7487 32.2787 -8.4895
# 6 -23.7741 -29.9096 0.7423 15.2834 -8.4895 28.4566
#
#
#
# Elastic Compliance Matrix: (Units=1/GPa)
#
#
# Indices 1 2 3 4 5 6 
#
# 1 0.015749 -0.001955 -0.005429 0.002328 0.004309 0.011280
# 2 -0.001955 0.010583 -0.003869 0.004203 0.001564 0.007801
# 3 -0.005429 -0.003869 0.019170 -0.000486 -0.011772 -0.012353
# 4 0.002328 0.004203 -0.000486 0.040154 -0.002136 -0.015828
# 5 0.004309 0.001564 -0.011772 -0.002136 0.041092 0.018957
# 6 0.011280 0.007801 -0.012353 -0.015828 0.018957 0.067243
#
#
# Mechanical properties :
#
#
# Convention : Reuss Voigt Hill
#
# Bulk Modulus (GPa) = 43.48375 59.64458 51.56416
# Shear Modulus (GPa) = 22.30541 33.39503 27.85022
#
# Velocity S-wave (km/s) = 3.29710 4.03429 3.68418
# Velocity P-wave (km/s) = 5.97385 7.12525 6.57480
#
# Compressibility (1/GPa) = 0.02299710
#
# Stress axis : x y z
#
# Youngs Moduli (GPa) = 63.49735 94.48957 52.16564
#
# Poissons Ratio (x) = 0.18469 0.28321
# Poissons Ratio (y) = 0.12411 0.20180
# Poissons Ratio (z) = 0.34474 0.36553
#
# Static dielectric constant tensor:
#      x y z
#    x 1.747750 -0.054900 -0.039940 
#    y -0.054900 1.890940 0.007320 
#    z -0.039940 0.007320 2.140570 
# 
# From -- ./inp_files/171081.got.cif
#   From: 2010.05.17/outbox.cif.g08.bks.cpg/sg2_86_cif.got.tgz:171081.got - 2010.06.03 11:33:40.
