data_PCOD9085356
_publ_section_title
;
Structure prediction by ZEFSAII (Michael W. Deem and Ramdas Pophale) SiO2 
 PCOD9085356
Probable space group: P -1
;
_chemical_formula_sum "Si O2"
_cell_formula_units_Z 16
_cell_length_a 7.498366
_cell_length_b 13.427725
_cell_length_c 9.498374
_cell_angle_alpha 69.262921
_cell_angle_beta 107.473559
_cell_angle_gamma 134.397284
_cell_volume 637.072659
_symmetry_space_group_name_H-M "P -1"
_symmetry_group_IT_number 2
_symmetry_cell_setting 'triclinic'
loop_
_space_group_symop_operation_xyz
x,y,z
-x,-y,-z
loop_
_atom_site_type_symbol
_atom_site_label
_atom_site_fract_x
_atom_site_fract_y
_atom_site_fract_z
Si Si1 0.995553 0.395778 0.946286
Si Si2 0.345995 0.113717 0.156530
Si Si3 0.436962 0.192453 0.822146
Si Si4 0.137004 0.890608 0.417969
Si Si5 0.406771 0.518409 0.328110
Si Si6 0.539377 0.371987 0.250483
Si Si7 0.069660 0.733718 0.733157
Si Si8 0.533423 0.173835 0.549870
O O1 0.223003 0.499724 0.845493
O O2 0.736109 0.288083 0.858911
O O3 0.000000 0.500000 0.000000
O O4 0.995253 0.295562 0.103164
O O5 0.369116 0.239009 0.168770
O O6 0.627865 0.171551 0.234870
O O7 0.111850 0.960316 0.244218
O O8 0.332448 0.110652 0.985913
O O9 0.425731 0.315994 0.745950
O O10 0.390751 0.128446 0.688032
O O11 0.998544 0.801684 0.573347
O O12 0.227089 0.813807 0.406765
O O13 0.347826 0.041534 0.469187
O O14 0.500000 0.500000 0.500000
O O15 0.438464 0.441916 0.255683
O O16 0.106643 0.424300 0.302045
O O17 0.589489 0.309227 0.424542
#
# Coordination Sequence:
#
# PCOD9085356 Si02
#       8
#     2   2   2   2   2   2   2   2
#     4  11  19  36  60  92 117 152 201 254 300 353
#     4  10  19  39  64  89 112 154 206 251 294 348
#     4  11  22  36  60  91 124 151 196 257 298 347
#     4  10  19  39  65  88 113 156 210 250 298 352
#     4  12  25  37  57  90 127 161 196 240 298 370
#     4  11  20  37  58  85 121 161 194 233 305 358
#     4  11  19  38  61  85 122 150 200 250 292 358
#     4  10  19  35  60  85 119 153 195 251 296 349
#
# _framework density 25.114874
#
# number of rings (size 3 to 8) (size 9 to 14) (size 15 to 20)
#    0.000    1.250    8.750    0.000    0.000    4.000 
#    0.000    2.500    0.000    0.750    0.000    0.000 
#    0.000    0.000    0.000    0.000    0.000    0.000 
#
# Total GULP energy -89181.576673 kJ/mol
# GULP energy per Si atom -5573.848542 kJ/mol
# Density = 2.505771 g / cm^3
# Si number density = 25.114874 Si / 1000 Ang^3
#
#
#
# Elastic Constant Matrix: (Units=GPa)
#
#
# Indices 1 2 3 4 5 6 
#
# 1 64.8515 17.8531 36.9778 0.6409 -11.8415 -14.9041
# 2 17.8531 51.9510 34.7329 -17.4774 -6.0114 -3.0735
# 3 36.9778 34.7329 193.9864 -26.4892 -19.8158 -0.6943
# 4 0.6409 -17.4774 -26.4892 47.7212 6.6364 -5.6901
# 5 -11.8415 -6.0114 -19.8158 6.6364 32.4169 8.7614
# 6 -14.9041 -3.0735 -0.6943 -5.6901 8.7614 28.1740
#
#
#
# Elastic Compliance Matrix: (Units=1/GPa)
#
#
# Indices 1 2 3 4 5 6 
#
# 1 0.021438 -0.005476 -0.003226 -0.003445 0.003117 0.008999
# 2 -0.005476 0.025627 -0.002488 0.008438 -0.000997 0.001851
# 3 -0.003226 -0.002488 0.006787 0.002275 0.002629 -0.002169
# 4 -0.003445 0.008438 0.002275 0.026870 -0.005504 0.006293
# 5 0.003117 -0.000997 0.002629 -0.005504 0.037560 -0.011187
# 6 0.008999 0.001851 -0.002169 0.006293 -0.011187 0.045153
#
#
# Mechanical properties :
#
#
# Convention : Reuss Voigt Hill
#
# Bulk Modulus (GPa) = 31.77398 54.43517 43.10457
# Shear Modulus (GPa) = 25.47067 36.41074 30.94071
#
# Velocity S-wave (km/s) = 3.18805 3.81171 3.51375
# Velocity P-wave (km/s) = 5.12157 6.41044 5.80191
#
# Compressibility (1/GPa) = 0.03147229
#
# Stress axis : x y z
#
# Youngs Moduli (GPa) = 46.64605 39.02171 147.34446
#
# Poissons Ratio (x) = 0.21370 0.47530
# Poissons Ratio (y) = 0.25545 0.36652
# Poissons Ratio (z) = 0.15047 0.09707
#
# Static dielectric constant tensor:
#      x y z
#    x 2.172220 0.061940 0.089900 
#    y 0.061940 2.037900 -0.062680 
#    z 0.089900 -0.062680 2.076180 
# 
# From -- ./inp_files/206416.got.cif
#   From: 2010.05.17/outbox.cif.g08.bks.cpg/sg2_104_cif.got.tgz:206416.got - 2010.06.03 11:33:40.
