data_PCOD9085964
_publ_section_title
;
Structure prediction by ZEFSAII (Michael W. Deem and Ramdas Pophale) SiO2 
 PCOD9085964
Probable space group: P -1
;
_chemical_formula_sum "Si O2"
_cell_formula_units_Z 16
_cell_length_a 10.737363
_cell_length_b 9.560263
_cell_length_c 11.479979
_cell_angle_alpha 90.742877
_cell_angle_beta 55.811590
_cell_angle_gamma 121.548980
_cell_volume 761.842475
_symmetry_space_group_name_H-M "P -1"
_symmetry_group_IT_number 2
_symmetry_cell_setting 'triclinic'
loop_
_space_group_symop_operation_xyz
x,y,z
-x,-y,-z
loop_
_atom_site_type_symbol
_atom_site_label
_atom_site_fract_x
_atom_site_fract_y
_atom_site_fract_z
Si Si1 0.221008 0.739645 0.612376
Si Si2 0.335036 0.848417 0.998528
Si Si3 0.732287 0.918952 0.069465
Si Si4 0.519777 0.882379 0.655656
Si Si5 0.961696 0.107359 0.183162
Si Si6 0.076746 0.394009 0.534460
Si Si7 0.718122 0.339883 0.762358
Si Si8 0.859266 0.880774 0.466152
O O1 0.357797 0.764217 0.643145
O O2 0.149435 0.565266 0.576031
O O3 0.063501 0.748985 0.757088
O O4 0.348924 0.916920 0.465468
O O5 0.159602 0.159982 0.027236
O O6 0.422859 0.862593 0.828370
O O7 0.267401 0.674900 0.106265
O O8 0.500000 0.000000 0.000000
O O9 0.799127 0.988293 0.167304
O O10 0.797100 0.092615 0.959859
O O11 0.652500 0.824997 0.602268
O O12 0.498048 0.221404 0.832088
O O13 0.923236 0.991484 0.315234
O O14 0.168880 0.469337 0.359061
O O15 0.138268 0.283031 0.549977
O O16 0.845654 0.279271 0.652638
O O17 0.000000 0.000000 0.500000
#
# Coordination Sequence:
#
# PCOD9085964 Si02
#       8
#     2   2   2   2   2   2   2   2
#     4  10  21  41  68  91 131 166 218 263 315 387
#     4  10  19  35  65  95 124 167 213 258 312 382
#     4  10  20  39  66  96 132 164 217 259 317 383
#     4  10  22  40  67  98 122 172 218 261 317 383
#     4  10  22  39  67 100 122 168 215 266 311 382
#     4  11  25  44  62  94 130 171 213 268 323 377
#     4  10  24  38  66  91 128 175 207 260 324 379
#     4  11  27  40  66  95 129 163 219 268 316 387
#
# _framework density 21.001719000000001
#
# number of rings (size 3 to 8) (size 9 to 14) (size 15 to 20)
#    0.000    1.750    1.250    2.250   17.500    0.500 
#    0.000    3.125    0.000    0.000    0.000    0.000 
#    0.000    0.000    0.000    0.000    0.000    0.000 
#
# Total GULP energy -89277.552476 kJ/mol
# GULP energy per Si atom -5579.847030 kJ/mol
# Density = 2.095392 g / cm^3
# Si number density = 21.001719 Si / 1000 Ang^3
#
#
#
# Elastic Constant Matrix: (Units=GPa)
#
#
# Indices 1 2 3 4 5 6 
#
# 1 167.2475 60.1394 55.9012 7.9975 8.0282 -17.0606
# 2 60.1394 99.8714 26.2581 17.3959 -1.0519 -11.7412
# 3 55.9012 26.2581 103.8874 6.8322 9.3380 6.1419
# 4 7.9975 17.3959 6.8322 27.4915 -2.8787 0.1734
# 5 8.0282 -1.0519 9.3380 -2.8787 47.9806 8.3388
# 6 -17.0606 -11.7412 6.1419 0.1734 8.3388 33.3348
#
#
#
# Elastic Compliance Matrix: (Units=1/GPa)
#
#
# Indices 1 2 3 4 5 6 
#
# 1 0.009365 -0.004166 -0.004158 0.000751 -0.001583 0.004484
# 2 -0.004166 0.014538 -0.001134 -0.007702 0.000221 0.003182
# 3 -0.004158 -0.001134 0.012601 -0.001287 -0.001063 -0.004577
# 4 0.000751 -0.007702 -0.001287 0.041682 0.002988 -0.003055
# 5 -0.001583 0.000221 -0.001063 0.002988 0.022575 -0.006199
# 6 0.004484 0.003182 -0.004577 -0.003055 -0.006199 0.035824
#
#
# Mechanical properties :
#
#
# Convention : Reuss Voigt Hill
#
# Bulk Modulus (GPa) = 56.86344 72.84486 64.85415
# Shear Modulus (GPa) = 30.98601 37.00853 33.99727
#
# Velocity S-wave (km/s) = 3.84526 4.20237 4.02778
# Velocity P-wave (km/s) = 6.84464 7.63591 7.25108
#
# Compressibility (1/GPa) = 0.01758599
#
# Stress axis : x y z
#
# Youngs Moduli (GPa) = 106.78611 68.78600 79.36055
#
# Poissons Ratio (x) = 0.28658 0.32999
# Poissons Ratio (y) = 0.44489 0.09001
# Poissons Ratio (z) = 0.44403 0.07802
#
# Static dielectric constant tensor:
#      x y z
#    x 1.767110 0.007740 -0.019170 
#    y 0.007740 1.804150 -0.025510 
#    z -0.019170 -0.025510 1.831670 
# 
# From -- ./inp_files/444572.got.cif
#   From: 2010.05.17/outbox.cif.g08.bks.cpg/sg2_223_cif.got.tgz:444572.got - 2010.06.03 11:33:40.
