data_PCOD9085777
_publ_section_title
;
Structure prediction by ZEFSAII (Michael W. Deem and Ramdas Pophale) SiO2 
 PCOD9085777
Probable space group: P -1
;
_chemical_formula_sum "Si O2"
_cell_formula_units_Z 16
_cell_length_a 7.022096
_cell_length_b 8.013847
_cell_length_c 14.078626
_cell_angle_alpha 78.629446
_cell_angle_beta 105.653501
_cell_angle_gamma 108.701409
_cell_volume 717.262190
_symmetry_space_group_name_H-M "P -1"
_symmetry_group_IT_number 2
_symmetry_cell_setting 'triclinic'
loop_
_space_group_symop_operation_xyz
x,y,z
-x,-y,-z
loop_
_atom_site_type_symbol
_atom_site_label
_atom_site_fract_x
_atom_site_fract_y
_atom_site_fract_z
Si Si1 0.611370 0.242344 0.047874
Si Si2 0.589780 0.371753 0.696586
Si Si3 0.524717 0.506257 0.866446
Si Si4 0.662017 0.814229 0.489932
Si Si5 0.968213 0.692996 0.662378
Si Si6 0.332384 0.987022 0.180717
Si Si7 0.955984 0.799607 0.866771
Si Si8 0.398062 0.816606 0.629715
O O1 0.623783 0.396551 0.112151
O O2 0.464644 0.067368 0.096632
O O3 0.833251 0.217520 0.058595
O O4 0.516008 0.323991 0.939259
O O5 0.497965 0.466054 0.756760
O O6 0.425643 0.303685 0.599503
O O7 0.798615 0.505103 0.670366
O O8 0.653597 0.206190 0.769847
O O9 0.758493 0.639380 0.891473
O O10 0.876377 0.801805 0.561170
O O11 0.506691 0.749890 0.564874
O O12 0.658712 0.010458 0.438487
O O13 0.985132 0.782602 0.758877
O O14 0.189326 0.688997 0.656430
O O15 0.110015 0.022878 0.139624
O O16 0.442370 0.110531 0.271053
#
# Coordination Sequence:
#
# PCOD9085777 Si02
#       8
#     2   2   2   2   2   2   2   2
#     4  10  19  38  65  86 111 159 201 234 292 354
#     4  10  23  39  56  88 131 149 186 254 299 334
#     4   9  21  38  60  89 117 151 195 249 289 347
#     4  10  21  38  57  85 120 153 192 248 287 341
#     4  11  20  36  60  86 114 158 200 237 286 347
#     4  10  20  38  58  88 123 154 192 243 290 348
#     4  10  19  35  63  86 116 152 202 239 281 351
#     4  10  20  36  61  84 112 158 205 232 282 352
#
# _framework density 22.307046
#
# number of rings (size 3 to 8) (size 9 to 14) (size 15 to 20)
#    0.000    2.000    2.500    1.125    0.000    1.000 
#    0.000    6.875    0.000    0.000    0.000    0.000 
#    0.000    0.000    0.000    0.000    0.000    0.000 
#
# Total GULP energy -89488.736330 kJ/mol
# GULP energy per Si atom -5593.046021 kJ/mol
# Density = 2.225627 g / cm^3
# Si number density = 22.307046 Si / 1000 Ang^3
#
#
#
# Elastic Constant Matrix: (Units=GPa)
#
#
# Indices 1 2 3 4 5 6 
#
# 1 109.3546 4.8133 10.9724 -8.0098 0.5793 -13.6803
# 2 4.8133 43.0403 12.1927 -14.4182 3.3529 -10.1008
# 3 10.9724 12.1927 73.7799 -18.7150 -7.3775 3.4033
# 4 -8.0098 -14.4182 -18.7150 37.3301 -9.3636 -2.4691
# 5 0.5793 3.3529 -7.3775 -9.3636 32.7944 -9.0039
# 6 -13.6803 -10.1008 3.4033 -2.4691 -9.0039 18.8328
#
#
#
# Elastic Compliance Matrix: (Units=1/GPa)
#
#
# Indices 1 2 3 4 5 6 
#
# 1 0.011034 0.003405 -0.001110 0.004995 0.004110 0.012662
# 2 0.003405 0.035177 -0.002457 0.017030 0.008342 0.028005
# 3 -0.001110 -0.002457 0.017067 0.008904 0.006381 -0.000991
# 4 0.004995 0.017030 0.008904 0.045886 0.020707 0.027069
# 5 0.004110 0.008342 0.006381 0.020707 0.045344 0.030700
# 6 0.012662 0.028005 -0.000991 0.027069 0.030700 0.095722
#
#
# Mechanical properties :
#
#
# Convention : Reuss Voigt Hill
#
# Bulk Modulus (GPa) = 15.88481 31.34796 23.61639
# Shear Modulus (GPa) = 18.41355 31.00455 24.70905
#
# Velocity S-wave (km/s) = 2.87620 3.73218 3.33179
# Velocity P-wave (km/s) = 4.26221 5.71451 5.04094
#
# Compressibility (1/GPa) = 0.06295321
#
# Stress axis : x y z
#
# Youngs Moduli (GPa) = 90.62823 28.42793 58.59135
#
# Poissons Ratio (x) = -0.09679 0.06503
# Poissons Ratio (y) = -0.30858 0.14399
# Poissons Ratio (z) = 0.10058 0.06986
#
# Static dielectric constant tensor:
#      x y z
#    x 1.776740 -0.019900 0.004180 
#    y -0.019900 1.838580 -0.013010 
#    z 0.004180 -0.013010 1.838950 
# 
# From -- ./inp_files/39189.got.cif
#   From: 2010.05.17/outbox.cif.g08.bks.cpg/sg2_20_cif.got.tgz:39189.got - 2010.06.03 11:33:40.
