data_PCOD9085363
_publ_section_title
;
Structure prediction by ZEFSAII (Michael W. Deem and Ramdas Pophale) SiO2 
 PCOD9085363
Probable space group: P -1
;
_chemical_formula_sum "Si O2"
_cell_formula_units_Z 16
_cell_length_a 15.961234
_cell_length_b 5.463427
_cell_length_c 22.619149
_cell_angle_alpha 73.945344
_cell_angle_beta 23.680900
_cell_angle_gamma 85.591475
_cell_volume 677.165090
_symmetry_space_group_name_H-M "P -1"
_symmetry_group_IT_number 2
_symmetry_cell_setting 'triclinic'
loop_
_space_group_symop_operation_xyz
x,y,z
-x,-y,-z
loop_
_atom_site_type_symbol
_atom_site_label
_atom_site_fract_x
_atom_site_fract_y
_atom_site_fract_z
Si Si1 0.106249 0.299423 0.971500
Si Si2 0.586002 0.470335 0.034310
Si Si3 0.249162 0.074769 0.367225
Si Si4 0.064764 0.108211 0.139749
Si Si5 0.777344 0.431440 0.342351
Si Si6 0.348600 0.319051 0.702968
Si Si7 0.717745 0.306717 0.845952
Si Si8 0.114056 0.466087 0.491840
O O1 0.331258 0.373787 0.779586
O O2 0.157171 0.299657 0.007785
O O3 0.000000 0.500000 0.000000
O O4 0.888651 0.979304 0.129572
O O5 0.722168 0.769831 0.960000
O O6 0.745315 0.412067 0.888233
O O7 0.469954 0.213846 0.172140
O O8 0.361641 0.473533 0.148265
O O9 0.263088 0.304123 0.390722
O O10 0.240121 0.783893 0.414609
O O11 0.000000 0.000000 0.500000
O O12 0.889658 0.218751 0.274102
O O13 0.945592 0.768512 0.227216
O O14 0.575976 0.308587 0.530444
O O15 0.676034 0.456731 0.341404
O O16 0.921528 0.297743 0.676634
O O17 0.500000 0.000000 0.000000
O O18 0.000000 0.500000 0.500000
#
# Coordination Sequence:
#
# PCOD9085363 Si02
#       8
#     2   2   2   2   2   2   2   2
#     4  10  19  37  65  97 124 162 208 252 301 370
#     4  11  25  40  62  89 124 163 207 265 318 366
#     4  10  19  37  61  86 110 151 202 249 301 367
#     4  11  25  41  60  92 131 165 202 258 317 366
#     4  10  22  40  64  92 127 167 208 248 306 370
#     4   9  20  36  66  95 123 168 211 250 292 371
#     4  11  23  39  65  89 114 165 213 258 309 381
#     4  10  19  35  60  86 110 139 202 251 297 357
#
# _framework density 23.627915000000002
#
# number of rings (size 3 to 8) (size 9 to 14) (size 15 to 20)
#    0.000    1.750    3.750    1.500    5.250    1.500 
#    0.000    2.500    0.000    0.000    0.000    0.000 
#    0.000    0.000    0.000    0.000    0.000    0.000 
#
# Total GULP energy -89328.239258 kJ/mol
# GULP energy per Si atom -5583.014954 kJ/mol
# Density = 2.357414 g / cm^3
# Si number density = 23.627915 Si / 1000 Ang^3
#
#
#
# Elastic Constant Matrix: (Units=GPa)
#
#
# Indices 1 2 3 4 5 6 
#
# 1 72.5399 22.1022 47.7971 17.4188 16.2773 16.3406
# 2 22.1022 97.8412 17.2765 9.2695 10.4837 0.7576
# 3 47.7971 17.2765 131.4831 13.7015 49.7782 8.2647
# 4 17.4188 9.2695 13.7015 37.7540 5.8726 2.7053
# 5 16.2773 10.4837 49.7782 5.8726 33.5973 4.3214
# 6 16.3406 0.7576 8.2647 2.7053 4.3214 28.3407
#
#
#
# Elastic Compliance Matrix: (Units=1/GPa)
#
#
# Indices 1 2 3 4 5 6 
#
# 1 0.023561 -0.003613 -0.008603 -0.006857 0.005085 -0.011100
# 2 -0.003613 0.011305 0.001170 -0.001126 -0.003584 0.002093
# 3 -0.008603 0.001170 0.020700 0.000197 -0.027292 0.003035
# 4 -0.006857 -0.001126 0.000197 0.030077 -0.002052 0.001368
# 5 0.005085 -0.003584 -0.027292 -0.002052 0.069900 -0.005340
# 6 -0.011100 0.002093 0.003035 0.001368 -0.005340 0.041428
#
#
# Mechanical properties :
#
#
# Convention : Reuss Voigt Hill
#
# Bulk Modulus (GPa) = 29.87322 52.91286 41.39304
# Shear Modulus (GPa) = 21.71846 34.25097 27.98471
#
# Velocity S-wave (km/s) = 3.03510 3.81149 3.44523
# Velocity P-wave (km/s) = 4.99530 6.46628 5.77779
#
# Compressibility (1/GPa) = 0.03347480
#
# Stress axis : x y z
#
# Youngs Moduli (GPa) = 42.44336 88.46023 48.30868
#
# Poissons Ratio (x) = 0.31957 0.41561
# Poissons Ratio (y) = 0.15333 -0.05654
# Poissons Ratio (z) = 0.36515 -0.10353
#
# Static dielectric constant tensor:
#      x y z
#    x 1.803560 -0.356400 0.388510 
#    y -0.356400 1.115650 0.870370 
#    z 0.388510 0.870370 0.975860 
# 
# From -- ./inp_files/105382.got.cif
#   From: 2010.05.17/outbox.cif.g08.bks.cpg/sg2_53_cif.got.tgz:105382.got - 2010.06.03 11:33:40.
