data_PCOD9085780
_publ_section_title
;
Structure prediction by ZEFSAII (Michael W. Deem and Ramdas Pophale) SiO2 
 PCOD9085780
Probable space group: P -1
;
_chemical_formula_sum "Si O2"
_cell_formula_units_Z 14
_cell_length_a 10.431684
_cell_length_b 9.331341
_cell_length_c 6.950885
_cell_angle_alpha 94.719994
_cell_angle_beta 122.887804
_cell_angle_gamma 91.512131
_cell_volume 564.201331
_symmetry_space_group_name_H-M "P -1"
_symmetry_group_IT_number 2
_symmetry_cell_setting 'triclinic'
loop_
_space_group_symop_operation_xyz
x,y,z
-x,-y,-z
loop_
_atom_site_type_symbol
_atom_site_label
_atom_site_fract_x
_atom_site_fract_y
_atom_site_fract_z
Si Si1 0.763161 0.545960 0.768481
Si Si2 0.320631 0.161310 0.416082
Si Si3 0.854721 0.846553 0.350100
Si Si4 0.519325 0.840528 0.076973
Si Si5 0.243369 0.656083 0.932473
Si Si6 0.997871 0.409585 0.707653
Si Si7 0.138017 0.957670 0.975823
O O1 0.673574 0.676518 0.638551
O O2 0.685696 0.434927 0.847988
O O3 0.835713 0.459724 0.644489
O O4 0.912236 0.614620 0.017280
O O5 0.178592 0.138206 0.450685
O O6 0.459574 0.143898 0.672425
O O7 0.283174 0.049224 0.203528
O O8 0.680791 0.782947 0.137881
O O9 0.981111 0.738421 0.398256
O O10 0.878979 0.985382 0.249785
O O11 0.374310 0.728350 0.909488
O O12 0.500000 0.000000 0.000000
O O13 0.164570 0.790466 0.973404
O O14 0.111496 0.541487 0.728893
O O15 0.000000 0.000000 0.000000
#
# Coordination Sequence:
#
# PCOD9085780 Si02
#       7
#     2   2   2   2   2   2   2
#     4   9  18  37  60  93 115 154 208 243 307 359
#     4  10  23  39  61  91 120 164 204 243 313 361
#     4  10  22  40  60  87 126 159 200 254 302 358
#     4  10  22  42  57  88 128 162 207 251 298 354
#     4  10  19  35  63  86 120 162 201 248 301 358
#     4   9  18  37  62  88 121 157 197 255 305 350
#     4  12  21  39  67  88 120 161 203 257 309 358
#
# _framework density 24.813838000000001
#
# number of rings (size 3 to 8) (size 9 to 14) (size 15 to 20)
#    1.714    0.286    2.857    1.714    0.000    2.857 
#    0.000    2.857    0.000    0.000    0.000    0.000 
#    0.000    0.000    0.000    0.000    0.000    0.000 
#
# Total GULP energy -78186.229690 kJ/mol
# GULP energy per Si atom -5584.730692 kJ/mol
# Density = 2.475736 g / cm^3
# Si number density = 24.813838 Si / 1000 Ang^3
#
#
#
# Elastic Constant Matrix: (Units=GPa)
#
#
# Indices 1 2 3 4 5 6 
#
# 1 63.5327 26.4164 -4.2234 0.1378 -0.1363 2.3569
# 2 26.4164 166.5542 56.1505 -22.4177 -5.5003 8.5324
# 3 -4.2234 56.1505 92.2927 -11.7480 -13.8981 -8.4109
# 4 0.1378 -22.4177 -11.7480 49.3146 2.2625 -2.7572
# 5 -0.1363 -5.5003 -13.8981 2.2625 39.9807 -0.0324
# 6 2.3569 8.5324 -8.4109 -2.7572 -0.0324 48.1464
#
#
#
# Elastic Compliance Matrix: (Units=1/GPa)
#
#
# Indices 1 2 3 4 5 6 
#
# 1 0.017628 -0.004041 0.003261 -0.001122 0.000701 0.000359
# 2 -0.004041 0.008996 -0.005657 0.002670 -0.000895 -0.002232
# 3 0.003261 -0.005657 0.015592 0.001126 0.004592 0.003634
# 4 -0.001122 0.002670 0.001126 0.021843 -0.000480 0.001029
# 5 0.000701 -0.000895 0.004592 -0.000480 0.026516 0.000917
# 6 0.000359 -0.002232 0.003634 0.001029 0.000917 0.021842
#
#
# Mechanical properties :
#
#
# Convention : Reuss Voigt Hill
#
# Bulk Modulus (GPa) = 34.08120 53.22962 43.65541
# Shear Modulus (GPa) = 37.01759 43.75742 40.38751
#
# Velocity S-wave (km/s) = 3.86659 4.20387 4.03875
# Velocity P-wave (km/s) = 5.80505 6.71279 6.27536
#
# Compressibility (1/GPa) = 0.02934169
#
# Stress axis : x y z
#
# Youngs Moduli (GPa) = 56.72882 111.15835 64.13596
#
# Poissons Ratio (x) = 0.44924 -0.20915
# Poissons Ratio (y) = 0.22927 0.36279
# Poissons Ratio (z) = -0.18500 0.62878
#
# Static dielectric constant tensor:
#      x y z
#    x 1.994170 0.047190 0.010180 
#    y 0.047190 1.906130 0.028340 
#    z 0.010180 0.028340 2.136520 
# 
# From -- ./inp_files/243710.got.cif
#   From: 2010.05.17/outbox.cif.g08.bks.cpg/sg2_122_cif.got.tgz:243710.got - 2010.06.03 11:33:40.
