data_PCOD9085880
_publ_section_title
;
Structure prediction by ZEFSAII (Michael W. Deem and Ramdas Pophale) SiO2 
 PCOD9085880
Probable space group: P -1
;
_chemical_formula_sum "Si O2"
_cell_formula_units_Z 16
_cell_length_a 12.159234
_cell_length_b 14.579238
_cell_length_c 7.088835
_cell_angle_alpha 79.877523
_cell_angle_beta 118.715736
_cell_angle_gamma 139.418161
_cell_volume 676.406969
_symmetry_space_group_name_H-M "P -1"
_symmetry_group_IT_number 2
_symmetry_cell_setting 'triclinic'
loop_
_space_group_symop_operation_xyz
x,y,z
-x,-y,-z
loop_
_atom_site_type_symbol
_atom_site_label
_atom_site_fract_x
_atom_site_fract_y
_atom_site_fract_z
Si Si1 0.424511 0.078956 0.967839
Si Si2 0.948949 0.094673 0.807029
Si Si3 0.678423 0.798921 0.920159
Si Si4 0.055243 0.610495 0.217375
Si Si5 0.321470 0.892856 0.551324
Si Si6 0.987816 0.241978 0.148713
Si Si7 0.333896 0.666177 0.173489
Si Si8 0.410046 0.538753 0.505667
O O1 0.410225 0.169831 0.035696
O O2 0.561142 0.083016 0.184893
O O3 0.522050 0.166147 0.820753
O O4 0.200155 0.909312 0.842940
O O5 0.813769 0.092833 0.590599
O O6 0.146210 0.162293 0.853307
O O7 0.798366 0.925452 0.809921
O O8 0.029233 0.192672 0.029966
O O9 0.513561 0.637561 0.743778
O O10 0.153881 0.715691 0.437358
O O11 0.199281 0.613290 0.262683
O O12 0.067901 0.696605 0.032481
O O13 0.826235 0.444568 0.085813
O O14 0.500000 0.000000 0.500000
O O15 0.174349 0.376839 0.383584
O O16 0.440575 0.634796 0.334318
O O17 0.500000 0.500000 0.500000
#
# Coordination Sequence:
#
# PCOD9085880 Si02
#       8
#     2   2   2   2   2   2   2   2
#     4  11  22  38  63  91 125 154 199 261 301 345
#     4   9  18  33  60  91 117 157 204 241 288 371
#     4  10  19  35  64  87 117 159 207 244 299 356
#     4   9  19  39  61  83 118 160 199 236 302 372
#     4  11  18  35  64  90 119 158 202 243 299 367
#     4   9  18  36  59  88 120 149 200 245 294 355
#     4  10  23  38  60  89 123 153 198 256 304 355
#     4  11  21  37  65  83 114 168 207 235 299 373
#
# _framework density 23.654396999999999
#
# number of rings (size 3 to 8) (size 9 to 14) (size 15 to 20)
#    0.000    2.000    5.000    0.750    0.000    1.000 
#    0.000    1.250    8.250    0.000    0.000    0.000 
#    0.000    0.000    0.000    0.000    0.000    0.000 
#
# Total GULP energy -89399.767916 kJ/mol
# GULP energy per Si atom -5587.485495 kJ/mol
# Density = 2.360056 g / cm^3
# Si number density = 23.654397 Si / 1000 Ang^3
#
#
#
# Elastic Constant Matrix: (Units=GPa)
#
#
# Indices 1 2 3 4 5 6 
#
# 1 104.9733 21.5025 46.6983 -0.6553 24.9150 -23.5275
# 2 21.5025 105.7457 39.9333 19.2774 13.9112 -12.1734
# 3 46.6983 39.9333 119.0993 27.1102 16.9486 -8.3059
# 4 -0.6553 19.2774 27.1102 45.6939 -14.1054 1.0283
# 5 24.9150 13.9112 16.9486 -14.1054 34.1542 -3.6676
# 6 -23.5275 -12.1734 -8.3059 1.0283 -3.6676 35.2300
#
#
#
# Elastic Compliance Matrix: (Units=1/GPa)
#
#
# Indices 1 2 3 4 5 6 
#
# 1 0.015225 0.000686 -0.004338 -0.000295 -0.008441 0.008512
# 2 0.000686 0.012517 -0.001719 -0.006505 -0.007020 0.003837
# 3 -0.004338 -0.001719 0.013852 -0.009733 -0.007102 -0.000680
# 4 -0.000295 -0.006505 -0.009733 0.037521 0.022819 -0.003459
# 5 -0.008441 -0.007020 -0.007102 0.022819 0.050694 -0.005126
# 6 0.008512 0.003837 -0.000680 -0.003459 -0.005126 0.034802
#
#
# Mechanical properties :
#
#
# Convention : Reuss Voigt Hill
#
# Bulk Modulus (GPa) = 32.41100 60.67629 46.54364
# Shear Modulus (GPa) = 26.93447 37.79457 32.36452
#
# Velocity S-wave (km/s) = 3.37807 4.00156 3.70296
# Velocity P-wave (km/s) = 5.38022 6.85980 6.16456
#
# Compressibility (1/GPa) = 0.03085373
#
# Stress axis : x y z
#
# Youngs Moduli (GPa) = 65.68307 79.88948 72.19142
#
# Poissons Ratio (x) = -0.05483 0.31315
# Poissons Ratio (y) = -0.04508 0.12408
# Poissons Ratio (z) = 0.28491 0.13731
#
# Static dielectric constant tensor:
#      x y z
#    x 2.000400 -0.000090 -0.037120 
#    y -0.000090 1.887710 0.024470 
#    z -0.037120 0.024470 1.926280 
# 
# From -- ./inp_files/270242.got.cif
#   From: 2010.05.17/outbox.cif.g08.bks.cpg/sg2_136_cif.got.tgz:270242.got - 2010.06.03 11:33:40.
