data_PCOD9085897
_publ_section_title
;
Structure prediction by ZEFSAII (Michael W. Deem and Ramdas Pophale) SiO2 
 PCOD9085897
Probable space group: P -1
;
_chemical_formula_sum "Si O2"
_cell_formula_units_Z 16
_cell_length_a 14.642763
_cell_length_b 14.340803
_cell_length_c 7.034879
_cell_angle_alpha 67.110330
_cell_angle_beta 120.349592
_cell_angle_gamma 147.470355
_cell_volume 683.319364
_symmetry_space_group_name_H-M "P -1"
_symmetry_group_IT_number 2
_symmetry_cell_setting 'triclinic'
loop_
_space_group_symop_operation_xyz
x,y,z
-x,-y,-z
loop_
_atom_site_type_symbol
_atom_site_label
_atom_site_fract_x
_atom_site_fract_y
_atom_site_fract_z
Si Si1 0.893627 0.612315 0.641710
Si Si2 0.035072 0.433507 0.858682
Si Si3 0.749663 0.199662 0.266233
Si Si4 0.631683 0.846753 0.035719
Si Si5 0.953989 0.079289 0.436817
Si Si6 0.836451 0.819171 0.075737
Si Si7 0.638098 0.087834 0.798367
Si Si8 0.736345 0.530322 0.151773
O O1 0.740870 0.500996 0.405368
O O2 0.082572 0.746564 0.616837
O O3 0.926006 0.743185 0.685151
O O4 0.900280 0.534615 0.878443
O O5 0.148219 0.614055 0.747216
O O6 0.085731 0.373828 0.840195
O O7 0.816790 0.276655 0.742698
O O8 0.574843 0.046444 0.339744
O O9 0.676491 0.140239 0.020085
O O10 0.721264 0.823449 0.031696
O O11 0.744539 0.933517 0.282975
O O12 0.423637 0.654259 0.976776
O O13 0.648996 0.974201 0.874675
O O14 0.045180 0.157025 0.674405
O O15 0.000000 0.000000 0.500000
O O16 0.713957 0.633471 0.011698
O O17 0.000000 0.000000 0.000000
#
# Coordination Sequence:
#
# PCOD9085897 Si02
#       8
#     2   2   2   2   2   2   2   2
#     4  10  21  40  62  89 130 163 210 262 311 376
#     4  11  21  40  67  88 128 173 210 255 323 372
#     4  10  20  37  64  93 124 169 216 257 312 376
#     4  11  19  40  60  89 125 158 206 262 310 372
#     4   9  19  36  63  85 115 166 200 250 319 364
#     4  10  22  39  62  88 123 163 209 260 316 378
#     4  10  19  35  64  90 123 167 209 259 313 369
#     4  11  24  39  63  95 125 166 208 264 319 371
#
# _framework density 23.415112000000001
#
# number of rings (size 3 to 8) (size 9 to 14) (size 15 to 20)
#    0.000    1.750    3.750    2.625    1.750    0.500 
#    2.250    1.250   11.000    0.000    0.000    0.000 
#    0.000    0.000    0.000    0.000    0.000    0.000 
#
# Total GULP energy -89087.293003 kJ/mol
# GULP energy per Si atom -5567.955813 kJ/mol
# Density = 2.336182 g / cm^3
# Si number density = 23.415112 Si / 1000 Ang^3
#
#
#
# Elastic Constant Matrix: (Units=GPa)
#
#
# Indices 1 2 3 4 5 6 
#
# 1 88.3155 24.1274 -12.5516 -6.9360 6.8380 -4.5359
# 2 24.1274 102.1989 7.3344 -1.0785 1.7301 -10.7452
# 3 -12.5516 7.3344 56.6781 7.9528 1.7569 -0.7007
# 4 -6.9360 -1.0785 7.9528 29.8409 -1.8792 3.6126
# 5 6.8380 1.7301 1.7569 -1.8792 19.4788 -0.7224
# 6 -4.5359 -10.7452 -0.7007 3.6126 -0.7224 49.3752
#
#
#
# Elastic Compliance Matrix: (Units=1/GPa)
#
#
# Indices 1 2 3 4 5 6 
#
# 1 0.013158 -0.003206 0.003224 0.001760 -0.004442 0.000363
# 2 -0.003206 0.010902 -0.002107 -0.000012 0.000422 0.002055
# 3 0.003224 -0.002107 0.019398 -0.004744 -0.003137 0.000414
# 4 0.001760 -0.000012 -0.004744 0.035682 0.003162 -0.002473
# 5 -0.004442 0.000422 -0.003137 0.003162 0.053455 0.000190
# 6 0.000363 0.002055 0.000414 -0.002473 0.000190 0.020923
#
#
# Mechanical properties :
#
#
# Convention : Reuss Voigt Hill
#
# Bulk Modulus (GPa) = 25.45784 31.66812 28.56298
# Shear Modulus (GPa) = 29.27598 34.95779 32.11689
#
# Velocity S-wave (km/s) = 3.53980 3.86807 3.70757
# Velocity P-wave (km/s) = 5.25385 5.78821 5.52749
#
# Compressibility (1/GPa) = 0.03928062
#
# Stress axis : x y z
#
# Youngs Moduli (GPa) = 76.00062 91.72924 51.55146
#
# Poissons Ratio (x) = 0.29406 -0.16620
# Poissons Ratio (y) = 0.24364 0.10860
# Poissons Ratio (z) = -0.24502 0.19324
#
# Static dielectric constant tensor:
#      x y z
#    x 1.959950 0.476050 -0.018740 
#    y 0.476050 -0.441340 0.643470 
#    z -0.018740 0.643470 1.980940 
# 
# From -- ./inp_files/218535.got.cif
#   From: 2010.05.17/outbox.cif.g08.bks.cpg/sg2_110_cif.got.tgz:218535.got - 2010.06.03 11:33:40.
