data_PCOD9085143
_publ_section_title
;
Structure prediction by ZEFSAII (Michael W. Deem and Ramdas Pophale) SiO2 
 PCOD9085143
Probable space group: P -1
;
_chemical_formula_sum "Si O2"
_cell_formula_units_Z 14
_cell_length_a 10.554564
_cell_length_b 11.982096
_cell_length_c 8.755182
_cell_angle_alpha 79.970823
_cell_angle_beta 84.931861
_cell_angle_gamma 45.582165
_cell_volume 777.874231
_symmetry_space_group_name_H-M "P -1"
_symmetry_group_IT_number 2
_symmetry_cell_setting 'triclinic'
loop_
_space_group_symop_operation_xyz
x,y,z
-x,-y,-z
loop_
_atom_site_type_symbol
_atom_site_label
_atom_site_fract_x
_atom_site_fract_y
_atom_site_fract_z
Si Si1 0.156462 0.536792 0.196212
Si Si2 0.670128 0.912441 0.397541
Si Si3 0.936124 0.326577 0.498140
Si Si4 0.806103 0.623499 0.252243
Si Si5 0.628868 0.386337 0.374411
Si Si6 0.459671 0.772348 0.761917
Si Si7 0.387853 0.427351 0.932155
O O1 0.119408 0.634090 0.326956
O O2 0.326663 0.350530 0.257833
O O3 0.979796 0.575560 0.174894
O O4 0.229673 0.558136 0.036375
O O5 0.701537 0.784849 0.316665
O O6 0.852545 0.814511 0.495533
O O7 0.500000 0.000000 0.500000
O O8 0.634776 0.049322 0.274947
O O9 0.875866 0.483860 0.394567
O O10 0.825101 0.301105 0.426440
O O11 0.686161 0.633674 0.139975
O O12 0.500000 0.500000 0.500000
O O13 0.609909 0.269170 0.351172
O O14 0.574189 0.497462 0.208471
O O15 0.454841 0.711805 0.940607
#
# Coordination Sequence:
#
# PCOD9085143 Si02
#       7
#     2   2   2   2   2   2   2
#     4   9  17  34  54  85 109 140 185 228 279 326
#     4  11  22  35  56  85 120 143 182 233 283 331
#     4  10  20  35  60  84 107 153 190 227 271 327
#     4  10  19  35  59  82 113 145 192 226 276 336
#     4  11  20  37  62  82 107 146 200 230 264 333
#     4  10  21  34  56  81 116 146 181 229 285 314
#     4   9  21  33  59  85 106 147 189 232 278 324
#
# _framework density 17.997767
#
# number of rings (size 3 to 8) (size 9 to 14) (size 15 to 20)
#    0.857    1.143    1.429    4.286    2.000    1.143 
#    0.000    0.000    0.000    4.286    0.000    0.000 
#    0.000    0.000    0.000    0.000    0.000    0.000 
#
# Total GULP energy -78020.390383 kJ/mol
# GULP energy per Si atom -5572.885027 kJ/mol
# Density = 1.795680 g / cm^3
# Si number density = 17.997767 Si / 1000 Ang^3
#
#
#
# Elastic Constant Matrix: (Units=GPa)
#
#
# Indices 1 2 3 4 5 6 
#
# 1 59.3710 39.0185 27.3319 4.7009 9.0515 -1.1549
# 2 39.0185 87.8098 27.6386 1.9356 5.5235 -9.6676
# 3 27.3319 27.6386 89.3945 1.8198 -9.7149 -3.1385
# 4 4.7009 1.9356 1.8198 11.1617 -2.9938 -3.1875
# 5 9.0515 5.5235 -9.7149 -2.9938 36.1784 1.1191
# 6 -1.1549 -9.6676 -3.1385 -3.1875 1.1191 19.3017
#
#
#
# Elastic Compliance Matrix: (Units=1/GPa)
#
#
# Indices 1 2 3 4 5 6 
#
# 1 0.029084 -0.010803 -0.006403 -0.013386 -0.008255 -0.006444
# 2 -0.010803 0.017704 -0.002003 0.004140 -0.000462 0.008606
# 3 -0.006403 -0.002003 0.014394 0.002591 0.005955 0.001037
# 4 -0.013386 0.004140 0.002591 0.102244 0.011319 0.017922
# 5 -0.008255 -0.000462 0.005955 0.011319 0.032305 0.000239
# 6 -0.006444 0.008606 0.001037 0.017922 0.000239 0.058848
#
#
# Mechanical properties :
#
#
# Convention : Reuss Voigt Hill
#
# Bulk Modulus (GPa) = 43.92912 47.17260 45.55086
# Shear Modulus (GPa) = 16.63419 22.83412 19.73416
#
# Velocity S-wave (km/s) = 3.04342 3.56577 3.31490
# Velocity P-wave (km/s) = 6.06721 6.57420 6.32579
#
# Compressibility (1/GPa) = 0.02276395
#
# Stress axis : x y z
#
# Youngs Moduli (GPa) = 34.38339 56.48311 69.47244
#
# Poissons Ratio (x) = 0.61020 0.44483
# Poissons Ratio (y) = 0.37145 0.13916
# Poissons Ratio (z) = 0.22016 0.11314
#
# Static dielectric constant tensor:
#      x y z
#    x 1.646650 -0.000810 -0.005790 
#    y -0.000810 1.584050 -0.008760 
#    z -0.005790 -0.008760 1.646880 
# 
# From -- ./inp_files/250791.got.cif
#   From: 2010.05.17/outbox.cif.g08.bks.cpg/sg2_126_cif.got.tgz:250791.got - 2010.06.03 11:33:40.
