data_PCOD9085574
_publ_section_title
;
Structure prediction by ZEFSAII (Michael W. Deem and Ramdas Pophale) SiO2 
 PCOD9085574
Probable space group: P -1
;
_chemical_formula_sum "Si O2"
_cell_formula_units_Z 16
_cell_length_a 9.423386
_cell_length_b 11.341521
_cell_length_c 18.461883
_cell_angle_alpha 140.795653
_cell_angle_beta 122.672726
_cell_angle_gamma 43.073001
_cell_volume 850.170104
_symmetry_space_group_name_H-M "P -1"
_symmetry_group_IT_number 2
_symmetry_cell_setting 'triclinic'
loop_
_space_group_symop_operation_xyz
x,y,z
-x,-y,-z
loop_
_atom_site_type_symbol
_atom_site_label
_atom_site_fract_x
_atom_site_fract_y
_atom_site_fract_z
Si Si1 0.617363 0.968731 0.835244
Si Si2 0.226340 0.648380 0.753820
Si Si3 0.241641 0.315357 0.997237
Si Si4 0.985861 0.810948 0.622348
Si Si5 0.159159 0.098647 0.994470
Si Si6 0.680591 0.318776 0.765777
Si Si7 0.153093 0.356817 0.372149
Si Si8 0.710211 0.277290 0.925519
O O1 0.392552 0.176342 0.904079
O O2 0.720364 0.074597 0.871479
O O3 0.654764 0.786039 0.698321
O O4 0.755242 0.851350 0.888699
O O5 0.459153 0.420853 0.716862
O O6 0.151753 0.763554 0.707812
O O7 0.055165 0.600881 0.701075
O O8 0.212770 0.843356 0.891879
O O9 0.259733 0.128024 0.966148
O O10 0.296634 0.471545 0.128718
O O11 0.000000 0.500000 0.000000
O O12 0.831717 0.776646 0.612483
O O13 0.098670 0.599607 0.497525
O O14 0.867389 0.059898 0.670726
O O15 0.911824 0.264942 0.995396
O O16 0.688517 0.271375 0.831250
O O17 0.500000 0.500000 0.000000
#
# Coordination Sequence:
#
# PCOD9085574 Si02
#       8
#     2   2   2   2   2   2   2   2
#     4  12  22  35  61  87 118 155 199 241 303 352
#     4  10  19  35  61  89 112 159 191 241 299 347
#     4  12  24  39  54  88 124 163 192 238 305 363
#     4   9  19  40  56  88 125 149 199 247 295 345
#     4  12  22  38  57  86 128 156 191 242 297 369
#     4  12  21  34  63  85 118 160 195 241 296 353
#     4   9  20  38  59  87 121 153 194 251 294 344
#     4  12  20  33  54  91 120 148 188 245 301 347
#
# _framework density 18.819762999999998
#
# number of rings (size 3 to 8) (size 9 to 14) (size 15 to 20)
#    0.750    0.250    7.500    0.750    1.750    0.500 
#    0.000    0.000    0.000    3.750    0.000    0.000 
#    0.000    0.000    0.000    0.000    0.000    0.000 
#
# Total GULP energy -89080.230706 kJ/mol
# GULP energy per Si atom -5567.514419 kJ/mol
# Density = 1.877693 g / cm^3
# Si number density = 18.819763 Si / 1000 Ang^3
#
#
#
# Elastic Constant Matrix: (Units=GPa)
#
#
# Indices 1 2 3 4 5 6 
#
# 1 53.7655 11.5940 10.2947 0.7113 -6.8326 -9.4364
# 2 11.5940 86.9931 12.0730 4.2226 -3.0413 -28.5226
# 3 10.2947 12.0730 83.7219 27.1138 -18.1695 -13.5093
# 4 0.7113 4.2226 27.1138 25.4593 -3.0905 -4.1453
# 5 -6.8326 -3.0413 -18.1695 -3.0905 18.8093 -0.0425
# 6 -9.4364 -28.5226 -13.5093 -4.1453 -0.0425 32.4162
#
#
#
# Elastic Compliance Matrix: (Units=1/GPa)
#
#
# Indices 1 2 3 4 5 6 
#
# 1 0.020705 -0.000766 -0.000692 0.002012 0.007071 0.005331
# 2 -0.000766 0.016371 0.001192 -0.001190 0.003358 0.014531
# 3 -0.000692 0.001192 0.025124 -0.023088 0.020436 0.008392
# 4 0.002012 -0.001190 -0.023088 0.062259 -0.011539 -0.002137
# 5 0.007071 0.003358 0.020436 -0.011539 0.074149 0.012151
# 6 0.005331 0.014531 0.008392 -0.002137 0.012151 0.048426
#
#
# Mechanical properties :
#
#
# Convention : Reuss Voigt Hill
#
# Bulk Modulus (GPa) = 16.21584 32.48932 24.35258
# Shear Modulus (GPa) = 18.64823 28.03821 23.34322
#
# Velocity S-wave (km/s) = 3.15125 3.86402 3.52569
# Velocity P-wave (km/s) = 4.67713 6.09987 5.43525
#
# Compressibility (1/GPa) = 0.06166810
#
# Stress axis : x y z
#
# Youngs Moduli (GPa) = 48.29817 61.08288 39.80290
#
# Poissons Ratio (x) = 0.04678 0.02755
# Poissons Ratio (y) = 0.03699 -0.04745
# Poissons Ratio (z) = 0.03343 -0.07282
#
# Static dielectric constant tensor:
#      x y z
#    x 1.684040 -0.028270 -0.027280 
#    y -0.028270 1.732620 0.098550 
#    z -0.027280 0.098550 1.832560 
# 
# From -- ./inp_files/559314.got.cif
#   From: 2010.05.17/outbox.cif.g08.bks.cpg/sg2_280_cif.got.tgz:559314.got - 2010.06.03 11:33:40.
