data_PCOD9085985
_publ_section_title
;
Structure prediction by ZEFSAII (Michael W. Deem and Ramdas Pophale) SiO2 
 PCOD9085985
Probable space group: P -1
;
_chemical_formula_sum "Si O2"
_cell_formula_units_Z 12
_cell_length_a 22.276495
_cell_length_b 8.267591
_cell_length_c 12.353719
_cell_angle_alpha 49.847446
_cell_angle_beta 24.259833
_cell_angle_gamma 36.200480
_cell_volume 511.952724
_symmetry_space_group_name_H-M "P -1"
_symmetry_group_IT_number 2
_symmetry_cell_setting 'triclinic'
loop_
_space_group_symop_operation_xyz
x,y,z
-x,-y,-z
loop_
_atom_site_type_symbol
_atom_site_label
_atom_site_fract_x
_atom_site_fract_y
_atom_site_fract_z
Si Si1 0.991982 0.789636 0.668731
Si Si2 0.215049 0.210055 0.166079
Si Si3 0.439747 0.720931 0.829624
Si Si4 0.465336 0.761505 0.393058
Si Si5 0.371508 0.912595 0.245899
Si Si6 0.780403 0.644462 0.335376
O O1 0.972459 0.628939 0.677526
O O2 0.169764 0.562784 0.556410
O O3 0.000000 0.000000 0.500000
O O4 0.774636 0.021009 0.989093
O O5 0.195215 0.135347 0.351113
O O6 0.320958 0.331423 0.941461
O O7 0.377210 0.890498 0.974525
O O8 0.494274 0.420977 0.872989
O O9 0.633207 0.655861 0.495626
O O10 0.500000 0.500000 0.500000
O O11 0.337292 0.886460 0.437972
O O12 0.344410 0.031213 0.557388
O O13 0.500000 0.000000 0.000000
O O14 0.000000 0.500000 0.000000
#
# Coordination Sequence:
#
# PCOD9085985 Si02
#       6
#     2   2   2   2   2   2
#     4  10  22  37  71  97 122 160 226 265 309 376
#     4   8  19  38  62  91 123 165 213 257 318 384
#     4   9  21  39  68  91 130 164 220 258 321 373
#     4  10  23  40  64  91 133 171 208 267 330 366
#     4  10  19  35  66  92 123 172 200 264 337 368
#     4  11  25  44  66  94 128 176 225 255 310 395
#
# _framework density 23.439664
#
# number of rings (size 3 to 8) (size 9 to 14) (size 15 to 20)
#    1.000    1.333    0.000    1.500    9.333    2.000 
#    0.000    4.167    0.000    0.000    0.000    0.000 
#    0.000    0.000    0.000    0.000    0.000    0.000 
#
# Total GULP energy -66947.474320 kJ/mol
# GULP energy per Si atom -5578.956193 kJ/mol
# Density = 2.338631 g / cm^3
# Si number density = 23.439664 Si / 1000 Ang^3
#
#
#
# Elastic Constant Matrix: (Units=GPa)
#
#
# Indices 1 2 3 4 5 6 
#
# 1 43.9079 20.3849 10.8522 -15.6049 2.0803 -9.9014
# 2 20.3849 141.8178 27.0732 -23.4298 -0.8216 0.9607
# 3 10.8522 27.0732 82.6678 -7.0849 -8.5499 -0.9481
# 4 -15.6049 -23.4298 -7.0849 25.7762 -7.4243 -3.3566
# 5 2.0803 -0.8216 -8.5499 -7.4243 28.7708 -0.1280
# 6 -9.9014 0.9607 -0.9481 -3.3566 -0.1280 39.8937
#
#
#
# Elastic Compliance Matrix: (Units=1/GPa)
#
#
# Indices 1 2 3 4 5 6 
#
# 1 0.033182 -0.001063 -0.001885 0.020582 0.002366 0.009956
# 2 -0.001063 0.008789 -0.001944 0.007294 0.001633 0.000097
# 3 -0.001885 -0.001944 0.013659 0.002218 0.004713 0.000105
# 4 0.020582 0.007294 0.002218 0.064485 0.016066 0.010463
# 5 0.002366 0.001633 0.004713 0.016066 0.040189 0.002141
# 6 0.009956 0.000097 0.000105 0.010463 0.002141 0.028425
#
#
# Mechanical properties :
#
#
# Convention : Reuss Voigt Hill
#
# Bulk Modulus (GPa) = 21.81175 42.77933 32.29554
# Shear Modulus (GPa) = 23.38683 32.89369 28.14026
#
# Velocity S-wave (km/s) = 3.16214 3.75017 3.46864
# Velocity P-wave (km/s) = 4.76003 6.08623 5.46352
#
# Compressibility (1/GPa) = 0.04584685
#
# Stress axis : x y z
#
# Youngs Moduli (GPa) = 30.13656 113.77825 73.21032
#
# Poissons Ratio (x) = 0.12097 0.13800
# Poissons Ratio (y) = 0.03204 0.14230
# Poissons Ratio (z) = 0.05681 0.22115
#
# Static dielectric constant tensor:
#      x y z
#    x 1.920510 -0.005100 0.015960 
#    y -0.005100 1.857790 0.008330 
#    z 0.015960 0.008330 2.009640 
# 
# From -- ./inp_files/543756.got.cif
#   From: 2010.05.17/outbox.cif.g08.bks.cpg/sg2_272_cif.got.tgz:543756.got - 2010.06.03 11:33:40.
