data_PCOD9085652
_publ_section_title
;
Structure prediction by ZEFSAII (Michael W. Deem and Ramdas Pophale) SiO2 
 PCOD9085652
Probable space group: P -1
;
_chemical_formula_sum "Si O2"
_cell_formula_units_Z 14
_cell_length_a 6.876666
_cell_length_b 20.418286
_cell_length_c 10.549070
_cell_angle_alpha 146.986259
_cell_angle_beta 119.655739
_cell_angle_gamma 77.352851
_cell_volume 638.426196
_symmetry_space_group_name_H-M "P -1"
_symmetry_group_IT_number 2
_symmetry_cell_setting 'triclinic'
loop_
_space_group_symop_operation_xyz
x,y,z
-x,-y,-z
loop_
_atom_site_type_symbol
_atom_site_label
_atom_site_fract_x
_atom_site_fract_y
_atom_site_fract_z
Si Si1 0.521179 0.896702 0.559502
Si Si2 0.848653 0.187615 0.040846
Si Si3 0.979766 0.136358 0.713644
Si Si4 0.715220 0.720765 0.471075
Si Si5 0.770653 0.577516 0.769937
Si Si6 0.359862 0.471618 0.086837
Si Si7 0.720319 0.352169 0.099874
O O1 0.341578 0.954334 0.201805
O O2 0.247179 0.878340 0.474516
O O3 0.668125 0.849098 0.629153
O O4 0.458215 0.784886 0.248801
O O5 0.930438 0.160277 0.883528
O O6 0.928854 0.758076 0.702193
O O7 0.749874 0.300102 0.163637
O O8 0.000000 0.000000 0.500000
O O9 0.198036 0.270813 0.959202
O O10 0.466920 0.607744 0.265694
O O11 0.765429 0.648605 0.246823
O O12 0.500000 0.500000 0.500000
O O13 0.791473 0.527590 0.836296
O O14 0.006993 0.590716 0.783812
O O15 0.594542 0.450417 0.187233
#
# Coordination Sequence:
#
# PCOD9085652 Si02
#       7
#     2   2   2   2   2   2   2
#     4   9  19  37  57  81 118 153 185 237 294 343
#     4  10  19  35  62  83 116 148 193 245 288 340
#     4  10  22  37  60  89 114 150 200 244 295 344
#     4  10  21  36  58  87 114 158 192 229 290 362
#     4  10  21  37  61  88 116 148 194 252 290 336
#     4  10  21  39  62  80 122 156 193 236 294 353
#     4   9  20  37  60  89 110 149 200 243 290 336
#
# _framework density 21.928926000000001
#
# number of rings (size 3 to 8) (size 9 to 14) (size 15 to 20)
#    0.000    2.571    0.000    3.857    6.000    2.286 
#    0.000   12.143    6.286    0.000    0.000    0.000 
#    0.000    0.000    0.000    0.000    0.000    0.000 
#
# Total GULP energy -78106.772907 kJ/mol
# GULP energy per Si atom -5579.055208 kJ/mol
# Density = 2.187901 g / cm^3
# Si number density = 21.928926 Si / 1000 Ang^3
#
#
#
# Elastic Constant Matrix: (Units=GPa)
#
#
# Indices 1 2 3 4 5 6 
#
# 1 41.9429 12.6848 7.6020 -3.1865 5.3924 -0.6991
# 2 12.6848 86.5522 -2.7345 0.4373 0.9583 -2.4888
# 3 7.6020 -2.7345 74.8565 9.7615 13.8869 10.2195
# 4 -3.1865 0.4373 9.7615 41.2923 -2.6002 9.7945
# 5 5.3924 0.9583 13.8869 -2.6002 22.1821 2.5052
# 6 -0.6991 -2.4888 10.2195 9.7945 2.5052 31.0720
#
#
#
# Elastic Compliance Matrix: (Units=1/GPa)
#
#
# Indices 1 2 3 4 5 6 
#
# 1 0.026193 -0.003852 -0.002334 0.002151 -0.004571 0.000739
# 2 -0.003852 0.012181 0.000893 -0.000873 -0.000352 0.000899
# 3 -0.002334 0.000893 0.016418 -0.003892 -0.009826 -0.003362
# 4 0.002151 -0.000873 -0.003892 0.027575 0.006079 -0.007924
# 5 -0.004571 -0.000352 -0.009826 0.006079 0.053425 -0.003123
# 6 0.000739 0.000899 -0.003362 -0.007924 -0.003123 0.036127
#
#
# Mechanical properties :
#
#
# Convention : Reuss Voigt Hill
#
# Bulk Modulus (GPa) = 22.62159 26.49514 24.55837
# Shear Modulus (GPa) = 25.34983 31.29589 28.32286
#
# Velocity S-wave (km/s) = 3.40369 3.78186 3.59775
# Velocity P-wave (km/s) = 5.07790 5.58377 5.33683
#
# Compressibility (1/GPa) = 0.04420556
#
# Stress axis : x y z
#
# Youngs Moduli (GPa) = 38.17782 82.09811 60.90927
#
# Poissons Ratio (x) = 0.31620 0.14217
# Poissons Ratio (y) = 0.14704 -0.05437
# Poissons Ratio (z) = 0.08911 -0.07328
#
# Static dielectric constant tensor:
#      x y z
#    x 1.913500 0.007180 -0.040200 
#    y 0.007180 1.821800 0.000770 
#    z -0.040200 0.000770 1.826320 
# 
# From -- ./inp_files/436086.got.cif
#   From: 2010.05.17/outbox.cif.g08.bks.cpg/sg2_219_cif.got.tgz:436086.got - 2010.06.03 11:33:40.
