data_PCOD9085577
_publ_section_title
;
Structure prediction by ZEFSAII (Michael W. Deem and Ramdas Pophale) SiO2 
 PCOD9085577
Probable space group: P -1
;
_chemical_formula_sum "Si O2"
_cell_formula_units_Z 14
_cell_length_a 8.942940
_cell_length_b 27.060143
_cell_length_c 5.298649
_cell_angle_alpha 76.470536
_cell_angle_beta 89.297011
_cell_angle_gamma 36.476450
_cell_volume 706.006648
_symmetry_space_group_name_H-M "P -1"
_symmetry_group_IT_number 2
_symmetry_cell_setting 'triclinic'
loop_
_space_group_symop_operation_xyz
x,y,z
-x,-y,-z
loop_
_atom_site_type_symbol
_atom_site_label
_atom_site_fract_x
_atom_site_fract_y
_atom_site_fract_z
Si Si1 0.309778 0.177889 0.070989
Si Si2 0.203010 0.604507 0.845700
Si Si3 0.669311 0.759035 0.504974
Si Si4 0.375101 0.009822 0.740776
Si Si5 0.744904 0.277674 0.957516
Si Si6 0.335394 0.598133 0.354024
Si Si7 0.758344 0.208571 0.536896
O O1 0.338155 0.199208 0.311658
O O2 0.547167 0.070970 0.168506
O O3 0.324576 0.211257 0.790262
O O4 0.043254 0.217451 0.019980
O O5 0.240080 0.637420 0.591610
O O6 0.947193 0.649955 0.675148
O O7 0.500000 0.500000 0.000000
O O8 0.132626 0.638062 0.092326
O O9 0.430118 0.787226 0.481275
O O10 0.063460 0.107001 0.632239
O O11 0.500000 0.000000 0.500000
O O12 0.500000 0.000000 0.000000
O O13 0.558205 0.379604 0.792974
O O14 0.716596 0.248234 0.757366
O O15 0.699099 0.262493 0.238948
O O16 0.500000 0.500000 0.500000
#
# Coordination Sequence:
#
# PCOD9085577 Si02
#       7
#     2   2   2   2   2   2   2
#     4  12  23  39  69  89 121 172 225 244 300 387
#     4  10  19  35  61  89 116 153 206 252 299 364
#     4  12  24  41  61  99 125 165 206 268 317 361
#     4  12  23  40  62  93 125 164 218 258 304 367
#     4  12  21  41  66  94 117 175 209 249 310 386
#     4  10  20  34  63  94 113 150 216 259 285 362
#     4  12  26  40  63  93 136 161 201 271 325 352
#
# _framework density 19.829840000000001
#
# number of rings (size 3 to 8) (size 9 to 14) (size 15 to 20)
#    0.000    0.571    5.714    3.429    0.000    1.143 
#    0.000    0.000    0.000   20.571    0.000    0.000 
#    0.000    0.000    0.000    0.000    0.000    0.000 
#
# Total GULP energy -77957.610403 kJ/mol
# GULP energy per Si atom -5568.400743 kJ/mol
# Density = 1.978471 g / cm^3
# Si number density = 19.829840 Si / 1000 Ang^3
#
#
#
# Elastic Constant Matrix: (Units=GPa)
#
#
# Indices 1 2 3 4 5 6 
#
# 1 113.1979 36.1815 63.7155 11.4840 2.2706 -0.6335
# 2 36.1815 87.5948 50.3137 -2.3527 3.4819 10.8540
# 3 63.7155 50.3137 174.9304 28.6319 -12.8767 -0.4118
# 4 11.4840 -2.3527 28.6319 45.1346 3.3693 3.2021
# 5 2.2706 3.4819 -12.8767 3.3693 30.3288 1.3708
# 6 -0.6335 10.8540 -0.4118 3.2021 1.3708 27.2786
#
#
#
# Elastic Compliance Matrix: (Units=1/GPa)
#
#
# Indices 1 2 3 4 5 6 
#
# 1 0.011901 -0.003110 -0.003417 -0.000996 -0.001950 0.001677
# 2 -0.003110 0.016735 -0.004913 0.005599 -0.004068 -0.007258
# 3 -0.003417 -0.004913 0.009803 -0.006196 0.005559 0.002472
# 4 -0.000996 0.005599 -0.006196 0.027454 -0.006011 -0.005265
# 5 -0.001950 -0.004068 0.005559 -0.006011 0.036589 0.000524
# 6 0.001677 -0.007258 0.002472 -0.005265 0.000524 0.040215
#
#
# Mechanical properties :
#
#
# Convention : Reuss Voigt Hill
#
# Bulk Modulus (GPa) = 64.27481 75.12717 69.70099
# Shear Modulus (GPa) = 29.28030 35.58255 32.43142
#
# Velocity S-wave (km/s) = 3.84679 4.24062 4.04850
# Velocity P-wave (km/s) = 7.22592 7.87054 7.55511
#
# Compressibility (1/GPa) = 0.01555820
#
# Stress axis : x y z
#
# Youngs Moduli (GPa) = 84.02707 59.75648 102.00634
#
# Poissons Ratio (x) = 0.18587 0.34852
# Poissons Ratio (y) = 0.26136 0.50119
# Poissons Ratio (z) = 0.28709 0.29360
#
# Static dielectric constant tensor:
#      x y z
#    x 1.661680 0.039870 -0.007580 
#    y 0.039870 2.477460 -0.052880 
#    z -0.007580 -0.052880 1.732710 
# 
# From -- ./inp_files/55932.got.cif
#   From: 2010.05.17/outbox.cif.g08.bks.cpg/sg2_28_cif.got.tgz:55932.got - 2010.06.03 11:33:40.
