data_PCOD9085398
_publ_section_title
;
Structure prediction by ZEFSAII (Michael W. Deem and Ramdas Pophale) SiO2 
 PCOD9085398
Probable space group: P -1
;
_chemical_formula_sum "Si O2"
_cell_formula_units_Z 16
_cell_length_a 7.377154
_cell_length_b 7.719635
_cell_length_c 16.069239
_cell_angle_alpha 80.989084
_cell_angle_beta 108.224744
_cell_angle_gamma 62.707404
_cell_volume 722.013559
_symmetry_space_group_name_H-M "P -1"
_symmetry_group_IT_number 2
_symmetry_cell_setting 'triclinic'
loop_
_space_group_symop_operation_xyz
x,y,z
-x,-y,-z
loop_
_atom_site_type_symbol
_atom_site_label
_atom_site_fract_x
_atom_site_fract_y
_atom_site_fract_z
Si Si1 0.176734 0.018921 0.425614
Si Si2 0.258578 0.203875 0.922897
Si Si3 0.392062 0.149902 0.777369
Si Si4 0.090772 0.116849 0.059475
Si Si5 0.685784 0.395088 0.281311
Si Si6 0.679075 0.406501 0.459141
Si Si7 0.642650 0.822929 0.413939
Si Si8 0.696635 0.406382 0.102043
O O1 0.254598 0.105796 0.505690
O O2 0.945912 0.208890 0.342129
O O3 0.154555 0.831055 0.470182
O O4 0.378906 0.924837 0.394071
O O5 0.234923 0.146855 0.828552
O O6 0.264811 0.406773 0.894577
O O7 0.096493 0.255397 0.974613
O O8 0.500000 0.000000 0.000000
O O9 0.341573 0.381655 0.741765
O O10 0.351701 0.096875 0.683336
O O11 0.654577 0.014283 0.856364
O O12 0.919221 0.221195 0.103509
O O13 0.000000 0.000000 0.000000
O O14 0.579428 0.397483 0.355309
O O15 0.616730 0.365342 0.181729
O O16 0.500000 0.500000 0.500000
O O17 0.753267 0.572251 0.449542
O O18 0.500000 0.500000 0.000000
#
# Coordination Sequence:
#
# PCOD9085398 Si02
#       8
#     2   2   2   2   2   2   2   2
#     4  10  19  35  60  88 114 158 200 243 299 363
#     4   9  19  37  59  85 119 153 202 249 296 365
#     4   9  19  36  58  84 119 155 197 250 301 364
#     4  11  21  38  62  84 121 162 200 252 309 357
#     4  10  20  36  60  84 119 149 201 244 297 361
#     4   9  19  36  57  83 121 152 193 250 294 355
#     4   9  19  36  60  80 123 156 192 247 306 354
#     4  11  22  39  64  88 121 161 200 255 307 358
#
# _framework density 22.160246999999998
#
# number of rings (size 3 to 8) (size 9 to 14) (size 15 to 20)
#    0.000    2.250    0.000    3.750    0.000    2.000 
#    6.750    0.000   60.500    0.000    0.000    0.000 
#    0.000    0.000    0.000    0.000    0.000    0.000 
#
# Total GULP energy -89136.706826 kJ/mol
# GULP energy per Si atom -5571.044177 kJ/mol
# Density = 2.210981 g / cm^3
# Si number density = 22.160247 Si / 1000 Ang^3
#
#
#
# Elastic Constant Matrix: (Units=GPa)
#
#
# Indices 1 2 3 4 5 6 
#
# 1 35.0888 4.2488 24.3448 6.4313 -8.8063 -14.8672
# 2 4.2488 86.5401 24.8446 9.0902 1.5364 -17.0428
# 3 24.3448 24.8446 153.6808 26.9346 -15.4125 -20.7856
# 4 6.4313 9.0902 26.9346 40.5733 -10.2279 -4.4235
# 5 -8.8063 1.5364 -15.4125 -10.2279 33.3975 7.4361
# 6 -14.8672 -17.0428 -20.7856 -4.4235 7.4361 22.7196
#
#
#
# Elastic Compliance Matrix: (Units=1/GPa)
#
#
# Indices 1 2 3 4 5 6 
#
# 1 0.042673 0.004251 -0.003177 -0.001918 0.003026 0.026842
# 2 0.004251 0.014691 -0.001136 -0.002727 -0.003923 0.013516
# 3 -0.003177 -0.001136 0.008545 -0.004250 0.001028 0.003723
# 4 -0.001918 -0.002727 -0.004250 0.029895 0.007678 -0.003881
# 5 0.003026 -0.003923 0.001028 0.007678 0.036045 -0.010325
# 6 0.026842 0.013516 0.003723 -0.003881 -0.010325 0.077749
#
#
# Mechanical properties :
#
#
# Convention : Reuss Voigt Hill
#
# Bulk Modulus (GPa) = 15.20103 42.46511 28.83307
# Shear Modulus (GPa) = 21.58426 34.12952 27.85689
#
# Velocity S-wave (km/s) = 3.12430 3.92870 3.54936
# Velocity P-wave (km/s) = 4.45976 6.30745 5.46230
#
# Compressibility (1/GPa) = 0.06578503
#
# Stress axis : x y z
#
# Youngs Moduli (GPa) = 23.43411 68.07112 117.02264
#
# Poissons Ratio (x) = -0.28937 0.37177
# Poissons Ratio (y) = -0.09962 0.13293
# Poissons Ratio (z) = 0.07445 0.07732
#
# Static dielectric constant tensor:
#      x y z
#    x 1.855960 -0.044690 -0.099930 
#    y -0.044690 1.775380 -0.031310 
#    z -0.099930 -0.031310 1.791560 
# 
# From -- ./inp_files/494899.got.cif
#   From: 2010.05.17/outbox.cif.g08.bks.cpg/sg2_248_cif.got.tgz:494899.got - 2010.06.03 11:33:40.
