data_PCOD9085663
_publ_section_title
;
Structure prediction by ZEFSAII (Michael W. Deem and Ramdas Pophale) SiO2 
 PCOD9085663
Probable space group: P -1
;
_chemical_formula_sum "Si O2"
_cell_formula_units_Z 12
_cell_length_a 18.754590
_cell_length_b 11.652092
_cell_length_c 12.895461
_cell_angle_alpha 126.301839
_cell_angle_beta 19.351454
_cell_angle_gamma 135.722430
_cell_volume 607.990184
_symmetry_space_group_name_H-M "P -1"
_symmetry_group_IT_number 2
_symmetry_cell_setting 'triclinic'
loop_
_space_group_symop_operation_xyz
x,y,z
-x,-y,-z
loop_
_atom_site_type_symbol
_atom_site_label
_atom_site_fract_x
_atom_site_fract_y
_atom_site_fract_z
Si Si1 0.181474 0.860239 0.867485
Si Si2 0.734482 0.366642 0.506348
Si Si3 0.005573 0.232743 0.689314
Si Si4 0.709505 0.945903 0.781019
Si Si5 0.132091 0.148134 0.126199
Si Si6 0.143477 0.684801 0.458785
O O1 0.120734 0.702641 0.794172
O O2 0.500000 0.000000 0.500000
O O3 0.082252 0.791712 0.083649
O O4 0.083780 0.982103 0.041475
O O5 0.746685 0.322944 0.585147
O O6 0.882519 0.574317 0.399976
O O7 0.432546 0.265270 0.822368
O O8 0.223395 0.192083 0.355648
O O9 0.763160 0.076375 0.870559
O O10 0.400789 0.829892 0.115938
O O11 0.928568 0.063815 0.456696
O O12 0.057429 0.260924 0.227422
O O13 0.000000 0.500000 0.500000
#
# Coordination Sequence:
#
# PCOD9085663 Si02
#       6
#     2   2   2   2   2   2
#     4   9  19  37  60  83 111 153 192 229 281 334
#     4  11  22  38  59  86 117 150 190 234 282 336
#     4  10  19  35  62  87 114 150 188 233 284 339
#     4  10  20  36  58  86 115 150 190 232 286 336
#     4  10  22  39  60  85 117 151 189 235 280 337
#     4  12  24  37  59  87 115 150 191 236 286 337
#
# _framework density 19.737159999999999
#
# number of rings (size 3 to 8) (size 9 to 14) (size 15 to 20)
#    0.000    1.667    0.000    7.000    0.000    2.667 
#    0.000    0.000    0.000   14.000    0.000    0.000 
#    0.000    0.000    0.000    0.000    0.000    0.000 
#
# Total GULP energy -66975.075619 kJ/mol
# GULP energy per Si atom -5581.256302 kJ/mol
# Density = 1.969224 g / cm^3
# Si number density = 19.737160 Si / 1000 Ang^3
#
#
#
# Elastic Constant Matrix: (Units=GPa)
#
#
# Indices 1 2 3 4 5 6 
#
# 1 44.8298 43.2555 37.0521 -0.8560 -3.6371 -12.8354
# 2 43.2555 168.7590 52.4020 10.1487 -3.1825 -9.8091
# 3 37.0521 52.4020 86.2784 2.4051 -3.0000 3.3228
# 4 -0.8560 10.1487 2.4051 19.9238 -0.8045 -3.4613
# 5 -3.6371 -3.1825 -3.0000 -0.8045 34.3964 5.1682
# 6 -12.8354 -9.8091 3.3228 -3.4613 5.1682 35.6361
#
#
#
# Elastic Compliance Matrix: (Units=1/GPa)
#
#
# Indices 1 2 3 4 5 6 
#
# 1 0.049194 -0.006534 -0.018161 0.010885 0.000473 0.018602
# 2 -0.006534 0.008554 -0.002265 -0.004405 -0.000171 -0.000191
# 3 -0.018161 -0.002265 0.021283 -0.003833 0.001091 -0.009680
# 4 0.010885 -0.004405 -0.003833 0.054830 0.000440 0.008327
# 5 0.000473 -0.000171 0.001091 0.000440 0.029853 -0.004265
# 6 0.018602 -0.000191 -0.009680 0.008327 -0.004265 0.037039
#
#
# Mechanical properties :
#
#
# Convention : Reuss Voigt Hill
#
# Bulk Modulus (GPa) = 39.82451 62.80962 51.31707
# Shear Modulus (GPa) = 19.00818 29.13509 24.07164
#
# Velocity S-wave (km/s) = 3.10670 3.84624 3.49608
# Velocity P-wave (km/s) = 5.75239 7.18449 6.50795
#
# Compressibility (1/GPa) = 0.02511016
#
# Stress axis : x y z
#
# Youngs Moduli (GPa) = 20.32770 116.89828 46.98580
#
# Poissons Ratio (x) = 0.76386 0.85331
# Poissons Ratio (y) = 0.13283 0.10644
# Poissons Ratio (z) = 0.36917 0.26481
#
# Static dielectric constant tensor:
#      x y z
#    x 1.727650 -0.023720 -0.012640 
#    y -0.023720 1.700120 0.014680 
#    z -0.012640 0.014680 1.688710 
# 
# From -- ./inp_files/164951.got.cif
#   From: 2010.05.17/outbox.cif.g08.bks.cpg/sg2_83_cif.got.tgz:164951.got - 2010.06.03 11:33:40.
