data_PCOD9085350
_publ_section_title
;
Structure prediction by ZEFSAII (Michael W. Deem and Ramdas Pophale) SiO2 
 PCOD9085350
Probable space group: P -1
;
_chemical_formula_sum "Si O2"
_cell_formula_units_Z 12
_cell_length_a 5.769604
_cell_length_b 11.746284
_cell_length_c 8.890696
_cell_angle_alpha 115.554305
_cell_angle_beta 86.456749
_cell_angle_gamma 122.855851
_cell_volume 444.691414
_symmetry_space_group_name_H-M "P -1"
_symmetry_group_IT_number 2
_symmetry_cell_setting 'triclinic'
loop_
_space_group_symop_operation_xyz
x,y,z
-x,-y,-z
loop_
_atom_site_type_symbol
_atom_site_label
_atom_site_fract_x
_atom_site_fract_y
_atom_site_fract_z
Si Si1 0.986487 0.066213 0.702688
Si Si2 0.974963 0.148335 0.202773
Si Si3 0.078491 0.640971 0.877106
Si Si4 0.618925 0.175495 0.463293
Si Si5 0.418093 0.667067 0.171077
Si Si6 0.430551 0.613720 0.629343
O O1 0.242236 0.245176 0.792709
O O2 0.056212 0.001868 0.812143
O O3 0.000000 0.000000 0.500000
O O4 0.652558 0.992402 0.672741
O O5 0.843930 0.197124 0.104274
O O6 0.889618 0.199241 0.387070
O O7 0.302157 0.262055 0.211834
O O8 0.148966 0.559853 0.698214
O O9 0.756711 0.507978 0.861001
O O10 0.277436 0.663738 0.018868
O O11 0.634939 0.225444 0.660926
O O12 0.552567 0.286855 0.452209
O O13 0.500000 0.500000 0.500000
#
# Coordination Sequence:
#
# PCOD9085350 Si02
#       6
#     2   2   2   2   2   2
#     4   9  20  37  59  87 114 148 195 239 283 337
#     4  10  20  38  59  84 113 149 198 236 280 342
#     4  10  22  38  57  85 120 153 187 234 292 345
#     4   9  19  37  61  84 111 150 196 239 280 336
#     4  10  20  38  57  83 122 151 185 239 290 338
#     4  10  19  35  60  85 111 151 198 238 279 338
#
# _framework density 26.985005999999998
#
# number of rings (size 3 to 8) (size 9 to 14) (size 15 to 20)
#    0.000    2.333    0.000    2.000    0.000    6.000 
#    0.000   25.000    0.000    0.000    0.000    0.000 
#    0.000    0.000    0.000    0.000    0.000    0.000 
#
# Total GULP energy -67019.260692 kJ/mol
# GULP energy per Si atom -5584.938391 kJ/mol
# Density = 2.692359 g / cm^3
# Si number density = 26.985006 Si / 1000 Ang^3
#
#
#
# Elastic Constant Matrix: (Units=GPa)
#
#
# Indices 1 2 3 4 5 6 
#
# 1 56.6850 60.4453 9.3189 3.9629 -3.7760 1.6293
# 2 60.4453 149.3786 57.5645 -10.3110 -3.6799 3.6280
# 3 9.3189 57.5645 114.9365 -7.6355 12.5343 -3.8321
# 4 3.9629 -10.3110 -7.6355 42.0872 -4.1471 14.4674
# 5 -3.7760 -3.6799 12.5343 -4.1471 23.0156 4.0304
# 6 1.6293 3.6280 -3.8321 14.4674 4.0304 60.7330
#
#
#
# Elastic Compliance Matrix: (Units=1/GPa)
#
#
# Indices 1 2 3 4 5 6 
#
# 1 0.035102 -0.016877 0.005364 -0.007406 -0.001593 0.002275
# 2 -0.016877 0.017013 -0.007461 0.005920 0.005574 -0.002814
# 3 0.005364 -0.007461 0.012834 -0.001467 -0.007914 0.001986
# 4 -0.007406 0.005920 -0.001467 0.028957 0.007082 -0.007616
# 5 -0.001593 0.005574 -0.007914 0.007082 0.050687 -0.005840
# 6 0.002275 -0.002814 0.001986 -0.007616 -0.005840 0.018900
#
#
# Mechanical properties :
#
#
# Convention : Reuss Voigt Hill
#
# Bulk Modulus (GPa) = 37.03409 63.96193 50.49801
# Shear Modulus (GPa) = 23.75972 38.07860 30.91916
#
# Velocity S-wave (km/s) = 2.97050 3.76054 3.38862
# Velocity P-wave (km/s) = 5.05163 6.52762 5.83647
#
# Compressibility (1/GPa) = 0.02700215
#
# Stress axis : x y z
#
# Youngs Moduli (GPa) = 28.48857 58.77940 77.91804
#
# Poissons Ratio (x) = 0.99199 -0.41795
# Poissons Ratio (y) = 0.48079 0.58132
# Poissons Ratio (z) = -0.15281 0.43854
#
# Static dielectric constant tensor:
#      x y z
#    x 2.062530 -0.008100 0.000790 
#    y -0.008100 2.158800 0.007130 
#    z 0.000790 0.007130 2.158420 
# 
# From -- ./inp_files/63131.got.cif
#   From: 2010.05.17/outbox.cif.g08.bks.cpg/sg2_32_cif.got.tgz:63131.got - 2010.06.03 11:33:40.
