data_PCOD9085700
_publ_section_title
;
Structure prediction by ZEFSAII (Michael W. Deem and Ramdas Pophale) SiO2 
 PCOD9085700
Probable space group: P -1
;
_chemical_formula_sum "Si O2"
_cell_formula_units_Z 16
_cell_length_a 11.330984
_cell_length_b 7.351809
_cell_length_c 8.341915
_cell_angle_alpha 74.420620
_cell_angle_beta 76.327692
_cell_angle_gamma 88.425896
_cell_volume 649.927593
_symmetry_space_group_name_H-M "P -1"
_symmetry_group_IT_number 2
_symmetry_cell_setting 'triclinic'
loop_
_space_group_symop_operation_xyz
x,y,z
-x,-y,-z
loop_
_atom_site_type_symbol
_atom_site_label
_atom_site_fract_x
_atom_site_fract_y
_atom_site_fract_z
Si Si1 0.113628 0.188308 0.030603
Si Si2 0.867265 0.401990 0.544388
Si Si3 0.263046 0.843078 0.122512
Si Si4 0.589042 0.362674 0.094509
Si Si5 0.881946 0.936249 0.272207
Si Si6 0.419046 0.002359 0.286480
Si Si7 0.702064 0.240975 0.363358
Si Si8 0.186060 0.255204 0.343078
O O1 0.137663 0.296668 0.168354
O O2 0.220992 0.039842 0.024672
O O3 0.113207 0.231105 0.827193
O O4 0.986208 0.082451 0.140956
O O5 0.845046 0.222571 0.708772
O O6 0.812828 0.331102 0.411473
O O7 0.780803 0.556959 0.612166
O O8 0.000000 0.500000 0.500000
O O9 0.388216 0.876675 0.170948
O O10 0.289913 0.678560 0.031962
O O11 0.642364 0.407198 0.241639
O O12 0.526849 0.154014 0.192416
O O13 0.500000 0.500000 0.000000
O O14 0.895577 0.861382 0.469229
O O15 0.762981 0.065090 0.293903
O O16 0.404981 0.855855 0.470837
O O17 0.302271 0.131730 0.310962
#
# Coordination Sequence:
#
# PCOD9085700 Si02
#       8
#     2   2   2   2   2   2   2   2
#     4  10  19  35  62  90 121 163 213 267 320 384
#     4  11  22  40  63  93 134 174 206 262 338 395
#     4  10  21  40  63  90 125 165 217 265 322 394
#     4  12  23  41  63  96 131 167 213 279 333 375
#     4  10  19  36  61  91 121 163 217 261 319 393
#     4   9  21  41  67  87 120 173 220 266 324 382
#     4  10  22  42  64  95 131 172 219 265 315 406
#     4  10  20  37  57  90 125 162 211 262 322 383
#
# _framework density 24.618127999999999
#
# number of rings (size 3 to 8) (size 9 to 14) (size 15 to 20)
#    0.000    1.750    1.250    4.125    0.000    0.000 
#    6.750    7.500    0.000    0.000    0.000    0.000 
#    0.000    0.000    0.000    0.000    0.000    0.000 
#
# Total GULP energy -89104.257577 kJ/mol
# GULP energy per Si atom -5569.016099 kJ/mol
# Density = 2.456210 g / cm^3
# Si number density = 24.618128 Si / 1000 Ang^3
#
#
#
# Elastic Constant Matrix: (Units=GPa)
#
#
# Indices 1 2 3 4 5 6 
#
# 1 71.8524 7.9241 47.4915 -9.4361 7.6466 12.1716
# 2 7.9241 59.6134 29.1170 4.9289 8.4330 9.0676
# 3 47.4915 29.1170 119.3740 20.9676 9.3994 19.3411
# 4 -9.4361 4.9289 20.9676 29.6576 2.7633 -1.6294
# 5 7.6466 8.4330 9.3994 2.7633 35.2828 -2.8506
# 6 12.1716 9.0676 19.3411 -1.6294 -2.8506 36.3429
#
#
#
# Elastic Compliance Matrix: (Units=1/GPa)
#
#
# Indices 1 2 3 4 5 6 
#
# 1 0.025247 0.002431 -0.013062 0.017149 -0.004050 -0.001660
# 2 0.002431 0.019994 -0.005207 0.001350 -0.004291 -0.003307
# 3 -0.013062 -0.005207 0.018578 -0.016700 0.000034 -0.004959
# 4 0.017149 0.001350 -0.016700 0.051324 -0.003218 0.004856
# 5 -0.004050 -0.004291 0.000034 -0.003218 0.030868 0.004686
# 6 -0.001660 -0.003307 -0.004959 0.004856 0.004686 0.032121
#
#
# Mechanical properties :
#
#
# Convention : Reuss Voigt Hill
#
# Bulk Modulus (GPa) = 31.11130 46.65613 38.88371
# Shear Modulus (GPa) = 22.67369 31.34380 27.00874
#
# Velocity S-wave (km/s) = 3.03812 3.57206 3.31586
# Velocity P-wave (km/s) = 4.99719 6.00049 5.52168
#
# Compressibility (1/GPa) = 0.03214266
#
# Stress axis : x y z
#
# Youngs Moduli (GPa) = 39.60903 50.01625 53.82781
#
# Poissons Ratio (x) = -0.12160 0.70307
# Poissons Ratio (y) = -0.09630 0.28030
# Poissons Ratio (z) = 0.51735 0.26045
#
# Static dielectric constant tensor:
#      x y z
#    x 2.020800 0.064820 0.082800 
#    y 0.064820 2.009840 0.009840 
#    z 0.082800 0.009840 2.126550 
# 
# From -- ./inp_files/237574.got.cif
#   From: 2010.05.17/outbox.cif.g08.bks.cpg/sg2_119_cif.got.tgz:237574.got - 2010.06.03 11:33:40.
