data_PCOD9085470
_publ_section_title
;
Structure prediction by ZEFSAII (Michael W. Deem and Ramdas Pophale) SiO2 
 PCOD9085470
Probable space group: P -1
;
_chemical_formula_sum "Si O2"
_cell_formula_units_Z 16
_cell_length_a 11.250829
_cell_length_b 19.693426
_cell_length_c 11.820101
_cell_angle_alpha 27.826848
_cell_angle_beta 46.763233
_cell_angle_gamma 34.071973
_cell_volume 673.493384
_symmetry_space_group_name_H-M "P -1"
_symmetry_group_IT_number 2
_symmetry_cell_setting 'triclinic'
loop_
_space_group_symop_operation_xyz
x,y,z
-x,-y,-z
loop_
_atom_site_type_symbol
_atom_site_label
_atom_site_fract_x
_atom_site_fract_y
_atom_site_fract_z
Si Si1 0.004436 0.079108 0.263156
Si Si2 0.249183 0.440591 0.970192
Si Si3 0.562339 0.224935 0.275281
Si Si4 0.149744 0.531699 0.501291
Si Si5 0.573322 0.093448 0.890947
Si Si6 0.560551 0.040094 0.236809
Si Si7 0.973278 0.717962 0.565905
Si Si8 0.196302 0.515933 0.239101
O O1 0.807951 0.124233 0.256264
O O2 0.935365 0.284491 0.034211
O O3 0.000000 0.000000 0.500000
O O4 0.225174 0.953150 0.235859
O O5 0.425354 0.379703 0.037163
O O6 0.099259 0.410043 0.179124
O O7 0.382064 0.264112 0.053856
O O8 0.119161 0.644132 0.691969
O O9 0.533429 0.067571 0.528783
O O10 0.439564 0.352606 0.279962
O O11 0.362397 0.315464 0.706208
O O12 0.110211 0.652557 0.458367
O O13 0.183189 0.572769 0.293844
O O14 0.936998 0.554259 0.590780
O O15 0.500000 0.000000 0.000000
O O16 0.632261 0.016627 0.094613
O O17 0.756839 0.930721 0.360631
#
# Coordination Sequence:
#
# PCOD9085470 Si02
#       8
#     2   2   2   2   2   2   2   2
#     4  12  26  41  60  95 135 172 205 265 338 387
#     4  10  21  38  62  96 128 167 220 267 318 380
#     4  11  23  41  62  94 132 168 213 266 330 385
#     4  11  20  37  66  95 123 162 222 270 316 370
#     4  12  23  38  63  94 126 168 217 266 315 387
#     4  11  21  40  66  98 125 168 224 270 314 378
#     4  10  19  35  60  93 124 158 211 271 316 362
#     4  11  22  39  64  94 126 171 212 268 324 389
#
# _framework density 23.756729
#
# number of rings (size 3 to 8) (size 9 to 14) (size 15 to 20)
#    0.000    1.000    5.000    4.875    0.000    0.000 
#    2.250    0.625    0.000    1.500    0.000    0.000 
#    0.000    0.000    0.000    0.000    0.000    0.000 
#
# Total GULP energy -89493.192530 kJ/mol
# GULP energy per Si atom -5593.324533 kJ/mol
# Density = 2.370266 g / cm^3
# Si number density = 23.756729 Si / 1000 Ang^3
#
#
#
# Elastic Constant Matrix: (Units=GPa)
#
#
# Indices 1 2 3 4 5 6 
#
# 1 81.8625 28.4512 36.3230 26.9495 31.4427 -19.7048
# 2 28.4512 135.0731 31.4898 19.1288 7.1249 -8.0422
# 3 36.3230 31.4898 95.7911 9.8151 36.4885 -0.1887
# 4 26.9495 19.1288 9.8151 38.3373 5.9628 11.8513
# 5 31.4427 7.1249 36.4885 5.9628 41.3995 1.5915
# 6 -19.7048 -8.0422 -0.1887 11.8513 1.5915 43.7252
#
#
#
# Elastic Compliance Matrix: (Units=1/GPa)
#
#
# Indices 1 2 3 4 5 6 
#
# 1 0.040090 -0.000426 -0.002270 -0.032051 -0.024818 0.027569
# 2 -0.000426 0.008887 -0.003080 -0.004458 0.002052 0.002563
# 3 -0.002270 -0.003080 0.017124 0.001186 -0.012957 -0.001365
# 4 -0.032051 -0.004458 0.001186 0.057632 0.016975 -0.031497
# 5 -0.024818 0.002052 -0.012957 0.016975 0.052294 -0.017367
# 6 0.027569 0.002563 -0.001365 -0.031497 -0.017367 0.044929
#
#
# Mechanical properties :
#
#
# Convention : Reuss Voigt Hill
#
# Bulk Modulus (GPa) = 18.33171 56.13941 37.23556
# Shear Modulus (GPa) = 19.94501 39.12325 29.53413
#
# Velocity S-wave (km/s) = 2.90065 4.06252 3.52972
# Velocity P-wave (km/s) = 4.35333 6.75926 5.68503
#
# Compressibility (1/GPa) = 0.05455029
#
# Stress axis : x y z
#
# Youngs Moduli (GPa) = 24.94357 112.52750 58.39825
#
# Poissons Ratio (x) = 0.04791 0.13256
# Poissons Ratio (y) = 0.01062 0.17985
# Poissons Ratio (z) = 0.05662 0.34655
#
# Static dielectric constant tensor:
#      x y z
#    x 1.988600 -0.009550 0.026570 
#    y -0.009550 1.916770 -0.001910 
#    z 0.026570 -0.001910 1.918080 
# 
# From -- ./inp_files/438571.got.cif
#   From: 2010.05.17/outbox.cif.g08.bks.cpg/sg2_220_cif.got.tgz:438571.got - 2010.06.03 11:33:40.
