data_PCOD9085578
_publ_section_title
;
Structure prediction by ZEFSAII (Michael W. Deem and Ramdas Pophale) SiO2 
 PCOD9085578
Probable space group: P -1
;
_chemical_formula_sum "Si O2"
_cell_formula_units_Z 16
_cell_length_a 10.957794
_cell_length_b 7.310745
_cell_length_c 14.361222
_cell_angle_alpha 81.741614
_cell_angle_beta 138.719660
_cell_angle_gamma 117.516199
_cell_volume 631.110613
_symmetry_space_group_name_H-M "P -1"
_symmetry_group_IT_number 2
_symmetry_cell_setting 'triclinic'
loop_
_space_group_symop_operation_xyz
x,y,z
-x,-y,-z
loop_
_atom_site_type_symbol
_atom_site_label
_atom_site_fract_x
_atom_site_fract_y
_atom_site_fract_z
Si Si1 0.244157 0.354643 0.466071
Si Si2 0.542753 0.063132 0.873840
Si Si3 0.001111 0.119242 0.635144
Si Si4 0.575768 0.562288 0.246984
Si Si5 0.179134 0.283190 0.917473
Si Si6 0.185858 0.691021 0.811326
Si Si7 0.851345 0.267882 0.878536
Si Si8 0.444644 0.115009 0.538641
O O1 0.410909 0.494341 0.634109
O O2 0.352066 0.272897 0.458225
O O3 0.076487 0.418480 0.332518
O O4 0.070641 0.114981 0.431692
O O5 0.484333 0.248787 0.805817
O O6 0.701971 0.082009 0.881658
O O7 0.321618 0.833878 0.789198
O O8 0.697915 0.143242 0.047815
O O9 0.184853 0.324154 0.669713
O O10 0.093290 0.121801 0.791969
O O11 0.763619 0.086806 0.511396
O O12 0.400119 0.366152 0.095027
O O13 0.221916 0.499020 0.872236
O O14 0.995704 0.221727 0.895666
O O15 0.665362 0.264851 0.710981
O O16 0.000000 0.500000 0.000000
O O17 0.500000 0.000000 0.500000
#
# Coordination Sequence:
#
# PCOD9085578 Si02
#       8
#     2   2   2   2   2   2   2   2
#     4  10  20  35  63  88 113 157 213 244 290 357
#     4  10  19  35  61  89 117 159 207 236 302 357
#     4  10  21  35  61  89 120 160 208 248 290 369
#     4  11  19  36  63  89 113 161 215 243 277 370
#     4  11  23  39  61  93 126 156 201 253 310 346
#     4  10  21  35  58  95 124 153 196 263 304 345
#     4  12  19  36  64  87 112 164 214 238 275 383
#     4  10  20  35  60  87 118 157 204 241 302 353
#
# _framework density 25.352132000000001
#
# number of rings (size 3 to 8) (size 9 to 14) (size 15 to 20)
#    0.750    0.750    6.250    0.750    1.750    0.000 
#    0.000    1.250    0.000    3.000    3.250    0.000 
#    0.000    0.000    0.000    0.000    0.000    0.000 
#
# Total GULP energy -89352.940421 kJ/mol
# GULP energy per Si atom -5584.558776 kJ/mol
# Density = 2.529443 g / cm^3
# Si number density = 25.352132 Si / 1000 Ang^3
#
#
#
# Elastic Constant Matrix: (Units=GPa)
#
#
# Indices 1 2 3 4 5 6 
#
# 1 127.7304 24.3674 35.2106 5.5599 4.7967 27.8827
# 2 24.3674 73.2366 21.4740 -1.6370 7.4821 10.0181
# 3 35.2106 21.4740 159.6136 23.1612 3.4266 -13.7121
# 4 5.5599 -1.6370 23.1612 14.0491 1.8913 -2.6934
# 5 4.7967 7.4821 3.4266 1.8913 41.9356 4.4510
# 6 27.8827 10.0181 -13.7121 -2.6934 4.4510 29.5563
#
#
#
# Elastic Compliance Matrix: (Units=1/GPa)
#
#
# Indices 1 2 3 4 5 6 
#
# 1 0.011730 -0.001383 -0.003184 -0.001996 0.000565 -0.012342
# 2 -0.001383 0.016102 -0.003259 0.007209 -0.002278 -0.004665
# 3 -0.003184 -0.003259 0.010140 -0.014393 -0.000030 0.007506
# 4 -0.001996 0.007209 -0.014393 0.097596 -0.004532 0.002338
# 5 0.000565 -0.002278 -0.000030 -0.004532 0.024811 -0.003924
# 6 -0.012342 -0.004665 0.007506 0.002338 -0.003924 0.051344
#
#
# Mechanical properties :
#
#
# Convention : Reuss Voigt Hill
#
# Bulk Modulus (GPa) = 44.80461 58.07607 51.44034
# Shear Modulus (GPa) = 21.29311 35.74344 28.51828
#
# Velocity S-wave (km/s) = 2.90124 3.75891 3.35757
# Velocity P-wave (km/s) = 5.37905 6.46504 5.94689
#
# Compressibility (1/GPa) = 0.02231913
#
# Stress axis : x y z
#
# Youngs Moduli (GPa) = 85.24792 62.10297 98.61798
#
# Poissons Ratio (x) = 0.08591 0.31404
# Poissons Ratio (y) = 0.11793 0.32141
# Poissons Ratio (z) = 0.27146 0.20240
#
# Static dielectric constant tensor:
#      x y z
#    x 2.067680 0.021610 -0.012230 
#    y 0.021610 2.050460 -0.055650 
#    z -0.012230 -0.055650 2.114210 
# 
# From -- ./inp_files/515546.got.cif
#   From: 2010.05.17/outbox.cif.g08.bks.cpg/sg2_258_cif.got.tgz:515546.got - 2010.06.03 11:33:40.
