data_PCOD9085135
_publ_section_title
;
Structure prediction by ZEFSAII (Michael W. Deem and Ramdas Pophale) SiO2 
 PCOD9085135
Probable space group: P -1
;
_chemical_formula_sum "Si O2"
_cell_formula_units_Z 16
_cell_length_a 5.529096
_cell_length_b 16.773561
_cell_length_c 16.431611
_cell_angle_alpha 146.263118
_cell_angle_beta 92.377658
_cell_angle_gamma 107.483327
_cell_volume 674.215066
_symmetry_space_group_name_H-M "P -1"
_symmetry_group_IT_number 2
_symmetry_cell_setting 'triclinic'
loop_
_space_group_symop_operation_xyz
x,y,z
-x,-y,-z
loop_
_atom_site_type_symbol
_atom_site_label
_atom_site_fract_x
_atom_site_fract_y
_atom_site_fract_z
Si Si1 0.042405 0.356777 0.346486
Si Si2 0.852231 0.058751 0.985947
Si Si3 0.901963 0.807389 0.159039
Si Si4 0.127406 0.880704 0.395814
Si Si5 0.001771 0.826404 0.522909
Si Si6 0.352755 0.406991 0.551517
Si Si7 0.475072 0.013649 0.224000
Si Si8 0.437326 0.285609 0.074873
O O1 0.129771 0.301901 0.383185
O O2 0.328290 0.469961 0.385563
O O3 0.000000 0.500000 0.500000
O O4 0.794629 0.181195 0.142301
O O5 0.119894 0.185096 0.032429
O O6 0.591656 0.918591 0.800681
O O7 0.000000 0.000000 0.000000
O O8 0.974521 0.766975 0.213972
O O9 0.209075 0.907306 0.196098
O O10 0.865527 0.965614 0.305439
O O11 0.628558 0.667805 0.975660
O O12 0.009270 0.769304 0.383787
O O13 0.500000 0.000000 0.500000
O O14 0.000000 0.000000 0.500000
O O15 0.697865 0.721669 0.484183
O O16 0.233326 0.831484 0.591039
O O17 0.328296 0.547465 0.722244
O O18 0.504794 0.861446 0.061602
#
# Coordination Sequence:
#
# PCOD9085135 Si02
#       8
#     2   2   2   2   2   2   2   2
#     4  10  22  41  60  78 116 166 202 254 309 367
#     4  10  22  37  57  86 112 150 209 259 303 360
#     4   9  19  35  60  89 116 154 200 249 303 359
#     4  10  19  37  62  95 130 159 201 258 321 371
#     4  10  21  36  59  92 117 156 199 255 301 373
#     4  10  22  40  57  83 120 153 205 245 306 369
#     4  10  19  35  59  81 116 152 199 243 306 359
#     4   9  20  38  56  81 117 159 192 248 305 366
#
# _framework density 23.731297000000001
#
# number of rings (size 3 to 8) (size 9 to 14) (size 15 to 20)
#    0.000    2.250    1.250    0.750    5.250    1.500 
#    4.500    0.625    0.000    0.750    0.000    0.000 
#    0.000    0.000    0.000    0.000    0.000    0.000 
#
# Total GULP energy -89183.461912 kJ/mol
# GULP energy per Si atom -5573.966370 kJ/mol
# Density = 2.367728 g / cm^3
# Si number density = 23.731297 Si / 1000 Ang^3
#
#
#
# Elastic Constant Matrix: (Units=GPa)
#
#
# Indices 1 2 3 4 5 6 
#
# 1 65.3590 30.6684 19.7386 -19.9041 -7.1864 -1.4916
# 2 30.6684 162.0076 62.8385 -63.5046 13.7643 7.8059
# 3 19.7386 62.8385 98.7724 -38.8055 2.3627 -7.2000
# 4 -19.9041 -63.5046 -38.8055 49.9826 -2.5637 0.4279
# 5 -7.1864 13.7643 2.3627 -2.5637 33.4963 -4.4599
# 6 -1.4916 7.8059 -7.2000 0.4279 -4.4599 33.4772
#
#
#
# Elastic Compliance Matrix: (Units=1/GPa)
#
#
# Indices 1 2 3 4 5 6 
#
# 1 0.018462 -0.002009 -0.000603 0.004594 0.005423 0.001825
# 2 -0.002009 0.014189 -0.003143 0.014544 -0.005593 -0.005005
# 3 -0.000603 -0.003143 0.015632 0.007930 0.001216 0.004128
# 4 0.004594 0.014544 0.007930 0.046373 -0.002318 -0.002383
# 5 0.005423 -0.005593 0.001216 -0.002318 0.033899 0.006353
# 6 0.001825 -0.005005 0.004128 -0.002383 0.006353 0.032884
#
#
# Mechanical properties :
#
#
# Convention : Reuss Voigt Hill
#
# Bulk Modulus (GPa) = 27.19416 61.40334 44.29875
# Shear Modulus (GPa) = 26.99705 37.58413 32.29059
#
# Velocity S-wave (km/s) = 3.37651 3.98394 3.69274
# Velocity P-wave (km/s) = 5.16577 6.86243 6.07364
#
# Compressibility (1/GPa) = 0.03677261
#
# Stress axis : x y z
#
# Youngs Moduli (GPa) = 54.16573 70.47643 63.97315
#
# Poissons Ratio (x) = 0.14159 0.03859
# Poissons Ratio (y) = 0.10882 0.20105
# Poissons Ratio (z) = 0.03268 0.22149
#
# Static dielectric constant tensor:
#      x y z
#    x 2.048980 -0.088840 0.022390 
#    y -0.088840 1.990150 -0.008980 
#    z 0.022390 -0.008980 1.943130 
# 
# From -- ./inp_files/38751.got.cif
#   From: 2010.05.17/outbox.cif.g08.bks.cpg/sg2_20_cif.got.tgz:38751.got - 2010.06.03 11:33:40.
