data_PCOD9085150
_publ_section_title
;
Structure prediction by ZEFSAII (Michael W. Deem and Ramdas Pophale) SiO2 
 PCOD9085150
Probable space group: P -1
;
_chemical_formula_sum "Si O2"
_cell_formula_units_Z 14
_cell_length_a 9.319280
_cell_length_b 9.630021
_cell_length_c 14.857538
_cell_angle_alpha 40.404294
_cell_angle_beta 124.737660
_cell_angle_gamma 97.881222
_cell_volume 589.762751
_symmetry_space_group_name_H-M "P -1"
_symmetry_group_IT_number 2
_symmetry_cell_setting 'triclinic'
loop_
_space_group_symop_operation_xyz
x,y,z
-x,-y,-z
loop_
_atom_site_type_symbol
_atom_site_label
_atom_site_fract_x
_atom_site_fract_y
_atom_site_fract_z
Si Si1 0.206716 0.193707 0.960935
Si Si2 0.783604 0.563917 0.684722
Si Si3 0.157589 0.044135 0.410872
Si Si4 0.271537 0.636706 0.808654
Si Si5 0.316992 0.948618 0.940655
Si Si6 0.686026 0.773447 0.355550
Si Si7 0.589471 0.432658 0.382943
O O1 0.240850 0.427635 0.852181
O O2 0.169097 0.101020 0.897677
O O3 0.007780 0.293050 0.905273
O O4 0.434738 0.960384 0.191101
O O5 0.797359 0.671008 0.540141
O O6 0.582306 0.551957 0.619935
O O7 0.759610 0.769257 0.646879
O O8 0.234873 0.853201 0.618778
O O9 0.250433 0.851683 0.455894
O O10 0.908238 0.233133 0.243311
O O11 0.500000 0.500000 0.000000
O O12 0.242071 0.073455 0.754394
O O13 0.500000 0.000000 0.000000
O O14 0.435675 0.642803 0.147406
O O15 0.711309 0.543888 0.417990
#
# Coordination Sequence:
#
# PCOD9085150 Si02
#       7
#     2   2   2   2   2   2   2
#     4   9  19  36  55  83 116 146 186 235 283 328
#     4  11  22  35  58  84 115 153 187 227 279 336
#     4  10  21  36  56  83 114 146 185 230 281 334
#     4  10  19  35  59  83 109 145 188 234 279 330
#     4   8  17  34  57  78 111 146 185 235 276 321
#     4  10  20  37  59  82 111 149 195 236 270 328
#     4  10  20  38  57  82 119 153 183 227 284 336
#
# _framework density 23.738358999999999
#
# number of rings (size 3 to 8) (size 9 to 14) (size 15 to 20)
#    0.000    2.571    0.000    4.286    0.000    2.857 
#    0.000    8.571    0.000    6.000    0.000    0.000 
#    0.000    0.000    0.000    0.000    0.000    0.000 
#
# Total GULP energy -78229.277228 kJ/mol
# GULP energy per Si atom -5587.805516 kJ/mol
# Density = 2.368433 g / cm^3
# Si number density = 23.738359 Si / 1000 Ang^3
#
#
#
# Elastic Constant Matrix: (Units=GPa)
#
#
# Indices 1 2 3 4 5 6 
#
# 1 33.2356 6.3680 17.4586 -4.1744 6.5969 -3.7072
# 2 6.3680 95.9889 25.2841 -30.8612 9.5708 -6.5836
# 3 17.4586 25.2841 85.3620 -6.6318 21.5295 -5.5902
# 4 -4.1744 -30.8612 -6.6318 36.7607 -6.9168 11.1727
# 5 6.5969 9.5708 21.5295 -6.9168 31.6246 -10.9018
# 6 -3.7072 -6.5836 -5.5902 11.1727 -10.9018 22.8452
#
#
#
# Elastic Compliance Matrix: (Units=1/GPa)
#
#
# Indices 1 2 3 4 5 6 
#
# 1 0.034211 0.000396 -0.006383 0.002051 -0.001667 0.002305
# 2 0.000396 0.015445 -0.003735 0.013187 -0.000373 -0.003026
# 3 -0.006383 -0.003735 0.016287 -0.002243 -0.009686 -0.001652
# 4 0.002051 0.013187 -0.002243 0.043506 0.000628 -0.017393
# 5 -0.001667 -0.000373 -0.009686 0.000628 0.045195 0.018512
# 6 0.002305 -0.003026 -0.001652 -0.017393 0.018512 0.060211
#
#
# Mechanical properties :
#
#
# Convention : Reuss Voigt Hill
#
# Bulk Modulus (GPa) = 21.50666 34.75644 28.13155
# Shear Modulus (GPa) = 20.01596 29.27781 24.64688
#
# Velocity S-wave (km/s) = 2.90692 3.51572 3.22572
# Velocity P-wave (km/s) = 4.51071 5.58155 5.07445
#
# Compressibility (1/GPa) = 0.04649722
#
# Stress axis : x y z
#
# Youngs Moduli (GPa) = 29.23010 64.74680 61.39747
#
# Poissons Ratio (x) = -0.02561 0.39193
# Poissons Ratio (y) = -0.01156 0.22934
# Poissons Ratio (z) = 0.18659 0.24185
#
# Static dielectric constant tensor:
#      x y z
#    x 1.911780 -0.055330 -0.018180 
#    y -0.055330 1.939800 -0.001260 
#    z -0.018180 -0.001260 1.926440 
# 
# From -- ./inp_files/492121.got.cif
#   From: 2010.05.17/outbox.cif.g08.bks.cpg/sg2_247_cif.got.tgz:492121.got - 2010.06.03 11:33:40.
