data_PCOD9085172
_publ_section_title
;
Structure prediction by ZEFSAII (Michael W. Deem and Ramdas Pophale) SiO2 
 PCOD9085172
Probable space group: P -1
;
_chemical_formula_sum "Si O2"
_cell_formula_units_Z 12
_cell_length_a 8.449102
_cell_length_b 7.079342
_cell_length_c 21.352154
_cell_angle_alpha 43.848775
_cell_angle_beta 133.848049
_cell_angle_gamma 103.608011
_cell_volume 541.464243
_symmetry_space_group_name_H-M "P -1"
_symmetry_group_IT_number 2
_symmetry_cell_setting 'triclinic'
loop_
_space_group_symop_operation_xyz
x,y,z
-x,-y,-z
loop_
_atom_site_type_symbol
_atom_site_label
_atom_site_fract_x
_atom_site_fract_y
_atom_site_fract_z
Si Si1 0.255492 0.258888 0.194105
Si Si2 0.487841 0.693609 0.178296
Si Si3 0.139755 0.680311 0.514390
Si Si4 0.661832 0.707441 0.927480
Si Si5 0.696670 0.996382 0.603647
Si Si6 0.777340 0.379958 0.216558
O O1 0.305867 0.550608 0.149217
O O2 0.364390 0.124673 0.187513
O O3 0.377676 0.016274 0.343144
O O4 0.949610 0.397842 0.077558
O O5 0.678285 0.478834 0.338274
O O6 0.637591 0.655123 0.163706
O O7 0.360131 0.054013 0.081834
O O8 0.000000 0.500000 0.500000
O O9 0.275918 0.712348 0.481700
O O10 0.920161 0.053846 0.376109
O O11 0.434519 0.633128 0.881200
O O12 0.980581 0.676811 0.744007
O O13 0.500000 0.000000 0.500000
#
# Coordination Sequence:
#
# PCOD9085172 Si02
#       6
#     2   2   2   2   2   2
#     4  10  21  38  59  85 119 153 195 245 287 342
#     4  11  18  37  59  83 115 156 198 232 289 357
#     4  10  19  35  59  84 113 153 197 232 288 352
#     4  10  21  37  60  86 114 159 199 230 290 360
#     4  10  20  38  59  88 118 152 191 251 296 331
#     4   9  21  34  58  85 114 155 191 235 294 343
#
# _framework density 22.162129
#
# number of rings (size 3 to 8) (size 9 to 14) (size 15 to 20)
#    1.000    1.000    3.333    1.000    0.000    0.667 
#    0.000    5.000    0.000    0.000    0.000    0.000 
#    0.000    0.000    0.000    0.000    0.000    0.000 
#
# Total GULP energy -66947.009081 kJ/mol
# GULP energy per Si atom -5578.917423 kJ/mol
# Density = 2.211169 g / cm^3
# Si number density = 22.162129 Si / 1000 Ang^3
#
#
#
# Elastic Constant Matrix: (Units=GPa)
#
#
# Indices 1 2 3 4 5 6 
#
# 1 68.4003 25.6194 10.3804 14.9954 1.1385 -5.2191
# 2 25.6194 90.6675 -1.9800 2.5917 1.1196 -10.7151
# 3 10.3804 -1.9800 72.3135 19.4117 2.4864 1.2509
# 4 14.9954 2.5917 19.4117 25.2940 -0.9115 3.8410
# 5 1.1385 1.1196 2.4864 -0.9115 46.9110 10.1107
# 6 -5.2191 -10.7151 1.2509 3.8410 10.1107 30.8545
#
#
#
# Elastic Compliance Matrix: (Units=1/GPa)
#
#
# Indices 1 2 3 4 5 6 
#
# 1 0.019169 -0.004647 0.000234 -0.011650 -0.001350 0.003512
# 2 -0.004647 0.012848 0.000976 0.000043 -0.001105 0.003993
# 3 0.000234 0.000976 0.017639 -0.014135 -0.001663 0.001968
# 4 -0.011650 0.000043 -0.014135 0.058984 0.004366 -0.010156
# 5 -0.001350 -0.001105 -0.001663 0.004366 0.023439 -0.008769
# 6 0.003512 0.003993 0.001968 -0.010156 -0.008769 0.038449
#
#
# Mechanical properties :
#
#
# Convention : Reuss Voigt Hill
#
# Bulk Modulus (GPa) = 23.37361 33.26899 28.32130
# Shear Modulus (GPa) = 26.08753 33.76933 29.92843
#
# Velocity S-wave (km/s) = 3.43464 3.90775 3.67881
# Velocity P-wave (km/s) = 5.12821 5.95020 5.55443
#
# Compressibility (1/GPa) = 0.04278330
#
# Stress axis : x y z
#
# Youngs Moduli (GPa) = 52.16726 77.83341 56.69192
#
# Poissons Ratio (x) = 0.36167 -0.01326
# Poissons Ratio (y) = 0.24240 -0.05534
# Poissons Ratio (z) = -0.01221 -0.07598
#
# Static dielectric constant tensor:
#      x y z
#    x 1.785270 -0.005580 -0.015290 
#    y -0.005580 1.773040 -0.020360 
#    z -0.015290 -0.020360 1.835310 
# 
# From -- ./inp_files/59001.got.cif
#   From: 2010.05.17/outbox.cif.g08.bks.cpg/sg2_30_cif.got.tgz:59001.got - 2010.06.03 11:33:40.
