data_PCOD9085295
_publ_section_title
;
Structure prediction by ZEFSAII (Michael W. Deem and Ramdas Pophale) SiO2 
 PCOD9085295
Probable space group: P -1
;
_chemical_formula_sum "Si O2"
_cell_formula_units_Z 16
_cell_length_a 8.198833
_cell_length_b 22.703005
_cell_length_c 14.102659
_cell_angle_alpha 19.635113
_cell_angle_beta 66.653356
_cell_angle_gamma 64.361488
_cell_volume 794.693753
_symmetry_space_group_name_H-M "P -1"
_symmetry_group_IT_number 2
_symmetry_cell_setting 'triclinic'
loop_
_space_group_symop_operation_xyz
x,y,z
-x,-y,-z
loop_
_atom_site_type_symbol
_atom_site_label
_atom_site_fract_x
_atom_site_fract_y
_atom_site_fract_z
Si Si1 0.134165 0.505821 0.660212
Si Si2 0.028871 0.150835 0.192423
Si Si3 0.783297 0.029660 0.911134
Si Si4 0.588900 0.644763 0.706207
Si Si5 0.463104 0.677263 0.350453
Si Si6 0.075880 0.226357 0.555801
Si Si7 0.768543 0.492425 0.695304
Si Si8 0.659154 0.968718 0.838099
O O1 0.319155 0.572430 0.494864
O O2 0.057651 0.605690 0.622484
O O3 0.964183 0.557139 0.547916
O O4 0.140357 0.296071 0.989277
O O5 0.152179 0.063889 0.209793
O O6 0.840625 0.279361 0.011053
O O7 0.000000 0.000000 0.500000
O O8 0.649968 0.199602 0.728007
O O9 0.955157 0.104148 0.717442
O O10 0.695076 0.934938 0.992646
O O11 0.842536 0.898161 0.184692
O O12 0.758745 0.700522 0.637886
O O13 0.669603 0.567451 0.702795
O O14 0.445316 0.828539 0.451068
O O15 0.500000 0.500000 0.000000
O O16 0.632974 0.550020 0.553326
O O17 0.540477 0.825847 0.047310
#
# Coordination Sequence:
#
# PCOD9085295 Si02
#       8
#     2   2   2   2   2   2   2   2
#     4   8  20  37  58  83 115 159 186 235 299 345
#     4  10  23  43  57  79 122 167 195 234 294 350
#     4  10  19  35  59  92 123 140 193 243 307 348
#     4  11  20  35  57  85 113 156 204 236 285 350
#     4  11  19  36  62  92 115 143 201 248 301 349
#     4   9  18  36  59  84 122 157 175 247 305 346
#     4   9  20  40  59  82 118 158 186 242 304 340
#     4  12  22  33  62  92 114 151 196 249 289 347
#
# _framework density 20.13354
#
# number of rings (size 3 to 8) (size 9 to 14) (size 15 to 20)
#    0.750    1.250    2.500    2.625    0.000    1.000 
#    0.000    3.750    0.000    0.000    0.000    0.000 
#    0.000    0.000    0.000    0.000    0.000    0.000 
#
# Total GULP energy -89135.713442 kJ/mol
# GULP energy per Si atom -5570.982090 kJ/mol
# Density = 2.008772 g / cm^3
# Si number density = 20.133540 Si / 1000 Ang^3
#
#
#
# Elastic Constant Matrix: (Units=GPa)
#
#
# Indices 1 2 3 4 5 6 
#
# 1 92.3945 36.1191 63.2009 0.6059 -18.7350 -13.8423
# 2 36.1191 72.8442 39.8063 -11.1924 5.2648 -19.7290
# 3 63.2009 39.8063 127.9584 -3.0084 -12.5805 -22.6201
# 4 0.6059 -11.1924 -3.0084 24.0529 -11.5625 1.7972
# 5 -18.7350 5.2648 -12.5805 -11.5625 36.5541 -7.2342
# 6 -13.8423 -19.7290 -22.6201 1.7972 -7.2342 23.9500
#
#
#
# Elastic Compliance Matrix: (Units=1/GPa)
#
#
# Indices 1 2 3 4 5 6 
#
# 1 0.020149 -0.006225 -0.006465 0.000213 0.009726 0.003333
# 2 -0.006225 0.022506 -0.001795 0.008563 -0.001965 0.012010
# 3 -0.006465 -0.001795 0.013544 0.002323 0.004048 0.008625
# 4 0.000213 0.008563 0.002323 0.054148 0.018989 0.011044
# 5 0.009726 -0.001965 0.004048 0.018989 0.043916 0.019666
# 6 0.003333 0.012010 0.008625 0.011044 0.019666 0.066831
#
#
# Mechanical properties :
#
#
# Convention : Reuss Voigt Hill
#
# Bulk Modulus (GPa) = 36.72676 63.49440 50.11058
# Shear Modulus (GPa) = 19.29450 27.18279 23.23865
#
# Velocity S-wave (km/s) = 3.09904 3.67839 3.40108
# Velocity P-wave (km/s) = 5.57554 7.04598 6.35344
#
# Compressibility (1/GPa) = 0.02722810
#
# Stress axis : x y z
#
# Youngs Moduli (GPa) = 49.63015 44.43207 73.83350
#
# Poissons Ratio (x) = 0.27660 0.47733
# Poissons Ratio (y) = 0.30896 0.13256
# Poissons Ratio (z) = 0.32086 0.07977
#
# Static dielectric constant tensor:
#      x y z
#    x 1.779100 -0.031130 -0.020940 
#    y -0.031130 1.727230 -0.026830 
#    z -0.020940 -0.026830 1.717350 
# 
# From -- ./inp_files/508361.got.cif
#   From: 2010.05.17/outbox.cif.g08.bks.cpg/sg2_255_cif.got.tgz:508361.got - 2010.06.03 11:33:40.
