data_PCOD9085224
_publ_section_title
;
Structure prediction by ZEFSAII (Michael W. Deem and Ramdas Pophale) SiO2 
 PCOD9085224
Probable space group: P -1
;
_chemical_formula_sum "Si O2"
_cell_formula_units_Z 16
_cell_length_a 13.848887
_cell_length_b 15.434804
_cell_length_c 5.010195
_cell_angle_alpha 72.019249
_cell_angle_beta 66.486939
_cell_angle_gamma 38.545567
_cell_volume 611.929497
_symmetry_space_group_name_H-M "P -1"
_symmetry_group_IT_number 2
_symmetry_cell_setting 'triclinic'
loop_
_space_group_symop_operation_xyz
x,y,z
-x,-y,-z
loop_
_atom_site_type_symbol
_atom_site_label
_atom_site_fract_x
_atom_site_fract_y
_atom_site_fract_z
Si Si1 0.981436 0.351753 0.278100
Si Si2 0.989113 0.146602 0.391656
Si Si3 0.688733 0.822129 0.691411
Si Si4 0.490259 0.126605 0.646579
Si Si5 0.475737 0.709293 0.324233
Si Si6 0.320363 0.659812 0.767873
Si Si7 0.166009 0.904430 0.103668
Si Si8 0.232121 0.518819 0.124881
O O1 0.916938 0.393743 0.005082
O O2 0.037118 0.210682 0.396490
O O3 0.136580 0.305514 0.248929
O O4 0.833736 0.468061 0.529271
O O5 0.802895 0.278156 0.394880
O O6 0.983238 0.065314 0.675655
O O7 0.086488 0.055197 0.105534
O O8 0.654441 0.797712 0.470374
O O9 0.633960 0.963294 0.572170
O O10 0.563340 0.864999 0.004381
O O11 0.533488 0.204041 0.534435
O O12 0.481948 0.602860 0.540359
O O13 0.313281 0.816684 0.232227
O O14 0.624201 0.626881 0.040965
O O15 0.304073 0.575043 0.018490
O O16 0.245289 0.793021 0.890367
#
# Coordination Sequence:
#
# PCOD9085224 Si02
#       8
#     2   2   2   2   2   2   2   2
#     4  11  22  43  64  90 122 171 206 257 315 364
#     4   9  19  35  56  92 121 154 207 255 313 373
#     4  10  22  44  70  93 123 157 202 265 327 369
#     4  10  23  43  67  97 124 154 205 264 316 378
#     4  11  25  39  60  92 123 171 211 254 307 365
#     4  10  21  38  58  91 127 171 205 254 306 369
#     4  10  19  35  59  86 125 159 202 257 311 367
#     4  11  25  41  63  91 130 169 215 250 294 374
#
# _framework density 26.146802999999998
#
# number of rings (size 3 to 8) (size 9 to 14) (size 15 to 20)
#    0.000    1.750    1.250    2.250    3.500    0.500 
#    6.750    3.750    0.000    0.000    0.000    0.000 
#    0.000    0.000    0.000    0.000    0.000    0.000 
#
# Total GULP energy -89396.731159 kJ/mol
# GULP energy per Si atom -5587.295697 kJ/mol
# Density = 2.608729 g / cm^3
# Si number density = 26.146803 Si / 1000 Ang^3
#
#
#
# Elastic Constant Matrix: (Units=GPa)
#
#
# Indices 1 2 3 4 5 6 
#
# 1 125.3690 36.6734 1.2488 -1.5479 18.7105 -1.9332
# 2 36.6734 67.5847 -5.0464 8.2181 5.9408 2.1411
# 3 1.2488 -5.0464 54.7233 4.3517 23.0346 2.5043
# 4 -1.5479 8.2181 4.3517 24.3962 1.4281 2.2871
# 5 18.7105 5.9408 23.0346 1.4281 30.8631 3.5679
# 6 -1.9332 2.1411 2.5043 2.2871 3.5679 36.6763
#
#
#
# Elastic Compliance Matrix: (Units=1/GPa)
#
#
# Indices 1 2 3 4 5 6 
#
# 1 0.010638 -0.005317 0.002056 0.002402 -0.007220 0.001283
# 2 -0.005317 0.019096 0.003646 -0.007173 -0.002734 -0.000931
# 3 0.002056 0.003646 0.028694 -0.004905 -0.023194 0.000499
# 4 0.002402 -0.007173 -0.004905 0.044524 0.001764 -0.002068
# 5 -0.007220 -0.002734 -0.023194 0.001764 0.055008 -0.004098
# 6 0.001283 -0.000931 0.000499 -0.002068 -0.004098 0.027881
#
#
# Mechanical properties :
#
#
# Convention : Reuss Voigt Hill
#
# Bulk Modulus (GPa) = 16.89240 34.82541 25.85891
# Shear Modulus (GPa) = 24.41372 32.70721 28.56047
#
# Velocity S-wave (km/s) = 3.05899 3.54065 3.30860
# Velocity P-wave (km/s) = 4.35330 5.48298 4.95047
#
# Compressibility (1/GPa) = 0.05919821
#
# Stress axis : x y z
#
# Youngs Moduli (GPa) = 93.99947 52.36767 34.85106
#
# Poissons Ratio (x) = 0.27845 -0.07167
# Poissons Ratio (y) = 0.49981 -0.12707
# Poissons Ratio (z) = -0.19330 -0.19094
#
# Static dielectric constant tensor:
#      x y z
#    x 2.000860 0.019930 -0.028610 
#    y 0.019930 2.115240 -0.081590 
#    z -0.028610 -0.081590 2.179240 
# 
# From -- ./inp_files/66433.got.cif
#   From: 2010.05.17/outbox.cif.g08.bks.cpg/sg2_34_cif.got.tgz:66433.got - 2010.06.03 11:33:40.
