data_PCOD9085758
_publ_section_title
;
Structure prediction by ZEFSAII (Michael W. Deem and Ramdas Pophale) SiO2 
 PCOD9085758
Probable space group: P -1
;
_chemical_formula_sum "Si O2"
_cell_formula_units_Z 16
_cell_length_a 8.889597
_cell_length_b 16.585840
_cell_length_c 11.429689
_cell_angle_alpha 151.840769
_cell_angle_beta 57.762521
_cell_angle_gamma 120.594959
_cell_volume 669.527272
_symmetry_space_group_name_H-M "P -1"
_symmetry_group_IT_number 2
_symmetry_cell_setting 'triclinic'
loop_
_space_group_symop_operation_xyz
x,y,z
-x,-y,-z
loop_
_atom_site_type_symbol
_atom_site_label
_atom_site_fract_x
_atom_site_fract_y
_atom_site_fract_z
Si Si1 0.912403 0.304618 0.028099
Si Si2 0.468490 0.244100 0.266338
Si Si3 0.806711 0.707085 0.372481
Si Si4 0.832883 0.422610 0.855732
Si Si5 0.711825 0.550925 0.582055
Si Si6 0.642774 0.018007 0.741182
Si Si7 0.751772 0.123300 0.332961
Si Si8 0.990487 0.828760 0.933977
O O1 0.812809 0.461435 0.321384
O O2 0.076830 0.404153 0.022049
O O3 0.961407 0.197133 0.984231
O O4 0.777702 0.176833 0.844437
O O5 0.283209 0.226783 0.387943
O O6 0.593731 0.384850 0.468103
O O7 0.419524 0.326396 0.267225
O O8 0.576999 0.088715 0.984488
O O9 0.009371 0.676346 0.279639
O O10 0.755334 0.855727 0.497514
O O11 0.725676 0.515884 0.119252
O O12 0.749302 0.296093 0.630337
O O13 0.856964 0.660943 0.739272
O O14 0.451706 0.961528 0.691571
O O15 0.844329 0.156652 0.208811
O O16 0.879801 0.992209 0.169909
#
# Coordination Sequence:
#
# PCOD9085758 Si02
#       8
#     2   2   2   2   2   2   2   2
#     4  11  23  39  64  96 127 166 211 258 321 373
#     4  10  20  37  65  99 127 159 207 267 322 364
#     4  11  24  43  67  90 127 175 213 256 311 378
#     4  11  25  45  65  90 129 174 215 253 306 390
#     4  10  19  35  62  99 128 158 201 270 323 366
#     4  11  25  39  67  97 128 158 209 270 320 367
#     4  11  24  40  63  99 130 163 210 261 320 371
#     4  11  22  37  65  95 133 162 208 267 316 370
#
# _framework density 23.897458
#
# number of rings (size 3 to 8) (size 9 to 14) (size 15 to 20)
#    0.000    1.250    3.750    1.500    7.000    1.000 
#    0.000    0.000    0.000    4.500    0.000    0.000 
#    0.000    0.000    0.000    0.000    0.000    0.000 
#
# Total GULP energy -89335.327144 kJ/mol
# GULP energy per Si atom -5583.457946 kJ/mol
# Density = 2.384307 g / cm^3
# Si number density = 23.897458 Si / 1000 Ang^3
#
#
#
# Elastic Constant Matrix: (Units=GPa)
#
#
# Indices 1 2 3 4 5 6 
#
# 1 96.6897 47.2847 47.4050 19.0143 3.3734 3.4464
# 2 47.2847 45.0446 26.5879 6.8987 2.2975 -6.0688
# 3 47.4050 26.5879 165.6463 14.9130 -9.4938 13.3429
# 4 19.0143 6.8987 14.9130 25.6651 4.7254 0.7827
# 5 3.3734 2.2975 -9.4938 4.7254 51.3750 16.2579
# 6 3.4464 -6.0688 13.3429 0.7827 16.2579 30.1868
#
#
#
# Elastic Compliance Matrix: (Units=1/GPa)
#
#
# Indices 1 2 3 4 5 6 
#
# 1 0.026705 -0.026823 -0.001308 -0.012132 0.003266 -0.009308
# 2 -0.026823 0.054553 -0.003960 0.008473 -0.008575 0.020179
# 3 -0.001308 -0.003960 0.008077 -0.003213 0.004049 -0.006314
# 4 -0.012132 0.008473 -0.003213 0.048589 -0.006839 0.006932
# 5 0.003266 -0.008575 0.004049 -0.006839 0.026743 -0.018112
# 6 -0.009308 0.020179 -0.006314 0.006932 -0.018112 0.050613
#
#
# Mechanical properties :
#
#
# Convention : Reuss Voigt Hill
#
# Bulk Modulus (GPa) = 39.75683 61.10398 50.43041
# Shear Modulus (GPa) = 17.37046 33.85223 25.61134
#
# Velocity S-wave (km/s) = 2.69899 3.76781 3.27726
# Velocity P-wave (km/s) = 5.13666 6.67482 5.95561
#
# Compressibility (1/GPa) = 0.02515291
#
# Stress axis : x y z
#
# Youngs Moduli (GPa) = 37.44649 18.33070 123.81226
#
# Poissons Ratio (x) = 0.49169 0.16193
# Poissons Ratio (y) = 1.00444 0.49026
# Poissons Ratio (z) = 0.04897 0.07258
#
# Static dielectric constant tensor:
#      x y z
#    x 1.927450 0.005400 0.034930 
#    y 0.005400 2.051570 -0.028670 
#    z 0.034930 -0.028670 1.941530 
# 
# From -- ./inp_files/402451.got.cif
#   From: 2010.05.17/outbox.cif.g08.bks.cpg/sg2_202_cif.got.tgz:402451.got - 2010.06.03 11:33:40.
