data_PCOD9085366
_publ_section_title
;
Structure prediction by ZEFSAII (Michael W. Deem and Ramdas Pophale) SiO2 
 PCOD9085366
Probable space group: P -1
;
_chemical_formula_sum "Si O2"
_cell_formula_units_Z 13
_cell_length_a 7.192054
_cell_length_b 21.651965
_cell_length_c 11.894265
_cell_angle_alpha 27.860993
_cell_angle_beta 50.824088
_cell_angle_gamma 37.827597
_cell_volume 516.321661
_symmetry_space_group_name_H-M "P -1"
_symmetry_group_IT_number 2
_symmetry_cell_setting 'triclinic'
loop_
_space_group_symop_operation_xyz
x,y,z
-x,-y,-z
loop_
_atom_site_type_symbol
_atom_site_label
_atom_site_fract_x
_atom_site_fract_y
_atom_site_fract_z
Si Si1 0.016027 0.281539 0.770865
Si Si2 0.930749 0.816219 0.572168
Si Si3 0.951159 0.584882 0.122201
Si Si4 0.384004 0.415739 0.418801
Si Si5 0.899288 0.093001 0.267676
Si Si6 0.707849 0.668833 0.777868
Si Si7 0.500000 0.500000 0.500000
O O1 0.672849 0.484312 0.602987
O O2 0.870318 0.298525 0.679336
O O3 0.278691 0.299962 0.650764
O O4 0.090635 0.131833 0.060673
O O5 0.280828 0.687707 0.596251
O O6 0.721700 0.820297 0.549942
O O7 0.900192 0.729087 0.831239
O O8 0.850496 0.987882 0.371502
O O9 0.098231 0.576351 0.197419
O O10 0.246782 0.399718 0.253183
O O11 0.664319 0.588183 0.241517
O O12 0.586255 0.276806 0.129258
O O13 0.000000 0.000000 0.500000
O O14 0.000000 0.500000 0.000000
#
# Coordination Sequence:
#
# PCOD9085366 Si02
#       7
#     2   2   2   2   2   2   1
#     4  10  21  38  60  88 121 160 205 244 295 355
#     4  11  21  35  58  87 122 156 196 247 303 357
#     4  10  19  35  60  86 115 155 204 246 293 350
#     4  10  20  36  60  86 116 158 205 249 288 351
#     4  12  24  39  61  91 127 158 193 248 309 360
#     4  10  21  38  60  84 115 157 204 244 284 351
#     4  10  20  36  62  86 114 154 202 252 284 340
#
# _framework density 25.178104000000001
#
# number of rings (size 3 to 8) (size 9 to 14) (size 15 to 20)
#    0.000    1.538    0.000    7.385    0.000    0.615 
#    0.000    0.000    0.000    6.462    0.000    0.000 
#    0.000    0.000    0.000    0.000    0.000    0.000 
#
# Total GULP energy -72424.064809 kJ/mol
# GULP energy per Si atom -5571.081908 kJ/mol
# Density = 2.512080 g / cm^3
# Si number density = 25.178104 Si / 1000 Ang^3
#
#
#
# Elastic Constant Matrix: (Units=GPa)
#
#
# Indices 1 2 3 4 5 6 
#
# 1 101.6130 14.2993 32.4452 15.5383 -24.8383 -3.2144
# 2 14.2993 92.0615 24.4289 17.2449 -12.4956 -11.4624
# 3 32.4452 24.4289 131.3621 41.3575 -20.5514 1.5603
# 4 15.5383 17.2449 41.3575 43.5819 -4.0273 -11.5906
# 5 -24.8383 -12.4956 -20.5514 -4.0273 56.2635 5.4087
# 6 -3.2144 -11.4624 1.5603 -11.5906 5.4087 41.0613
#
#
#
# Elastic Compliance Matrix: (Units=1/GPa)
#
#
# Indices 1 2 3 4 5 6 
#
# 1 0.011792 -0.000462 -0.001354 -0.002438 0.004476 -0.000432
# 2 -0.000462 0.012281 -0.000997 -0.002960 0.001720 0.002368
# 3 -0.001354 -0.000997 0.012439 -0.011855 0.003322 -0.004641
# 4 -0.002438 -0.002960 -0.011855 0.038744 -0.004343 0.010942
# 5 0.004476 0.001720 0.003322 -0.004343 0.021355 -0.003334
# 6 -0.000432 0.002368 -0.004641 0.010942 -0.003334 0.028685
#
#
# Mechanical properties :
#
#
# Convention : Reuss Voigt Hill
#
# Bulk Modulus (GPa) = 32.37538 51.93151 42.15344
# Shear Modulus (GPa) = 35.40645 45.10557 40.25601
#
# Velocity S-wave (km/s) = 3.75405 4.23716 4.00290
# Velocity P-wave (km/s) = 5.62824 6.67895 6.17598
#
# Compressibility (1/GPa) = 0.03088767
#
# Stress axis : x y z
#
# Youngs Moduli (GPa) = 84.80585 81.42417 80.38941
#
# Poissons Ratio (x) = 0.03762 0.10881
# Poissons Ratio (y) = 0.03918 0.08014
# Poissons Ratio (z) = 0.11479 0.08117
#
# Static dielectric constant tensor:
#      x y z
#    x 2.375460 0.240780 0.016290 
#    y 0.240780 2.268540 -0.045280 
#    z 0.016290 -0.045280 2.083830 
# 
# From -- ./inp_files/159603.got.cif
#   From: 2010.05.17/outbox.cif.g08.bks.cpg/sg2_80_cif.got.tgz:159603.got - 2010.06.03 11:33:40.
