data_PCOD9085671
_publ_section_title
;
Structure prediction by ZEFSAII (Michael W. Deem and Ramdas Pophale) SiO2 
 PCOD9085671
Probable space group: P -1
;
_chemical_formula_sum "Si O2"
_cell_formula_units_Z 16
_cell_length_a 9.753119
_cell_length_b 17.780407
_cell_length_c 9.228883
_cell_angle_alpha 45.025260
_cell_angle_beta 94.639453
_cell_angle_gamma 130.610199
_cell_volume 608.664314
_symmetry_space_group_name_H-M "P -1"
_symmetry_group_IT_number 2
_symmetry_cell_setting 'triclinic'
loop_
_space_group_symop_operation_xyz
x,y,z
-x,-y,-z
loop_
_atom_site_type_symbol
_atom_site_label
_atom_site_fract_x
_atom_site_fract_y
_atom_site_fract_z
Si Si1 0.674976 0.385483 0.513552
Si Si2 0.899486 0.074362 0.870173
Si Si3 0.201558 0.612622 0.197360
Si Si4 0.305179 0.789705 0.699487
Si Si5 0.317959 0.246814 0.214944
Si Si6 0.969704 0.940270 0.830031
Si Si7 0.578776 0.035093 0.795760
Si Si8 0.801256 0.598536 0.959743
O O1 0.387623 0.154007 0.803674
O O2 0.740159 0.444780 0.609254
O O3 0.694870 0.491599 0.253619
O O4 0.905782 0.454317 0.398148
O O5 0.006849 0.062740 0.776767
O O6 0.848746 0.150656 0.678955
O O7 0.043672 0.164614 0.913129
O O8 0.285537 0.672509 0.955524
O O9 0.371688 0.821100 0.996099
O O10 0.500000 0.000000 0.500000
O O11 0.388606 0.840809 0.470721
O O12 0.038575 0.677578 0.841776
O O13 0.269775 0.195827 0.110955
O O14 0.595420 0.453171 0.013974
O O15 0.151017 0.245378 0.233881
O O16 0.200591 0.085653 0.537054
O O17 0.500000 0.000000 0.000000
#
# Coordination Sequence:
#
# PCOD9085671 Si02
#       8
#     2   2   2   2   2   2   2   2
#     4   9  16  33  56  80 109 157 190 237 296 346
#     4  10  20  36  58  79 119 160 194 247 296 354
#     4   8  17  32  57  77 110 151 197 232 293 356
#     4   9  18  34  57  86 114 151 194 240 299 357
#     4  10  21  37  59  89 116 158 201 247 296 361
#     4  10  21  38  58  85 118 157 206 238 300 360
#     4  10  20  35  56  87 115 150 194 247 300 356
#     4  10  19  35  62  87 124 154 196 254 300 349
#
# _framework density 26.287064999999998
#
# number of rings (size 3 to 8) (size 9 to 14) (size 15 to 20)
#    0.000    2.500    1.250    0.750    0.000    3.000 
#    2.250    3.125    0.000    6.750    0.000    0.000 
#    0.000    0.000    0.000    0.000    0.000    0.000 
#
# Total GULP energy -89422.714721 kJ/mol
# GULP energy per Si atom -5588.919670 kJ/mol
# Density = 2.622723 g / cm^3
# Si number density = 26.287065 Si / 1000 Ang^3
#
#
#
# Elastic Constant Matrix: (Units=GPa)
#
#
# Indices 1 2 3 4 5 6 
#
# 1 54.6969 32.4666 6.7386 6.4189 6.5301 11.5733
# 2 32.4666 170.9631 58.0083 28.0292 1.2562 19.1058
# 3 6.7386 58.0083 122.2563 48.8765 8.0046 8.0955
# 4 6.4189 28.0292 48.8765 52.6649 12.9401 2.2538
# 5 6.5301 1.2562 8.0046 12.9401 28.6612 6.0173
# 6 11.5733 19.1058 8.0955 2.2538 6.0173 36.2745
#
#
#
# Elastic Compliance Matrix: (Units=1/GPa)
#
#
# Indices 1 2 3 4 5 6 
#
# 1 0.022022 -0.004051 0.001611 -0.000859 -0.003948 -0.004544
# 2 -0.004051 0.008187 -0.003014 -0.001614 0.002701 -0.002695
# 3 0.001611 -0.003014 0.014458 -0.012344 0.001649 -0.001659
# 4 -0.000859 -0.001614 -0.012344 0.034338 -0.012594 0.003835
# 5 -0.003948 0.002701 0.001649 -0.012594 0.042318 -0.006768
# 6 -0.004544 -0.002695 -0.001659 0.003835 -0.006768 0.031691
#
#
# Mechanical properties :
#
#
# Convention : Reuss Voigt Hill
#
# Bulk Modulus (GPa) = 29.62235 60.26037 44.94136
# Shear Modulus (GPa) = 28.54249 40.23365 34.38807
#
# Velocity S-wave (km/s) = 3.29872 3.91647 3.62079
# Velocity P-wave (km/s) = 5.07957 6.58979 5.88334
#
# Compressibility (1/GPa) = 0.03375829
#
# Stress axis : x y z
#
# Youngs Moduli (GPa) = 45.40852 122.13993 69.16596
#
# Poissons Ratio (x) = 0.49481 -0.11143
# Poissons Ratio (y) = 0.18396 0.20850
# Poissons Ratio (z) = -0.07315 0.36818
#
# Static dielectric constant tensor:
#      x y z
#    x 2.269690 0.062520 -0.026620 
#    y 0.062520 2.116980 0.018230 
#    z -0.026620 0.018230 2.072280 
# 
# From -- ./inp_files/251640.got.cif
#   From: 2010.05.17/outbox.cif.g08.bks.cpg/sg2_126_cif.got.tgz:251640.got - 2010.06.03 11:33:40.
