data_PCOD9085520
_publ_section_title
;
Structure prediction by ZEFSAII (Michael W. Deem and Ramdas Pophale) SiO2 
 PCOD9085520
Probable space group: P -1
;
_chemical_formula_sum "Si O2"
_cell_formula_units_Z 16
_cell_length_a 10.167307
_cell_length_b 13.071054
_cell_length_c 21.035744
_cell_angle_alpha 149.344342
_cell_angle_beta 32.786184
_cell_angle_gamma 145.140214
_cell_volume 722.301887
_symmetry_space_group_name_H-M "P -1"
_symmetry_group_IT_number 2
_symmetry_cell_setting 'triclinic'
loop_
_space_group_symop_operation_xyz
x,y,z
-x,-y,-z
loop_
_atom_site_type_symbol
_atom_site_label
_atom_site_fract_x
_atom_site_fract_y
_atom_site_fract_z
Si Si1 0.739548 0.820276 0.610080
Si Si2 0.328001 0.703655 0.012085
Si Si3 0.889317 0.789806 0.888290
Si Si4 0.116907 0.415287 0.346214
Si Si5 0.152961 0.059976 0.224038
Si Si6 0.824829 0.448289 0.300988
Si Si7 0.912990 0.727448 0.294306
Si Si8 0.638865 0.725519 0.282477
O O1 0.799249 0.847238 0.674824
O O2 0.809787 0.624653 0.450732
O O3 0.431446 0.760739 0.695684
O O4 0.915134 0.040902 0.624463
O O5 0.117563 0.676933 0.138432
O O6 0.287740 0.880545 0.075493
O O7 0.608905 0.776239 0.970133
O O8 0.281509 0.474978 0.878133
O O9 0.018258 0.730546 0.738571
O O10 0.916931 0.605704 0.824699
O O11 0.000000 0.000000 0.000000
O O12 0.242306 0.253611 0.242255
O O13 0.331936 0.632039 0.346705
O O14 0.000000 0.500000 0.500000
O O15 0.840903 0.932123 0.276648
O O16 0.803925 0.546948 0.294017
O O17 0.695322 0.754526 0.350406
#
# Coordination Sequence:
#
# PCOD9085520 Si02
#       8
#     2   2   2   2   2   2   2   2
#     4   9  20  37  58  89 114 147 203 246 284 349
#     4   9  20  38  57  85 117 147 197 244 285 351
#     4  11  24  39  56  88 126 156 194 241 291 354
#     4  11  24  41  62  89 117 154 199 240 294 353
#     4  10  19  38  64  83 111 151 194 249 294 333
#     4  11  21  36  58  81 122 161 186 239 299 343
#     4  10  19  35  61  85 109 150 199 237 291 352
#     4   9  20  37  59  88 115 142 194 251 286 341
#
# _framework density 22.151405
#
# number of rings (size 3 to 8) (size 9 to 14) (size 15 to 20)
#    0.000    2.250    0.000    4.875    0.000    6.000 
#    0.000    7.500    0.000    0.750    0.000    0.000 
#    0.000    0.000    0.000    0.000    0.000    0.000 
#
# Total GULP energy -89146.382673 kJ/mol
# GULP energy per Si atom -5571.648917 kJ/mol
# Density = 2.210099 g / cm^3
# Si number density = 22.151405 Si / 1000 Ang^3
#
#
#
# Elastic Constant Matrix: (Units=GPa)
#
#
# Indices 1 2 3 4 5 6 
#
# 1 62.2733 21.6114 10.7124 3.0716 7.9667 14.4949
# 2 21.6114 71.7599 20.3558 4.6560 7.1507 24.1540
# 3 10.7124 20.3558 79.9024 13.0901 20.6429 16.8827
# 4 3.0716 4.6560 13.0901 17.1121 1.6674 -0.1480
# 5 7.9667 7.1507 20.6429 1.6674 37.4481 5.4039
# 6 14.4949 24.1540 16.8827 -0.1480 5.4039 30.5080
#
#
#
# Elastic Compliance Matrix: (Units=1/GPa)
#
#
# Indices 1 2 3 4 5 6 
#
# 1 0.019073 -0.003365 0.000867 -0.002950 -0.002840 -0.006389
# 2 -0.003365 0.020181 -0.000978 -0.004217 -0.000422 -0.013784
# 3 0.000867 -0.000978 0.018920 -0.013602 -0.008573 -0.008655
# 4 -0.002950 -0.004217 -0.013602 0.070224 0.004089 0.011884
# 5 -0.002840 -0.000422 -0.008573 0.004089 0.031815 0.000811
# 6 -0.006389 -0.013784 -0.008655 0.011884 0.000811 0.051430
#
#
# Mechanical properties :
#
#
# Convention : Reuss Voigt Hill
#
# Bulk Modulus (GPa) = 19.52297 35.47720 27.50009
# Shear Modulus (GPa) = 21.21608 27.76404 24.49006
#
# Velocity S-wave (km/s) = 3.09815 3.54415 3.32863
# Velocity P-wave (km/s) = 4.65087 5.72700 5.21676
#
# Compressibility (1/GPa) = 0.05122173
#
# Stress axis : x y z
#
# Youngs Moduli (GPa) = 52.43081 49.55035 52.85387
#
# Poissons Ratio (x) = 0.16675 -0.04582
# Poissons Ratio (y) = 0.17644 0.05169
# Poissons Ratio (z) = -0.04545 0.04846
#
# Static dielectric constant tensor:
#      x y z
#    x 1.841530 0.040040 -0.017510 
#    y 0.040040 1.835130 -0.010000 
#    z -0.017510 -0.010000 1.878380 
# 
# From -- ./inp_files/610457.got.cif
#   From: 2010.05.17/outbox.cif.g08.bks.cpg/sg2_306_cif.got.tgz:610457.got - 2010.06.03 11:33:40.
