data_PCOD9085353
_publ_section_title
;
Structure prediction by ZEFSAII (Michael W. Deem and Ramdas Pophale) SiO2 
 PCOD9085353
Probable space group: P -1
;
_chemical_formula_sum "Si O2"
_cell_formula_units_Z 16
_cell_length_a 15.256011
_cell_length_b 15.435264
_cell_length_c 7.890557
_cell_angle_alpha 106.904803
_cell_angle_beta 35.609568
_cell_angle_gamma 133.082544
_cell_volume 618.680074
_symmetry_space_group_name_H-M "P -1"
_symmetry_group_IT_number 2
_symmetry_cell_setting 'triclinic'
loop_
_space_group_symop_operation_xyz
x,y,z
-x,-y,-z
loop_
_atom_site_type_symbol
_atom_site_label
_atom_site_fract_x
_atom_site_fract_y
_atom_site_fract_z
Si Si1 0.451802 0.872268 0.958103
Si Si2 0.295195 0.033568 0.052167
Si Si3 0.969419 0.132415 0.132560
Si Si4 0.664476 0.468183 0.729759
Si Si5 0.776298 0.823592 0.948020
Si Si6 0.090863 0.780899 0.038618
Si Si7 0.092680 0.600292 0.746958
Si Si8 0.903645 0.614199 0.750796
O O1 0.509663 0.856771 0.041078
O O2 0.680128 0.961993 0.522937
O O3 0.157943 0.712269 0.297438
O O4 0.500000 0.000000 0.000000
O O5 0.284991 0.926104 0.938134
O O6 0.030583 0.922907 0.502417
O O7 0.309079 0.116795 0.934495
O O8 0.157275 0.154955 0.946304
O O9 0.031338 0.255016 0.208207
O O10 0.998259 0.181030 0.924084
O O11 0.761909 0.413074 0.571117
O O12 0.661257 0.498996 0.946858
O O13 0.859542 0.627860 0.418662
O O14 0.428588 0.341763 0.905824
O O15 0.195674 0.745391 0.747494
O O16 0.896637 0.543971 0.882999
O O17 0.000000 0.500000 0.000000
#
# Coordination Sequence:
#
# PCOD9085353 Si02
#       8
#     2   2   2   2   2   2   2   2
#     4   9  17  34  57  83 112 149 196 240 281 339
#     4  10  21  39  61  84 114 153 197 242 289 348
#     4   9  20  37  56  85 120 153 194 242 292 347
#     4  11  21  37  61  88 118 154 195 241 291 348
#     4  10  22  39  59  85 117 153 199 244 283 345
#     4  10  21  38  59  85 118 154 194 242 299 349
#     4   9  20  37  55  84 122 149 185 241 296 346
#     4  10  19  35  60  85 115 156 199 239 286 347
#
# _framework density 25.861505999999999
#
# number of rings (size 3 to 8) (size 9 to 14) (size 15 to 20)
#    0.000    2.250    0.000    3.375    0.000    3.000 
#    0.000   21.875    0.000    0.000    0.000    0.000 
#    0.000    0.000    0.000    0.000    0.000    0.000 
#
# Total GULP energy -89372.432507 kJ/mol
# GULP energy per Si atom -5585.777032 kJ/mol
# Density = 2.580264 g / cm^3
# Si number density = 25.861506 Si / 1000 Ang^3
#
#
#
# Elastic Constant Matrix: (Units=GPa)
#
#
# Indices 1 2 3 4 5 6 
#
# 1 182.2749 34.3349 32.7949 -21.8436 11.6793 -21.4083
# 2 34.3349 107.5738 24.3358 -12.0544 1.5837 -6.2497
# 3 32.7949 24.3358 29.4134 -22.7654 -2.6387 2.0549
# 4 -21.8436 -12.0544 -22.7654 40.7403 -4.9114 -4.5933
# 5 11.6793 1.5837 -2.6387 -4.9114 34.4941 -8.2844
# 6 -21.4083 -6.2497 2.0549 -4.5933 -8.2844 50.3344
#
#
#
# Elastic Compliance Matrix: (Units=1/GPa)
#
#
# Indices 1 2 3 4 5 6 
#
# 1 0.007693 -0.000107 -0.010211 -0.001615 -0.002877 0.003055
# 2 -0.000107 0.011938 -0.012973 -0.003832 -0.001730 0.001332
# 3 -0.010211 -0.012973 0.091411 0.043418 0.016505 -0.003007
# 4 -0.001615 -0.003832 0.043418 0.048617 0.011793 0.003442
# 5 -0.002877 -0.001730 0.016505 0.011793 0.034084 0.004574
# 6 0.003055 0.001332 -0.003007 0.003442 0.004574 0.022521
#
#
# Mechanical properties :
#
#
# Convention : Reuss Voigt Hill
#
# Bulk Modulus (GPa) = 15.51298 55.79925 35.65611
# Shear Modulus (GPa) = 17.58501 40.30019 28.94260
#
# Velocity S-wave (km/s) = 2.61045 3.95182 3.34898
# Velocity P-wave (km/s) = 3.88554 6.51503 5.36391
#
# Compressibility (1/GPa) = 0.06446216
#
# Stress axis : x y z
#
# Youngs Moduli (GPa) = 129.98813 83.76497 10.93957
#
# Poissons Ratio (x) = 0.00894 0.11170
# Poissons Ratio (y) = 0.01387 0.14192
# Poissons Ratio (z) = 1.32726 1.08667
#
# Static dielectric constant tensor:
#      x y z
#    x 2.096420 0.087650 -0.067230 
#    y 0.087650 2.183790 -0.091190 
#    z -0.067230 -0.091190 2.209630 
# 
# From -- ./inp_files/315371.got.cif
#   From: 2010.05.17/outbox.cif.g08.bks.cpg/sg2_158_cif.got.tgz:315371.got - 2010.06.03 11:33:40.
