data_PCOD9085058
_publ_section_title
;
Structure prediction by ZEFSAII (Michael W. Deem and Ramdas Pophale) SiO2 
 PCOD9085058
Probable space group: P -1
;
_chemical_formula_sum "Si O2"
_cell_formula_units_Z 15
_cell_length_a 18.032011
_cell_length_b 18.656549
_cell_length_c 10.814398
_cell_angle_alpha 160.956379
_cell_angle_beta 29.289834
_cell_angle_gamma 154.727736
_cell_volume 502.836967
_symmetry_space_group_name_H-M "P -1"
_symmetry_group_IT_number 2
_symmetry_cell_setting 'triclinic'
loop_
_space_group_symop_operation_xyz
x,y,z
-x,-y,-z
loop_
_atom_site_type_symbol
_atom_site_label
_atom_site_fract_x
_atom_site_fract_y
_atom_site_fract_z
Si Si1 0.411168 0.666639 0.945337
Si Si2 0.705544 0.590451 0.049622
Si Si3 0.164074 0.947694 0.657197
Si Si4 0.768675 0.038776 0.146099
Si Si5 0.003012 0.816379 0.440079
Si Si6 0.510677 0.828791 0.811937
Si Si7 0.895292 0.156487 0.904658
Si Si8 0.500000 0.500000 0.000000
O O1 0.500000 0.500000 0.500000
O O2 0.290270 0.521146 0.004321
O O3 0.572927 0.905634 0.165201
O O4 0.378511 0.741989 0.977879
O O5 0.526566 0.616025 0.359691
O O6 0.651285 0.442716 0.758728
O O7 0.864793 0.872749 0.257930
O O8 0.087196 0.767808 0.356486
O O9 0.199209 0.863634 0.602544
O O10 0.339488 0.210287 0.796239
O O11 0.000000 0.000000 0.000000
O O12 0.822377 0.817700 0.711573
O O13 0.879426 0.229770 0.185792
O O14 0.014504 0.676608 0.073581
O O15 0.698049 0.976422 0.848847
O O16 0.500000 0.000000 0.000000
O O17 0.000000 0.000000 0.500000
#
# Coordination Sequence:
#
# PCOD9085058 Si02
#       8
#     2   2   2   2   2   2   2   1
#     4   9  16  26  42  65  89 118 159 196 239 290
#     4   9  16  27  43  68  91 124 157 198 252 284
#     4   9  16  24  38  63  97 121 152 194 259 294
#     4   9  14  24  39  61  88 115 150 197 237 283
#     4   8  15  24  38  63  90 113 148 194 243 282
#     4   9  17  28  44  68  98 126 157 201 253 303
#     4   8  14  25  42  64  87 117 155 199 240 281
#     4  10  16  26  44  66 102 122 156 222 248 284
#
# _framework density 29.830742000000001
#
# number of rings (size 3 to 8) (size 9 to 14) (size 15 to 20)
#    0.000    3.200    1.333    0.800    0.000    0.000 
#    0.000    0.000    0.000    0.800    0.000  134.400 
#    0.000   35.733    0.000    0.000    0.000    0.000 
#
# Total GULP energy -83575.141751 kJ/mol
# GULP energy per Si atom -5571.676117 kJ/mol
# Density = 2.976285 g / cm^3
# Si number density = 29.830742 Si / 1000 Ang^3
#
#
#
# Elastic Constant Matrix: (Units=GPa)
#
#
# Indices 1 2 3 4 5 6 
#
# 1 218.6101 51.6506 38.3711 26.7425 -18.2417 -35.0806
# 2 51.6506 155.5911 42.7484 14.2338 1.1221 -26.7344
# 3 38.3711 42.7484 67.5475 6.1041 8.8039 -11.7711
# 4 26.7425 14.2338 6.1041 39.1062 -11.8432 5.2771
# 5 -18.2417 1.1221 8.8039 -11.8432 55.3445 7.7525
# 6 -35.0806 -26.7344 -11.7711 5.2771 7.7525 69.2849
#
#
#
# Elastic Compliance Matrix: (Units=1/GPa)
#
#
# Indices 1 2 3 4 5 6 
#
# 1 0.006103 -0.000586 -0.002502 -0.003518 0.001310 0.002560
# 2 -0.000586 0.008463 -0.004285 -0.002521 -0.000572 0.002497
# 3 -0.002502 -0.004285 0.019789 -0.001257 -0.004297 0.001018
# 4 -0.003518 -0.002521 -0.001257 0.031982 0.006799 -0.006164
# 5 0.001310 -0.000572 -0.004297 0.006799 0.021094 -0.003166
# 6 0.002560 0.002497 0.001018 -0.006164 -0.003166 0.017689
#
#
# Mechanical properties :
#
#
# Convention : Reuss Voigt Hill
#
# Bulk Modulus (GPa) = 51.00328 78.58764 64.79546
# Shear Modulus (GPa) = 39.55618 53.34569 46.45093
#
# Velocity S-wave (km/s) = 3.64541 4.23339 3.95035
# Velocity P-wave (km/s) = 5.90367 7.09205 6.52497
#
# Compressibility (1/GPa) = 0.01960658
#
# Stress axis : x y z
#
# Youngs Moduli (GPa) = 163.86701 118.16432 50.53288
#
# Poissons Ratio (x) = 0.06925 0.12646
# Poissons Ratio (y) = 0.09603 0.21656
# Poissons Ratio (z) = 0.41007 0.50639
#
# Static dielectric constant tensor:
#      x y z
#    x 2.110930 0.121270 -0.543470 
#    y 0.121270 2.375920 0.015810 
#    z -0.543470 0.015810 2.173690 
# 
# From -- ./inp_files/212241.got.cif
#   From: 2010.05.17/outbox.cif.g08.bks.cpg/sg2_107_cif.got.tgz:212241.got - 2010.06.03 11:33:40.
