data_PCOD9085327
_publ_section_title
;
Structure prediction by ZEFSAII (Michael W. Deem and Ramdas Pophale) SiO2 
 PCOD9085327
Probable space group: P -1
;
_chemical_formula_sum "Si O2"
_cell_formula_units_Z 16
_cell_length_a 21.917850
_cell_length_b 13.868403
_cell_length_c 9.205348
_cell_angle_alpha 92.610746
_cell_angle_beta 76.759745
_cell_angle_gamma 158.730328
_cell_volume 869.242119
_symmetry_space_group_name_H-M "P -1"
_symmetry_group_IT_number 2
_symmetry_cell_setting 'triclinic'
loop_
_space_group_symop_operation_xyz
x,y,z
-x,-y,-z
loop_
_atom_site_type_symbol
_atom_site_label
_atom_site_fract_x
_atom_site_fract_y
_atom_site_fract_z
Si Si1 0.815929 0.901745 0.234786
Si Si2 0.907911 0.327355 0.688331
Si Si3 0.144050 0.323700 0.850211
Si Si4 0.504356 0.711967 0.720297
Si Si5 0.162125 0.563533 0.754466
Si Si6 0.570970 0.878935 0.374994
Si Si7 0.865240 0.817497 0.424937
Si Si8 0.077902 0.727274 0.849254
O O1 0.613221 0.560488 0.257848
O O2 0.842723 0.891563 0.376528
O O3 0.841902 0.054035 0.240797
O O4 0.985398 0.112937 0.046075
O O5 0.000000 0.500000 0.500000
O O6 0.023825 0.401975 0.689158
O O7 0.952939 0.478307 0.790310
O O8 0.679170 0.970754 0.758378
O O9 0.333845 0.543997 0.823704
O O10 0.193807 0.496968 0.756077
O O11 0.065248 0.141458 0.750900
O O12 0.595589 0.874271 0.525252
O O13 0.364687 0.916701 0.652096
O O14 0.049980 0.434999 0.952032
O O15 0.348023 0.532950 0.438773
O O16 0.727716 0.050315 0.204946
O O17 0.000000 0.000000 0.500000
#
# Coordination Sequence:
#
# PCOD9085327 Si02
#       8
#     2   2   2   2   2   2   2   2
#     4   9  20  40  58  76 111 152 178 218 279 331
#     4  11  20  36  55  87 111 138 187 233 268 318
#     4   9  20  40  58  76 111 152 178 218 279 331
#     4  10  19  35  60  82 107 144 187 224 273 322
#     4  10  20  38  57  80 112 147 179 220 280 328
#     4   9  18  36  55  78 111 147 173 222 281 324
#     4  10  21  36  54  84 109 141 186 229 266 315
#     4  10  20  38  57  80 112 147 179 220 280 328
#
# _framework density 18.406838
#
# number of rings (size 3 to 8) (size 9 to 14) (size 15 to 20)
#    0.000    2.500    2.500    3.000    0.000    5.000 
#   13.500    2.500    0.000    0.000    0.000    0.000 
#    0.000    0.000    0.000    0.000    0.000    0.000 
#
# Total GULP energy -89150.694866 kJ/mol
# GULP energy per Si atom -5571.918429 kJ/mol
# Density = 1.836494 g / cm^3
# Si number density = 18.406838 Si / 1000 Ang^3
#
#
#
# Elastic Constant Matrix: (Units=GPa)
#
#
# Indices 1 2 3 4 5 6 
#
# 1 82.0063 54.0291 1.2249 -6.8487 26.6380 -14.6112
# 2 54.0291 133.9719 13.6060 -7.4455 24.8518 16.7061
# 3 1.2249 13.6060 34.0686 -8.6091 12.0672 -0.1714
# 4 -6.8487 -7.4455 -8.6091 22.1945 -9.0613 10.5692
# 5 26.6380 24.8518 12.0672 -9.0613 31.5101 -4.6511
# 6 -14.6112 16.7061 -0.1714 10.5692 -4.6511 28.8254
#
#
#
# Elastic Compliance Matrix: (Units=1/GPa)
#
#
# Indices 1 2 3 4 5 6 
#
# 1 0.029664 -0.013105 0.007709 -0.010618 -0.017235 0.023790
# 2 -0.013105 0.016135 -0.003607 0.008985 -0.000545 -0.019398
# 3 0.007709 -0.003607 0.038482 0.009639 -0.015612 0.000173
# 4 -0.010618 0.008985 0.009639 0.070240 0.013360 -0.034131
# 5 -0.017235 -0.000545 -0.015612 0.013360 0.055908 -0.004391
# 6 0.023790 -0.019398 0.000173 -0.034131 -0.004391 0.069800
#
#
# Mechanical properties :
#
#
# Convention : Reuss Voigt Hill
#
# Bulk Modulus (GPa) = 15.08892 43.08519 29.08706
# Shear Modulus (GPa) = 15.60899 28.58511 22.09705
#
# Velocity S-wave (km/s) = 2.91520 3.94504 3.46855
# Velocity P-wave (km/s) = 4.42114 6.64899 5.64604
#
# Compressibility (1/GPa) = 0.06627378
#
# Stress axis : x y z
#
# Youngs Moduli (GPa) = 33.71111 61.97670 25.98595
#
# Poissons Ratio (x) = 0.81223 -0.20032
# Poissons Ratio (y) = 0.44180 0.09373
# Poissons Ratio (z) = -0.25987 0.22355
#
# Static dielectric constant tensor:
#      x y z
#    x 1.673450 -0.018730 -0.002400 
#    y -0.018730 1.639430 -0.020610 
#    z -0.002400 -0.020610 1.653280 
# 
# From -- ./inp_files/354366.got.cif
#   From: 2010.05.17/outbox.cif.g08.bks.cpg/sg2_178_cif.got.tgz:354366.got - 2010.06.03 11:33:40.
