data_PCOD9085403
_publ_section_title
;
Structure prediction by ZEFSAII (Michael W. Deem and Ramdas Pophale) SiO2 
 PCOD9085403
Probable space group: P -1
;
_chemical_formula_sum "Si O2"
_cell_formula_units_Z 10
_cell_length_a 13.596446
_cell_length_b 7.401653
_cell_length_c 8.498943
_cell_angle_alpha 48.908055
_cell_angle_beta 44.696623
_cell_angle_gamma 46.501716
_cell_volume 412.054135
_symmetry_space_group_name_H-M "P -1"
_symmetry_group_IT_number 2
_symmetry_cell_setting 'triclinic'
loop_
_space_group_symop_operation_xyz
x,y,z
-x,-y,-z
loop_
_atom_site_type_symbol
_atom_site_label
_atom_site_fract_x
_atom_site_fract_y
_atom_site_fract_z
Si Si1 0.152640 0.235264 0.487169
Si Si2 0.326393 0.564411 0.215627
Si Si3 0.569812 0.636381 0.470697
Si Si4 0.251711 0.811813 0.861419
Si Si5 0.329461 0.206555 0.022430
O O1 0.278924 0.329571 0.359084
O O2 0.000000 0.500000 0.500000
O O3 0.141525 0.025813 0.742643
O O4 0.211593 0.135481 0.301220
O O5 0.325174 0.569068 0.402225
O O6 0.500000 0.500000 0.000000
O O7 0.222692 0.810520 0.081901
O O8 0.500000 0.500000 0.500000
O O9 0.417295 0.817585 0.635895
O O10 0.655218 0.778500 0.191727
O O11 0.278670 0.514243 0.952504
O O12 0.500000 0.000000 0.000000
#
# Coordination Sequence:
#
# PCOD9085403 Si02
#       5
#     2   2   2   2   2
#     4  11  23  39  60  89 125 164 198 245 309 364
#     4   9  20  37  58  90 118 156 207 248 296 363
#     4   9  17  34  58  88 115 150 202 258 293 346
#     4   9  19  36  59  88 121 155 200 253 298 358
#     4  10  19  35  60  88 116 158 203 248 296 358
#
# _framework density 24.268653
#
# number of rings (size 3 to 8) (size 9 to 14) (size 15 to 20)
#    0.000    2.400    2.000    1.200    0.000    6.400 
#    7.200    1.000    0.000    6.000    0.000    0.000 
#    0.000    0.000    0.000    0.000    0.000    0.000 
#
# Total GULP energy -55725.711300 kJ/mol
# GULP energy per Si atom -5572.571130 kJ/mol
# Density = 2.421342 g / cm^3
# Si number density = 24.268653 Si / 1000 Ang^3
#
#
#
# Elastic Constant Matrix: (Units=GPa)
#
#
# Indices 1 2 3 4 5 6 
#
# 1 48.6187 12.5710 45.6316 -20.6149 21.2229 0.6294
# 2 12.5710 119.1451 56.0475 -39.9054 21.0870 -25.7812
# 3 45.6316 56.0475 215.5260 -30.9190 73.4088 -22.2153
# 4 -20.6149 -39.9054 -30.9190 48.3449 -10.8834 4.7265
# 5 21.2229 21.0870 73.4088 -10.8834 65.6375 -17.5178
# 6 0.6294 -25.7812 -22.2153 4.7265 -17.5178 34.2231
#
#
#
# Elastic Compliance Matrix: (Units=1/GPa)
#
#
# Indices 1 2 3 4 5 6 
#
# 1 0.031706 0.002379 -0.004211 0.012057 -0.005975 -0.006248
# 2 0.002379 0.014506 -0.002207 0.011000 0.001135 0.008513
# 3 -0.004211 -0.002207 0.008761 0.000250 -0.007645 0.000154
# 4 0.012057 0.011000 0.000250 0.034511 -0.001234 0.002829
# 5 -0.005975 0.001135 -0.007645 -0.001234 0.027944 0.010476
# 6 -0.006248 0.008513 0.000154 0.002829 0.010476 0.040820
#
#
# Mechanical properties :
#
#
# Convention : Reuss Voigt Hill
#
# Bulk Modulus (GPa) = 21.32395 67.97668 44.65031
# Shear Modulus (GPa) = 27.47909 47.57708 37.52808
#
# Velocity S-wave (km/s) = 3.36860 4.43248 3.93664
# Velocity P-wave (km/s) = 4.89241 7.36660 6.25309
#
# Compressibility (1/GPa) = 0.04689564
#
# Stress axis : x y z
#
# Youngs Moduli (GPa) = 31.53934 68.93881 114.14328
#
# Poissons Ratio (x) = -0.16402 0.48065
# Poissons Ratio (y) = -0.07504 0.25191
# Poissons Ratio (z) = 0.13281 0.15214
#
# Static dielectric constant tensor:
#      x y z
#    x 2.070990 0.075440 0.053680 
#    y 0.075440 2.000260 -0.011420 
#    z 0.053680 -0.011420 2.055790 
# 
# From -- ./inp_files/48181.got.cif
#   From: 2010.05.17/outbox.cif.g08.bks.cpg/sg2_25_cif.got.tgz:48181.got - 2010.06.03 11:33:40.
