data_PCOD9085986
_publ_section_title
;
Structure prediction by ZEFSAII (Michael W. Deem and Ramdas Pophale) SiO2 
 PCOD9085986
Probable space group: P -1
;
_chemical_formula_sum "Si O2"
_cell_formula_units_Z 16
_cell_length_a 9.679342
_cell_length_b 15.913941
_cell_length_c 9.035833
_cell_angle_alpha 109.546812
_cell_angle_beta 116.115761
_cell_angle_gamma 121.758604
_cell_volume 712.734587
_symmetry_space_group_name_H-M "P -1"
_symmetry_group_IT_number 2
_symmetry_cell_setting 'triclinic'
loop_
_space_group_symop_operation_xyz
x,y,z
-x,-y,-z
loop_
_atom_site_type_symbol
_atom_site_label
_atom_site_fract_x
_atom_site_fract_y
_atom_site_fract_z
Si Si1 0.408023 0.773014 0.593423
Si Si2 0.273255 0.115831 0.767515
Si Si3 0.875380 0.572616 0.205993
Si Si4 0.248579 0.347172 0.392722
Si Si5 0.277811 0.684722 0.144717
Si Si6 0.728998 0.039459 0.091501
Si Si7 0.596819 0.388776 0.267856
Si Si8 0.792440 0.589890 0.879124
O O1 0.403086 0.745862 0.402554
O O2 0.350448 0.666154 0.619886
O O3 0.166200 0.726655 0.467173
O O4 0.650585 0.940207 0.857562
O O5 0.500131 0.206235 0.808790
O O6 0.257305 0.020986 0.802250
O O7 0.345982 0.232431 0.977917
O O8 0.000000 0.000000 0.500000
O O9 0.750663 0.485179 0.247415
O O10 0.850181 0.469977 0.037575
O O11 0.779687 0.600605 0.057211
O O12 0.323497 0.484864 0.534341
O O13 0.507580 0.418681 0.611450
O O14 0.189985 0.318346 0.172154
O O15 0.000023 0.207630 0.283075
O O16 0.051201 0.653584 0.005491
O O17 0.500000 0.000000 0.000000
#
# Coordination Sequence:
#
# PCOD9085986 Si02
#       8
#     2   2   2   2   2   2   2   2
#     4  10  20  39  64  99 122 169 217 261 321 384
#     4  10  24  46  66  96 129 171 213 271 327 388
#     4  10  19  35  66  92 124 162 222 265 309 373
#     4  11  23  41  63  92 133 166 216 262 318 386
#     4  10  20  40  69  91 127 165 220 266 315 384
#     4  11  24  43  65  94 137 174 211 268 330 379
#     4  10  21  39  65  93 125 170 218 257 316 384
#     4  10  22  39  60  92 129 169 209 264 319 370
#
# _framework density 22.448748999999999
#
# number of rings (size 3 to 8) (size 9 to 14) (size 15 to 20)
#    0.000    1.750    0.000    4.875    3.500    2.500 
#    9.000    4.375    0.000    0.000    0.000    0.000 
#    0.000    0.000    0.000    0.000    0.000    0.000 
#
# Total GULP energy -89073.972079 kJ/mol
# GULP energy per Si atom -5567.123255 kJ/mol
# Density = 2.239765 g / cm^3
# Si number density = 22.448749 Si / 1000 Ang^3
#
#
#
# Elastic Constant Matrix: (Units=GPa)
#
#
# Indices 1 2 3 4 5 6 
#
# 1 57.1600 51.5994 52.7172 1.4958 8.9551 3.9307
# 2 51.5994 125.8241 67.1606 6.5279 5.0604 19.8426
# 3 52.7172 67.1606 144.0859 -12.2956 17.4888 4.0094
# 4 1.4958 6.5279 -12.2956 42.5366 12.5484 2.6267
# 5 8.9551 5.0604 17.4888 12.5484 32.3786 1.1936
# 6 3.9307 19.8426 4.0094 2.6267 1.1936 33.6521
#
#
#
# Elastic Compliance Matrix: (Units=1/GPa)
#
#
# Indices 1 2 3 4 5 6 
#
# 1 0.033939 -0.010316 -0.007336 -0.000868 -0.003594 0.003187
# 2 -0.010316 0.015611 -0.004205 -0.004140 0.004560 -0.007337
# 3 -0.007336 -0.004205 0.012944 0.006591 -0.006916 0.001525
# 4 -0.000868 -0.004140 0.006591 0.030343 -0.014429 -0.000099
# 5 -0.003594 0.004560 -0.006916 -0.014429 0.040558 -0.001757
# 6 0.003187 -0.007337 0.001525 -0.000099 -0.001757 0.033558
#
#
# Mechanical properties :
#
#
# Convention : Reuss Voigt Hill
#
# Bulk Modulus (GPa) = 53.24501 74.44717 63.84609
# Shear Modulus (GPa) = 23.04946 32.08632 27.56789
#
# Velocity S-wave (km/s) = 3.20778 3.78473 3.50814
# Velocity P-wave (km/s) = 6.12289 7.23423 6.70164
#
# Compressibility (1/GPa) = 0.01878110
#
# Stress axis : x y z
#
# Youngs Moduli (GPa) = 29.46483 64.05769 77.25870
#
# Poissons Ratio (x) = 0.66080 0.56674
# Poissons Ratio (y) = 0.30395 0.32486
# Poissons Ratio (z) = 0.21614 0.26935
#
# Static dielectric constant tensor:
#      x y z
#    x 1.943710 0.008940 -0.034990 
#    y 0.008940 1.854380 -0.080240 
#    z -0.034990 -0.080240 1.863680 
# 
# From -- ./inp_files/278035.got.cif
#   From: 2010.05.17/outbox.cif.g08.bks.cpg/sg2_140_cif.got.tgz:278035.got - 2010.06.03 11:33:40.
