data_PCOD9085384
_publ_section_title
;
Structure prediction by ZEFSAII (Michael W. Deem and Ramdas Pophale) SiO2 
 PCOD9085384
Probable space group: P -1
;
_chemical_formula_sum "Si O2"
_cell_formula_units_Z 16
_cell_length_a 10.109496
_cell_length_b 13.689149
_cell_length_c 7.097439
_cell_angle_alpha 107.252516
_cell_angle_beta 58.226787
_cell_angle_gamma 85.633592
_cell_volume 764.111108
_symmetry_space_group_name_H-M "P -1"
_symmetry_group_IT_number 2
_symmetry_cell_setting 'triclinic'
loop_
_space_group_symop_operation_xyz
x,y,z
-x,-y,-z
loop_
_atom_site_type_symbol
_atom_site_label
_atom_site_fract_x
_atom_site_fract_y
_atom_site_fract_z
Si Si1 0.674836 0.888884 0.936412
Si Si2 0.552784 0.573886 0.223993
Si Si3 0.821399 0.001941 0.195031
Si Si4 0.267075 0.158038 0.552372
Si Si5 0.540004 0.183316 0.656499
Si Si6 0.744264 0.482214 0.661328
Si Si7 0.143596 0.390819 0.850803
Si Si8 0.097048 0.339872 0.293291
O O1 0.721480 0.978403 0.075717
O O2 0.524048 0.858915 0.129979
O O3 0.334948 0.099519 0.273516
O O4 0.824967 0.782652 0.793806
O O5 0.480758 0.691316 0.252717
O O6 0.398733 0.534801 0.370554
O O7 0.683309 0.585377 0.285794
O O8 0.661268 0.499562 0.939438
O O9 0.823098 0.910476 0.295574
O O10 0.717715 0.112721 0.427485
O O11 0.000000 0.000000 0.000000
O O12 0.415761 0.166762 0.578265
O O13 0.155286 0.280007 0.671533
O O14 0.811564 0.583407 0.625519
O O15 0.905691 0.384188 0.491619
O O16 0.130472 0.357610 0.059214
O O17 0.000000 0.500000 0.000000
#
# Coordination Sequence:
#
# PCOD9085384 Si02
#       8
#     2   2   2   2   2   2   2   2
#     4  11  21  40  65  90 121 163 208 256 310 372
#     4   9  18  35  54  88 124 156 207 252 306 365
#     4  11  25  43  66  90 124 161 205 265 321 362
#     4  10  22  40  65  92 122 160 215 253 301 382
#     4  10  21  41  64  89 121 164 207 258 314 366
#     4   9  18  31  58  84 118 157 212 242 302 367
#     4  10  20  35  58  88 126 166 204 249 302 371
#     4  10  19  35  60  87 119 168 209 247 309 369
#
# _framework density 20.939363
#
# number of rings (size 3 to 8) (size 9 to 14) (size 15 to 20)
#    0.000    2.000    5.000    1.500    7.000    2.500 
#    0.000    0.625    2.750    0.000    0.000    0.000 
#    0.000    0.000    0.000    0.000    0.000    0.000 
#
# Total GULP energy -89328.872493 kJ/mol
# GULP energy per Si atom -5583.054531 kJ/mol
# Density = 2.089170 g / cm^3
# Si number density = 20.939363 Si / 1000 Ang^3
#
#
#
# Elastic Constant Matrix: (Units=GPa)
#
#
# Indices 1 2 3 4 5 6 
#
# 1 51.4602 25.2098 30.0673 -14.2910 6.8489 1.3686
# 2 25.2098 58.7884 43.2701 -10.1224 -0.3710 -6.2180
# 3 30.0673 43.2701 156.0059 -3.3010 -14.1674 7.0526
# 4 -14.2910 -10.1224 -3.3010 39.4344 -4.1626 -3.3311
# 5 6.8489 -0.3710 -14.1674 -4.1626 42.1958 -6.7054
# 6 1.3686 -6.2180 7.0526 -3.3311 -6.7054 25.0795
#
#
#
# Elastic Compliance Matrix: (Units=1/GPa)
#
#
# Indices 1 2 3 4 5 6 
#
# 1 0.028496 -0.009118 -0.003173 0.006825 -0.005658 -0.003530
# 2 -0.009118 0.027080 -0.005958 0.004163 0.001701 0.009895
# 3 -0.003173 -0.005958 0.009037 -0.001914 0.002775 -0.003358
# 4 0.006825 0.004163 -0.001914 0.029440 0.002091 0.005667
# 5 -0.005658 0.001701 0.002775 0.002091 0.026952 0.007434
# 6 -0.003530 0.009895 -0.003358 0.005667 0.007434 0.046204
#
#
# Mechanical properties :
#
#
# Convention : Reuss Voigt Hill
#
# Bulk Modulus (GPa) = 35.56915 51.48321 43.52618
# Shear Modulus (GPa) = 23.46556 32.52242 27.99399
#
# Velocity S-wave (km/s) = 3.35123 3.94530 3.66034
# Velocity P-wave (km/s) = 5.65667 6.73751 6.22061
#
# Compressibility (1/GPa) = 0.02811425
#
# Stress axis : x y z
#
# Youngs Moduli (GPa) = 35.09317 36.92773 110.65103
#
# Poissons Ratio (x) = 0.33671 0.35108
# Poissons Ratio (y) = 0.31998 0.65930
# Poissons Ratio (z) = 0.11135 0.22003
#
# Static dielectric constant tensor:
#      x y z
#    x 1.810200 0.002310 0.026830 
#    y 0.002310 1.757000 0.019200 
#    z 0.026830 0.019200 1.770580 
# 
# From -- ./inp_files/394232.got.cif
#   From: 2010.05.17/outbox.cif.g08.bks.cpg/sg2_198_cif.got.tgz:394232.got - 2010.06.03 11:33:40.
