data_PCOD9085453
_publ_section_title
;
Structure prediction by ZEFSAII (Michael W. Deem and Ramdas Pophale) SiO2 
 PCOD9085453
Probable space group: P -1
;
_chemical_formula_sum "Si O2"
_cell_formula_units_Z 14
_cell_length_a 11.998875
_cell_length_b 21.197573
_cell_length_c 13.624695
_cell_angle_alpha 157.902638
_cell_angle_beta 47.112059
_cell_angle_gamma 145.370557
_cell_volume 684.370768
_symmetry_space_group_name_H-M "P -1"
_symmetry_group_IT_number 2
_symmetry_cell_setting 'triclinic'
loop_
_space_group_symop_operation_xyz
x,y,z
-x,-y,-z
loop_
_atom_site_type_symbol
_atom_site_label
_atom_site_fract_x
_atom_site_fract_y
_atom_site_fract_z
Si Si1 0.147146 0.322998 0.825106
Si Si2 0.438915 0.488595 0.210750
Si Si3 0.740847 0.400386 0.656045
Si Si4 0.684178 0.932506 0.444083
Si Si5 0.341382 0.337981 0.273588
Si Si6 0.803066 0.301708 0.763692
Si Si7 0.100997 0.808583 0.655308
O O1 0.319478 0.311393 0.686550
O O2 0.141096 0.379888 0.023113
O O3 0.258381 0.564861 0.049324
O O4 0.915346 0.115816 0.621120
O O5 0.301355 0.544643 0.343069
O O6 0.438610 0.450143 0.270344
O O7 0.335509 0.253765 0.874324
O O8 0.507748 0.202841 0.559928
O O9 0.852457 0.306582 0.462999
O O10 0.661551 0.074758 0.589661
O O11 0.500000 0.500000 0.500000
O O12 0.130383 0.289170 0.336728
O O13 0.267488 0.088320 0.966802
O O14 0.875512 0.252168 0.554558
O O15 0.000000 0.500000 0.000000
#
# Coordination Sequence:
#
# PCOD9085453 Si02
#       7
#     2   2   2   2   2   2   2
#     4   9  20  33  59  95 125 154 198 241 306 374
#     4  11  23  38  59  90 123 163 201 245 300 361
#     4  10  23  38  59  92 126 156 198 243 308 370
#     4  10  19  35  60  91 129 159 187 250 308 360
#     4  11  26  42  66  84 116 166 213 256 290 348
#     4   9  18  32  62  93 120 149 194 248 307 355
#     4  10  23  44  60  89 121 158 207 254 298 355
#
# _framework density 20.456748999999999
#
# number of rings (size 3 to 8) (size 9 to 14) (size 15 to 20)
#    0.000    2.000    1.429    1.714    6.000    6.857 
#    0.000    0.714    0.000    0.000    0.000    0.000 
#    0.000    0.000    0.000    0.000    0.000    0.000 
#
# Total GULP energy -78185.014385 kJ/mol
# GULP energy per Si atom -5584.643885 kJ/mol
# Density = 2.041019 g / cm^3
# Si number density = 20.456749 Si / 1000 Ang^3
#
#
#
# Elastic Constant Matrix: (Units=GPa)
#
#
# Indices 1 2 3 4 5 6 
#
# 1 124.0077 9.4236 49.5834 -2.7176 -4.0025 15.4084
# 2 9.4236 38.5311 33.2412 0.0602 3.4721 7.1355
# 3 49.5834 33.2412 94.7009 2.8945 9.2772 15.4950
# 4 -2.7176 0.0602 2.8945 27.4720 9.1281 -1.0300
# 5 -4.0025 3.4721 9.2772 9.1281 31.9150 5.7643
# 6 15.4084 7.1355 15.4950 -1.0300 5.7643 26.1479
#
#
#
# Elastic Compliance Matrix: (Units=1/GPa)
#
#
# Indices 1 2 3 4 5 6 
#
# 1 0.011160 0.003575 -0.006759 0.000439 0.003632 -0.004330
# 2 0.003575 0.038580 -0.014898 0.001393 0.000897 -0.003949
# 3 -0.006759 -0.014898 0.020290 -0.001520 -0.004125 -0.003126
# 4 0.000439 0.001393 -0.001520 0.040808 -0.012148 0.004547
# 5 0.003632 0.000897 -0.004125 -0.012148 0.037951 -0.008785
# 6 -0.004330 -0.003949 -0.003126 0.004547 -0.008785 0.045841
#
#
# Mechanical properties :
#
#
# Convention : Reuss Voigt Hill
#
# Bulk Modulus (GPa) = 29.52805 49.08179 39.30492
# Shear Modulus (GPa) = 20.65421 28.10642 24.38031
#
# Velocity S-wave (km/s) = 3.18095 3.71070 3.45599
# Velocity P-wave (km/s) = 5.28744 6.51184 5.93132
#
# Compressibility (1/GPa) = 0.03386610
#
# Stress axis : x y z
#
# Youngs Moduli (GPa) = 89.60943 25.92024 49.28604
#
# Poissons Ratio (x) = -0.09267 0.33311
# Poissons Ratio (y) = -0.32038 0.73428
# Poissons Ratio (z) = 0.60564 0.38617
#
# Static dielectric constant tensor:
#      x y z
#    x 1.757790 -0.011140 -0.031950 
#    y -0.011140 1.708140 0.016740 
#    z -0.031950 0.016740 1.723400 
# 
# From -- ./inp_files/450280.got.cif
#   From: 2010.05.17/outbox.cif.g08.bks.cpg/sg2_226_cif.got.tgz:450280.got - 2010.06.03 11:33:40.
