data_PCOD9085640
_publ_section_title
;
Structure prediction by ZEFSAII (Michael W. Deem and Ramdas Pophale) SiO2 
 PCOD9085640
Probable space group: P -1
;
_chemical_formula_sum "Si O2"
_cell_formula_units_Z 16
_cell_length_a 9.153804
_cell_length_b 15.230544
_cell_length_c 5.411235
_cell_angle_alpha 112.143089
_cell_angle_beta 71.549452
_cell_angle_gamma 110.258064
_cell_volume 640.363393
_symmetry_space_group_name_H-M "P -1"
_symmetry_group_IT_number 2
_symmetry_cell_setting 'triclinic'
loop_
_space_group_symop_operation_xyz
x,y,z
-x,-y,-z
loop_
_atom_site_type_symbol
_atom_site_label
_atom_site_fract_x
_atom_site_fract_y
_atom_site_fract_z
Si Si1 0.526052 0.796596 0.888535
Si Si2 0.158819 0.588629 0.965029
Si Si3 0.806494 0.479056 0.624828
Si Si4 0.967098 0.248200 0.630433
Si Si5 0.644776 0.172408 0.477046
Si Si6 0.239541 0.318331 0.209966
Si Si7 0.752843 0.990761 0.119424
Si Si8 0.062552 0.119042 0.808891
O O1 0.430958 0.788174 0.675588
O O2 0.600653 0.706305 0.810792
O O3 0.431939 0.814177 0.203630
O O4 0.669860 0.895829 0.902241
O O5 0.243024 0.590404 0.186674
O O6 0.102307 0.687801 0.068454
O O7 0.253392 0.566601 0.656196
O O8 0.000000 0.500000 0.000000
O O9 0.754351 0.578359 0.807349
O O10 0.000000 0.500000 0.500000
O O11 0.832683 0.220763 0.464797
O O12 0.006799 0.151437 0.612115
O O13 0.126287 0.316306 0.504742
O O14 0.636030 0.058701 0.307955
O O15 0.148674 0.224489 0.996252
O O16 0.905424 0.058051 0.968782
O O17 0.812461 0.945886 0.287192
#
# Coordination Sequence:
#
# PCOD9085640 Si02
#       8
#     2   2   2   2   2   2   2   2
#     4  11  28  45  66  93 135 181 221 263 329 396
#     4  10  20  35  61 102 125 161 203 272 318 390
#     4  10  19  35  62 100 129 157 208 266 325 384
#     4  12  24  39  73  95 135 165 224 276 331 380
#     4  12  26  47  64  95 132 184 218 267 327 398
#     4  11  23  41  68 100 131 171 218 279 324 386
#     4  10  22  44  68  92 134 172 230 271 330 382
#     4  10  22  40  63 108 126 165 221 297 324 366
#
# _framework density 24.985813
#
# number of rings (size 3 to 8) (size 9 to 14) (size 15 to 20)
#    0.000    1.250    3.750    3.000    3.500    1.500 
#    2.250    0.000    0.000    4.500    0.000    0.000 
#    0.000    0.000    0.000    0.000    0.000    0.000 
#
# Total GULP energy -89557.256418 kJ/mol
# GULP energy per Si atom -5597.328526 kJ/mol
# Density = 2.492894 g / cm^3
# Si number density = 24.985813 Si / 1000 Ang^3
#
#
#
# Elastic Constant Matrix: (Units=GPa)
#
#
# Indices 1 2 3 4 5 6 
#
# 1 114.5680 40.6860 29.0121 -9.3127 20.3890 -31.1808
# 2 40.6860 99.7346 8.8990 -3.2822 11.3693 -25.5339
# 3 29.0121 8.8990 93.7128 -16.7068 22.0788 -11.5282
# 4 -9.3127 -3.2822 -16.7068 39.1375 -10.2225 5.1739
# 5 20.3890 11.3693 22.0788 -10.2225 32.5188 -2.1648
# 6 -31.1808 -25.5339 -11.5282 5.1739 -2.1648 44.3846
#
#
#
# Elastic Compliance Matrix: (Units=1/GPa)
#
#
# Indices 1 2 3 4 5 6 
#
# 1 0.012976 -0.002751 -0.001610 -0.000225 -0.005695 0.006864
# 2 -0.002751 0.012858 0.000963 -0.000771 -0.003291 0.005644
# 3 -0.001610 0.000963 0.013694 0.003306 -0.007437 0.002231
# 4 -0.000225 -0.000771 0.003306 0.029072 0.007120 -0.002785
# 5 -0.005695 -0.003291 -0.007437 0.007120 0.042321 -0.006591
# 6 0.006864 0.005644 0.002231 -0.002785 -0.006591 0.031182
#
#
# Mechanical properties :
#
#
# Convention : Reuss Voigt Hill
#
# Bulk Modulus (GPa) = 30.55162 51.68994 41.12078
# Shear Modulus (GPa) = 31.28731 38.50275 34.89503
#
# Velocity S-wave (km/s) = 3.54249 3.92980 3.74116
# Velocity P-wave (km/s) = 5.38390 6.42835 5.92917
#
# Compressibility (1/GPa) = 0.03273149
#
# Stress axis : x y z
#
# Youngs Moduli (GPa) = 77.06346 77.77523 73.02517
#
# Poissons Ratio (x) = 0.21395 0.11758
# Poissons Ratio (y) = 0.21199 -0.07031
# Poissons Ratio (z) = 0.12408 -0.07488
#
# Static dielectric constant tensor:
#      x y z
#    x 2.045660 -0.012420 0.096470 
#    y -0.012420 1.984870 -0.007790 
#    z 0.096470 -0.007790 2.068340 
# 
# From -- ./inp_files/39782.got.cif
#   From: 2010.05.17/outbox.cif.g08.bks.cpg/sg2_20_cif.got.tgz:39782.got - 2010.06.03 11:33:40.
