data_PCOD9085744
_publ_section_title
;
Structure prediction by ZEFSAII (Michael W. Deem and Ramdas Pophale) SiO2 
 PCOD9085744
Probable space group: P -1
;
_chemical_formula_sum "Si O2"
_cell_formula_units_Z 16
_cell_length_a 11.514921
_cell_length_b 18.467028
_cell_length_c 18.192013
_cell_angle_alpha 151.515475
_cell_angle_beta 28.790905
_cell_angle_gamma 155.070325
_cell_volume 714.540733
_symmetry_space_group_name_H-M "P -1"
_symmetry_group_IT_number 2
_symmetry_cell_setting 'triclinic'
loop_
_space_group_symop_operation_xyz
x,y,z
-x,-y,-z
loop_
_atom_site_type_symbol
_atom_site_label
_atom_site_fract_x
_atom_site_fract_y
_atom_site_fract_z
Si Si1 0.207400 0.312870 0.026693
Si Si2 0.243826 0.035583 0.671430
Si Si3 0.220804 0.597748 0.688307
Si Si4 0.084815 0.315212 0.384577
Si Si5 0.258792 0.218882 0.537294
Si Si6 0.544049 0.851158 0.491265
Si Si7 0.883897 0.295245 0.737231
Si Si8 0.271609 0.226869 0.062804
O O1 0.192390 0.321356 0.129632
O O2 0.923313 0.289667 0.129132
O O3 0.500000 0.500000 0.000000
O O4 0.249176 0.152733 0.840370
O O5 0.289452 0.148446 0.673407
O O6 0.500000 0.000000 0.500000
O O7 0.949378 0.828334 0.662080
O O8 0.569787 0.742927 0.601599
O O9 0.118803 0.472115 0.558313
O O10 0.081604 0.451579 0.703516
O O11 0.789232 0.234523 0.426925
O O12 0.291657 0.313369 0.207788
O O13 0.452069 0.257195 0.537570
O O14 0.107208 0.325637 0.705533
O O15 0.000000 0.000000 0.500000
O O16 0.724783 0.076965 0.605692
O O17 0.598746 0.284670 0.912317
O O18 0.000000 0.000000 0.000000
#
# Coordination Sequence:
#
# PCOD9085744 Si02
#       8
#     2   2   2   2   2   2   2   2
#     4  12  23  36  62 103 136 168 213 276 336 393
#     4  10  19  35  62  94 135 172 206 268 341 392
#     4  12  25  43  67 101 133 171 227 278 333 394
#     4  11  22  37  69 101 134 168 212 280 342 386
#     4  10  25  43  67  92 128 185 231 270 318 403
#     4  10  19  38  67  97 129 172 222 265 332 394
#     4  11  22  43  68  91 136 181 221 263 326 404
#     4  12  22  38  65 101 137 173 214 271 337 399
#
# _framework density 22.392005000000001
#
# number of rings (size 3 to 8) (size 9 to 14) (size 15 to 20)
#    0.000    1.000    5.000    3.375    1.750    3.000 
#    0.000    0.625    2.750    2.250    0.000    0.000 
#    0.000    0.000    0.000    0.000    0.000    0.000 
#
# Total GULP energy -89142.248208 kJ/mol
# GULP energy per Si atom -5571.390513 kJ/mol
# Density = 2.234104 g / cm^3
# Si number density = 22.392005 Si / 1000 Ang^3
#
#
#
# Elastic Constant Matrix: (Units=GPa)
#
#
# Indices 1 2 3 4 5 6 
#
# 1 90.1405 41.4584 30.5072 -16.8391 -11.5051 -41.5042
# 2 41.4584 108.6220 32.1756 -21.8167 -4.3676 -24.1453
# 3 30.5072 32.1756 96.2878 -12.3079 -1.2242 -11.7381
# 4 -16.8391 -21.8167 -12.3079 33.3072 -2.7836 8.6236
# 5 -11.5051 -4.3676 -1.2242 -2.7836 33.9116 -0.3518
# 6 -41.5042 -24.1453 -11.7381 8.6236 -0.3518 38.0191
#
#
#
# Elastic Compliance Matrix: (Units=1/GPa)
#
#
# Indices 1 2 3 4 5 6 
#
# 1 0.028090 -0.002066 -0.004135 0.005151 0.009818 0.026999
# 2 -0.002066 0.012724 -0.002406 0.005518 0.001344 0.003844
# 3 -0.004135 -0.002406 0.012359 0.001468 -0.001173 -0.002570
# 4 0.005151 0.005518 0.001468 0.036923 0.005555 0.001257
# 5 0.009818 0.001344 -0.001173 0.005555 0.033512 0.010259
# 6 0.026999 0.003844 -0.002570 0.001257 0.010259 0.057234
#
#
# Mechanical properties :
#
#
# Convention : Reuss Voigt Hill
#
# Bulk Modulus (GPa) = 27.80945 55.92584 41.86764
# Shear Modulus (GPa) = 23.80465 33.77486 28.78976
#
# Velocity S-wave (km/s) = 3.26404 3.88795 3.58958
# Velocity P-wave (km/s) = 5.16252 6.72198 5.99319
#
# Compressibility (1/GPa) = 0.03595900
#
# Stress axis : x y z
#
# Youngs Moduli (GPa) = 35.60005 78.59010 80.91170
#
# Poissons Ratio (x) = 0.16234 0.33457
# Poissons Ratio (y) = 0.07354 0.19471
# Poissons Ratio (z) = 0.14721 0.18912
#
# Static dielectric constant tensor:
#      x y z
#    x 1.883900 0.083750 0.011960 
#    y 0.083750 1.839080 -0.096370 
#    z 0.011960 -0.096370 1.806480 
# 
# From -- ./inp_files/570274.got.cif
#   From: 2010.05.17/outbox.cif.g08.bks.cpg/sg2_286_cif.got.tgz:570274.got - 2010.06.03 11:33:40.
