data_PCOD9085156
_publ_section_title
;
Structure prediction by ZEFSAII (Michael W. Deem and Ramdas Pophale) SiO2 
 PCOD9085156
Probable space group: P -1
;
_chemical_formula_sum "Si O2"
_cell_formula_units_Z 14
_cell_length_a 16.808606
_cell_length_b 29.560646
_cell_length_c 30.788150
_cell_angle_alpha 170.447323
_cell_angle_beta 15.860532
_cell_angle_gamma 165.014343
_cell_volume 640.741456
_symmetry_space_group_name_H-M "P -1"
_symmetry_group_IT_number 2
_symmetry_cell_setting 'triclinic'
loop_
_space_group_symop_operation_xyz
x,y,z
-x,-y,-z
loop_
_atom_site_type_symbol
_atom_site_label
_atom_site_fract_x
_atom_site_fract_y
_atom_site_fract_z
Si Si1 0.957578 0.963201 0.935966
Si Si2 0.655154 0.354761 0.246404
Si Si3 0.766146 0.244551 0.911733
Si Si4 0.924770 0.402080 0.545447
Si Si5 0.873286 0.784564 0.084430
Si Si6 0.647225 0.591199 0.378093
Si Si7 0.197874 0.669635 0.367006
O O1 0.094512 0.761635 0.645026
O O2 0.586140 0.846088 0.008740
O O3 0.123426 0.296085 0.147992
O O4 0.000000 0.000000 0.000000
O O5 0.500000 0.500000 0.500000
O O6 0.668638 0.505258 0.335196
O O7 0.010854 0.398129 0.115410
O O8 0.500000 0.000000 0.000000
O O9 0.808671 0.936453 0.606306
O O10 0.780493 0.397626 0.095374
O O11 0.000000 0.500000 0.000000
O O12 0.280135 0.489343 0.460115
O O13 0.714162 0.244764 0.548174
O O14 0.510655 0.735389 0.236769
O O15 0.007748 0.139001 0.355282
O O16 0.964508 0.678682 0.889918
#
# Coordination Sequence:
#
# PCOD9085156 Si02
#       7
#     2   2   2   2   2   2   2
#     4  10  21  37  59  86 115 143 199 253 301 368
#     4  12  23  37  60  90 128 161 200 251 305 352
#     4  10  21  40  63  83 118 162 197 250 316 365
#     4  10  19  35  59  83 113 151 196 241 300 359
#     4  10  21  36  57  83 122 156 197 243 287 358
#     4  10  21  36  59  90 117 156 206 244 294 385
#     4  10  20  37  59  83 115 161 199 238 297 351
#
# _framework density 21.849685999999998
#
# number of rings (size 3 to 8) (size 9 to 14) (size 15 to 20)
#    0.000    1.714    0.000    5.143    0.000    2.286 
#    2.571    0.000    0.000    0.000    0.000    0.000 
#    0.000    0.000    0.000    0.000    0.000    0.000 
#
# Total GULP energy -77986.660289 kJ/mol
# GULP energy per Si atom -5570.475735 kJ/mol
# Density = 2.179995 g / cm^3
# Si number density = 21.849686 Si / 1000 Ang^3
#
#
#
# Elastic Constant Matrix: (Units=GPa)
#
#
# Indices 1 2 3 4 5 6 
#
# 1 139.7140 27.0664 45.5506 7.5167 20.2592 -20.7847
# 2 27.0664 39.6502 26.9511 11.2818 1.2105 -16.4193
# 3 45.5506 26.9511 169.5939 16.6174 21.7970 0.3567
# 4 7.5167 11.2818 16.6174 23.0978 -2.8530 -2.0435
# 5 20.2592 1.2105 21.7970 -2.8530 41.6787 -2.7615
# 6 -20.7847 -16.4193 0.3567 -2.0435 -2.7615 23.8902
#
#
#
# Elastic Compliance Matrix: (Units=1/GPa)
#
#
# Indices 1 2 3 4 5 6 
#
# 1 0.009657 -0.002618 -0.001712 -0.000497 -0.003346 0.006199
# 2 -0.002618 0.047423 -0.005938 -0.014936 0.003938 0.029582
# 3 -0.001712 -0.005938 0.008158 -0.003466 -0.003926 -0.006443
# 4 -0.000497 -0.014936 -0.003466 0.053482 0.005791 -0.005402
# 5 -0.003346 0.003938 -0.003926 0.005791 0.028194 0.003609
# 6 0.006199 0.029582 -0.006443 -0.005402 0.003609 0.067634
#
#
# Mechanical properties :
#
#
# Convention : Reuss Voigt Hill
#
# Bulk Modulus (GPa) = 22.37038 60.89935 41.63487
# Shear Modulus (GPa) = 20.00126 34.35933 27.18029
#
# Velocity S-wave (km/s) = 3.02884 3.96982 3.53082
# Velocity P-wave (km/s) = 4.74262 6.99608 5.97652
#
# Compressibility (1/GPa) = 0.04470196
#
# Stress axis : x y z
#
# Youngs Moduli (GPa) = 103.55332 21.08661 122.58408
#
# Poissons Ratio (x) = 0.05520 0.20986
# Poissons Ratio (y) = 0.27109 0.72792
# Poissons Ratio (z) = 0.17728 0.12522
#
# Static dielectric constant tensor:
#      x y z
#    x 1.876220 0.071920 0.011050 
#    y 0.071920 2.089140 0.177100 
#    z 0.011050 0.177100 1.884810 
# 
# From -- ./inp_files/533543.got.cif
#   From: 2010.05.17/outbox.cif.g08.bks.cpg/sg2_267_cif.got.tgz:533543.got - 2010.06.03 11:33:40.
