data_PCOD9085492
_publ_section_title
;
Structure prediction by ZEFSAII (Michael W. Deem and Ramdas Pophale) SiO2 
 PCOD9085492
Probable space group: P -1
;
_chemical_formula_sum "Si O2"
_cell_formula_units_Z 16
_cell_length_a 9.352417
_cell_length_b 11.502695
_cell_length_c 9.180772
_cell_angle_alpha 60.320498
_cell_angle_beta 85.778683
_cell_angle_gamma 80.505007
_cell_volume 846.284943
_symmetry_space_group_name_H-M "P -1"
_symmetry_group_IT_number 2
_symmetry_cell_setting 'triclinic'
loop_
_space_group_symop_operation_xyz
x,y,z
-x,-y,-z
loop_
_atom_site_type_symbol
_atom_site_label
_atom_site_fract_x
_atom_site_fract_y
_atom_site_fract_z
Si Si1 0.838928 0.517282 0.068289
Si Si2 0.789097 0.775584 0.757751
Si Si3 0.084742 0.853634 0.624683
Si Si4 0.652602 0.480177 0.366235
Si Si5 0.702843 0.281850 0.077810
Si Si6 0.477286 0.272101 0.342703
Si Si7 0.328338 0.911829 0.368567
Si Si8 0.389120 0.699079 0.258776
O O1 0.795347 0.479015 0.258127
O O2 0.749233 0.424634 0.033986
O O3 0.783689 0.675423 0.954353
O O4 0.000000 0.500000 0.000000
O O5 0.691455 0.720998 0.675087
O O6 0.954409 0.767347 0.697413
O O7 0.726192 0.929405 0.711204
O O8 0.173095 0.828086 0.786288
O O9 0.207012 0.833567 0.504052
O O10 0.000000 0.000000 0.500000
O O11 0.541009 0.392604 0.346307
O O12 0.557857 0.629182 0.288468
O O13 0.678710 0.407616 0.565346
O O14 0.555833 0.264639 0.184607
O O15 0.677150 0.282842 0.907974
O O16 0.532085 0.136589 0.512983
O O17 0.361748 0.843525 0.252640
#
# Coordination Sequence:
#
# PCOD9085492 Si02
#       8
#     2   2   2   2   2   2   2   2
#     4  11  21  35  60  81 113 142 196 239 270 324
#     4  11  19  32  58  86 108 143 192 239 275 320
#     4   9  19  36  57  79 111 148 193 229 274 328
#     4   9  20  37  57  86 111 153 185 232 288 326
#     4  10  19  36  57  86 105 150 187 231 281 328
#     4   9  18  34  60  82 108 138 198 238 267 328
#     4   9  20  36  56  82 114 150 182 230 287 336
#     4  10  19  35  61  78 119 151 183 224 286 352
#
# _framework density 18.906161000000001
#
# number of rings (size 3 to 8) (size 9 to 14) (size 15 to 20)
#    0.000    2.250    1.250    2.625    0.000    2.000 
#    0.000    5.625    8.250    3.000    0.000    0.000 
#    0.000    0.000    0.000    0.000    0.000    0.000 
#
# Total GULP energy -89071.499857 kJ/mol
# GULP energy per Si atom -5566.968741 kJ/mol
# Density = 1.886313 g / cm^3
# Si number density = 18.906161 Si / 1000 Ang^3
#
#
#
# Elastic Constant Matrix: (Units=GPa)
#
#
# Indices 1 2 3 4 5 6 
#
# 1 63.1659 -6.3579 31.6156 11.9508 3.7568 -0.4191
# 2 -6.3579 58.8828 37.5501 -2.0127 1.2998 -10.8332
# 3 31.6156 37.5501 134.7830 11.2452 3.8939 0.2655
# 4 11.9508 -2.0127 11.2452 38.8284 -2.7686 0.6035
# 5 3.7568 1.2998 3.8939 -2.7686 18.5750 -1.7857
# 6 -0.4191 -10.8332 0.2655 0.6035 -1.7857 23.5134
#
#
#
# Elastic Compliance Matrix: (Units=1/GPa)
#
#
# Indices 1 2 3 4 5 6 
#
# 1 0.020765 0.006807 -0.006288 -0.004534 -0.003706 0.003412
# 2 0.006807 0.025663 -0.008909 0.001635 0.000094 0.012011
# 3 -0.006288 -0.008909 0.011579 -0.001900 -0.001238 -0.004393
# 4 -0.004534 0.001635 -0.001900 0.028167 0.005436 0.000384
# 5 -0.003706 0.000094 -0.001238 0.005436 0.056043 0.004108
# 6 0.003412 0.012011 -0.004393 0.000384 0.004108 0.048475
#
#
# Mechanical properties :
#
#
# Convention : Reuss Voigt Hill
#
# Bulk Modulus (GPa) = 24.25670 42.49413 33.37542
# Shear Modulus (GPa) = 22.60245 29.11828 25.86036
#
# Velocity S-wave (km/s) = 3.46136 3.92873 3.70243
# Velocity P-wave (km/s) = 5.36960 6.56544 5.99740
#
# Compressibility (1/GPa) = 0.04122573
#
# Stress axis : x y z
#
# Youngs Moduli (GPa) = 48.15827 38.96698 86.36076
#
# Poissons Ratio (x) = -0.26524 0.54308
# Poissons Ratio (y) = -0.32781 0.76939
# Poissons Ratio (z) = 0.30284 0.34716
#
# Static dielectric constant tensor:
#      x y z
#    x 1.691360 -0.029250 0.003670 
#    y -0.029250 1.686090 -0.042520 
#    z 0.003670 -0.042520 1.703370 
# 
# From -- ./inp_files/185086.got.cif
#   From: 2010.05.17/outbox.cif.g08.bks.cpg/sg2_93_cif.got.tgz:185086.got - 2010.06.03 11:33:40.
