data_PCOD9085583
_publ_section_title
;
Structure prediction by ZEFSAII (Michael W. Deem and Ramdas Pophale) SiO2 
 PCOD9085583
Probable space group: P -1
;
_chemical_formula_sum "Si O2"
_cell_formula_units_Z 14
_cell_length_a 13.135962
_cell_length_b 11.553683
_cell_length_c 8.056085
_cell_angle_alpha 60.096214
_cell_angle_beta 49.543457
_cell_angle_gamma 98.213864
_cell_volume 570.308940
_symmetry_space_group_name_H-M "P -1"
_symmetry_group_IT_number 2
_symmetry_cell_setting 'triclinic'
loop_
_space_group_symop_operation_xyz
x,y,z
-x,-y,-z
loop_
_atom_site_type_symbol
_atom_site_label
_atom_site_fract_x
_atom_site_fract_y
_atom_site_fract_z
Si Si1 0.243891 0.719985 0.121998
Si Si2 0.646436 0.598521 0.480106
Si Si3 0.103527 0.735685 0.582420
Si Si4 0.419259 0.916173 0.334067
Si Si5 0.347201 0.566494 0.728514
Si Si6 0.908521 0.007692 0.747776
Si Si7 0.904699 0.660982 0.447889
O O1 0.206321 0.547367 0.213587
O O2 0.157204 0.660259 0.445821
O O3 0.115505 0.740870 0.149530
O O4 0.460568 0.909376 0.791666
O O5 0.450372 0.537952 0.767335
O O6 0.598566 0.455372 0.494160
O O7 0.773686 0.617956 0.469040
O O8 0.775989 0.808236 0.118573
O O9 0.188813 0.930200 0.271343
O O10 0.879963 0.595810 0.923084
O O11 0.423297 0.769907 0.504723
O O12 0.197502 0.785043 0.625714
O O13 0.500000 0.000000 0.000000
O O14 0.053184 0.178927 0.600359
O O15 0.000000 0.000000 0.500000
#
# Coordination Sequence:
#
# PCOD9085583 Si02
#       7
#     2   2   2   2   2   2   2
#     4   9  20  40  66  90 127 165 212 260 318 380
#     4  11  22  38  63  94 131 172 210 254 320 379
#     4  10  20  38  63  91 126 164 214 263 312 366
#     4  10  19  35  61  89 121 165 214 259 313 370
#     4  11  22  36  62  96 130 165 216 260 307 383
#     4  11  22  41  63  92 127 166 213 262 313 384
#     4  10  21  39  68  93 125 171 209 259 325 374
#
# _framework density 24.548098
#
# number of rings (size 3 to 8) (size 9 to 14) (size 15 to 20)
#    0.000    1.714    1.429    5.143    0.000    1.143 
#    0.000    2.857    3.143    9.429    0.000    0.000 
#    0.000    0.000    0.000    0.000    0.000    0.000 
#
# Total GULP energy -78187.756878 kJ/mol
# GULP energy per Si atom -5584.839777 kJ/mol
# Density = 2.449223 g / cm^3
# Si number density = 24.548098 Si / 1000 Ang^3
#
#
#
# Elastic Constant Matrix: (Units=GPa)
#
#
# Indices 1 2 3 4 5 6 
#
# 1 168.3612 28.2241 34.1775 -15.1856 -32.3407 15.6385
# 2 28.2241 101.9472 20.6000 -36.1621 -13.2546 3.6429
# 3 34.1775 20.6000 104.7798 -16.9615 -19.3572 -5.7196
# 4 -15.1856 -36.1621 -16.9615 40.5153 0.5632 -1.7915
# 5 -32.3407 -13.2546 -19.3572 0.5632 49.2634 -15.2350
# 6 15.6385 3.6429 -5.7196 -1.7915 -15.2350 34.6694
#
#
#
# Elastic Compliance Matrix: (Units=1/GPa)
#
#
# Indices 1 2 3 4 5 6 
#
# 1 0.007320 -0.000743 -0.001502 0.001320 0.003412 -0.001904
# 2 -0.000743 0.015170 0.000201 0.013344 0.003882 0.001170
# 3 -0.001502 0.000201 0.012054 0.004821 0.005375 0.005256
# 4 0.001320 0.013344 0.004821 0.039181 0.007126 0.003954
# 5 0.003412 0.003882 0.005375 0.007126 0.029395 0.012225
# 6 -0.001904 0.001170 0.005256 0.003954 0.012225 0.036024
#
#
# Mechanical properties :
#
#
# Convention : Reuss Voigt Hill
#
# Bulk Modulus (GPa) = 32.83323 60.12127 46.47725
# Shear Modulus (GPa) = 32.59789 44.36206 38.47998
#
# Velocity S-wave (km/s) = 3.64802 4.25567 3.96350
# Velocity P-wave (km/s) = 5.58105 6.97797 6.31823
#
# Compressibility (1/GPa) = 0.03045695
#
# Stress axis : x y z
#
# Youngs Moduli (GPa) = 136.60553 65.91850 82.95708
#
# Poissons Ratio (x) = 0.04900 0.12457
# Poissons Ratio (y) = 0.10155 -0.01667
# Poissons Ratio (z) = 0.20513 -0.01325
#
# Static dielectric constant tensor:
#      x y z
#    x 1.983950 -0.017240 -0.048530 
#    y -0.017240 2.043120 0.105380 
#    z -0.048530 0.105380 2.070090 
# 
# From -- ./inp_files/304932.got.cif
#   From: 2010.05.17/outbox.cif.g08.bks.cpg/sg2_153_cif.got.tgz:304932.got - 2010.06.03 11:33:40.
