data_PCOD9085497
_publ_section_title
;
Structure prediction by ZEFSAII (Michael W. Deem and Ramdas Pophale) SiO2 
 PCOD9085497
Probable space group: P -1
;
_chemical_formula_sum "Si O2"
_cell_formula_units_Z 14
_cell_length_a 6.992805
_cell_length_b 11.852890
_cell_length_c 8.421679
_cell_angle_alpha 111.270651
_cell_angle_beta 102.635066
_cell_angle_gamma 58.000520
_cell_volume 551.330008
_symmetry_space_group_name_H-M "P -1"
_symmetry_group_IT_number 2
_symmetry_cell_setting 'triclinic'
loop_
_space_group_symop_operation_xyz
x,y,z
-x,-y,-z
loop_
_atom_site_type_symbol
_atom_site_label
_atom_site_fract_x
_atom_site_fract_y
_atom_site_fract_z
Si Si1 0.553353 0.870598 0.329301
Si Si2 0.702704 0.601268 0.383931
Si Si3 0.876561 0.085814 0.864730
Si Si4 0.952136 0.332461 0.678778
Si Si5 0.339000 0.373753 0.238833
Si Si6 0.941269 0.312167 0.131744
Si Si7 0.833373 0.188646 0.328187
O O1 0.528599 0.753221 0.364870
O O2 0.362478 0.907789 0.184806
O O3 0.810910 0.790327 0.271602
O O4 0.500000 0.000000 0.500000
O O5 0.930622 0.608492 0.394812
O O6 0.665110 0.591160 0.556030
O O7 0.745080 0.467853 0.221723
O O8 0.872143 0.232158 0.950271
O O9 0.041944 0.976429 0.707630
O O10 0.000000 0.000000 0.000000
O O11 0.765358 0.478014 0.797399
O O12 0.827695 0.265573 0.527798
O O13 0.600274 0.255022 0.219497
O O14 0.166709 0.318622 0.139721
O O15 0.986273 0.226134 0.259903
#
# Coordination Sequence:
#
# PCOD9085497 Si02
#       7
#     2   2   2   2   2   2   2
#     4  10  19  35  61  82 113 149 193 234 282 333
#     4   9  18  32  57  82 112 145 186 231 280 321
#     4  10  22  36  57  84 112 157 189 225 289 341
#     4   9  17  32  57  82 110 139 187 233 273 325
#     4  11  19  33  59  89 114 146 188 236 279 332
#     4  10  19  36  53  82 118 146 194 222 276 341
#     4  11  19  33  59  86 113 151 189 228 280 336
#
# _framework density 25.393139000000001
#
# number of rings (size 3 to 8) (size 9 to 14) (size 15 to 20)
#    0.857    1.143    4.286    1.286    2.000    1.143 
#    0.000    0.714    0.000    3.429    0.000    0.000 
#    0.000    0.000    0.000    0.000    0.000    0.000 
#
# Total GULP energy -78042.638048 kJ/mol
# GULP energy per Si atom -5574.474146 kJ/mol
# Density = 2.533534 g / cm^3
# Si number density = 25.393139 Si / 1000 Ang^3
#
#
#
# Elastic Constant Matrix: (Units=GPa)
#
#
# Indices 1 2 3 4 5 6 
#
# 1 83.8185 29.2904 37.3990 5.6026 23.5589 -21.7126
# 2 29.2904 121.0631 46.2189 21.5002 17.6017 -16.8330
# 3 37.3990 46.2189 125.2318 34.8695 39.0094 -4.4087
# 4 5.6026 21.5002 34.8695 52.5086 2.7249 16.0697
# 5 23.5589 17.6017 39.0094 2.7249 38.9674 -10.0749
# 6 -21.7126 -16.8330 -4.4087 16.0697 -10.0749 40.4050
#
#
#
# Elastic Compliance Matrix: (Units=1/GPa)
#
#
# Indices 1 2 3 4 5 6 
#
# 1 0.016971 -0.001018 -0.002107 -0.002143 -0.005486 0.007950
# 2 -0.001018 0.010975 -0.002108 -0.004652 -0.000478 0.005526
# 3 -0.002107 -0.002108 0.015923 -0.008792 -0.013111 -0.000046
# 4 -0.002143 -0.004652 -0.008792 0.031274 0.006145 -0.014955
# 5 -0.005486 -0.000478 -0.013111 0.006145 0.042837 0.003660
# 6 0.007950 0.005526 -0.000046 -0.014955 0.003660 0.038180
#
#
# Mechanical properties :
#
#
# Convention : Reuss Voigt Hill
#
# Bulk Modulus (GPa) = 29.93723 61.76999 45.85361
# Shear Modulus (GPa) = 28.12787 40.85654 34.49221
#
# Velocity S-wave (km/s) = 3.33182 4.01554 3.68955
# Velocity P-wave (km/s) = 5.15911 6.77330 6.02055
#
# Compressibility (1/GPa) = 0.03340322
#
# Stress axis : x y z
#
# Youngs Moduli (GPa) = 58.92384 91.11425 62.80326
#
# Poissons Ratio (x) = 0.09275 0.13233
# Poissons Ratio (y) = 0.05998 0.13238
# Poissons Ratio (z) = 0.12416 0.19206
#
# Static dielectric constant tensor:
#      x y z
#    x 2.113210 -0.102990 -0.085110 
#    y -0.102990 2.288840 0.079230 
#    z -0.085110 0.079230 2.096930 
# 
# From -- ./inp_files/316244.got.cif
#   From: 2010.05.17/outbox.cif.g08.bks.cpg/sg2_159_cif.got.tgz:316244.got - 2010.06.03 11:33:40.
