data_PCOD9085888
_publ_section_title
;
Structure prediction by ZEFSAII (Michael W. Deem and Ramdas Pophale) SiO2 
 PCOD9085888
Probable space group: P -1
;
_chemical_formula_sum "Si O2"
_cell_formula_units_Z 16
_cell_length_a 9.165155
_cell_length_b 5.572311
_cell_length_c 13.720819
_cell_angle_alpha 86.732198
_cell_angle_beta 69.083217
_cell_angle_gamma 75.893416
_cell_volume 634.471344
_symmetry_space_group_name_H-M "P -1"
_symmetry_group_IT_number 2
_symmetry_cell_setting 'triclinic'
loop_
_space_group_symop_operation_xyz
x,y,z
-x,-y,-z
loop_
_atom_site_type_symbol
_atom_site_label
_atom_site_fract_x
_atom_site_fract_y
_atom_site_fract_z
Si Si1 0.558759 0.026746 0.374274
Si Si2 0.123963 0.982960 0.273188
Si Si3 0.090722 0.655014 0.541899
Si Si4 0.116324 0.286042 0.709868
Si Si5 0.561292 0.427849 0.597869
Si Si6 0.740630 0.437160 0.025657
Si Si7 0.981928 0.334805 0.120841
Si Si8 0.577105 0.177279 0.908143
O O1 0.751655 0.969703 0.328119
O O2 0.520288 0.784909 0.339531
O O3 0.500000 0.000000 0.500000
O O4 0.479186 0.301237 0.348942
O O5 0.040547 0.118225 0.386405
O O6 0.038042 0.149670 0.199530
O O7 0.310556 0.947247 0.204843
O O8 0.059478 0.736548 0.281384
O O9 0.162660 0.477454 0.619411
O O10 0.248554 0.693209 0.449476
O O11 0.000000 0.500000 0.500000
O O12 0.104672 0.402028 0.816140
O O13 0.500000 0.500000 0.500000
O O14 0.853213 0.262529 0.081296
O O15 0.570038 0.602894 0.096957
O O16 0.694062 0.291180 0.947918
O O17 0.856633 0.617948 0.966368
O O18 0.500000 0.000000 0.000000
#
# Coordination Sequence:
#
# PCOD9085888 Si02
#       8
#     2   2   2   2   2   2   2   2
#     4  10  19  35  64  89 121 165 217 271 333 388
#     4  11  23  41  67  94 129 176 225 269 336 412
#     4  11  25  42  64  92 130 174 220 276 337 405
#     4  11  22  40  65  94 128 168 222 278 334 399
#     4  10  19  39  63  90 118 170 217 271 335 396
#     4  10  22  41  65  95 134 166 216 270 341 397
#     4  10  22  40  65  98 125 168 221 278 325 404
#     4  11  22  41  66  95 136 179 209 268 342 405
#
# _framework density 25.217846000000002
#
# number of rings (size 3 to 8) (size 9 to 14) (size 15 to 20)
#    0.000    1.500    5.000    1.500    1.750    2.000 
#    2.250    1.250    0.000    0.000    0.000    0.000 
#    0.000    0.000    0.000    0.000    0.000    0.000 
#
# Total GULP energy -89499.052902 kJ/mol
# GULP energy per Si atom -5593.690806 kJ/mol
# Density = 2.516045 g / cm^3
# Si number density = 25.217846 Si / 1000 Ang^3
#
#
#
# Elastic Constant Matrix: (Units=GPa)
#
#
# Indices 1 2 3 4 5 6 
#
# 1 144.3464 29.3889 49.0149 13.3476 -11.5726 -6.5325
# 2 29.3889 105.8706 18.9787 11.4927 -10.5437 -4.0396
# 3 49.0149 18.9787 74.6488 17.8099 -23.7596 -11.3075
# 4 13.3476 11.4927 17.8099 30.6366 -8.1168 -8.3216
# 5 -11.5726 -10.5437 -23.7596 -8.1168 51.2884 1.3694
# 6 -6.5325 -4.0396 -11.3075 -8.3216 1.3694 43.8571
#
#
#
# Elastic Compliance Matrix: (Units=1/GPa)
#
#
# Indices 1 2 3 4 5 6 
#
# 1 0.009197 -0.001568 -0.005945 -0.000331 -0.001045 -0.000337
# 2 -0.001568 0.010382 -0.000658 -0.002534 0.001074 0.000039
# 3 -0.005945 -0.000658 0.022038 -0.007127 0.007521 0.003149
# 4 -0.000331 -0.002534 -0.007127 0.039946 0.002281 0.005388
# 5 -0.001045 0.001074 0.007521 0.002281 0.023285 0.001588
# 6 -0.000337 0.000039 0.003149 0.005388 0.001588 0.024539
#
#
# Mechanical properties :
#
#
# Convention : Reuss Voigt Hill
#
# Bulk Modulus (GPa) = 39.56380 57.73676 48.65028
# Shear Modulus (GPa) = 32.43494 40.32199 36.37846
#
# Velocity S-wave (km/s) = 3.59024 4.00302 3.80224
# Velocity P-wave (km/s) = 5.73666 6.65661 6.21369
#
# Compressibility (1/GPa) = 0.02527563
#
# Stress axis : x y z
#
# Youngs Moduli (GPa) = 108.72653 96.31836 45.37690
#
# Poissons Ratio (x) = 0.15106 0.26976
# Poissons Ratio (y) = 0.17052 0.02984
# Poissons Ratio (z) = 0.64637 0.06333
#
# Static dielectric constant tensor:
#      x y z
#    x 2.003740 -0.016320 0.007250 
#    y -0.016320 2.226560 -0.142080 
#    z 0.007250 -0.142080 2.148340 
# 
# From -- ./inp_files/140515.got.cif
#   From: 2010.05.17/outbox.cif.g08.bks.cpg/sg2_71_cif.got.tgz:140515.got - 2010.06.03 11:33:40.
