data_PCOD9085658
_publ_section_title
;
Structure prediction by ZEFSAII (Michael W. Deem and Ramdas Pophale) SiO2 
 PCOD9085658
Probable space group: P -1
;
_chemical_formula_sum "Si O2"
_cell_formula_units_Z 16
_cell_length_a 17.646496
_cell_length_b 23.017841
_cell_length_c 11.643219
_cell_angle_alpha 31.652865
_cell_angle_beta 32.290711
_cell_angle_gamma 19.452506
_cell_volume 801.456369
_symmetry_space_group_name_H-M "P -1"
_symmetry_group_IT_number 2
_symmetry_cell_setting 'triclinic'
loop_
_space_group_symop_operation_xyz
x,y,z
-x,-y,-z
loop_
_atom_site_type_symbol
_atom_site_label
_atom_site_fract_x
_atom_site_fract_y
_atom_site_fract_z
Si Si1 0.845873 0.690334 0.438316
Si Si2 0.287311 0.546049 0.716583
Si Si3 0.740709 0.487183 0.636726
Si Si4 0.181182 0.736423 0.736550
Si Si5 0.721433 0.999146 0.005137
Si Si6 0.549945 0.202157 0.112793
Si Si7 0.435515 0.639723 0.984259
Si Si8 0.600636 0.647915 0.309446
O O1 0.763889 0.841747 0.207848
O O2 0.619844 0.776468 0.640676
O O3 0.000000 0.500000 0.500000
O O4 0.018386 0.635129 0.404481
O O5 0.500000 0.500000 0.500000
O O6 0.114270 0.720857 0.727005
O O7 0.231435 0.525529 0.700820
O O8 0.391760 0.382984 0.934280
O O9 0.528523 0.630989 0.759422
O O10 0.708067 0.585619 0.402609
O O11 0.723387 0.369260 0.818528
O O12 0.367953 0.716594 0.508503
O O13 0.328552 0.556955 0.926824
O O14 0.952771 0.911427 0.803573
O O15 0.701352 0.046594 0.084319
O O16 0.495490 0.183609 0.914497
O O17 0.664167 0.208777 0.053609
#
# Coordination Sequence:
#
# PCOD9085658 Si02
#       8
#     2   2   2   2   2   2   2   2
#     4  12  22  39  61  82 107 157 200 227 273 348
#     4   8  15  31  55  83 107 142 189 227 268 331
#     4  10  19  35  62  85 113 147 191 233 283 331
#     4   9  15  31  57  84 110 151 191 225 274 342
#     4  11  21  35  55  85 117 150 187 235 282 335
#     4  10  20  35  58  87 113 148 192 235 275 333
#     4   9  17  35  61  85 111 148 194 234 272 333
#     4   9  19  32  55  83 117 141 180 243 291 320
#
# _framework density 19.963657000000001
#
# number of rings (size 3 to 8) (size 9 to 14) (size 15 to 20)
#    0.000    2.250    2.500    2.250    0.000    0.000 
#    0.000    3.750    2.750    0.000    0.000    0.000 
#    0.000    0.000    0.000    0.000    0.000    0.000 
#
# Total GULP energy -89180.212927 kJ/mol
# GULP energy per Si atom -5573.763308 kJ/mol
# Density = 1.991822 g / cm^3
# Si number density = 19.963657 Si / 1000 Ang^3
#
#
#
# Elastic Constant Matrix: (Units=GPa)
#
#
# Indices 1 2 3 4 5 6 
#
# 1 96.6765 34.4106 32.8040 -3.9379 14.2483 12.3890
# 2 34.4106 52.8206 8.0913 1.6970 0.6531 19.5799
# 3 32.8040 8.0913 57.1230 -9.0505 8.6690 1.4661
# 4 -3.9379 1.6970 -9.0505 29.1909 -1.6134 9.0985
# 5 14.2483 0.6531 8.6690 -1.6134 26.9296 2.6724
# 6 12.3890 19.5799 1.4661 9.0985 2.6724 29.7876
#
#
#
# Elastic Compliance Matrix: (Units=1/GPa)
#
#
# Indices 1 2 3 4 5 6 
#
# 1 0.017520 -0.010337 -0.007587 0.000109 -0.006614 0.000441
# 2 -0.010337 0.032095 0.001432 0.003274 0.006255 -0.018429
# 3 -0.007587 0.001432 0.023092 0.006038 -0.003043 -0.000494
# 4 0.000109 0.003274 0.006038 0.040767 0.001861 -0.015114
# 5 -0.006614 0.006255 -0.003043 0.001861 0.042124 -0.005558
# 6 0.000441 -0.018429 -0.000494 -0.015114 -0.005558 0.050641
#
#
# Mechanical properties :
#
#
# Convention : Reuss Voigt Hill
#
# Bulk Modulus (GPa) = 25.17395 39.69242 32.43319
# Shear Modulus (GPa) = 19.80473 25.93589 22.87031
#
# Velocity S-wave (km/s) = 3.15308 3.60829 3.38834
# Velocity P-wave (km/s) = 5.08853 6.10616 5.62042
#
# Compressibility (1/GPa) = 0.03972360
#
# Stress axis : x y z
#
# Youngs Moduli (GPa) = 57.07695 31.15703 43.30574
#
# Poissons Ratio (x) = 0.32206 0.32858
# Poissons Ratio (y) = 0.58999 -0.06203
# Poissons Ratio (z) = 0.43307 -0.04463
#
# Static dielectric constant tensor:
#      x y z
#    x 1.748210 0.033990 0.010620 
#    y 0.033990 1.714280 -0.036510 
#    z 0.010620 -0.036510 1.717320 
# 
# From -- ./inp_files/269001.got.cif
#   From: 2010.05.17/outbox.cif.g08.bks.cpg/sg2_135_cif.got.tgz:269001.got - 2010.06.03 11:33:40.
