data_PCOD9085148
_publ_section_title
;
Structure prediction by ZEFSAII (Michael W. Deem and Ramdas Pophale) SiO2 
 PCOD9085148
Probable space group: P -1
;
_chemical_formula_sum "Si O2"
_cell_formula_units_Z 14
_cell_length_a 11.900551
_cell_length_b 14.501678
_cell_length_c 14.996259
_cell_angle_alpha 41.718029
_cell_angle_beta 64.683192
_cell_angle_gamma 31.073402
_cell_volume 699.991169
_symmetry_space_group_name_H-M "P -1"
_symmetry_group_IT_number 2
_symmetry_cell_setting 'triclinic'
loop_
_space_group_symop_operation_xyz
x,y,z
-x,-y,-z
loop_
_atom_site_type_symbol
_atom_site_label
_atom_site_fract_x
_atom_site_fract_y
_atom_site_fract_z
Si Si1 0.159682 0.478845 0.931591
Si Si2 0.698032 0.785510 0.299420
Si Si3 0.123262 0.913721 0.923097
Si Si4 0.805346 0.499357 0.620226
Si Si5 0.699160 0.471205 0.006067
Si Si6 0.199481 0.360107 0.816057
Si Si7 0.672144 0.704427 0.700460
O O1 0.115464 0.647549 0.893016
O O2 0.118506 0.539053 0.796603
O O3 0.000000 0.500000 0.000000
O O4 0.474059 0.119014 0.103035
O O5 0.610503 0.775167 0.418373
O O6 0.770153 0.617186 0.311507
O O7 0.960316 0.618808 0.353664
O O8 0.125554 0.793013 0.933666
O O9 0.445586 0.639301 0.013778
O O10 0.943134 0.226678 0.729681
O O11 0.000000 0.000000 0.000000
O O12 0.691794 0.581998 0.697628
O O13 0.564201 0.728405 0.804979
O O14 0.963525 0.477123 0.800509
O O15 0.500000 0.000000 0.000000
O O16 0.500000 0.000000 0.500000
#
# Coordination Sequence:
#
# PCOD9085148 Si02
#       7
#     2   2   2   2   2   2   2
#     4  11  19  34  57  87 119 148 194 248 307 360
#     4   9  19  34  55  89 115 150 190 248 314 357
#     4  11  23  40  58  85 123 168 207 246 300 371
#     4  10  19  35  59  82 124 150 192 256 309 353
#     4  11  23  38  60  90 122 160 206 251 303 368
#     4   9  20  33  54  87 122 159 191 239 313 378
#     4  11  21  34  59  97 125 149 196 263 320 360
#
# _framework density 20.000252
#
# number of rings (size 3 to 8) (size 9 to 14) (size 15 to 20)
#    0.000    1.714    4.286    0.857    4.000    0.000 
#    0.000    0.000    0.000    1.714    0.000    0.000 
#    0.000    0.000    0.000    0.000    0.000    0.000 
#
# Total GULP energy -77953.053778 kJ/mol
# GULP energy per Si atom -5568.075270 kJ/mol
# Density = 1.995473 g / cm^3
# Si number density = 20.000252 Si / 1000 Ang^3
#
#
#
# Elastic Constant Matrix: (Units=GPa)
#
#
# Indices 1 2 3 4 5 6 
#
# 1 108.6163 44.1279 18.9377 9.0707 2.3476 36.1641
# 2 44.1279 99.9724 12.7537 21.5319 3.8394 19.5755
# 3 18.9377 12.7537 50.8589 7.1250 -2.5367 9.2783
# 4 9.0707 21.5319 7.1250 33.0527 6.6173 3.7482
# 5 2.3476 3.8394 -2.5367 6.6173 15.8082 -8.7223
# 6 36.1641 19.5755 9.2783 3.7482 -8.7223 42.8491
#
#
#
# Elastic Compliance Matrix: (Units=1/GPa)
#
#
# Indices 1 2 3 4 5 6 
#
# 1 0.015822 -0.004182 -0.003340 0.002608 -0.010141 -0.013012
# 2 -0.004182 0.014003 -0.000550 -0.007381 -0.001057 -0.002318
# 3 -0.003340 -0.000550 0.022013 -0.004686 0.006099 -0.000045
# 4 0.002608 -0.007381 -0.004686 0.039698 -0.018784 -0.005111
# 5 -0.010141 -0.001057 0.006099 -0.018784 0.089029 0.027487
# 6 -0.013012 -0.002318 -0.000045 -0.005111 0.027487 0.041431
#
#
# Mechanical properties :
#
#
# Convention : Reuss Voigt Hill
#
# Bulk Modulus (GPa) = 28.01632 45.67625 36.84629
# Shear Modulus (GPa) = 19.99692 30.58388 25.29040
#
# Velocity S-wave (km/s) = 3.16544 3.91471 3.55984
# Velocity P-wave (km/s) = 5.23435 6.58184 5.94639
#
# Compressibility (1/GPa) = 0.03569348
#
# Stress axis : x y z
#
# Youngs Moduli (GPa) = 63.20321 71.41195 45.42823
#
# Poissons Ratio (x) = 0.29865 0.15173
# Poissons Ratio (y) = 0.26432 0.02499
# Poissons Ratio (z) = 0.21110 0.03928
#
# Static dielectric constant tensor:
#      x y z
#    x 1.863380 -0.008550 0.089030 
#    y -0.008550 1.864110 -0.068730 
#    z 0.089030 -0.068730 1.828320 
# 
# From -- ./inp_files/302669.got.cif
#   From: 2010.05.17/outbox.cif.g08.bks.cpg/sg2_152_cif.got.tgz:302669.got - 2010.06.03 11:33:40.
