data_PCOD9085763
_publ_section_title
;
Structure prediction by ZEFSAII (Michael W. Deem and Ramdas Pophale) SiO2 
 PCOD9085763
Probable space group: P -1
;
_chemical_formula_sum "Si O2"
_cell_formula_units_Z 14
_cell_length_a 11.857033
_cell_length_b 8.384469
_cell_length_c 9.548388
_cell_angle_alpha 78.495309
_cell_angle_beta 132.023118
_cell_angle_gamma 70.484063
_cell_volume 529.605939
_symmetry_space_group_name_H-M "P -1"
_symmetry_group_IT_number 2
_symmetry_cell_setting 'triclinic'
loop_
_space_group_symop_operation_xyz
x,y,z
-x,-y,-z
loop_
_atom_site_type_symbol
_atom_site_label
_atom_site_fract_x
_atom_site_fract_y
_atom_site_fract_z
Si Si1 0.564763 0.680016 0.363482
Si Si2 0.112113 0.616276 0.100170
Si Si3 0.761979 0.669215 0.252114
Si Si4 0.137997 0.052708 0.719902
Si Si5 0.171959 0.669229 0.821610
Si Si6 0.308808 0.033588 0.291822
Si Si7 0.784814 0.223106 0.612807
O O1 0.724666 0.590706 0.638703
O O2 0.655986 0.706040 0.302626
O O3 0.587308 0.470271 0.389414
O O4 0.366894 0.888077 0.228580
O O5 0.112828 0.277148 0.068638
O O6 0.133419 0.774977 0.169673
O O7 0.143072 0.625745 0.961809
O O8 0.734782 0.875433 0.151088
O O9 0.715908 0.552590 0.128698
O O10 0.000000 0.500000 0.500000
O O11 0.036582 0.158518 0.465890
O O12 0.948532 0.162409 0.646519
O O13 0.250754 0.801919 0.859784
O O14 0.500000 0.000000 0.500000
O O15 0.261985 0.933010 0.390557
#
# Coordination Sequence:
#
# PCOD9085763 Si02
#       7
#     2   2   2   2   2   2   2
#     4  10  24  44  69  96 138 180 223 282 345 408
#     4  10  23  42  73  98 134 181 230 284 346 404
#     4  10  19  39  63  98 134 182 228 277 345 411
#     4  10  20  35  66  98 131 183 231 273 343 420
#     4  10  19  35  63 101 128 171 237 276 330 419
#     4  12  26  40  66 107 140 173 225 289 348 410
#     4  10  21  46  66  96 136 179 226 279 343 409
#
# _framework density 26.434750999999999
#
# number of rings (size 3 to 8) (size 9 to 14) (size 15 to 20)
#    0.857    0.857    4.286    0.857    4.000    0.571 
#    2.571    0.000    0.000   10.286    3.714    0.000 
#    0.000    0.000    0.000    0.000    0.000    0.000 
#
# Total GULP energy -78337.548464 kJ/mol
# GULP energy per Si atom -5595.539176 kJ/mol
# Density = 2.637458 g / cm^3
# Si number density = 26.434751 Si / 1000 Ang^3
#
#
#
# Elastic Constant Matrix: (Units=GPa)
#
#
# Indices 1 2 3 4 5 6 
#
# 1 142.1874 54.5414 58.8471 5.1910 -38.8670 -12.3553
# 2 54.5414 155.2062 39.8696 -0.5264 -32.3614 9.0318
# 3 58.8471 39.8696 129.8041 -9.7722 -26.5330 -20.8996
# 4 5.1910 -0.5264 -9.7722 32.8167 -11.0923 -5.1997
# 5 -38.8670 -32.3614 -26.5330 -11.0923 43.3458 3.9920
# 6 -12.3553 9.0318 -20.8996 -5.1997 3.9920 56.3212
#
#
#
# Elastic Compliance Matrix: (Units=1/GPa)
#
#
# Indices 1 2 3 4 5 6 
#
# 1 0.010753 -0.001774 -0.002862 -0.000243 0.006402 0.001105
# 2 -0.001774 0.008454 -0.001153 0.001234 0.004550 -0.002381
# 3 -0.002862 -0.001153 0.011434 0.006085 0.004759 0.004025
# 4 -0.000243 0.001234 0.006085 0.037673 0.013653 0.004518
# 5 0.006402 0.004550 0.004759 0.013653 0.038525 0.000971
# 6 0.001105 -0.002381 0.004025 0.004518 0.000971 0.020221
#
#
# Mechanical properties :
#
#
# Convention : Reuss Voigt Hill
#
# Bulk Modulus (GPa) = 52.45422 81.52376 66.98899
# Shear Modulus (GPa) = 34.48455 44.75939 39.62197
#
# Velocity S-wave (km/s) = 3.61573 4.11932 3.87571
# Velocity P-wave (km/s) = 6.10879 7.31653 6.73977
#
# Compressibility (1/GPa) = 0.01906424
#
# Stress axis : x y z
#
# Youngs Moduli (GPa) = 93.00151 118.28584 87.45612
#
# Poissons Ratio (x) = 0.20982 0.25026
# Poissons Ratio (y) = 0.16497 0.10083
# Poissons Ratio (z) = 0.26613 0.13637
#
# Static dielectric constant tensor:
#      x y z
#    x 2.031710 0.065220 0.058910 
#    y 0.065220 2.275370 0.030860 
#    z 0.058910 0.030860 2.102300 
# 
# From -- ./inp_files/237819.got.cif
#   From: 2010.05.17/outbox.cif.g08.bks.cpg/sg2_119_cif.got.tgz:237819.got - 2010.06.03 11:33:40.
