data_PCOD9085599
_publ_section_title
;
Structure prediction by ZEFSAII (Michael W. Deem and Ramdas Pophale) SiO2 
 PCOD9085599
Probable space group: P -1
;
_chemical_formula_sum "Si O2"
_cell_formula_units_Z 14
_cell_length_a 11.058515
_cell_length_b 7.874076
_cell_length_c 13.887147
_cell_angle_alpha 71.262652
_cell_angle_beta 31.741508
_cell_angle_gamma 83.137716
_cell_volume 573.059784
_symmetry_space_group_name_H-M "P -1"
_symmetry_group_IT_number 2
_symmetry_cell_setting 'triclinic'
loop_
_space_group_symop_operation_xyz
x,y,z
-x,-y,-z
loop_
_atom_site_type_symbol
_atom_site_label
_atom_site_fract_x
_atom_site_fract_y
_atom_site_fract_z
Si Si1 0.515059 0.442268 0.652737
Si Si2 0.739937 0.903535 0.742885
Si Si3 0.323819 0.103423 0.991485
Si Si4 0.968893 0.622518 0.088059
Si Si5 0.884417 0.019903 0.198241
Si Si6 0.493533 0.730796 0.766837
Si Si7 0.618127 0.151406 0.517356
O O1 0.383215 0.288172 0.851530
O O2 0.592240 0.630650 0.630451
O O3 0.685552 0.334404 0.506472
O O4 0.320650 0.453073 0.701169
O O5 0.616126 0.730844 0.786690
O O6 0.557215 0.031111 0.845436
O O7 0.751932 0.862069 0.855412
O O8 0.000000 0.000000 0.500000
O O9 0.094923 0.958588 0.117906
O O10 0.023331 0.838728 0.978366
O O11 0.204129 0.635392 0.989557
O O12 0.000000 0.500000 0.000000
O O13 0.811352 0.146589 0.307409
O O14 0.633001 0.872028 0.364947
O O15 0.560294 0.952372 0.650470
#
# Coordination Sequence:
#
# PCOD9085599 Si02
#       7
#     2   2   2   2   2   2   2
#     4  10  20  36  62  91 118 153 197 238 304 366
#     4  11  23  40  63  86 119 159 208 257 289 346
#     4  10  22  38  63  88 116 162 207 240 305 351
#     4   8  17  33  55  87 119 146 193 238 290 364
#     4   9  19  34  59  88 121 162 195 239 305 359
#     4  10  20  36  61  85 120 158 192 247 300 347
#     4  10  19  35  61  91 126 155 191 245 299 363
#
# _framework density 24.430261000000002
#
# number of rings (size 3 to 8) (size 9 to 14) (size 15 to 20)
#    0.000    2.286    1.429    0.857    2.000    2.286 
#    0.000   12.143   22.000    0.000    0.000    0.000 
#    0.000    0.000    0.000    0.000    0.000    0.000 
#
# Total GULP energy -78095.885363 kJ/mol
# GULP energy per Si atom -5578.277526 kJ/mol
# Density = 2.437466 g / cm^3
# Si number density = 24.430261 Si / 1000 Ang^3
#
#
#
# Elastic Constant Matrix: (Units=GPa)
#
#
# Indices 1 2 3 4 5 6 
#
# 1 111.3808 15.8209 30.2441 -6.5476 -9.3197 19.6304
# 2 15.8209 133.6807 10.6196 29.0713 6.1042 26.8435
# 3 30.2441 10.6196 105.3895 13.9941 3.7618 2.4469
# 4 -6.5476 29.0713 13.9941 35.9728 0.0552 7.1176
# 5 -9.3197 6.1042 3.7618 0.0552 42.9196 1.1229
# 6 19.6304 26.8435 2.4469 7.1176 1.1229 38.9968
#
#
#
# Elastic Compliance Matrix: (Units=1/GPa)
#
#
# Indices 1 2 3 4 5 6 
#
# 1 0.011974 -0.001344 -0.004081 0.006044 0.003299 -0.006044
# 2 -0.001344 0.010391 0.000559 -0.007862 -0.001677 -0.005028
# 3 -0.004081 0.000559 0.011430 -0.006057 -0.002015 0.002115
# 4 0.006044 -0.007862 -0.006057 0.038467 0.003026 -0.004358
# 5 0.003299 -0.001677 -0.002015 0.003026 0.024470 -0.001637
# 6 -0.006044 -0.005028 0.002115 -0.004358 -0.001637 0.032857
#
#
# Mechanical properties :
#
#
# Convention : Reuss Voigt Hill
#
# Bulk Modulus (GPa) = 41.55572 51.53558 46.54565
# Shear Modulus (GPa) = 33.93474 43.16226 38.54850
#
# Velocity S-wave (km/s) = 3.73103 4.20784 3.97659
# Velocity P-wave (km/s) = 5.96722 6.68944 6.33862
#
# Compressibility (1/GPa) = 0.02406408
#
# Stress axis : x y z
#
# Youngs Moduli (GPa) = 83.51506 96.23522 87.48597
#
# Poissons Ratio (x) = 0.12937 0.35701
# Poissons Ratio (y) = 0.11227 -0.04893
# Poissons Ratio (z) = 0.34080 -0.05383
#
# Static dielectric constant tensor:
#      x y z
#    x 1.975220 -0.017480 0.009870 
#    y -0.017480 2.037900 0.045620 
#    z 0.009870 0.045620 2.080090 
# 
# From -- ./inp_files/401937.got.cif
#   From: 2010.05.17/outbox.cif.g08.bks.cpg/sg2_201_cif.got.tgz:401937.got - 2010.06.03 11:33:40.
