data_PCOD9085124
_publ_section_title
;
Structure prediction by ZEFSAII (Michael W. Deem and Ramdas Pophale) SiO2 
 PCOD9085124
Probable space group: P -1
;
_chemical_formula_sum "Si O2"
_cell_formula_units_Z 15
_cell_length_a 13.919660
_cell_length_b 9.829338
_cell_length_c 24.663715
_cell_angle_alpha 35.444365
_cell_angle_beta 19.563513
_cell_angle_gamma 43.299455
_cell_volume 641.318454
_symmetry_space_group_name_H-M "P -1"
_symmetry_group_IT_number 2
_symmetry_cell_setting 'triclinic'
loop_
_space_group_symop_operation_xyz
x,y,z
-x,-y,-z
loop_
_atom_site_type_symbol
_atom_site_label
_atom_site_fract_x
_atom_site_fract_y
_atom_site_fract_z
Si Si1 0.877155 0.315523 0.563725
Si Si2 0.658020 0.195390 0.418939
Si Si3 0.532333 0.897937 0.681735
Si Si4 0.115817 0.771354 0.533053
Si Si5 0.500000 0.500000 0.000000
Si Si6 0.133386 0.205254 0.620672
Si Si7 0.797313 0.464758 0.944847
Si Si8 0.474791 0.918377 0.976751
O O1 0.804838 0.331168 0.532785
O O2 0.913443 0.599225 0.462786
O O3 0.175113 0.214988 0.441643
O O4 0.628376 0.135392 0.786893
O O5 0.447724 0.261093 0.464004
O O6 0.473498 0.005579 0.620476
O O7 0.877398 0.047754 0.321614
O O8 0.865046 0.411598 0.270185
O O9 0.294501 0.689347 0.902727
O O10 0.617914 0.125706 0.602167
O O11 0.000000 0.000000 0.500000
O O12 0.840571 0.617182 0.760939
O O13 0.643286 0.316475 0.023988
O O14 0.873105 0.167204 0.815089
O O15 0.614704 0.685682 0.962951
O O16 0.500000 0.000000 0.000000
#
# Coordination Sequence:
#
# PCOD9085124 Si02
#       8
#     2   2   2   2   1   2   2   2
#     4  11  22  38  65  94 126 162 215 263 313 373
#     4  11  25  43  61  92 131 164 213 261 322 384
#     4  11  21  37  65  94 126 163 214 257 314 372
#     4  10  19  35  59 100 124 159 207 270 309 363
#     4  12  18  34  64  92 130 158 208 262 308 366
#     4  11  25  43  63  90 130 172 203 266 329 370
#     4  12  22  36  66  97 122 165 213 261 309 376
#     4  12  23  39  64  96 125 162 217 266 305 376
#
# _framework density 23.389316999999998
#
# number of rings (size 3 to 8) (size 9 to 14) (size 15 to 20)
#    0.000    0.800    8.000    0.800    1.867    2.133 
#    0.000    3.333    0.000    1.600    0.000    0.000 
#    0.000    0.000    0.000    0.000    0.000    0.000 
#
# Total GULP energy -83552.491266 kJ/mol
# GULP energy per Si atom -5570.166084 kJ/mol
# Density = 2.333608 g / cm^3
# Si number density = 23.389317 Si / 1000 Ang^3
#
#
#
# Elastic Constant Matrix: (Units=GPa)
#
#
# Indices 1 2 3 4 5 6 
#
# 1 47.0871 -6.8548 9.7932 -1.0019 5.1546 -4.7900
# 2 -6.8548 45.4604 19.5183 -10.2545 7.7872 0.1227
# 3 9.7932 19.5183 158.1120 -22.9016 30.1044 -15.1948
# 4 -1.0019 -10.2545 -22.9016 18.1522 -4.1846 6.8957
# 5 5.1546 7.7872 30.1044 -4.1846 47.8822 -0.6973
# 6 -4.7900 0.1227 -15.1948 6.8957 -0.6973 25.9600
#
#
#
# Elastic Compliance Matrix: (Units=1/GPa)
#
#
# Indices 1 2 3 4 5 6 
#
# 1 0.022719 0.004422 -0.001102 0.000555 -0.002375 0.003315
# 2 0.004422 0.027056 -0.001336 0.014748 -0.002807 -0.004087
# 3 -0.001102 -0.001336 0.008873 0.008336 -0.004476 0.002662
# 4 0.000555 0.014748 0.008336 0.079963 -0.000949 -0.016354
# 5 -0.002375 -0.002807 -0.004476 -0.000949 0.024297 -0.002140
# 6 0.003315 -0.004087 0.002662 -0.016354 -0.002140 0.044997
#
#
# Mechanical properties :
#
#
# Convention : Reuss Voigt Hill
#
# Bulk Modulus (GPa) = 15.97015 32.84144 24.40579
# Shear Modulus (GPa) = 22.24113 33.61239 27.92676
#
# Velocity S-wave (km/s) = 3.08703 3.79500 3.45917
# Velocity P-wave (km/s) = 4.42144 5.76840 5.13924
#
# Compressibility (1/GPa) = 0.06261682
#
# Stress axis : x y z
#
# Youngs Moduli (GPa) = 44.01568 36.96018 112.69856
#
# Poissons Ratio (x) = -0.16343 0.12417
# Poissons Ratio (y) = -0.19463 0.15056
# Poissons Ratio (z) = 0.04850 0.04938
#
# Static dielectric constant tensor:
#      x y z
#    x 1.753450 0.105730 0.120480 
#    y 0.105730 1.978100 0.042350 
#    z 0.120480 0.042350 1.824670 
# 
# From -- ./inp_files/619373.got.cif
#   From: 2010.05.17/outbox.cif.g08.bks.cpg/sg2_310_cif.got.tgz:619373.got - 2010.06.03 11:33:40.
