data_PCOD9085878
_publ_section_title
;
Structure prediction by ZEFSAII (Michael W. Deem and Ramdas Pophale) SiO2 
 PCOD9085878
Probable space group: P -1
;
_chemical_formula_sum "Si O2"
_cell_formula_units_Z 16
_cell_length_a 21.405052
_cell_length_b 8.789200
_cell_length_c 11.642473
_cell_angle_alpha 74.814747
_cell_angle_beta 140.068828
_cell_angle_gamma 138.533577
_cell_volume 630.615038
_symmetry_space_group_name_H-M "P -1"
_symmetry_group_IT_number 2
_symmetry_cell_setting 'triclinic'
loop_
_space_group_symop_operation_xyz
x,y,z
-x,-y,-z
loop_
_atom_site_type_symbol
_atom_site_label
_atom_site_fract_x
_atom_site_fract_y
_atom_site_fract_z
Si Si1 0.173760 0.574029 0.912586
Si Si2 0.747829 0.549745 0.512971
Si Si3 0.052338 0.254994 0.027234
Si Si4 0.136890 0.656668 0.547265
Si Si5 0.604719 0.788333 0.813939
Si Si6 0.060318 0.960373 0.690011
Si Si7 0.471908 0.050626 0.785497
Si Si8 0.760627 0.089127 0.717916
O O1 0.190623 0.500983 0.066077
O O2 0.285164 0.902236 0.028981
O O3 0.282270 0.632472 0.951240
O O4 0.934318 0.285356 0.627689
O O5 0.802589 0.515532 0.702718
O O6 0.625409 0.520622 0.397638
O O7 0.617395 0.253947 0.301062
O O8 0.960165 0.887098 0.678973
O O9 0.834247 0.030324 0.780305
O O10 0.000000 0.000000 0.000000
O O11 0.380607 0.985629 0.789562
O O12 0.000000 0.500000 0.500000
O O13 0.044031 0.358474 0.428107
O O14 0.646128 0.888115 0.717988
O O15 0.708874 0.772995 0.003610
O O16 0.000000 0.000000 0.500000
O O17 0.374454 0.013539 0.549410
O O18 0.000000 0.500000 0.000000
#
# Coordination Sequence:
#
# PCOD9085878 Si02
#       8
#     2   2   2   2   2   2   2   2
#     4  10  20  37  59  87 113 150 192 232 278 333
#     4  10  20  37  59  87 113 150 192 232 278 333
#     4  12  23  35  57  88 127 152 174 228 298 344
#     4  10  21  38  60  83 112 149 190 237 284 331
#     4  10  19  35  64  87 107 146 202 238 264 330
#     4  10  21  38  60  83 112 149 190 237 284 331
#     4  10  19  35  64  87 107 146 202 238 264 330
#     4  12  17  35  63  86 112 149 192 229 276 338
#
# _framework density 25.372053999999999
#
# number of rings (size 3 to 8) (size 9 to 14) (size 15 to 20)
#    0.000    1.500    5.000    1.500    0.000    4.000 
#    0.000    2.500    0.000    0.000    0.000    0.000 
#    0.000    0.000    0.000    0.000    0.000    0.000 
#
# Total GULP energy -89183.397977 kJ/mol
# GULP energy per Si atom -5573.962374 kJ/mol
# Density = 2.531431 g / cm^3
# Si number density = 25.372054 Si / 1000 Ang^3
#
#
#
# Elastic Constant Matrix: (Units=GPa)
#
#
# Indices 1 2 3 4 5 6 
#
# 1 186.4337 48.8222 72.7583 -3.6381 57.4398 40.0715
# 2 48.8222 69.9969 34.1459 -21.4482 19.2167 4.2607
# 3 72.7583 34.1459 99.3904 -24.7397 41.3457 1.9967
# 4 -3.6381 -21.4482 -24.7397 30.5795 -2.8236 -5.0079
# 5 57.4398 19.2167 41.3457 -2.8236 63.2424 2.0513
# 6 40.0715 4.2607 1.9967 -5.0079 2.0513 44.9198
#
#
#
# Elastic Compliance Matrix: (Units=1/GPa)
#
#
# Indices 1 2 3 4 5 6 
#
# 1 0.015989 -0.008469 -0.009831 -0.014881 -0.005719 -0.014421
# 2 -0.008469 0.024667 0.002957 0.019787 -0.001091 0.007339
# 3 -0.009831 0.002957 0.024497 0.021708 -0.007345 0.010156
# 4 -0.014881 0.019787 0.021708 0.064895 -0.004371 0.017867
# 5 -0.005719 -0.001091 -0.007345 -0.004371 0.025819 0.003865
# 6 -0.014421 0.007339 0.010156 0.017867 0.003865 0.035794
#
#
# Mechanical properties :
#
#
# Convention : Reuss Voigt Hill
#
# Bulk Modulus (GPa) = 29.01279 74.14152 51.57716
# Shear Modulus (GPa) = 21.38249 41.08797 31.23523
#
# Velocity S-wave (km/s) = 2.90618 4.02857 3.51249
# Velocity P-wave (km/s) = 4.76665 7.13613 6.06816
#
# Compressibility (1/GPa) = 0.03446756
#
# Stress axis : x y z
#
# Youngs Moduli (GPa) = 62.54155 40.54064 40.82106
#
# Poissons Ratio (x) = 0.34333 0.40131
# Poissons Ratio (y) = 0.52964 -0.12070
# Poissons Ratio (z) = 0.61484 -0.11987
#
# Static dielectric constant tensor:
#      x y z
#    x 1.947440 0.123240 -0.110720 
#    y 0.123240 1.966060 0.014000 
#    z -0.110720 0.014000 2.223250 
# 
# From -- ./inp_files/225882.got.cif
#   From: 2010.05.17/outbox.cif.g08.bks.cpg/sg2_113_cif.got.tgz:225882.got - 2010.06.03 11:33:40.
