data_PCOD9085123
_publ_section_title
;
Structure prediction by ZEFSAII (Michael W. Deem and Ramdas Pophale) SiO2 
 PCOD9085123
Probable space group: P -1
;
_chemical_formula_sum "Si O2"
_cell_formula_units_Z 14
_cell_length_a 7.627139
_cell_length_b 17.136318
_cell_length_c 11.651775
_cell_angle_alpha 140.657217
_cell_angle_beta 81.050756
_cell_angle_gamma 127.063602
_cell_volume 608.152626
_symmetry_space_group_name_H-M "P -1"
_symmetry_group_IT_number 2
_symmetry_cell_setting 'triclinic'
loop_
_space_group_symop_operation_xyz
x,y,z
-x,-y,-z
loop_
_atom_site_type_symbol
_atom_site_label
_atom_site_fract_x
_atom_site_fract_y
_atom_site_fract_z
Si Si1 0.038786 0.799732 0.526062
Si Si2 0.767248 0.088888 0.141006
Si Si3 0.904517 0.153353 0.872441
Si Si4 0.484983 0.582187 0.984505
Si Si5 0.911248 0.572570 0.661383
Si Si6 0.704511 0.839913 0.714121
Si Si7 0.256356 0.044482 0.557785
O O1 0.787746 0.588114 0.257016
O O2 0.903246 0.833149 0.657394
O O3 0.237953 0.854742 0.667149
O O4 0.191818 0.944445 0.569390
O O5 0.038334 0.287980 0.273825
O O6 0.500000 0.000000 0.000000
O O7 0.732354 0.925649 0.929708
O O8 0.781189 0.982510 0.773115
O O9 0.744941 0.055134 0.656786
O O10 0.231349 0.293854 0.974556
O O11 0.910627 0.288098 0.088190
O O12 0.500000 0.500000 0.000000
O O13 0.492786 0.726428 0.193185
O O14 0.601513 0.379499 0.512998
O O15 0.000000 0.500000 0.500000
O O16 0.000000 0.000000 0.500000
#
# Coordination Sequence:
#
# PCOD9085123 Si02
#       7
#     2   2   2   2   2   2   2
#     4  12  22  37  67 101 130 166 211 270 322 388
#     4  11  26  44  61  90 131 177 221 263 322 383
#     4  10  20  34  62  98 132 165 205 259 330 381
#     4  11  18  33  60 100 140 159 202 261 330 389
#     4  11  23  41  65  87 123 180 220 263 323 377
#     4  11  21  40  64  92 129 165 219 269 320 383
#     4  10  19  35  58  98 138 161 195 265 336 378
#
# _framework density 23.020537999999998
#
# number of rings (size 3 to 8) (size 9 to 14) (size 15 to 20)
#    0.000    1.143    8.571    0.429    0.000    1.714 
#    0.000    0.000    0.000    4.286    0.000    0.000 
#    0.000    0.000    0.000    0.000    0.000    0.000 
#
# Total GULP energy -78186.140981 kJ/mol
# GULP energy per Si atom -5584.724356 kJ/mol
# Density = 2.296814 g / cm^3
# Si number density = 23.020538 Si / 1000 Ang^3
#
#
#
# Elastic Constant Matrix: (Units=GPa)
#
#
# Indices 1 2 3 4 5 6 
#
# 1 23.9762 -5.5637 14.6031 -5.7962 2.6162 4.0364
# 2 -5.5637 128.7375 65.5183 -0.6910 18.7863 -12.1222
# 3 14.6031 65.5183 242.9041 -24.7927 -2.3585 -19.7674
# 4 -5.7962 -0.6910 -24.7927 56.8488 1.2538 2.0577
# 5 2.6162 18.7863 -2.3585 1.2538 37.2448 -12.8584
# 6 4.0364 -12.1222 -19.7674 2.0577 -12.8584 22.6969
#
#
#
# Elastic Compliance Matrix: (Units=1/GPa)
#
#
# Indices 1 2 3 4 5 6 
#
# 1 0.052363 0.005474 -0.005974 0.003818 -0.013758 -0.019732
# 2 0.005474 0.010534 -0.003463 -0.000604 -0.006605 -0.002050
# 3 -0.005974 -0.003463 0.006229 0.001688 0.005037 0.007338
# 4 0.003818 -0.000604 0.001688 0.018802 -0.001139 -0.001881
# 5 -0.013758 -0.006605 0.005037 -0.001139 0.040628 0.026427
# 6 -0.019732 -0.002050 0.007338 -0.001881 0.026427 0.068006
#
#
# Mechanical properties :
#
#
# Convention : Reuss Voigt Hill
#
# Bulk Modulus (GPa) = 16.34029 60.52591 38.43310
# Shear Modulus (GPa) = 22.23323 44.76212 33.49768
#
# Velocity S-wave (km/s) = 3.11110 4.41437 3.81874
# Velocity P-wave (km/s) = 4.47424 7.23404 6.01458
#
# Compressibility (1/GPa) = 0.06119842
#
# Stress axis : x y z
#
# Youngs Moduli (GPa) = 19.09746 94.92798 160.55116
#
# Poissons Ratio (x) = -0.51959 0.95915
# Poissons Ratio (y) = -0.10453 0.55601
# Poissons Ratio (z) = 0.11409 0.32875
#
# Static dielectric constant tensor:
#      x y z
#    x 2.107480 -0.093950 0.107120 
#    y -0.093950 1.966110 -0.111880 
#    z 0.107120 -0.111880 1.950110 
# 
# From -- ./inp_files/381935.got.cif
#   From: 2010.05.17/outbox.cif.g08.bks.cpg/sg2_191_cif.got.tgz:381935.got - 2010.06.03 11:33:40.
