data_PCOD9085626
_publ_section_title
;
Structure prediction by ZEFSAII (Michael W. Deem and Ramdas Pophale) SiO2 
 PCOD9085626
Probable space group: P -1
;
_chemical_formula_sum "Si O2"
_cell_formula_units_Z 16
_cell_length_a 8.782341
_cell_length_b 17.449438
_cell_length_c 11.165168
_cell_angle_alpha 32.046963
_cell_angle_beta 113.699869
_cell_angle_gamma 122.147931
_cell_volume 764.094298
_symmetry_space_group_name_H-M "P -1"
_symmetry_group_IT_number 2
_symmetry_cell_setting 'triclinic'
loop_
_space_group_symop_operation_xyz
x,y,z
-x,-y,-z
loop_
_atom_site_type_symbol
_atom_site_label
_atom_site_fract_x
_atom_site_fract_y
_atom_site_fract_z
Si Si1 0.677037 0.256013 0.900605
Si Si2 0.941364 0.758916 0.962460
Si Si3 0.729528 0.867958 0.107632
Si Si4 0.062180 0.631071 0.739649
Si Si5 0.958483 0.056549 0.713014
Si Si6 0.291152 0.441228 0.631626
Si Si7 0.315491 0.508051 0.240059
Si Si8 0.295299 0.461798 0.016085
O O1 0.477694 0.148289 0.931879
O O2 0.735965 0.414885 0.629625
O O3 0.646744 0.312022 0.951004
O O4 0.846081 0.207031 0.019228
O O5 0.832770 0.625031 0.203597
O O6 0.842786 0.688785 0.899011
O O7 0.919863 0.913697 0.798948
O O8 0.838829 0.894943 0.231428
O O9 0.735983 0.710437 0.258056
O O10 0.836839 0.001827 0.867420
O O11 0.232186 0.603866 0.777007
O O12 0.086791 0.806281 0.544603
O O13 0.891203 0.578825 0.666153
O O14 0.000000 0.500000 0.000000
O O15 0.506049 0.510325 0.635263
O O16 0.295774 0.452149 0.171930
O O17 0.500000 0.500000 0.000000
#
# Coordination Sequence:
#
# PCOD9085626 Si02
#       8
#     2   2   2   2   2   2   2   2
#     4  11  20  35  62  98 123 164 213 259 309 376
#     4  11  23  37  61  95 134 158 205 270 311 370
#     4   9  20  36  62  88 130 173 201 247 325 384
#     4  10  21  39  67  87 114 168 216 253 303 377
#     4  10  21  42  59  91 132 167 202 257 324 377
#     4  10  19  35  61  94 125 164 207 263 308 375
#     4  10  19  36  63  88 122 159 213 255 308 364
#     4  11  22  41  63  90 122 162 214 260 309 370
#
# _framework density 20.939824000000002
#
# number of rings (size 3 to 8) (size 9 to 14) (size 15 to 20)
#    0.000    1.750    2.500    3.375    0.000    0.500 
#    2.250    5.625    0.000    0.000    0.000    0.000 
#    0.000    0.000    0.000    0.000    0.000    0.000 
#
# Total GULP energy -89103.548700 kJ/mol
# GULP energy per Si atom -5568.971794 kJ/mol
# Density = 2.089216 g / cm^3
# Si number density = 20.939824 Si / 1000 Ang^3
#
#
#
# Elastic Constant Matrix: (Units=GPa)
#
#
# Indices 1 2 3 4 5 6 
#
# 1 121.9434 27.6574 35.8277 4.8463 22.3101 18.0139
# 2 27.6574 114.9230 39.1833 5.4168 8.9287 -0.9666
# 3 35.8277 39.1833 99.0628 -7.0620 15.8460 -1.5140
# 4 4.8463 5.4168 -7.0620 20.9907 -1.3699 1.4511
# 5 22.3101 8.9287 15.8460 -1.3699 31.8398 4.1952
# 6 18.0139 -0.9666 -1.5140 1.4511 4.1952 34.1166
#
#
#
# Elastic Compliance Matrix: (Units=1/GPa)
#
#
# Indices 1 2 3 4 5 6 
#
# 1 0.011283 -0.001127 -0.003074 -0.003341 -0.005505 -0.005307
# 2 -0.001127 0.010549 -0.003948 -0.003888 -0.000495 0.000945
# 3 -0.003074 -0.003948 0.013816 0.005977 -0.003663 0.002320
# 4 -0.003341 -0.003888 0.005977 0.051648 0.002760 -0.000617
# 5 -0.005505 -0.000495 -0.003663 0.002760 0.037610 -0.002012
# 6 -0.005307 0.000945 0.002320 -0.000617 -0.002012 0.032517
#
#
# Mechanical properties :
#
#
# Convention : Reuss Voigt Hill
#
# Bulk Modulus (GPa) = 51.68144 60.14067 55.91106
# Shear Modulus (GPa) = 27.75157 32.94016 30.34586
#
# Velocity S-wave (km/s) = 3.64442 3.97052 3.81096
# Velocity P-wave (km/s) = 6.51487 7.05713 6.79142
#
# Compressibility (1/GPa) = 0.01934930
#
# Stress axis : x y z
#
# Youngs Moduli (GPa) = 88.62888 94.79982 72.38240
#
# Poissons Ratio (x) = 0.10683 0.22248
# Poissons Ratio (y) = 0.09987 0.28579
# Poissons Ratio (z) = 0.27242 0.37430
#
# Static dielectric constant tensor:
#      x y z
#    x 1.917420 -0.022580 -0.030630 
#    y -0.022580 1.822180 0.024290 
#    z -0.030630 0.024290 1.836130 
# 
# From -- ./inp_files/401728.got.cif
#   From: 2010.05.17/outbox.cif.g08.bks.cpg/sg2_201_cif.got.tgz:401728.got - 2010.06.03 11:33:40.
