data_PCOD9085270
_publ_section_title
;
Structure prediction by ZEFSAII (Michael W. Deem and Ramdas Pophale) SiO2 
 PCOD9085270
Probable space group: P -1
;
_chemical_formula_sum "Si O2"
_cell_formula_units_Z 14
_cell_length_a 11.500344
_cell_length_b 14.316474
_cell_length_c 9.372731
_cell_angle_alpha 66.992698
_cell_angle_beta 96.789318
_cell_angle_gamma 152.121063
_cell_volume 564.052425
_symmetry_space_group_name_H-M "P -1"
_symmetry_group_IT_number 2
_symmetry_cell_setting 'triclinic'
loop_
_space_group_symop_operation_xyz
x,y,z
-x,-y,-z
loop_
_atom_site_type_symbol
_atom_site_label
_atom_site_fract_x
_atom_site_fract_y
_atom_site_fract_z
Si Si1 0.194708 0.667935 0.699344
Si Si2 0.690664 0.483891 0.882353
Si Si3 0.308099 0.436224 0.589283
Si Si4 0.828216 0.243945 0.056390
Si Si5 0.805121 0.763081 0.025730
Si Si6 0.376018 0.136298 0.775642
Si Si7 0.168587 0.873758 0.490430
O O1 0.903885 0.370191 0.853858
O O2 0.140255 0.727277 0.565522
O O3 0.489292 0.843353 0.595159
O O4 0.259824 0.762365 0.813323
O O5 0.473534 0.393678 0.968630
O O6 0.510070 0.273479 0.867006
O O7 0.956433 0.737051 0.671288
O O8 0.847421 0.539801 0.986485
O O9 0.500000 0.500000 0.500000
O O10 0.295100 0.398555 0.775131
O O11 0.456143 0.659773 0.433741
O O12 0.976872 0.183907 0.629292
O O13 0.628943 0.987619 0.167891
O O14 0.000000 0.000000 0.000000
O O15 0.036892 0.901710 0.868040
#
# Coordination Sequence:
#
# PCOD9085270 Si02
#       7
#     2   2   2   2   2   2   2
#     4   9  20  38  61  81 120 159 199 251 302 347
#     4   9  19  37  60  84 121 155 192 247 297 356
#     4  11  19  37  63  88 124 161 191 248 306 351
#     4  10  21  40  60  86 118 157 203 250 297 353
#     4  10  19  35  59  90 122 158 198 238 302 364
#     4  10  22  38  60  91 125 151 209 241 290 375
#     4   9  18  36  61  84 112 161 199 238 303 358
#
# _framework density 24.820388999999999
#
# number of rings (size 3 to 8) (size 9 to 14) (size 15 to 20)
#    0.000    2.286    4.286    0.000    4.000    0.571 
#    7.714   15.000    0.000    0.000    0.000    0.000 
#    0.000    0.000    0.000    0.000    0.000    0.000 
#
# Total GULP energy -78256.291866 kJ/mol
# GULP energy per Si atom -5589.735133 kJ/mol
# Density = 2.476390 g / cm^3
# Si number density = 24.820389 Si / 1000 Ang^3
#
#
#
# Elastic Constant Matrix: (Units=GPa)
#
#
# Indices 1 2 3 4 5 6 
#
# 1 109.4905 56.9972 21.8302 -11.0985 -7.8080 12.4964
# 2 56.9972 75.5476 16.5804 -5.7393 1.9286 17.5964
# 3 21.8302 16.5804 89.8418 -16.5027 20.5953 -3.6837
# 4 -11.0985 -5.7393 -16.5027 25.8021 3.3827 8.4123
# 5 -7.8080 1.9286 20.5953 3.3827 48.7510 -12.1390
# 6 12.4964 17.5964 -3.6837 8.4123 -12.1390 60.1521
#
#
#
# Elastic Compliance Matrix: (Units=1/GPa)
#
#
# Indices 1 2 3 4 5 6 
#
# 1 0.016136 -0.011710 -0.002230 0.002258 0.003937 0.000415
# 2 -0.011710 0.023784 -0.000347 0.002468 -0.004274 -0.005754
# 3 -0.002230 -0.000347 0.015399 0.010359 -0.007953 -0.001546
# 4 0.002258 0.002468 0.010359 0.051421 -0.010118 -0.009790
# 5 0.003937 -0.004274 -0.007953 -0.010118 0.027073 0.006824
# 6 0.000415 -0.005754 -0.001546 -0.009790 0.006824 0.020873
#
#
# Mechanical properties :
#
#
# Convention : Reuss Voigt Hill
#
# Bulk Modulus (GPa) = 37.39051 51.74395 44.56723
# Shear Modulus (GPa) = 26.01789 38.90583 32.46186
#
# Velocity S-wave (km/s) = 3.24118 3.96346 3.62037
# Velocity P-wave (km/s) = 5.39482 6.46822 5.95575
#
# Compressibility (1/GPa) = 0.02674475
#
# Stress axis : x y z
#
# Youngs Moduli (GPa) = 61.97335 42.04450 64.93851
#
# Poissons Ratio (x) = 0.49235 0.14483
# Poissons Ratio (y) = 0.72571 0.02253
# Poissons Ratio (z) = 0.13822 0.01459
#
# Static dielectric constant tensor:
#      x y z
#    x 1.993300 -0.033540 0.010340 
#    y -0.033540 2.071110 -0.008370 
#    z 0.010340 -0.008370 1.996020 
# 
# From -- ./inp_files/433831.got.cif
#   From: 2010.05.17/outbox.cif.g08.bks.cpg/sg2_217_cif.got.tgz:433831.got - 2010.06.03 11:33:40.
