data_PCOD9085677
_publ_section_title
;
Structure prediction by ZEFSAII (Michael W. Deem and Ramdas Pophale) SiO2 
 PCOD9085677
Probable space group: P -1
;
_chemical_formula_sum "Si O2"
_cell_formula_units_Z 16
_cell_length_a 7.864259
_cell_length_b 9.312043
_cell_length_c 14.997881
_cell_angle_alpha 73.943084
_cell_angle_beta 127.495157
_cell_angle_gamma 70.251542
_cell_volume 626.185194
_symmetry_space_group_name_H-M "P -1"
_symmetry_group_IT_number 2
_symmetry_cell_setting 'triclinic'
loop_
_space_group_symop_operation_xyz
x,y,z
-x,-y,-z
loop_
_atom_site_type_symbol
_atom_site_label
_atom_site_fract_x
_atom_site_fract_y
_atom_site_fract_z
Si Si1 0.150124 0.286387 0.670818
Si Si2 0.582181 0.533923 0.789699
Si Si3 0.018050 0.340495 0.414661
Si Si4 0.275626 0.828806 0.174629
Si Si5 0.117523 0.035075 0.266175
Si Si6 0.773438 0.467669 0.056697
Si Si7 0.261803 0.933255 0.530172
Si Si8 0.430137 0.900612 0.926107
O O1 0.960640 0.493687 0.631694
O O2 0.445875 0.240805 0.774617
O O3 0.008547 0.341878 0.519322
O O4 0.261442 0.071224 0.767118
O O5 0.278925 0.603815 0.717678
O O6 0.706924 0.357593 0.789977
O O7 0.517372 0.718648 0.689042
O O8 0.773479 0.462056 0.950428
O O9 0.267668 0.110285 0.508096
O O10 0.306692 0.891450 0.269418
O O11 0.000000 0.000000 0.000000
O O12 0.042700 0.245480 0.213765
O O13 0.817191 0.099358 0.124741
O O14 0.206483 0.931562 0.408428
O O15 0.500000 0.500000 0.000000
O O16 0.700599 0.672268 0.025939
O O17 0.000000 0.000000 0.500000
O O18 0.500000 0.000000 0.000000
#
# Coordination Sequence:
#
# PCOD9085677 Si02
#       8
#     2   2   2   2   2   2   2   2
#     4  10  21  36  58  88 122 157 196 254 310 357
#     4  10  19  35  63  86 118 162 207 247 296 368
#     4   9  18  34  59  83 114 154 199 249 308 343
#     4  11  22  40  61  86 127 171 203 237 309 376
#     4  11  23  39  62  90 122 163 210 245 301 374
#     4  10  20  35  60  90 120 159 208 251 298 361
#     4  10  19  35  62  88 117 153 207 258 296 355
#     4  11  22  33  59  89 123 149 206 262 296 340
#
# _framework density 25.551549999999999
#
# number of rings (size 3 to 8) (size 9 to 14) (size 15 to 20)
#    0.000    1.750    1.250    6.000    7.000    0.500 
#    0.000    1.250    2.750    0.000    0.000    0.000 
#    0.000    0.000    0.000    0.000    0.000    0.000 
#
# Total GULP energy -89367.159986 kJ/mol
# GULP energy per Si atom -5585.447499 kJ/mol
# Density = 2.549339 g / cm^3
# Si number density = 25.551550 Si / 1000 Ang^3
#
#
#
# Elastic Constant Matrix: (Units=GPa)
#
#
# Indices 1 2 3 4 5 6 
#
# 1 42.1965 30.5235 25.0182 -2.3121 -7.0737 10.4972
# 2 30.5235 152.1648 4.8800 -24.9593 -28.9476 4.7741
# 3 25.0182 4.8800 103.8421 -3.4469 -37.7023 -1.9925
# 4 -2.3121 -24.9593 -3.4469 52.5384 5.9212 -1.2192
# 5 -7.0737 -28.9476 -37.7023 5.9212 36.9878 7.1106
# 6 10.4972 4.7741 -1.9925 -1.2192 7.1106 24.9463
#
#
#
# Elastic Compliance Matrix: (Units=1/GPa)
#
#
# Indices 1 2 3 4 5 6 
#
# 1 0.039923 -0.009627 -0.013324 -0.002813 -0.010499 -0.013166
# 2 -0.009627 0.011635 0.006959 0.003950 0.013998 -0.001417
# 3 -0.013324 0.006959 0.021566 0.001308 0.024869 -0.001027
# 4 -0.002813 0.003950 0.001308 0.020877 0.000260 0.001478
# 5 -0.010499 0.013998 0.024869 0.000260 0.064084 -0.014528
# 6 -0.013166 -0.001417 -0.001027 0.001478 -0.014528 0.050029
#
#
# Mechanical properties :
#
#
# Convention : Reuss Voigt Hill
#
# Bulk Modulus (GPa) = 24.30705 46.56076 35.43390
# Shear Modulus (GPa) = 19.69968 38.74661 29.22314
#
# Velocity S-wave (km/s) = 2.77966 3.89833 3.38552
# Velocity P-wave (km/s) = 4.45372 6.20681 5.40186
#
# Compressibility (1/GPa) = 0.04114033
#
# Stress axis : x y z
#
# Youngs Moduli (GPa) = 25.04803 85.94724 46.36956
#
# Poissons Ratio (x) = 0.82739 0.61783
# Poissons Ratio (y) = 0.24113 -0.32268
# Poissons Ratio (z) = 0.33374 -0.59809
#
# Static dielectric constant tensor:
#      x y z
#    x 2.104360 0.018820 0.027950 
#    y 0.018820 2.141630 -0.089510 
#    z 0.027950 -0.089510 2.084070 
# 
# From -- ./inp_files/494963.got.cif
#   From: 2010.05.17/outbox.cif.g08.bks.cpg/sg2_248_cif.got.tgz:494963.got - 2010.06.03 11:33:40.
