data_PCOD9085018
_publ_section_title
;
Structure prediction by ZEFSAII (Michael W. Deem and Ramdas Pophale) SiO2 
 PCOD9085018
Probable space group: P -1
;
_chemical_formula_sum "Si O2"
_cell_formula_units_Z 16
_cell_length_a 19.204893
_cell_length_b 5.394308
_cell_length_c 7.217636
_cell_angle_alpha 77.038600
_cell_angle_beta 110.791682
_cell_angle_gamma 108.737900
_cell_volume 656.827804
_symmetry_space_group_name_H-M "P -1"
_symmetry_group_IT_number 2
_symmetry_cell_setting 'triclinic'
loop_
_space_group_symop_operation_xyz
x,y,z
-x,-y,-z
loop_
_atom_site_type_symbol
_atom_site_label
_atom_site_fract_x
_atom_site_fract_y
_atom_site_fract_z
Si Si1 0.813279 0.038632 0.755601
Si Si2 0.008551 0.649291 0.679110
Si Si3 0.127001 0.104457 0.529262
Si Si4 0.240153 0.543851 0.786246
Si Si5 0.484030 0.627101 0.157156
Si Si6 0.624931 0.017662 0.144579
Si Si7 0.337782 0.242994 0.154148
Si Si8 0.872933 0.531056 0.995187
O O1 0.843502 0.064069 0.569744
O O2 0.721418 0.929031 0.726482
O O3 0.852627 0.809086 0.903170
O O4 0.840458 0.310003 0.847237
O O5 0.039030 0.460979 0.877716
O O6 0.000000 0.500000 0.500000
O O7 0.931232 0.735323 0.636914
O O8 0.074195 0.925381 0.665769
O O9 0.201126 0.313925 0.646970
O O10 0.302066 0.791687 0.718122
O O11 0.171353 0.590419 0.836300
O O12 0.292190 0.449586 0.005521
O O13 0.425984 0.400374 0.260603
O O14 0.570027 0.796577 0.260779
O O15 0.500000 0.500000 0.000000
O O16 0.432601 0.822262 0.019480
O O17 0.655958 0.907843 0.007249
#
# Coordination Sequence:
#
# PCOD9085018 Si02
#       8
#     2   2   2   2   2   2   2   2
#     4  11  25  41  62  96 127 162 208 263 316 367
#     4  11  24  44  65  85 118 165 207 261 314 380
#     4  11  26  41  62  91 123 161 211 260 316 375
#     4  10  19  35  58  84 117 162 205 250 300 368
#     4   8  15  26  48  86 120 147 200 252 291 344
#     4   9  15  28  53  84 114 157 200 251 288 355
#     4   9  17  32  54  83 121 160 199 251 302 356
#     4  11  23  42  65  88 124 163 209 260 317 372
#
# _framework density 24.359506
#
# number of rings (size 3 to 8) (size 9 to 14) (size 15 to 20)
#    0.000    2.000    2.500    1.500    3.500    1.000 
#    0.000    0.000    0.000    0.750    0.000   29.750 
#    0.000    0.000    0.000    0.000    0.000    0.000 
#
# Total GULP energy -89351.639863 kJ/mol
# GULP energy per Si atom -5584.477491 kJ/mol
# Density = 2.430406 g / cm^3
# Si number density = 24.359506 Si / 1000 Ang^3
#
#
#
# Elastic Constant Matrix: (Units=GPa)
#
#
# Indices 1 2 3 4 5 6 
#
# 1 88.2725 7.7465 12.8756 -7.0210 -15.5680 1.0098
# 2 7.7465 82.6590 20.1523 4.9500 3.2640 14.8035
# 3 12.8756 20.1523 49.5373 7.2969 -14.8181 16.6425
# 4 -7.0210 4.9500 7.2969 38.4795 -0.9668 1.0704
# 5 -15.5680 3.2640 -14.8181 -0.9668 30.9035 7.3630
# 6 1.0098 14.8035 16.6425 1.0704 7.3630 45.5603
#
#
#
# Elastic Compliance Matrix: (Units=1/GPa)
#
#
# Indices 1 2 3 4 5 6 
#
# 1 0.012966 -0.001243 -0.001246 0.002934 0.006279 -0.000512
# 2 -0.001243 0.014261 -0.006265 -0.000952 -0.004804 -0.001519
# 3 -0.001246 -0.006265 0.034125 -0.005031 0.019438 -0.013425
# 4 0.002934 -0.000952 -0.005031 0.027550 -0.000326 0.001487
# 5 0.006279 -0.004804 0.019438 -0.000326 0.048561 -0.013519
# 6 -0.000512 -0.001519 -0.013425 0.001487 -0.013519 0.029508
#
#
# Mechanical properties :
#
#
# Convention : Reuss Voigt Hill
#
# Bulk Modulus (GPa) = 22.80863 33.55753 28.18308
# Shear Modulus (GPa) = 25.11383 34.96830 30.04106
#
# Velocity S-wave (km/s) = 3.21435 3.79292 3.51556
# Velocity P-wave (km/s) = 4.81246 5.74348 5.29846
#
# Compressibility (1/GPa) = 0.04384306
#
# Stress axis : x y z
#
# Youngs Moduli (GPa) = 77.12405 70.12375 29.30381
#
# Poissons Ratio (x) = 0.08719 0.03652
# Poissons Ratio (y) = 0.09589 0.18359
# Poissons Ratio (z) = 0.09611 0.43932
#
# Static dielectric constant tensor:
#      x y z
#    x 2.559830 -0.289140 0.076190 
#    y -0.289140 2.238500 -0.072120 
#    z 0.076190 -0.072120 1.927320 
# 
# From -- ./inp_files/44588.got.cif
#   From: 2010.05.17/outbox.cif.g08.bks.cpg/sg2_23_cif.got.tgz:44588.got - 2010.06.03 11:33:40.
