data_PCOD9085619
_publ_section_title
;
Structure prediction by ZEFSAII (Michael W. Deem and Ramdas Pophale) SiO2 
 PCOD9085619
Probable space group: P -1
;
_chemical_formula_sum "Si O2"
_cell_formula_units_Z 14
_cell_length_a 6.543765
_cell_length_b 17.604422
_cell_length_c 8.758288
_cell_angle_alpha 67.702133
_cell_angle_beta 125.708709
_cell_angle_gamma 132.221006
_cell_volume 606.572658
_symmetry_space_group_name_H-M "P -1"
_symmetry_group_IT_number 2
_symmetry_cell_setting 'triclinic'
loop_
_space_group_symop_operation_xyz
x,y,z
-x,-y,-z
loop_
_atom_site_type_symbol
_atom_site_label
_atom_site_fract_x
_atom_site_fract_y
_atom_site_fract_z
Si Si1 0.264276 0.194401 0.239960
Si Si2 0.106257 0.100874 0.559183
Si Si3 0.759563 0.166759 0.518709
Si Si4 0.239028 0.617949 0.892617
Si Si5 0.246677 0.811537 0.142122
Si Si6 0.694012 0.617378 0.551402
Si Si7 0.826212 0.386690 0.797253
O O1 0.223267 0.185520 0.411212
O O2 0.439485 0.142212 0.329307
O O3 0.507948 0.302882 0.180185
O O4 0.929714 0.153823 0.056589
O O5 0.386382 0.133365 0.772010
O O6 0.838997 0.096225 0.533611
O O7 0.000000 0.000000 0.500000
O O8 0.748252 0.162467 0.698787
O O9 0.047496 0.285159 0.513703
O O10 0.939662 0.622696 0.771827
O O11 0.108529 0.505204 0.863032
O O12 0.363195 0.642393 0.101397
O O13 0.091469 0.691211 0.142247
O O14 0.500000 0.500000 0.500000
O O15 0.398739 0.622128 0.427680
#
# Coordination Sequence:
#
# PCOD9085619 Si02
#       7
#     2   2   2   2   2   2   2
#     4  10  24  40  65 100 125 166 214 259 321 381
#     4  11  26  48  69  91 124 167 216 274 330 376
#     4  10  22  43  62  91 133 163 207 272 317 374
#     4   9  20  36  59  94 134 170 210 258 303 372
#     4  11  24  39  67  98 125 170 215 259 322 386
#     4   9  17  34  59  87 122 171 209 245 307 369
#     4  10  19  35  61  93 132 174 210 251 308 374
#
# _framework density 23.080497999999999
#
# number of rings (size 3 to 8) (size 9 to 14) (size 15 to 20)
#    0.000    2.000    1.429    0.857    4.000    3.429 
#    2.571    4.286    0.000    0.000    0.000    0.000 
#    0.000    0.000    0.000    0.000    0.000    0.000 
#
# Total GULP energy -78036.053971 kJ/mol
# GULP energy per Si atom -5574.003855 kJ/mol
# Density = 2.302797 g / cm^3
# Si number density = 23.080498 Si / 1000 Ang^3
#
#
#
# Elastic Constant Matrix: (Units=GPa)
#
#
# Indices 1 2 3 4 5 6 
#
# 1 108.8970 36.1948 43.9766 -0.3999 23.8633 -23.2486
# 2 36.1948 85.6923 38.3612 2.2061 -7.8951 -15.2902
# 3 43.9766 38.3612 120.1020 2.7210 45.7464 -20.0790
# 4 -0.3999 2.2061 2.7210 13.4562 0.6078 -4.8361
# 5 23.8633 -7.8951 45.7464 0.6078 47.2959 -5.0281
# 6 -23.2486 -15.2902 -20.0790 -4.8361 -5.0281 40.9971
#
#
#
# Elastic Compliance Matrix: (Units=1/GPa)
#
#
# Indices 1 2 3 4 5 6 
#
# 1 0.013866 -0.006157 0.000897 0.003559 -0.008363 0.005400
# 2 -0.006157 0.020848 -0.010711 -0.001879 0.017068 0.000910
# 3 0.000897 -0.010711 0.020190 0.000026 -0.021367 0.003785
# 4 0.003559 -0.001879 0.000026 0.078533 -0.002044 0.010343
# 5 -0.008363 0.017068 -0.021367 -0.002044 0.048573 -0.003126
# 6 0.005400 0.000910 0.003785 0.010343 -0.003126 0.030484
#
#
# Mechanical properties :
#
#
# Convention : Reuss Voigt Hill
#
# Bulk Modulus (GPa) = 43.54977 61.30628 52.42803
# Shear Modulus (GPa) = 19.83425 33.42710 26.63068
#
# Velocity S-wave (km/s) = 2.93465 3.80976 3.40047
# Velocity P-wave (km/s) = 5.51294 6.78026 6.17918
#
# Compressibility (1/GPa) = 0.02296223
#
# Stress axis : x y z
#
# Youngs Moduli (GPa) = 72.12041 47.96557 49.53058
#
# Poissons Ratio (x) = 0.29531 -0.04443
# Poissons Ratio (y) = 0.44403 0.53052
# Poissons Ratio (z) = -0.06470 0.51376
#
# Static dielectric constant tensor:
#      x y z
#    x 1.900510 0.019430 0.053700 
#    y 0.019430 1.903210 -0.027500 
#    z 0.053700 -0.027500 1.871170 
# 
# From -- ./inp_files/137656.got.cif
#   From: 2010.05.17/outbox.cif.g08.bks.cpg/sg2_69_cif.got.tgz:137656.got - 2010.06.03 11:33:40.
