data_PCOD9085073
_publ_section_title
;
Structure prediction by ZEFSAII (Michael W. Deem and Ramdas Pophale) SiO2 
 PCOD9085073
Probable space group: P -1
;
_chemical_formula_sum "Si O2"
_cell_formula_units_Z 12
_cell_length_a 12.817118
_cell_length_b 8.886849
_cell_length_c 15.892183
_cell_angle_alpha 146.117790
_cell_angle_beta 36.645240
_cell_angle_gamma 147.268823
_cell_volume 512.154610
_symmetry_space_group_name_H-M "P -1"
_symmetry_group_IT_number 2
_symmetry_cell_setting 'triclinic'
loop_
_space_group_symop_operation_xyz
x,y,z
-x,-y,-z
loop_
_atom_site_type_symbol
_atom_site_label
_atom_site_fract_x
_atom_site_fract_y
_atom_site_fract_z
Si Si1 0.274693 0.625364 0.157431
Si Si2 0.205079 0.160444 0.499257
Si Si3 0.781760 0.410631 0.565276
Si Si4 0.266968 0.165429 0.089226
Si Si5 0.083615 0.584286 0.841525
Si Si6 0.617083 0.217641 0.402602
O O1 0.220154 0.348791 0.131536
O O2 0.121631 0.531094 0.133169
O O3 0.267655 0.902632 0.341544
O O4 0.500734 0.746242 0.032713
O O5 0.387587 0.475406 0.481419
O O6 0.136455 0.307996 0.686871
O O7 0.000000 0.000000 0.500000
O O8 0.749916 0.692269 0.745833
O O9 0.765453 0.346133 0.446995
O O10 0.000000 0.500000 0.500000
O O11 0.592274 0.088234 0.576785
O O12 0.114563 0.793171 0.999189
O O13 0.735935 0.172354 0.228220
#
# Coordination Sequence:
#
# PCOD9085073 Si02
#       6
#     2   2   2   2   2   2
#     4  10  19  35  58  88 120 143 189 245 286 338
#     4   8  18  37  62  86 113 156 185 234 291 347
#     4  11  23  38  57  81 123 154 194 233 282 349
#     4  11  22  33  57  94 110 150 193 245 285 327
#     4   9  19  37  60  87 113 145 195 235 289 332
#     4   9  20  39  58  85 110 158 194 222 287 349
#
# _framework density 23.430426000000001
#
# number of rings (size 3 to 8) (size 9 to 14) (size 15 to 20)
#    1.000    1.333    0.000    3.500    0.000    3.333 
#    0.000    0.833    0.000    5.000    0.000    0.000 
#    0.000    0.000    0.000    0.000    0.000    0.000 
#
# Total GULP energy -67034.707904 kJ/mol
# GULP energy per Si atom -5586.225659 kJ/mol
# Density = 2.337710 g / cm^3
# Si number density = 23.430426 Si / 1000 Ang^3
#
#
#
# Elastic Constant Matrix: (Units=GPa)
#
#
# Indices 1 2 3 4 5 6 
#
# 1 45.7287 36.7684 8.8355 -10.3938 -6.0043 25.1748
# 2 36.7684 99.6003 47.4485 13.8427 -3.3971 8.4607
# 3 8.8355 47.4485 143.4799 17.3690 -11.8949 12.5476
# 4 -10.3938 13.8427 17.3690 36.2082 7.9709 -4.8506
# 5 -6.0043 -3.3971 -11.8949 7.9709 38.6017 -0.2902
# 6 25.1748 8.4607 12.5476 -4.8506 -0.2902 35.0440
#
#
#
# Elastic Compliance Matrix: (Units=1/GPa)
#
#
# Indices 1 2 3 4 5 6 
#
# 1 0.078029 -0.031258 0.007509 0.022863 0.006618 -0.047976
# 2 -0.031258 0.024896 -0.006407 -0.012729 -0.001890 0.016961
# 3 0.007509 -0.006407 0.009872 -0.002036 0.004009 -0.007631
# 4 0.022863 -0.012729 -0.002036 0.040533 -0.006614 -0.007067
# 5 0.006618 -0.001890 0.004009 -0.006614 0.029322 -0.006406
# 6 -0.047976 0.016961 -0.007631 -0.007067 -0.006406 0.060607
#
#
# Mechanical properties :
#
#
# Convention : Reuss Voigt Hill
#
# Bulk Modulus (GPa) = 19.05393 52.76820 35.91107
# Shear Modulus (GPa) = 15.57314 35.02122 25.29718
#
# Velocity S-wave (km/s) = 2.58089 3.87032 3.28940
# Velocity P-wave (km/s) = 4.12687 6.52247 5.45773
#
# Compressibility (1/GPa) = 0.05248260
#
# Stress axis : x y z
#
# Youngs Moduli (GPa) = 12.81582 40.16770 101.29551
#
# Poissons Ratio (x) = 1.25558 -0.76060
# Poissons Ratio (y) = 0.40060 0.64900
# Poissons Ratio (z) = -0.09623 0.25736
#
# Static dielectric constant tensor:
#      x y z
#    x 1.911430 -0.005860 0.006400 
#    y -0.005860 1.895300 0.034560 
#    z 0.006400 0.034560 1.866740 
# 
# From -- ./inp_files/275361.got.cif
#   From: 2010.05.17/outbox.cif.g08.bks.cpg/sg2_138_cif.got.tgz:275361.got - 2010.06.03 11:33:40.
