data_PCOD9085984
_publ_section_title
;
Structure prediction by ZEFSAII (Michael W. Deem and Ramdas Pophale) SiO2 
 PCOD9085984
Probable space group: P -1
;
_chemical_formula_sum "Si O2"
_cell_formula_units_Z 16
_cell_length_a 9.713880
_cell_length_b 14.541452
_cell_length_c 23.017136
_cell_angle_alpha 21.055650
_cell_angle_beta 132.202120
_cell_angle_gamma 131.399922
_cell_volume 858.036725
_symmetry_space_group_name_H-M "P -1"
_symmetry_group_IT_number 2
_symmetry_cell_setting 'triclinic'
loop_
_space_group_symop_operation_xyz
x,y,z
-x,-y,-z
loop_
_atom_site_type_symbol
_atom_site_label
_atom_site_fract_x
_atom_site_fract_y
_atom_site_fract_z
Si Si1 0.888190 0.067579 0.985515
Si Si2 0.517865 0.822207 0.771220
Si Si3 0.009808 0.089368 0.382780
Si Si4 0.553724 0.832115 0.559956
Si Si5 0.356710 0.139651 0.638107
Si Si6 0.509499 0.300694 0.705087
Si Si7 0.183654 0.425890 0.935018
Si Si8 0.388557 0.254573 0.822831
O O1 0.708341 0.207454 0.833617
O O2 0.040485 0.244291 0.962481
O O3 0.794690 0.835708 0.137388
O O4 0.000000 0.000000 0.000000
O O5 0.354120 0.584705 0.852718
O O6 0.520649 0.035446 0.596788
O O7 0.449945 0.936890 0.744810
O O8 0.713106 0.721441 0.899715
O O9 0.222558 0.119269 0.407562
O O10 0.934350 0.363530 0.196268
O O11 0.000000 0.000000 0.500000
O O12 0.864243 0.900965 0.414509
O O13 0.489150 0.522512 0.721545
O O14 0.500000 0.000000 0.500000
O O15 0.409411 0.125845 0.728443
O O16 0.441439 0.415432 0.474398
O O17 0.377831 0.311383 0.717627
O O18 0.500000 0.000000 0.000000
#
# Coordination Sequence:
#
# PCOD9085984 Si02
#       8
#     2   2   2   2   2   2   2   2
#     4  11  23  37  63  88 124 170 223 260 322 400
#     4  10  21  40  63  95 134 164 214 280 328 380
#     4  11  19  39  66  92 122 170 225 262 311 396
#     4  12  25  42  67  98 134 174 216 276 335 385
#     4  10  19  35  66  92 123 164 222 262 323 386
#     4  10  20  37  62  91 124 168 212 267 324 387
#     4  10  21  38  66  92 126 167 219 270 322 381
#     4  10  22  43  63  92 131 170 213 272 327 385
#
# _framework density 18.647220000000001
#
# number of rings (size 3 to 8) (size 9 to 14) (size 15 to 20)
#    0.000    1.500    3.750    3.000    1.750    0.000 
#    6.750    1.250    0.000    0.000    0.000    0.000 
#    0.000    0.000    0.000    0.000    0.000    0.000 
#
# Total GULP energy -89189.943411 kJ/mol
# GULP energy per Si atom -5574.371463 kJ/mol
# Density = 1.860478 g / cm^3
# Si number density = 18.647220 Si / 1000 Ang^3
#
#
#
# Elastic Constant Matrix: (Units=GPa)
#
#
# Indices 1 2 3 4 5 6 
#
# 1 135.3051 62.7589 38.3702 -5.1389 -1.0933 -4.6650
# 2 62.7589 146.5068 44.7858 -6.1550 -7.8566 4.7557
# 3 38.3702 44.7858 86.4257 -0.5005 3.7786 6.7464
# 4 -5.1389 -6.1550 -0.5005 34.0081 9.2851 5.3308
# 5 -1.0933 -7.8566 3.7786 9.2851 25.5527 0.2021
# 6 -4.6650 4.7557 6.7464 5.3308 0.2021 22.5638
#
#
#
# Elastic Compliance Matrix: (Units=1/GPa)
#
#
# Indices 1 2 3 4 5 6 
#
# 1 0.009968 -0.003516 -0.002863 0.000376 -0.000396 0.003573
# 2 -0.003516 0.009629 -0.003412 0.000612 0.003107 -0.001909
# 3 -0.002863 -0.003412 0.015134 0.000900 -0.003700 -0.004577
# 4 0.000376 0.000612 0.000900 0.034247 -0.012308 -0.008301
# 5 -0.000396 0.003107 -0.003700 -0.012308 0.045070 0.002874
# 6 0.003573 -0.001909 -0.004577 -0.008301 0.002874 0.048764
#
#
# Mechanical properties :
#
#
# Convention : Reuss Voigt Hill
#
# Bulk Modulus (GPa) = 66.01067 73.34081 69.67574
# Shear Modulus (GPa) = 26.67478 31.24644 28.96061
#
# Velocity S-wave (km/s) = 3.78629 4.09793 3.94519
# Velocity P-wave (km/s) = 7.38859 7.86173 7.62883
#
# Compressibility (1/GPa) = 0.01514907
#
# Stress axis : x y z
#
# Youngs Moduli (GPa) = 100.32451 103.85081 66.07645
#
# Poissons Ratio (x) = 0.36516 0.18915
# Poissons Ratio (y) = 0.35276 0.22546
# Poissons Ratio (z) = 0.28719 0.35435
#
# Static dielectric constant tensor:
#      x y z
#    x 1.598110 0.022960 -0.039770 
#    y 0.022960 1.647040 0.021290 
#    z -0.039770 0.021290 1.662540 
# 
# From -- ./inp_files/608166.got.cif
#   From: 2010.05.17/outbox.cif.g08.bks.cpg/sg2_305_cif.got.tgz:608166.got - 2010.06.03 11:33:40.
