data_PCOD9085253
_publ_section_title
;
Structure prediction by ZEFSAII (Michael W. Deem and Ramdas Pophale) SiO2 
 PCOD9085253
Probable space group: P -1
;
_chemical_formula_sum "Si O2"
_cell_formula_units_Z 16
_cell_length_a 8.789551
_cell_length_b 13.785597
_cell_length_c 9.108803
_cell_angle_alpha 99.084438
_cell_angle_beta 80.441026
_cell_angle_gamma 51.423648
_cell_volume 800.451112
_symmetry_space_group_name_H-M "P -1"
_symmetry_group_IT_number 2
_symmetry_cell_setting 'triclinic'
loop_
_space_group_symop_operation_xyz
x,y,z
-x,-y,-z
loop_
_atom_site_type_symbol
_atom_site_label
_atom_site_fract_x
_atom_site_fract_y
_atom_site_fract_z
Si Si1 0.185022 0.660350 0.502781
Si Si2 0.516421 0.179084 0.265418
Si Si3 0.097171 0.063202 0.959985
Si Si4 0.396269 0.391474 0.560429
Si Si5 0.169183 0.194459 0.180702
Si Si6 0.284841 0.602657 0.171579
Si Si7 0.104965 0.548875 0.920050
Si Si8 0.364533 0.693268 0.937382
O O1 0.257877 0.522191 0.512338
O O2 0.379305 0.651600 0.478959
O O3 0.125451 0.682453 0.347218
O O4 0.003894 0.765988 0.665767
O O5 0.432371 0.274116 0.441869
O O6 0.349050 0.173745 0.232650
O O7 0.739092 0.031108 0.216710
O O8 0.557869 0.242912 0.143373
O O9 0.880532 0.214357 0.027429
O O10 0.230446 0.069499 0.055180
O O11 0.000000 0.000000 0.000000
O O12 0.277234 0.442049 0.746966
O O13 0.064530 0.316726 0.113449
O O14 0.361296 0.673719 0.108476
O O15 0.197251 0.573001 0.046919
O O16 0.481901 0.459533 0.172928
O O17 0.000000 0.500000 0.000000
#
# Coordination Sequence:
#
# PCOD9085253 Si02
#       8
#     2   2   2   2   2   2   2   2
#     4  10  21  34  62  87 125 153 204 253 304 353
#     4  11  22  37  63  84 128 158 209 245 298 356
#     4  10  21  39  63  87 117 161 212 251 288 354
#     4  10  21  37  57  90 118 161 204 251 295 363
#     4  11  23  39  59  94 122 160 205 250 300 360
#     4  11  20  35  62  88 125 157 195 253 304 365
#     4  11  24  36  60  93 132 156 193 251 318 361
#     4  10  19  35  59  89 113 159 201 243 299 351
#
# _framework density 19.988727999999998
#
# number of rings (size 3 to 8) (size 9 to 14) (size 15 to 20)
#    0.000    1.500    2.500    4.125    5.250    1.000 
#    0.000    0.000    0.000   16.500    0.000    0.000 
#    0.000    0.000    0.000    0.000    0.000    0.000 
#
# Total GULP energy -89073.940313 kJ/mol
# GULP energy per Si atom -5567.121270 kJ/mol
# Density = 1.994323 g / cm^3
# Si number density = 19.988728 Si / 1000 Ang^3
#
#
#
# Elastic Constant Matrix: (Units=GPa)
#
#
# Indices 1 2 3 4 5 6 
#
# 1 82.0468 21.3195 27.5867 4.3313 7.9818 9.9504
# 2 21.3195 18.8360 21.5943 2.7782 1.3628 -1.3998
# 3 27.5867 21.5943 130.7803 -0.9040 0.5112 13.4953
# 4 4.3313 2.7782 -0.9040 30.2298 9.5118 -4.0599
# 5 7.9818 1.3628 0.5112 9.5118 37.5896 -2.0650
# 6 9.9504 -1.3998 13.4953 -4.0599 -2.0650 26.4781
#
#
#
# Elastic Compliance Matrix: (Units=1/GPa)
#
#
# Indices 1 2 3 4 5 6 
#
# 1 0.019500 -0.023169 0.000681 -0.000751 -0.003631 -0.009298
# 2 -0.023169 0.096225 -0.013121 -0.004422 0.003833 0.020102
# 3 0.000681 -0.013121 0.010307 0.000696 -0.000321 -0.006121
# 4 -0.000751 -0.004422 0.000696 0.037012 -0.008798 0.004683
# 5 -0.003631 0.003833 -0.000321 -0.008798 0.029614 0.002691
# 6 -0.009298 0.020102 -0.006121 0.004683 0.002691 0.046372
#
#
# Mechanical properties :
#
#
# Convention : Reuss Voigt Hill
#
# Bulk Modulus (GPa) = 18.24379 41.40713 29.82546
# Shear Modulus (GPa) = 15.21975 29.60367 22.41171
#
# Velocity S-wave (km/s) = 2.76237 3.85257 3.35209
# Velocity P-wave (km/s) = 4.39558 6.36789 5.47134
#
# Compressibility (1/GPa) = 0.05481318
#
# Stress axis : x y z
#
# Youngs Moduli (GPa) = 51.28158 10.39226 97.02064
#
# Poissons Ratio (x) = 0.24078 -0.06606
# Poissons Ratio (y) = 1.18816 1.27303
# Poissons Ratio (z) = -0.03491 0.13636
#
# Static dielectric constant tensor:
#      x y z
#    x 1.765180 -0.028510 0.026060 
#    y -0.028510 1.789380 -0.011480 
#    z 0.026060 -0.011480 1.737900 
# 
# From -- ./inp_files/202530.got.cif
#   From: 2010.05.17/outbox.cif.g08.bks.cpg/sg2_102_cif.got.tgz:202530.got - 2010.06.03 11:33:40.
