data_PCOD9085250
_publ_section_title
;
Structure prediction by ZEFSAII (Michael W. Deem and Ramdas Pophale) SiO2 
 PCOD9085250
Probable space group: P -1
;
_chemical_formula_sum "Si O2"
_cell_formula_units_Z 16
_cell_length_a 5.563956
_cell_length_b 9.648315
_cell_length_c 13.627613
_cell_angle_alpha 105.173022
_cell_angle_beta 63.472228
_cell_angle_gamma 108.367538
_cell_volume 614.862438
_symmetry_space_group_name_H-M "P -1"
_symmetry_group_IT_number 2
_symmetry_cell_setting 'triclinic'
loop_
_space_group_symop_operation_xyz
x,y,z
-x,-y,-z
loop_
_atom_site_type_symbol
_atom_site_label
_atom_site_fract_x
_atom_site_fract_y
_atom_site_fract_z
Si Si1 0.250504 0.490662 0.763568
Si Si2 0.894260 0.228992 0.879900
Si Si3 0.575455 0.236973 0.613257
Si Si4 0.498498 0.799822 0.862916
Si Si5 0.910642 0.028493 0.130478
Si Si6 0.193124 0.940893 0.334876
Si Si7 0.656796 0.800895 0.533650
Si Si8 0.892912 0.540996 0.423055
O O1 0.387103 0.353695 0.684408
O O2 0.445157 0.630354 0.805286
O O3 0.156965 0.545928 0.686148
O O4 0.011638 0.400677 0.862658
O O5 0.781635 0.141809 0.785087
O O6 0.127564 0.138445 0.850047
O O7 0.668889 0.205559 0.003220
O O8 0.563713 0.082817 0.639882
O O9 0.613507 0.212181 0.485789
O O10 0.852526 0.325783 0.630310
O O11 0.819346 0.875375 0.843286
O O12 0.330455 0.885598 0.833669
O O13 0.000000 0.000000 0.000000
O O14 0.885222 0.884958 0.426853
O O15 0.247749 0.117148 0.368351
O O16 0.668086 0.632155 0.510034
O O17 0.000000 0.500000 0.500000
#
# Coordination Sequence:
#
# PCOD9085250 Si02
#       8
#     2   2   2   2   2   2   2   2
#     4  11  24  42  66 103 132 175 236 281 341 415
#     4  11  21  44  68  98 133 179 227 288 341 405
#     4  10  19  38  62  85 129 165 216 281 341 393
#     4  11  26  46  70 103 142 187 229 284 346 423
#     4  10  24  47  69  96 141 185 229 286 350 407
#     4  10  19  35  59  88 124 159 212 277 334 393
#     4   9  19  36  55  88 120 159 215 270 335 398
#     4  10  22  41  62  85 135 175 218 280 345 411
#
# _framework density 26.022079999999999
#
# number of rings (size 3 to 8) (size 9 to 14) (size 15 to 20)
#    0.000    1.750    3.750    2.250    1.750    6.000 
#    2.250    3.750    0.000    0.000    0.000    0.000 
#    0.000    0.000    0.000    0.000    0.000    0.000 
#
# Total GULP energy -89125.701470 kJ/mol
# GULP energy per Si atom -5570.356342 kJ/mol
# Density = 2.596285 g / cm^3
# Si number density = 26.022080 Si / 1000 Ang^3
#
#
#
# Elastic Constant Matrix: (Units=GPa)
#
#
# Indices 1 2 3 4 5 6 
#
# 1 100.7070 30.9653 40.2142 0.3560 28.5330 -4.6793
# 2 30.9653 112.0198 34.3984 8.0068 26.1576 10.4832
# 3 40.2142 34.3984 91.7027 -2.7719 25.0464 10.7915
# 4 0.3560 8.0068 -2.7719 45.5087 6.2983 22.8479
# 5 28.5330 26.1576 25.0464 6.2983 54.3416 -5.2926
# 6 -4.6793 10.4832 10.7915 22.8479 -5.2926 52.3167
#
#
#
# Elastic Compliance Matrix: (Units=1/GPa)
#
#
# Indices 1 2 3 4 5 6 
#
# 1 0.013447 -0.001584 -0.004550 -0.000774 -0.003877 0.002405
# 2 -0.001584 0.011137 -0.002277 -0.000572 -0.003610 -0.002019
# 3 -0.004550 -0.002277 0.016000 0.005125 -0.005068 -0.006002
# 4 -0.000774 -0.000572 0.005125 0.030968 -0.006752 -0.015219
# 5 -0.003877 -0.003610 -0.005068 -0.006752 0.025975 0.006998
# 6 0.002405 -0.002019 -0.006002 -0.015219 0.006998 0.028327
#
#
# Mechanical properties :
#
#
# Convention : Reuss Voigt Hill
#
# Bulk Modulus (GPa) = 42.08510 57.28724 49.68617
# Shear Modulus (GPa) = 33.20158 43.69017 38.44587
#
# Velocity S-wave (km/s) = 3.57585 4.10196 3.84791
# Velocity P-wave (km/s) = 5.76688 6.67064 6.23516
#
# Compressibility (1/GPa) = 0.02376138
#
# Stress axis : x y z
#
# Youngs Moduli (GPa) = 74.36779 89.79253 62.50186
#
# Poissons Ratio (x) = 0.14226 0.28438
# Poissons Ratio (y) = 0.11782 0.14229
# Poissons Ratio (z) = 0.33838 0.20441
#
# Static dielectric constant tensor:
#      x y z
#    x 2.320400 -0.106620 -0.088070 
#    y -0.106620 2.327100 -0.091060 
#    z -0.088070 -0.091060 2.131490 
# 
# From -- ./inp_files/480630.got.cif
#   From: 2010.05.17/outbox.cif.g08.bks.cpg/sg2_241_cif.got.tgz:480630.got - 2010.06.03 11:33:40.
