data_PCOD9085255
_publ_section_title
;
Structure prediction by ZEFSAII (Michael W. Deem and Ramdas Pophale) SiO2 
 PCOD9085255
Probable space group: P -1
;
_chemical_formula_sum "Si O2"
_cell_formula_units_Z 16
_cell_length_a 10.786540
_cell_length_b 8.860450
_cell_length_c 7.883874
_cell_angle_alpha 108.750258
_cell_angle_beta 57.988377
_cell_angle_gamma 91.400454
_cell_volume 594.927523
_symmetry_space_group_name_H-M "P -1"
_symmetry_group_IT_number 2
_symmetry_cell_setting 'triclinic'
loop_
_space_group_symop_operation_xyz
x,y,z
-x,-y,-z
loop_
_atom_site_type_symbol
_atom_site_label
_atom_site_fract_x
_atom_site_fract_y
_atom_site_fract_z
Si Si1 0.759931 0.060722 0.138060
Si Si2 0.359649 0.473099 0.870771
Si Si3 0.727940 0.202317 0.765790
Si Si4 0.911592 0.677955 0.571855
Si Si5 0.135283 0.416930 0.760324
Si Si6 0.329928 0.625274 0.497033
Si Si7 0.597765 0.802159 0.989784
Si Si8 0.963388 0.021823 0.304693
O O1 0.662293 0.230013 0.325829
O O2 0.854149 0.000402 0.218571
O O3 0.657613 0.937557 0.105585
O O4 0.879212 0.084515 0.912994
O O5 0.268907 0.372050 0.778154
O O6 0.513005 0.492573 0.679419
O O7 0.402777 0.358659 0.957544
O O8 0.267414 0.643106 0.061245
O O9 0.705319 0.291087 0.629329
O O10 0.576034 0.141219 0.909145
O O11 0.860543 0.054079 0.563064
O O12 0.927818 0.700652 0.365863
O O13 0.000000 0.500000 0.500000
O O14 0.982173 0.803721 0.677296
O O15 0.733776 0.732500 0.741844
O O16 0.202028 0.537972 0.630690
O O17 0.000000 0.500000 0.000000
#
# Coordination Sequence:
#
# PCOD9085255 Si02
#       8
#     2   2   2   2   2   2   2   2
#     4   9  19  35  57  86 112 152 195 230 279 330
#     4  11  22  36  58  89 119 147 184 241 298 335
#     4  10  19  35  59  89 115 146 189 238 289 331
#     4  11  20  36  58  83 111 147 192 239 287 333
#     4  12  24  36  57  86 116 149 191 240 290 341
#     4  10  21  38  58  81 119 155 189 234 282 343
#     4  10  20  35  61  87 113 147 196 237 275 347
#     4   9  18  31  53  78 112 142 179 235 276 321
#
# _framework density 26.894033
#
# number of rings (size 3 to 8) (size 9 to 14) (size 15 to 20)
#    0.000    1.750    0.000    7.125    0.000    7.500 
#    0.000    0.000    0.000   23.250    0.000    0.000 
#    0.000    0.000    0.000    0.000    0.000    0.000 
#
# Total GULP energy -89444.823737 kJ/mol
# GULP energy per Si atom -5590.301484 kJ/mol
# Density = 2.683282 g / cm^3
# Si number density = 26.894033 Si / 1000 Ang^3
#
#
#
# Elastic Constant Matrix: (Units=GPa)
#
#
# Indices 1 2 3 4 5 6 
#
# 1 83.6371 29.2691 46.4099 17.3615 -32.7180 12.1694
# 2 29.2691 89.7840 44.6719 30.6745 -10.3440 16.0511
# 3 46.4099 44.6719 192.9268 12.6534 -21.3679 -0.3871
# 4 17.3615 30.6745 12.6534 53.8998 11.4494 -6.4285
# 5 -32.7180 -10.3440 -21.3679 11.4494 61.4581 -0.2496
# 6 12.1694 16.0511 -0.3871 -6.4285 -0.2496 40.6094
#
#
#
# Elastic Compliance Matrix: (Units=1/GPa)
#
#
# Indices 1 2 3 4 5 6 
#
# 1 0.021831 0.001236 -0.003466 -0.010625 0.012569 -0.008668
# 2 0.001236 0.019116 -0.003348 -0.012749 0.005046 -0.009945
# 3 -0.003466 -0.003348 0.006625 0.001886 -0.000446 0.002721
# 4 -0.010625 -0.012749 0.001886 0.033209 -0.013279 0.013416
# 5 0.012569 0.005046 -0.000446 -0.013279 0.026099 -0.007707
# 6 -0.008668 -0.009945 0.002721 0.013416 -0.007707 0.033256
#
#
# Mechanical properties :
#
#
# Convention : Reuss Voigt Hill
#
# Bulk Modulus (GPa) = 27.46221 67.44997 47.45609
# Shear Modulus (GPa) = 30.59393 47.59327 39.09360
#
# Velocity S-wave (km/s) = 3.37645 4.21130 3.81677
# Velocity P-wave (km/s) = 5.04321 6.98434 6.09159
#
# Compressibility (1/GPa) = 0.03641367
#
# Stress axis : x y z
#
# Youngs Moduli (GPa) = 45.80622 52.31274 150.94744
#
# Poissons Ratio (x) = -0.06463 0.52320
# Poissons Ratio (y) = -0.05660 0.50544
# Poissons Ratio (z) = 0.15877 0.17517
#
# Static dielectric constant tensor:
#      x y z
#    x 2.274110 0.033970 0.022510 
#    y 0.033970 2.175680 0.000050 
#    z 0.022510 0.000050 2.112260 
# 
# From -- ./inp_files/205929.got.cif
#   From: 2010.05.17/outbox.cif.g08.bks.cpg/sg2_103_cif.got.tgz:205929.got - 2010.06.03 11:33:40.
