data_PCOD9085004
_publ_section_title
;
Structure prediction by ZEFSAII (Michael W. Deem and Ramdas Pophale) SiO2 
 PCOD9085004
Probable space group: P -1
;
_chemical_formula_sum "Si O2"
_cell_formula_units_Z 16
_cell_length_a 19.092604
_cell_length_b 8.127050
_cell_length_c 8.127046
_cell_angle_alpha 94.975669
_cell_angle_beta 151.054741
_cell_angle_gamma 84.399558
_cell_volume 607.397471
_symmetry_space_group_name_H-M "P -1"
_symmetry_group_IT_number 2
_symmetry_cell_setting 'triclinic'
loop_
_space_group_symop_operation_xyz
x,y,z
-x,-y,-z
loop_
_atom_site_type_symbol
_atom_site_label
_atom_site_fract_x
_atom_site_fract_y
_atom_site_fract_z
Si Si1 0.679960 0.377371 0.982548
Si Si2 0.245971 0.868064 0.354100
Si Si3 0.669496 0.642428 0.696563
Si Si4 0.960099 0.034099 0.606954
Si Si5 0.658956 0.553975 0.289582
Si Si6 0.754029 0.862157 0.376122
Si Si7 0.039901 0.686755 0.113902
Si Si8 0.658956 0.028330 0.763937
O O1 0.723429 0.508483 0.938375
O O2 0.504813 0.369304 0.640322
O O3 0.725953 0.187660 0.009978
O O4 0.725953 0.441926 0.264245
O O5 0.357021 0.879673 0.438190
O O6 0.298401 0.976818 0.619985
O O7 0.182124 0.710524 0.294526
O O8 0.099753 0.950787 0.981203
O O9 0.711659 0.600942 0.588870
O O10 0.711658 0.834448 0.822375
O O11 0.817876 0.930277 0.346277
O O12 0.000000 0.000000 0.500000
O O13 0.951111 0.214390 0.687831
O O14 0.642980 0.724148 0.165632
O O15 0.500000 0.500000 0.000000
O O16 0.900247 0.781696 0.751281
O O17 0.000000 0.500000 0.000000
O O18 0.500000 0.000000 0.500000
#
# Coordination Sequence:
#
# PCOD9085004 Si02
#       8
#     2   2   2   2   2   2   2   2
#     4   9  20  34  53  86 109 149 208 232 274 349
#     4   9  18  36  58  79 110 148 186 225 285 355
#     4   9  18  36  57  74 115 161 188 236 294 335
#     4   9  19  37  59  81 106 142 186 233 286 341
#     4  10  19  35  58  83 118 154 191 242 288 343
#     4   9  18  36  58  79 110 148 186 225 285 355
#     4   9  19  37  59  81 106 142 186 233 286 341
#     4  10  19  35  58  83 118 154 191 242 288 343
#
# _framework density 26.341895000000001
#
# number of rings (size 3 to 8) (size 9 to 14) (size 15 to 20)
#    0.000    2.750    1.250    1.500    0.000    2.000 
#    4.500    2.500    0.000    7.500    0.000    0.000 
#    0.000    0.000    0.000    0.000    0.000    0.000 
#
# Total GULP energy -89211.732371 kJ/mol
# GULP energy per Si atom -5575.733273 kJ/mol
# Density = 2.628194 g / cm^3
# Si number density = 26.341895 Si / 1000 Ang^3
#
#
#
# Elastic Constant Matrix: (Units=GPa)
#
#
# Indices 1 2 3 4 5 6 
#
# 1 234.4140 102.6802 63.7281 47.9193 -23.6208 31.2767
# 2 102.6802 175.3297 74.1800 51.0300 -42.2559 15.3915
# 3 63.7281 74.1800 112.8443 48.3001 -34.5964 8.9228
# 4 47.9193 51.0300 48.3001 45.2803 -1.7790 5.1819
# 5 -23.6208 -42.2559 -34.5964 -1.7790 55.0495 12.7594
# 6 31.2767 15.3915 8.9228 5.1819 12.7594 54.0226
#
#
#
# Elastic Compliance Matrix: (Units=1/GPa)
#
#
# Indices 1 2 3 4 5 6 
#
# 1 0.006666 -0.001642 0.000856 -0.005588 0.002805 -0.003659
# 2 -0.001642 0.013004 0.002470 -0.014595 0.011390 -0.004452
# 3 0.000856 0.002470 0.026044 -0.029887 0.019334 -0.007201
# 4 -0.005588 -0.014595 -0.029887 0.073531 -0.033039 0.013080
# 5 0.002805 0.011390 0.019334 -0.033039 0.042665 -0.014970
# 6 -0.003659 -0.004452 -0.007201 0.013080 -0.014970 0.025368
#
#
# Mechanical properties :
#
#
# Convention : Reuss Voigt Hill
#
# Bulk Modulus (GPa) = 20.37432 111.52940 65.95186
# Shear Modulus (GPa) = 24.96625 49.67046 37.31835
#
# Velocity S-wave (km/s) = 3.08194 4.34707 3.76798
# Velocity P-wave (km/s) = 4.51839 8.22357 6.63487
#
# Compressibility (1/GPa) = 0.04908139
#
# Stress axis : x y z
#
# Youngs Moduli (GPa) = 150.02147 76.89821 38.39725
#
# Poissons Ratio (x) = 0.12630 -0.03288
# Poissons Ratio (y) = 0.24640 -0.09485
# Poissons Ratio (z) = -0.12845 -0.18995
#
# Static dielectric constant tensor:
#      x y z
#    x 2.113890 -0.002640 -0.042090 
#    y -0.002640 2.130760 0.036840 
#    z -0.042090 0.036840 2.105970 
# 
# From -- ./inp_files/327878.got.cif
#   From: 2010.05.17/outbox.cif.g08.bks.cpg/sg2_164_cif.got.tgz:327878.got - 2010.06.03 11:33:40.
