data_PCOD9085595
_publ_section_title
;
Structure prediction by ZEFSAII (Michael W. Deem and Ramdas Pophale) SiO2 
 PCOD9085595
Probable space group: P -1
;
_chemical_formula_sum "Si O2"
_cell_formula_units_Z 16
_cell_length_a 8.383492
_cell_length_b 15.550226
_cell_length_c 9.604172
_cell_angle_alpha 106.346021
_cell_angle_beta 136.171471
_cell_angle_gamma 105.083861
_cell_volume 596.480231
_symmetry_space_group_name_H-M "P -1"
_symmetry_group_IT_number 2
_symmetry_cell_setting 'triclinic'
loop_
_space_group_symop_operation_xyz
x,y,z
-x,-y,-z
loop_
_atom_site_type_symbol
_atom_site_label
_atom_site_fract_x
_atom_site_fract_y
_atom_site_fract_z
Si Si1 0.757136 0.511603 0.799492
Si Si2 0.951734 0.031701 0.837281
Si Si3 0.397112 0.115469 0.900132
Si Si4 0.296826 0.783654 0.361310
Si Si5 0.416579 0.295131 0.283746
Si Si6 0.894317 0.128655 0.487935
Si Si7 0.594635 0.612072 0.202738
Si Si8 0.722921 0.363553 0.207545
O O1 0.575974 0.427622 0.508962
O O2 0.486683 0.436994 0.715500
O O3 0.000000 0.500000 0.000000
O O4 0.993028 0.661135 0.030329
O O5 0.222790 0.069010 0.919345
O O6 0.599107 0.900749 0.513278
O O7 0.047264 0.160547 0.990096
O O8 0.000000 0.000000 0.000000
O O9 0.162853 0.123685 0.677116
O O10 0.397209 0.013955 0.804793
O O11 0.729595 0.258623 0.157987
O O12 0.409959 0.735697 0.522940
O O13 0.203090 0.841584 0.426019
O O14 0.489929 0.313658 0.173075
O O15 0.066693 0.248726 0.554314
O O16 0.500000 0.500000 0.000000
O O17 0.356867 0.621100 0.988304
O O18 0.000000 0.500000 0.500000
#
# Coordination Sequence:
#
# PCOD9085595 Si02
#       8
#     2   2   2   2   2   2   2   2
#     4  10  20  35  60  93 115 156 214 243 293 372
#     4   9  19  36  58  79 117 160 191 245 306 361
#     4   9  21  39  58  85 116 159 198 241 314 358
#     4  10  19  35  61  91 116 156 209 254 288 365
#     4   9  20  38  60  89 123 161 202 243 319 364
#     4  10  21  37  60  86 119 151 203 256 293 356
#     4  11  22  38  63  89 121 160 205 257 304 350
#     4  10  20  39  64  85 123 163 196 254 306 371
#
# _framework density 26.824024999999999
#
# number of rings (size 3 to 8) (size 9 to 14) (size 15 to 20)
#    0.000    2.250    1.250    1.500    5.250    0.500 
#    2.250    7.500    0.000    0.000    0.000    0.000 
#    0.000    0.000    0.000    0.000    0.000    0.000 
#
# Total GULP energy -89283.105791 kJ/mol
# GULP energy per Si atom -5580.194112 kJ/mol
# Density = 2.676297 g / cm^3
# Si number density = 26.824025 Si / 1000 Ang^3
#
#
#
# Elastic Constant Matrix: (Units=GPa)
#
#
# Indices 1 2 3 4 5 6 
#
# 1 65.4095 27.4621 40.1771 36.1898 -19.0610 0.3099
# 2 27.4621 135.5817 76.1363 40.0624 -9.3065 -3.4630
# 3 40.1771 76.1363 176.4278 66.7881 -23.3253 -4.4495
# 4 36.1898 40.0624 66.7881 86.7558 -6.7542 -5.4675
# 5 -19.0610 -9.3065 -23.3253 -6.7542 43.9219 12.5000
# 6 0.3099 -3.4630 -4.4495 -5.4675 12.5000 47.5789
#
#
#
# Elastic Compliance Matrix: (Units=1/GPa)
#
#
# Indices 1 2 3 4 5 6 
#
# 1 0.023553 -0.001538 -0.000397 -0.008308 0.009473 -0.003746
# 2 -0.001538 0.010036 -0.003596 -0.001255 -0.000776 0.000464
# 3 -0.000397 -0.003596 0.009881 -0.005550 0.003731 -0.000953
# 4 -0.008308 -0.001255 -0.005550 0.019668 -0.004625 0.002919
# 5 0.009473 -0.000776 0.003731 -0.004625 0.030339 -0.008271
# 6 -0.003746 0.000464 -0.000953 0.002919 -0.008271 0.023495
#
#
# Mechanical properties :
#
#
# Convention : Reuss Voigt Hill
#
# Bulk Modulus (GPa) = 30.85826 73.88555 52.37190
# Shear Modulus (GPa) = 36.01348 51.22753 43.62050
#
# Velocity S-wave (km/s) = 3.66810 4.37482 4.03696
# Velocity P-wave (km/s) = 5.42853 7.28856 6.42620
#
# Compressibility (1/GPa) = 0.03240624
#
# Stress axis : x y z
#
# Youngs Moduli (GPa) = 42.45798 99.63773 101.20914
#
# Poissons Ratio (x) = 0.15329 0.04016
# Poissons Ratio (y) = 0.06532 0.36399
# Poissons Ratio (z) = 0.01685 0.35834
#
# Static dielectric constant tensor:
#      x y z
#    x 2.103000 -0.074470 0.076090 
#    y -0.074470 2.132610 -0.086400 
#    z 0.076090 -0.086400 2.385960 
# 
# From -- ./inp_files/403159.got.cif
#   From: 2010.05.17/outbox.cif.g08.bks.cpg/sg2_202_cif.got.tgz:403159.got - 2010.06.03 11:33:40.
