data_PCOD9085301
_publ_section_title
;
Structure prediction by ZEFSAII (Michael W. Deem and Ramdas Pophale) SiO2 
 PCOD9085301
Probable space group: P -1
;
_chemical_formula_sum "Si O2"
_cell_formula_units_Z 16
_cell_length_a 13.561886
_cell_length_b 13.586878
_cell_length_c 11.607929
_cell_angle_alpha 126.802939
_cell_angle_beta 148.473732
_cell_angle_gamma 43.206246
_cell_volume 764.219313
_symmetry_space_group_name_H-M "P -1"
_symmetry_group_IT_number 2
_symmetry_cell_setting 'triclinic'
loop_
_space_group_symop_operation_xyz
x,y,z
-x,-y,-z
loop_
_atom_site_type_symbol
_atom_site_label
_atom_site_fract_x
_atom_site_fract_y
_atom_site_fract_z
Si Si1 0.672258 0.291831 0.741429
Si Si2 0.794177 0.430432 0.587460
Si Si3 0.077532 0.601661 0.052272
Si Si4 0.418254 0.195388 0.311899
Si Si5 0.489400 0.067901 0.911158
Si Si6 0.735243 0.442190 0.130597
Si Si7 0.900263 0.660016 0.388402
Si Si8 0.516399 0.292624 0.234019
O O1 0.443299 0.426710 0.561213
O O2 0.852823 0.282406 0.827321
O O3 0.602327 0.172898 0.574158
O O4 0.730279 0.342667 0.953261
O O5 0.921702 0.414462 0.820807
O O6 0.720789 0.314482 0.445300
O O7 0.932295 0.415186 0.602887
O O8 0.282272 0.448015 0.101917
O O9 0.828587 0.676145 0.811087
O O10 0.495465 0.233240 0.295068
O O11 0.397235 0.060402 0.157792
O O12 0.253901 0.177554 0.695685
O O13 0.557511 0.181928 0.095545
O O14 0.500000 0.000000 0.000000
O O15 0.770205 0.575264 0.223928
O O16 0.947561 0.352907 0.361632
O O17 0.500000 0.500000 0.000000
#
# Coordination Sequence:
#
# PCOD9085301 Si02
#       8
#     2   2   2   2   2   2   2   2
#     4  11  22  37  61  95 129 162 221 272 325 382
#     4  11  19  35  64 100 129 162 209 282 333 383
#     4  11  21  35  63  97 128 172 212 271 339 382
#     4  11  22  38  57  89 139 172 207 261 322 399
#     4  10  23  41  61  97 140 178 212 260 332 410
#     4  11  25  44  69 100 126 169 232 285 315 371
#     4  11  24  43  69  97 133 173 219 273 334 378
#     4  10  19  35  59  92 132 172 213 259 321 394
#
# _framework density 20.936398000000001
#
# number of rings (size 3 to 8) (size 9 to 14) (size 15 to 20)
#    0.000    1.250    3.750    4.125    3.500    0.000 
#    2.250    2.500    0.000    1.500    0.000    0.000 
#    0.000    0.000    0.000    0.000    0.000    0.000 
#
# Total GULP energy -89097.095703 kJ/mol
# GULP energy per Si atom -5568.568481 kJ/mol
# Density = 2.088875 g / cm^3
# Si number density = 20.936398 Si / 1000 Ang^3
#
#
#
# Elastic Constant Matrix: (Units=GPa)
#
#
# Indices 1 2 3 4 5 6 
#
# 1 72.2148 9.5580 43.8431 4.5153 14.0325 -1.5201
# 2 9.5580 73.1673 44.7679 17.8137 -6.0930 -5.9340
# 3 43.8431 44.7679 180.8622 26.0945 -3.0774 0.9351
# 4 4.5153 17.8137 26.0945 39.6609 2.4089 -13.5237
# 5 14.0325 -6.0930 -3.0774 2.4089 45.6125 4.8139
# 6 -1.5201 -5.9340 0.9351 -13.5237 4.8139 16.7442
#
#
#
# Elastic Compliance Matrix: (Units=1/GPa)
#
#
# Indices 1 2 3 4 5 6 
#
# 1 0.018253 -0.000289 -0.005143 0.004385 -0.007014 0.007400
# 2 -0.000289 0.017384 -0.003465 -0.005106 0.002284 0.001548
# 3 -0.005143 -0.003465 0.008678 -0.006592 0.002934 -0.008347
# 4 0.004385 -0.005106 -0.006592 0.044696 -0.008803 0.037587
# 5 -0.007014 0.002284 0.002934 -0.008803 0.026606 -0.014751
# 6 0.007400 0.001548 -0.008347 0.037587 -0.014751 0.096007
#
#
# Mechanical properties :
#
#
# Convention : Reuss Voigt Hill
#
# Bulk Modulus (GPa) = 37.70811 58.06469 47.88640
# Shear Modulus (GPa) = 20.98546 35.60854 28.29700
#
# Velocity S-wave (km/s) = 3.16942 4.12854 3.68036
# Velocity P-wave (km/s) = 5.60745 7.10778 6.40172
#
# Compressibility (1/GPa) = 0.02651949
#
# Stress axis : x y z
#
# Youngs Moduli (GPa) = 54.78555 57.52331 115.23604
#
# Poissons Ratio (x) = 0.01662 0.59272
# Poissons Ratio (y) = 0.01583 0.39934
# Poissons Ratio (z) = 0.28179 0.19934
#
# Static dielectric constant tensor:
#      x y z
#    x 1.740850 0.105570 -0.031430 
#    y 0.105570 1.442990 0.207910 
#    z -0.031430 0.207910 1.793740 
# 
# From -- ./inp_files/455016.got.cif
#   From: 2010.05.17/outbox.cif.g08.bks.cpg/sg2_228_cif.got.tgz:455016.got - 2010.06.03 11:33:40.
