data_PCOD9085867
_publ_section_title
;
Structure prediction by ZEFSAII (Michael W. Deem and Ramdas Pophale) SiO2 
 PCOD9085867
Probable space group: P -1
;
_chemical_formula_sum "Si O2"
_cell_formula_units_Z 16
_cell_length_a 11.949824
_cell_length_b 8.009685
_cell_length_c 8.253403
_cell_angle_alpha 105.094749
_cell_angle_beta 89.199233
_cell_angle_gamma 77.565616
_cell_volume 742.763013
_symmetry_space_group_name_H-M "P -1"
_symmetry_group_IT_number 2
_symmetry_cell_setting 'triclinic'
loop_
_space_group_symop_operation_xyz
x,y,z
-x,-y,-z
loop_
_atom_site_type_symbol
_atom_site_label
_atom_site_fract_x
_atom_site_fract_y
_atom_site_fract_z
Si Si1 0.389492 0.631489 0.109249
Si Si2 0.270627 0.808234 0.717337
Si Si3 0.969433 0.172778 0.156342
Si Si4 0.184941 0.311321 0.259957
Si Si5 0.172371 0.504795 0.966879
Si Si6 0.374307 0.990484 0.053318
Si Si7 0.286215 0.388674 0.623378
Si Si8 0.541586 0.319633 0.550616
O O1 0.391084 0.604838 0.290808
O O2 0.392562 0.835428 0.144840
O O3 0.500000 0.500000 0.000000
O O4 0.278334 0.592995 0.023567
O O5 0.132214 0.853259 0.726596
O O6 0.294462 0.594975 0.687692
O O7 0.361623 0.824900 0.579520
O O8 0.306712 0.916101 0.892898
O O9 0.921594 0.340705 0.079246
O O10 0.080497 0.211399 0.252624
O O11 0.000000 0.000000 0.000000
O O12 0.300112 0.173906 0.165162
O O13 0.217072 0.375606 0.453747
O O14 0.149968 0.435432 0.130112
O O15 0.218362 0.361559 0.784595
O O16 0.500000 0.000000 0.000000
O O17 0.418914 0.275640 0.589088
O O18 0.500000 0.500000 0.500000
#
# Coordination Sequence:
#
# PCOD9085867 Si02
#       8
#     2   2   2   2   2   2   2   2
#     4  12  20  40  69  96 138 182 221 277 352 414
#     4  10  20  41  64  90 132 176 221 273 338 393
#     4  11  22  45  70  94 137 184 232 281 336 409
#     4  12  25  43  70 100 137 180 230 289 342 402
#     4  11  22  41  70 102 132 180 233 278 349 415
#     4  12  24  41  64 101 134 178 225 276 349 414
#     4  10  21  41  67  99 136 172 227 283 342 409
#     4  10  19  35  63  99 129 167 222 277 335 408
#
# _framework density 21.54119
#
# number of rings (size 3 to 8) (size 9 to 14) (size 15 to 20)
#    0.000    1.000    5.000    4.125    0.000    2.000 
#    2.250    2.500    0.000    8.250    0.000    0.000 
#    0.000    0.000    0.000    0.000    0.000    0.000 
#
# Total GULP energy -89137.328667 kJ/mol
# GULP energy per Si atom -5571.083042 kJ/mol
# Density = 2.149216 g / cm^3
# Si number density = 21.541190 Si / 1000 Ang^3
#
#
#
# Elastic Constant Matrix: (Units=GPa)
#
#
# Indices 1 2 3 4 5 6 
#
# 1 129.5122 9.2904 23.6344 -3.1605 7.3648 -3.9526
# 2 9.2904 40.9427 11.0962 2.0641 1.0927 -6.9202
# 3 23.6344 11.0962 138.6458 -9.3460 11.4558 2.8891
# 4 -3.1605 2.0641 -9.3460 17.1397 -7.3940 2.4321
# 5 7.3648 1.0927 11.4558 -7.3940 37.0875 8.3333
# 6 -3.9526 -6.9202 2.8891 2.4321 8.3333 26.4663
#
#
#
# Elastic Compliance Matrix: (Units=1/GPa)
#
#
# Indices 1 2 3 4 5 6 
#
# 1 0.008163 -0.001245 -0.001188 0.000138 -0.001525 0.001491
# 2 -0.001245 0.027341 -0.002395 -0.007540 -0.003337 0.008968
# 3 -0.001188 -0.002395 0.008009 0.004298 -0.000909 -0.001787
# 4 0.000138 -0.007540 0.004298 0.070533 0.016066 -0.013960
# 5 -0.001525 -0.003337 -0.000909 0.016066 0.033796 -0.013118
# 6 0.001491 0.008968 -0.001787 -0.013960 -0.013118 0.045960
#
#
# Mechanical properties :
#
#
# Convention : Reuss Voigt Hill
#
# Bulk Modulus (GPa) = 29.53582 44.12694 36.83138
# Shear Modulus (GPa) = 23.28370 33.81068 28.54719
#
# Velocity S-wave (km/s) = 3.29126 3.96609 3.64433
# Velocity P-wave (km/s) = 5.30889 6.44225 5.90283
#
# Compressibility (1/GPa) = 0.03385719
#
# Stress axis : x y z
#
# Youngs Moduli (GPa) = 122.50588 36.57510 124.86177
#
# Poissons Ratio (x) = 0.04552 0.14829
# Poissons Ratio (y) = 0.15248 0.29910
# Poissons Ratio (z) = 0.14549 0.08761
#
# Static dielectric constant tensor:
#      x y z
#    x 1.844150 0.021490 -0.083310 
#    y 0.021490 1.794640 -0.051230 
#    z -0.083310 -0.051230 1.811320 
# 
# From -- ./inp_files/245087.got.cif
#   From: 2010.05.17/outbox.cif.g08.bks.cpg/sg2_123_cif.got.tgz:245087.got - 2010.06.03 11:33:40.
