data_PCOD9085990
_publ_section_title
;
Structure prediction by ZEFSAII (Michael W. Deem and Ramdas Pophale) SiO2 
 PCOD9085990
Probable space group: P -1
;
_chemical_formula_sum "Si O2"
_cell_formula_units_Z 14
_cell_length_a 18.681471
_cell_length_b 6.949722
_cell_length_c 10.119681
_cell_angle_alpha 40.193741
_cell_angle_beta 43.295181
_cell_angle_gamma 60.624151
_cell_volume 575.080511
_symmetry_space_group_name_H-M "P -1"
_symmetry_group_IT_number 2
_symmetry_cell_setting 'triclinic'
loop_
_space_group_symop_operation_xyz
x,y,z
-x,-y,-z
loop_
_atom_site_type_symbol
_atom_site_label
_atom_site_fract_x
_atom_site_fract_y
_atom_site_fract_z
Si Si1 0.640292 0.707938 0.741421
Si Si2 0.790169 0.412029 0.537637
Si Si3 0.848627 0.770372 0.804695
Si Si4 0.357713 0.609093 0.636995
Si Si5 0.498125 0.354494 0.800936
Si Si6 0.126512 0.281810 0.488520
Si Si7 0.057533 0.214132 0.053639
O O1 0.675502 0.481838 0.702784
O O2 0.753940 0.800676 0.614709
O O3 0.613699 0.032522 0.562361
O O4 0.551924 0.551234 0.043812
O O5 0.863158 0.473976 0.538540
O O6 0.798655 0.069241 0.671491
O O7 0.839772 0.664605 0.234354
O O8 0.886119 0.631881 0.691989
O O9 0.922052 0.869520 0.778769
O O10 0.763624 0.509067 0.116849
O O11 0.416669 0.429886 0.758625
O O12 0.393060 0.532690 0.481593
O O13 0.500000 0.000000 0.000000
O O14 0.026702 0.029965 0.777820
O O15 0.000000 0.500000 0.000000
#
# Coordination Sequence:
#
# PCOD9085990 Si02
#       7
#     2   2   2   2   2   2   2
#     4   9  20  40  61  89 125 161 204 251 309 368
#     4  10  25  41  62  92 128 168 210 258 311 368
#     4  12  24  41  65  94 126 165 213 259 313 369
#     4  10  19  35  66  93 122 163 203 255 314 369
#     4   9  18  35  64  95 119 161 208 248 311 378
#     4  10  22  43  62  87 131 167 206 262 306 365
#     4  12  24  41  63  92 126 168 217 256 310 369
#
# _framework density 24.344417
#
# number of rings (size 3 to 8) (size 9 to 14) (size 15 to 20)
#    0.857    0.857    2.857    1.714    0.000    2.857 
#    0.000    0.714    0.000    8.571    0.000    0.000 
#    0.000    0.000    0.000    0.000    0.000    0.000 
#
# Total GULP energy -78106.910828 kJ/mol
# GULP energy per Si atom -5579.065059 kJ/mol
# Density = 2.428901 g / cm^3
# Si number density = 24.344417 Si / 1000 Ang^3
#
#
#
# Elastic Constant Matrix: (Units=GPa)
#
#
# Indices 1 2 3 4 5 6 
#
# 1 73.2709 16.6254 16.4680 -6.2863 21.0050 6.8058
# 2 16.6254 57.0651 11.8451 -0.9183 19.3871 1.6129
# 3 16.4680 11.8451 113.9048 24.4068 12.2297 3.3653
# 4 -6.2863 -0.9183 24.4068 42.8739 4.7894 6.0626
# 5 21.0050 19.3871 12.2297 4.7894 39.6956 4.8590
# 6 6.8058 1.6129 3.3653 6.0626 4.8590 40.2121
#
#
#
# Elastic Compliance Matrix: (Units=1/GPa)
#
#
# Indices 1 2 3 4 5 6 
#
# 1 0.017592 -0.001719 -0.002555 0.005247 -0.008007 -0.002518
# 2 -0.001719 0.021560 -0.001421 0.002023 -0.009473 0.000385
# 3 -0.002555 -0.001421 0.010740 -0.006548 -0.000552 0.000645
# 4 0.005247 0.002023 -0.006548 0.028990 -0.004728 -0.004221
# 5 -0.008007 -0.009473 -0.000552 -0.004728 0.035008 -0.001736
# 6 -0.002518 0.000385 0.000645 -0.004221 -0.001736 0.026071
#
#
# Mechanical properties :
#
#
# Convention : Reuss Voigt Hill
#
# Bulk Modulus (GPa) = 25.97326 37.12420 31.54873
# Shear Modulus (GPa) = 30.45363 37.84315 34.14839
#
# Velocity S-wave (km/s) = 3.54071 3.94698 3.74935
# Velocity P-wave (km/s) = 5.23524 6.00452 5.63303
#
# Compressibility (1/GPa) = 0.03850113
#
# Stress axis : x y z
#
# Youngs Moduli (GPa) = 56.84474 46.38278 93.11201
#
# Poissons Ratio (x) = 0.07973 0.23789
# Poissons Ratio (y) = 0.09772 0.13232
# Poissons Ratio (z) = 0.14523 0.06592
#
# Static dielectric constant tensor:
#      x y z
#    x 1.989440 -0.024110 0.023380 
#    y -0.024110 1.925080 0.051180 
#    z 0.023380 0.051180 1.995330 
# 
# From -- ./inp_files/469092.got.cif
#   From: 2010.05.17/outbox.cif.g08.bks.cpg/sg2_235_cif.got.tgz:469092.got - 2010.06.03 11:33:40.
