data_PCOD9085683
_publ_section_title
;
Structure prediction by ZEFSAII (Michael W. Deem and Ramdas Pophale) SiO2 
 PCOD9085683
Probable space group: P -1
;
_chemical_formula_sum "Si O2"
_cell_formula_units_Z 16
_cell_length_a 15.239656
_cell_length_b 11.482650
_cell_length_c 16.121908
_cell_angle_alpha 22.378841
_cell_angle_beta 134.052404
_cell_angle_gamma 138.395560
_cell_volume 713.109193
_symmetry_space_group_name_H-M "P -1"
_symmetry_group_IT_number 2
_symmetry_cell_setting 'triclinic'
loop_
_space_group_symop_operation_xyz
x,y,z
-x,-y,-z
loop_
_atom_site_type_symbol
_atom_site_label
_atom_site_fract_x
_atom_site_fract_y
_atom_site_fract_z
Si Si1 0.195255 0.007098 0.067289
Si Si2 0.854863 0.744088 0.768326
Si Si3 0.508607 0.591868 0.040493
Si Si4 0.348455 0.233333 0.771651
Si Si5 0.393883 0.820784 0.944732
Si Si6 0.883906 0.423045 0.407030
Si Si7 0.898702 0.323960 0.938412
Si Si8 0.667996 0.123202 0.597347
O O1 0.337861 0.185147 0.998009
O O2 0.118663 0.254922 0.852057
O O3 0.120409 0.709682 0.150618
O O4 0.232067 0.938598 0.229073
O O5 0.713344 0.506122 0.868422
O O6 0.873603 0.624564 0.767680
O O7 0.881343 0.127511 0.540958
O O8 0.960237 0.670133 0.944880
O O9 0.414120 0.771544 0.893359
O O10 0.444859 0.221370 0.278366
O O11 0.500000 0.500000 0.000000
O O12 0.462910 0.148926 0.947712
O O13 0.375132 0.613087 0.555921
O O14 0.357701 0.121114 0.756988
O O15 0.207809 0.001493 0.870821
O O16 0.751278 0.286541 0.464325
O O17 0.000000 0.500000 0.500000
#
# Coordination Sequence:
#
# PCOD9085683 Si02
#       8
#     2   2   2   2   2   2   2   2
#     4  11  23  39  60  87 122 159 202 246 300 364
#     4  10  21  34  63  90 117 157 202 247 301 354
#     4  10  21  37  55  86 125 155 195 249 301 357
#     4  10  20  36  62  87 116 160 203 246 298 358
#     4  10  19  35  62  89 114 157 208 245 296 360
#     4  12  22  39  62  90 117 159 203 248 300 362
#     4  10  19  40  60  85 121 160 198 245 301 363
#     4  11  23  39  60  89 123 160 196 252 307 350
#
# _framework density 22.436957
#
# number of rings (size 3 to 8) (size 9 to 14) (size 15 to 20)
#    0.000    1.500    5.000    0.000    1.750    1.500 
#    0.000    5.000    0.000    4.500    0.000    0.000 
#    0.000    0.000    0.000    0.000    0.000    0.000 
#
# Total GULP energy -89326.078943 kJ/mol
# GULP energy per Si atom -5582.879934 kJ/mol
# Density = 2.238589 g / cm^3
# Si number density = 22.436957 Si / 1000 Ang^3
#
#
#
# Elastic Constant Matrix: (Units=GPa)
#
#
# Indices 1 2 3 4 5 6 
#
# 1 58.9702 -0.9693 13.5993 -11.7837 10.3912 -12.9404
# 2 -0.9693 68.9062 10.9064 -18.9942 7.3969 -20.5748
# 3 13.5993 10.9064 64.8171 -11.8523 21.3914 -24.3743
# 4 -11.7837 -18.9942 -11.8523 35.7208 -13.7348 8.4017
# 5 10.3912 7.3969 21.3914 -13.7348 30.0786 -14.8914
# 6 -12.9404 -20.5748 -24.3743 8.4017 -14.8914 45.6161
#
#
#
# Elastic Compliance Matrix: (Units=1/GPa)
#
#
# Indices 1 2 3 4 5 6 
#
# 1 0.019996 0.003958 -0.001263 0.006511 -0.001485 0.005098
# 2 0.003958 0.020010 0.000274 0.011071 0.003172 0.009291
# 3 -0.001263 0.000274 0.022536 0.001006 -0.011266 0.007944
# 4 0.006511 0.011071 0.001006 0.041191 0.015528 0.004861
# 5 -0.001485 0.003172 -0.011266 0.015528 0.052703 0.009335
# 6 0.005098 0.009291 0.007944 0.004861 0.009335 0.033956
#
#
# Mechanical properties :
#
#
# Convention : Reuss Voigt Hill
#
# Bulk Modulus (GPa) = 14.60278 26.64069 20.62174
# Shear Modulus (GPa) = 24.12173 33.56024 28.84099
#
# Velocity S-wave (km/s) = 3.28241 3.87170 3.58917
# Velocity P-wave (km/s) = 4.57035 5.64678 5.13684
#
# Compressibility (1/GPa) = 0.06848010
#
# Stress axis : x y z
#
# Youngs Moduli (GPa) = 50.01057 49.97413 44.37269
#
# Poissons Ratio (x) = -0.19779 0.05605
# Poissons Ratio (y) = -0.19794 -0.01216
# Poissons Ratio (z) = 0.06317 -0.01370
#
# Static dielectric constant tensor:
#      x y z
#    x 1.884070 -0.037070 -0.017910 
#    y -0.037070 1.933990 -0.037030 
#    z -0.017910 -0.037030 1.864990 
# 
# From -- ./inp_files/575889.got.cif
#   From: 2010.05.17/outbox.cif.g08.bks.cpg/sg2_288_cif.got.tgz:575889.got - 2010.06.03 11:33:40.
