data_PCOD9085118
_publ_section_title
;
Structure prediction by ZEFSAII (Michael W. Deem and Ramdas Pophale) SiO2 
 PCOD9085118
Probable space group: P -1
;
_chemical_formula_sum "Si O2"
_cell_formula_units_Z 16
_cell_length_a 15.197811
_cell_length_b 15.516026
_cell_length_c 8.183095
_cell_angle_alpha 48.967081
_cell_angle_beta 41.859952
_cell_angle_gamma 39.185184
_cell_volume 799.107614
_symmetry_space_group_name_H-M "P -1"
_symmetry_group_IT_number 2
_symmetry_cell_setting 'triclinic'
loop_
_space_group_symop_operation_xyz
x,y,z
-x,-y,-z
loop_
_atom_site_type_symbol
_atom_site_label
_atom_site_fract_x
_atom_site_fract_y
_atom_site_fract_z
Si Si1 0.949180 0.371297 0.354440
Si Si2 0.522013 0.857583 0.705162
Si Si3 0.297747 0.306246 0.030977
Si Si4 0.784117 0.677572 0.328177
Si Si5 0.887639 0.377913 0.048328
Si Si6 0.520731 0.885728 0.234010
Si Si7 0.246917 0.937588 0.791078
Si Si8 0.095174 0.776088 0.095609
O O1 0.844772 0.538268 0.317250
O O2 0.920180 0.340306 0.246454
O O3 0.903570 0.311024 0.642887
O O4 0.134269 0.319758 0.189976
O O5 0.605926 0.810934 0.820157
O O6 0.647730 0.720542 0.595288
O O7 0.348374 0.888498 0.879452
O O8 0.500000 0.000000 0.500000
O O9 0.241948 0.457236 0.979554
O O10 0.425046 0.250168 0.778048
O O11 0.685754 0.822054 0.185054
O O12 0.944300 0.651641 0.211778
O O13 0.850128 0.301938 0.058136
O O14 0.369662 0.930561 0.497531
O O15 0.500000 0.000000 0.000000
O O16 0.196867 0.836898 0.928794
O O17 0.088402 0.091167 0.834256
#
# Coordination Sequence:
#
# PCOD9085118 Si02
#       8
#     2   2   2   2   2   2   2   2
#     4  11  20  39  66  94 128 162 202 261 309 358
#     4  11  21  36  62  92 121 162 204 255 323 366
#     4  11  20  37  61 100 124 154 207 266 312 359
#     4  10  19  35  58  94 128 148 205 265 297 361
#     4  11  21  38  66  94 124 164 211 255 304 371
#     4  11  20  36  63  88 125 157 191 259 321 349
#     4  10  25  45  59  89 127 160 210 259 301 384
#     4  11  24  45  64  85 125 174 209 247 312 372
#
# _framework density 20.022333
#
# number of rings (size 3 to 8) (size 9 to 14) (size 15 to 20)
#    0.000    1.250    2.500    6.000    0.000    2.000 
#    2.250    7.500    0.000    0.000    0.000    0.000 
#    0.000    0.000    0.000    0.000    0.000    0.000 
#
# Total GULP energy -89137.157765 kJ/mol
# GULP energy per Si atom -5571.072360 kJ/mol
# Density = 1.997676 g / cm^3
# Si number density = 20.022333 Si / 1000 Ang^3
#
#
#
# Elastic Constant Matrix: (Units=GPa)
#
#
# Indices 1 2 3 4 5 6 
#
# 1 120.7306 67.9902 34.3090 -4.5433 15.9906 4.7671
# 2 67.9902 99.8250 28.9345 3.5896 -0.5492 4.6139
# 3 34.3090 28.9345 49.9000 2.9184 4.8682 2.8295
# 4 -4.5433 3.5896 2.9184 24.5247 -5.4353 3.5285
# 5 15.9906 -0.5492 4.8682 -5.4353 25.6974 -2.2807
# 6 4.7671 4.6139 2.8295 3.5285 -2.2807 40.0532
#
#
#
# Elastic Compliance Matrix: (Units=1/GPa)
#
#
# Indices 1 2 3 4 5 6 
#
# 1 0.016742 -0.010096 -0.004888 0.003326 -0.009119 -0.001297
# 2 -0.010096 0.018226 -0.004157 -0.002509 0.006930 0.000011
# 3 -0.004888 -0.004157 0.026368 -0.003998 -0.002943 -0.000617
# 4 0.003326 -0.002509 -0.003998 0.044424 0.007737 -0.003297
# 5 -0.009119 0.006930 -0.002943 0.007737 0.047153 0.002498
# 6 -0.001297 0.000011 -0.000617 -0.003297 0.002498 0.025596
#
#
# Mechanical properties :
#
#
# Convention : Reuss Voigt Hill
#
# Bulk Modulus (GPa) = 43.37759 59.21369 51.29564
# Shear Modulus (GPa) = 22.27424 27.33652 24.80538
#
# Velocity S-wave (km/s) = 3.33899 3.69901 3.52360
# Velocity P-wave (km/s) = 6.04787 6.91965 6.49840
#
# Compressibility (1/GPa) = 0.02305338
#
# Stress axis : x y z
#
# Youngs Moduli (GPa) = 59.73154 54.86556 37.92547
#
# Poissons Ratio (x) = 0.55390 0.18539
# Poissons Ratio (y) = 0.60302 0.15767
# Poissons Ratio (z) = 0.29198 0.22809
#
# Static dielectric constant tensor:
#      x y z
#    x 1.835510 0.034110 0.090120 
#    y 0.034110 1.721360 0.013060 
#    z 0.090120 0.013060 1.726970 
# 
# From -- ./inp_files/282230.got.cif
#   From: 2010.05.17/outbox.cif.g08.bks.cpg/sg2_142_cif.got.tgz:282230.got - 2010.06.03 11:33:40.
