data_PCOD9085948
_publ_section_title
;
Structure prediction by ZEFSAII (Michael W. Deem and Ramdas Pophale) SiO2 
 PCOD9085948
Probable space group: P -1
;
_chemical_formula_sum "Si O2"
_cell_formula_units_Z 16
_cell_length_a 11.642734
_cell_length_b 9.200243
_cell_length_c 14.982779
_cell_angle_alpha 132.799669
_cell_angle_beta 41.768692
_cell_angle_gamma 107.598540
_cell_volume 712.513910
_symmetry_space_group_name_H-M "P -1"
_symmetry_group_IT_number 2
_symmetry_cell_setting 'triclinic'
loop_
_space_group_symop_operation_xyz
x,y,z
-x,-y,-z
loop_
_atom_site_type_symbol
_atom_site_label
_atom_site_fract_x
_atom_site_fract_y
_atom_site_fract_z
Si Si1 0.390662 0.282121 0.868916
Si Si2 0.616403 0.784005 0.491097
Si Si3 0.910720 0.305557 0.371379
Si Si4 0.214630 0.213278 0.293403
Si Si5 0.335764 0.796198 0.809411
Si Si6 0.038239 0.656326 0.848016
Si Si7 0.456478 0.157778 0.964504
Si Si8 0.495847 0.397513 0.681338
O O1 0.420737 0.321549 0.971720
O O2 0.420478 0.433350 0.840226
O O3 0.553468 0.039026 0.651584
O O4 0.178826 0.293600 0.983614
O O5 0.459389 0.739875 0.623011
O O6 0.819948 0.600886 0.328228
O O7 0.592111 0.739041 0.383006
O O8 0.882444 0.556987 0.505338
O O9 0.951764 0.272818 0.229655
O O10 0.721155 0.281339 0.495963
O O11 0.066569 0.173134 0.299063
O O12 0.330916 0.014640 0.208332
O O13 0.359054 0.245441 0.151896
O O14 0.137025 0.782887 0.901208
O O15 0.437486 0.617250 0.750672
O O16 0.353080 0.009569 0.924242
#
# Coordination Sequence:
#
# PCOD9085948 Si02
#       8
#     2   2   2   2   2   2   2   2
#     4  11  24  36  59  91 128 155 193 242 311 355
#     4  10  20  37  60  87 127 162 187 245 290 364
#     4  11  19  37  63  88 109 157 211 238 289 358
#     4  10  21  35  64  82 111 156 211 247 280 346
#     4  10  19  35  65  88 120 153 198 247 290 351
#     4  11  20  38  64  92 119 157 199 241 298 361
#     4  10  20  39  57  90 117 151 200 256 289 344
#     4  11  20  38  58  90 124 158 188 248 303 352
#
# _framework density 22.4557
#
# number of rings (size 3 to 8) (size 9 to 14) (size 15 to 20)
#    0.000    1.500    5.000    1.875    0.000    5.000 
#    0.000    2.500    0.000    0.000    0.000    0.000 
#    0.000    0.000    0.000    0.000    0.000    0.000 
#
# Total GULP energy -89371.758851 kJ/mol
# GULP energy per Si atom -5585.734928 kJ/mol
# Density = 2.240459 g / cm^3
# Si number density = 22.455700 Si / 1000 Ang^3
#
#
#
# Elastic Constant Matrix: (Units=GPa)
#
#
# Indices 1 2 3 4 5 6 
#
# 1 124.0801 18.0900 24.8274 -7.0692 -29.4386 -26.3029
# 2 18.0900 57.5367 12.1144 -16.7080 -10.2416 -16.0145
# 3 24.8274 12.1144 60.1376 -1.0717 -21.3231 -10.0461
# 4 -7.0692 -16.7080 -1.0717 36.2205 -9.5706 9.7091
# 5 -29.4386 -10.2416 -21.3231 -9.5706 41.1550 6.1722
# 6 -26.3029 -16.0145 -10.0461 9.7091 6.1722 32.0114
#
#
#
# Elastic Compliance Matrix: (Units=1/GPa)
#
#
# Indices 1 2 3 4 5 6 
#
# 1 0.011641 0.000672 -0.001023 0.002544 0.007451 0.007373
# 2 0.000672 0.024006 -0.001056 0.011132 0.007382 0.007431
# 3 -0.001023 -0.001056 0.021338 0.001847 0.010067 0.002827
# 4 0.002544 0.011132 0.001847 0.039226 0.015671 -0.006680
# 5 0.007451 0.007382 0.010067 0.015671 0.040256 0.000459
# 6 0.007373 0.007431 0.002827 -0.006680 0.000459 0.043839
#
#
# Mechanical properties :
#
#
# Convention : Reuss Voigt Hill
#
# Bulk Modulus (GPa) = 18.45963 39.09087 28.77525
# Shear Modulus (GPa) = 24.85365 34.32555 29.58960
#
# Velocity S-wave (km/s) = 3.33045 3.91396 3.63394
# Velocity P-wave (km/s) = 4.79870 6.15396 5.51809
#
# Compressibility (1/GPa) = 0.05417225
#
# Stress axis : x y z
#
# Youngs Moduli (GPa) = 85.89982 41.65585 46.86467
#
# Poissons Ratio (x) = -0.02801 0.04793
# Poissons Ratio (y) = -0.05775 0.04950
# Poissons Ratio (z) = 0.08786 0.04400
#
# Static dielectric constant tensor:
#      x y z
#    x 1.840700 0.001190 0.003770 
#    y 0.001190 1.851150 0.034490 
#    z 0.003770 0.034490 1.887380 
# 
# From -- ./inp_files/178251.got.cif
#   From: 2010.05.17/outbox.cif.g08.bks.cpg/sg2_90_cif.got.tgz:178251.got - 2010.06.03 11:33:40.
