data_PCOD9085039
_publ_section_title
;
Structure prediction by ZEFSAII (Michael W. Deem and Ramdas Pophale) SiO2 
 PCOD9085039
Probable space group: P -1
;
_chemical_formula_sum "Si O2"
_cell_formula_units_Z 12
_cell_length_a 9.901210
_cell_length_b 9.036413
_cell_length_c 12.235474
_cell_angle_alpha 139.852115
_cell_angle_beta 118.659678
_cell_angle_gamma 86.221256
_cell_volume 524.640258
_symmetry_space_group_name_H-M "P -1"
_symmetry_group_IT_number 2
_symmetry_cell_setting 'triclinic'
loop_
_space_group_symop_operation_xyz
x,y,z
-x,-y,-z
loop_
_atom_site_type_symbol
_atom_site_label
_atom_site_fract_x
_atom_site_fract_y
_atom_site_fract_z
Si Si1 0.771579 0.930879 0.480575
Si Si2 0.208505 0.194423 0.815242
Si Si3 0.766418 0.780593 0.837849
Si Si4 0.358161 0.431089 0.562589
Si Si5 0.195572 0.776085 0.744814
Si Si6 0.829242 0.469172 0.851559
O O1 0.712461 0.768241 0.253046
O O2 0.691386 0.764469 0.465121
O O3 0.734211 0.172620 0.596872
O O4 0.989999 0.058714 0.644128
O O5 0.230734 0.984820 0.778660
O O6 0.277986 0.467020 0.064323
O O7 0.562226 0.560234 0.673810
O O8 0.768637 0.730950 0.682353
O O9 0.883429 0.691865 0.903704
O O10 0.800008 0.065473 0.054347
O O11 0.332583 0.672990 0.728403
O O12 0.000000 0.500000 0.500000
O O13 0.000000 0.500000 0.000000
#
# Coordination Sequence:
#
# PCOD9085039 Si02
#       6
#     2   2   2   2   2   2
#     4  10  19  35  58  85 120 156 200 247 303 360
#     4   9  19  36  55  87 119 151 203 258 291 350
#     4  10  24  42  61  88 132 161 201 255 305 373
#     4  11  23  40  61  94 125 166 199 246 319 370
#     4  11  21  40  63  90 120 165 212 254 302 355
#     4   9  19  38  59  84 119 158 201 253 302 350
#
# _framework density 22.872813000000001
#
# number of rings (size 3 to 8) (size 9 to 14) (size 15 to 20)
#    0.000    2.000    1.667    1.500    0.000    2.667 
#    6.000    3.333    0.000    0.000    0.000    0.000 
#    0.000    0.000    0.000    0.000    0.000    0.000 
#
# Total GULP energy -67080.092142 kJ/mol
# GULP energy per Si atom -5590.007678 kJ/mol
# Density = 2.282075 g / cm^3
# Si number density = 22.872813 Si / 1000 Ang^3
#
#
#
# Elastic Constant Matrix: (Units=GPa)
#
#
# Indices 1 2 3 4 5 6 
#
# 1 72.2885 49.7083 39.0986 7.0752 -14.4838 14.3668
# 2 49.7083 83.4303 48.2032 -0.4088 -24.9246 4.9181
# 3 39.0986 48.2032 115.1625 -11.5366 -41.7090 11.8696
# 4 7.0752 -0.4088 -11.5366 32.5502 -3.2027 -10.4224
# 5 -14.4838 -24.9246 -41.7090 -3.2027 42.4468 -3.7473
# 6 14.3668 4.9181 11.8696 -10.4224 -3.7473 39.1421
#
#
#
# Elastic Compliance Matrix: (Units=1/GPa)
#
#
# Indices 1 2 3 4 5 6 
#
# 1 0.030501 -0.016017 -0.006517 -0.013565 -0.007443 -0.011531
# 2 -0.016017 0.024806 -0.002064 0.005661 0.007999 0.005661
# 3 -0.006517 -0.002064 0.018111 0.009687 0.015197 0.001193
# 4 -0.013565 0.005661 0.009687 0.042895 0.012684 0.013966
# 5 -0.007443 0.007999 0.015197 0.012684 0.042005 0.004517
# 6 -0.011531 0.005661 0.001193 0.013966 0.004517 0.032858
#
#
# Mechanical properties :
#
#
# Convention : Reuss Voigt Hill
#
# Bulk Modulus (GPa) = 41.28746 60.54463 50.91605
# Shear Modulus (GPa) = 20.12514 31.75257 25.93886
#
# Velocity S-wave (km/s) = 2.96948 3.72993 3.37122
# Velocity P-wave (km/s) = 5.46326 6.71397 6.12064
#
# Compressibility (1/GPa) = 0.02422043
#
# Stress axis : x y z
#
# Youngs Moduli (GPa) = 32.78634 40.31348 55.21418
#
# Poissons Ratio (x) = 0.64572 0.35983
# Poissons Ratio (y) = 0.52515 0.11397
# Poissons Ratio (z) = 0.21367 0.08321
#
# Static dielectric constant tensor:
#      x y z
#    x 1.908590 -0.027550 0.046010 
#    y -0.027550 1.811960 -0.035770 
#    z 0.046010 -0.035770 1.923630 
# 
# From -- ./inp_files/152077.got.cif
#   From: 2010.05.17/outbox.cif.g08.bks.cpg/sg2_77_cif.got.tgz:152077.got - 2010.06.03 11:33:40.
