data_PCOD9085801
_publ_section_title
;
Structure prediction by ZEFSAII (Michael W. Deem and Ramdas Pophale) SiO2 
 PCOD9085801
Probable space group: P -1
;
_chemical_formula_sum "Si O2"
_cell_formula_units_Z 10
_cell_length_a 5.547077
_cell_length_b 8.247931
_cell_length_c 12.472480
_cell_angle_alpha 52.570105
_cell_angle_beta 64.587400
_cell_angle_gamma 57.824022
_cell_volume 378.796564
_symmetry_space_group_name_H-M "P -1"
_symmetry_group_IT_number 2
_symmetry_cell_setting 'triclinic'
loop_
_space_group_symop_operation_xyz
x,y,z
-x,-y,-z
loop_
_atom_site_type_symbol
_atom_site_label
_atom_site_fract_x
_atom_site_fract_y
_atom_site_fract_z
Si Si1 0.299222 0.248814 0.476974
Si Si2 0.116207 0.744093 0.617748
Si Si3 0.277073 0.321162 0.118031
Si Si4 0.178992 0.083160 0.782168
Si Si5 0.123272 0.215610 0.969213
O O1 0.538675 0.352453 0.411592
O O2 0.059873 0.351388 0.390716
O O3 0.500000 0.000000 0.500000
O O4 0.145716 0.221871 0.626058
O O5 0.998365 0.727588 0.764721
O O6 0.000000 0.000000 0.500000
O O7 0.543738 0.142230 0.197982
O O8 0.185071 0.578014 0.057774
O O9 0.295327 0.279057 0.004573
O O10 0.243110 0.186232 0.838407
O O11 0.924066 0.002519 0.895346
#
# Coordination Sequence:
#
# PCOD9085801 Si02
#       5
#     2   2   2   2   2
#     4  10  19  35  63  89 116 165 204 249 314 366
#     4  10  19  35  63  89 116 165 204 249 314 366
#     4  11  21  39  63  84 126 154 209 251 309 366
#     4  11  21  39  63  84 126 154 209 251 309 366
#     4  10  24  38  58  94 114 166 202 252 308 368
#
# _framework density 26.399394999999998
#
# number of rings (size 3 to 8) (size 9 to 14) (size 15 to 20)
#    0.000    1.600    4.000    3.600    0.000    0.000 
#    0.000    2.000    0.000    0.000    0.000    0.000 
#    0.000    0.000    0.000    0.000    0.000    0.000 
#
# Total GULP energy -55975.921253 kJ/mol
# GULP energy per Si atom -5597.592125 kJ/mol
# Density = 2.633931 g / cm^3
# Si number density = 26.399395 Si / 1000 Ang^3
#
#
#
# Elastic Constant Matrix: (Units=GPa)
#
#
# Indices 1 2 3 4 5 6 
#
# 1 148.2316 13.0466 28.2194 5.5792 10.3208 -1.9163
# 2 13.0466 82.2909 16.9634 12.2758 6.2571 0.7514
# 3 28.2194 16.9634 145.5057 22.2218 7.8549 15.0598
# 4 5.5792 12.2758 22.2218 30.7086 4.2113 6.5821
# 5 10.3208 6.2571 7.8549 4.2113 35.6166 5.1543
# 6 -1.9163 0.7514 15.0598 6.5821 5.1543 30.1397
#
#
#
# Elastic Compliance Matrix: (Units=1/GPa)
#
#
# Indices 1 2 3 4 5 6 
#
# 1 0.007221 -0.000721 -0.001354 -0.000108 -0.001871 0.001497
# 2 -0.000721 0.013225 -0.000734 -0.004682 -0.001585 0.001285
# 3 -0.001354 -0.000734 0.008284 -0.004746 -0.000293 -0.003121
# 4 -0.000108 -0.004682 -0.004746 0.039395 -0.001919 -0.005794
# 5 -0.001871 -0.001585 -0.000293 -0.001919 0.029857 -0.004620
# 6 0.001497 0.001285 -0.003121 -0.005794 -0.004620 0.036857
#
#
# Mechanical properties :
#
#
# Convention : Reuss Voigt Hill
#
# Bulk Modulus (GPa) = 43.26712 54.72078 48.99395
# Shear Modulus (GPa) = 33.74681 40.47958 37.11319
#
# Velocity S-wave (km/s) = 3.57924 3.92005 3.75351
# Velocity P-wave (km/s) = 5.78846 6.42356 6.11426
#
# Compressibility (1/GPa) = 0.02311224
#
# Stress axis : x y z
#
# Youngs Moduli (GPa) = 138.48308 75.61461 120.70872
#
# Poissons Ratio (x) = 0.05452 0.16342
# Poissons Ratio (y) = 0.09985 0.08864
# Poissons Ratio (z) = 0.18748 0.05552
#
# Static dielectric constant tensor:
#      x y z
#    x 2.218170 0.024480 -0.065350 
#    y 0.024480 2.118570 -0.000340 
#    z -0.065350 -0.000340 1.999640 
# 
# From -- ./inp_files/18049.got.cif
#   From: 2010.05.17/outbox.cif.g08.bks.cpg/sg2_10_cif.got.tgz:18049.got - 2010.06.03 11:33:40.
