data_PCOD9085571
_publ_section_title
;
Structure prediction by ZEFSAII (Michael W. Deem and Ramdas Pophale) SiO2 
 PCOD9085571
Probable space group: P -1
;
_chemical_formula_sum "Si O2"
_cell_formula_units_Z 16
_cell_length_a 9.116234
_cell_length_b 6.705616
_cell_length_c 15.580222
_cell_angle_alpha 135.091022
_cell_angle_beta 108.625090
_cell_angle_gamma 70.060986
_cell_volume 627.720777
_symmetry_space_group_name_H-M "P -1"
_symmetry_group_IT_number 2
_symmetry_cell_setting 'triclinic'
loop_
_space_group_symop_operation_xyz
x,y,z
-x,-y,-z
loop_
_atom_site_type_symbol
_atom_site_label
_atom_site_fract_x
_atom_site_fract_y
_atom_site_fract_z
Si Si1 0.912981 0.229227 0.893492
Si Si2 0.378234 0.907829 0.259530
Si Si3 0.629103 0.953602 0.435440
Si Si4 0.146680 0.916456 0.710355
Si Si5 0.219123 0.532221 0.449420
Si Si6 0.733301 0.289606 0.044539
Si Si7 0.909693 0.601254 0.301703
Si Si8 0.448172 0.106343 0.882995
O O1 0.748177 0.298746 0.832329
O O2 0.859026 0.144903 0.952119
O O3 0.016192 0.989450 0.781187
O O4 0.000000 0.500000 0.000000
O O5 0.538691 0.788461 0.298984
O O6 0.301006 0.206710 0.377622
O O7 0.431888 0.990168 0.201536
O O8 0.662715 0.258681 0.498582
O O9 0.500000 0.000000 0.500000
O O10 0.800435 0.759495 0.406318
O O11 0.157073 0.653580 0.567138
O O12 0.103951 0.174105 0.711599
O O13 0.312941 0.915999 0.789440
O O14 0.083394 0.545580 0.356294
O O15 0.830570 0.358126 0.165786
O O16 0.651503 0.582039 0.068309
O O17 0.580317 0.142675 0.989780
#
# Coordination Sequence:
#
# PCOD9085571 Si02
#       8
#     2   2   2   2   2   2   2   2
#     4  11  21  34  61  96 118 152 219 261 292 349
#     4  11  23  39  61  92 125 166 198 255 314 364
#     4  11  23  38  62  92 120 160 216 248 291 370
#     4  10  19  35  61  88 123 160 206 254 299 372
#     4  11  24  41  59  91 136 164 192 245 331 372
#     4   9  17  33  58  87 114 155 212 255 286 359
#     4  10  20  38  59  85 126 167 199 250 308 367
#     4   9  16  32  56  85 111 158 204 244 299 350
#
# _framework density 25.489038000000001
#
# number of rings (size 3 to 8) (size 9 to 14) (size 15 to 20)
#    0.000    1.750    6.250    1.875    3.500    0.500 
#    0.000    2.500    0.000    0.000    0.000    7.000 
#    0.000    0.000    0.000    0.000    0.000    0.000 
#
# Total GULP energy -89293.921451 kJ/mol
# GULP energy per Si atom -5580.870091 kJ/mol
# Density = 2.543102 g / cm^3
# Si number density = 25.489038 Si / 1000 Ang^3
#
#
#
# Elastic Constant Matrix: (Units=GPa)
#
#
# Indices 1 2 3 4 5 6 
#
# 1 155.8865 37.0684 65.7684 -0.6330 11.0769 0.6748
# 2 37.0684 68.0110 21.0813 -22.5318 2.7816 2.7587
# 3 65.7684 21.0813 132.1875 -2.8798 -1.4787 -2.2613
# 4 -0.6330 -22.5318 -2.8798 4.0894 -15.6088 1.1561
# 5 11.0769 2.7816 -1.4787 -15.6088 65.5835 -5.8308
# 6 0.6748 2.7587 -2.2613 1.1561 -5.8308 36.6775
#
#
#
# Elastic Compliance Matrix: (Units=1/GPa)
#
#
# Indices 1 2 3 4 5 6 
#
# 1 0.007554 0.001476 -0.003689 0.013570 0.001752 -0.000627
# 2 0.001476 -0.000384 -0.001815 -0.046264 -0.011325 -0.000452
# 3 -0.003689 -0.001815 0.009660 -0.002340 0.000445 0.000944
# 4 0.013570 -0.046264 -0.002340 -0.122864 -0.029421 0.002281
# 5 0.001752 -0.011325 0.000445 -0.029421 0.008721 0.003161
# 6 -0.000627 -0.000452 0.000944 0.002281 0.003161 0.027799
#
#
# Mechanical properties :
#
#
# Convention : Reuss Voigt Hill
#
# Bulk Modulus (GPa) = 113.98893 67.10238 90.54565
# Shear Modulus (GPa) = -85.42291 36.74786 -24.33753
#
# Velocity S-wave (km/s) = -5.79537 3.80111 -3.09337
# Velocity P-wave (km/s) = 0.18989 6.75631 4.77932
#
# Compressibility (1/GPa) = 0.00877278
#
# Stress axis : x y z
#
# Youngs Moduli (GPa) = 132.38620 -2604.41679 103.51778
#
# Poissons Ratio (x) = 3.84430 0.38189
# Poissons Ratio (y) = -0.19541 0.18794
# Poissons Ratio (z) = 0.48839 -4.72831
#
# Static dielectric constant tensor:
#      x y z
#    x 2.008630 0.024370 -0.010370 
#    y 0.024370 2.063260 0.022140 
#    z -0.010370 0.022140 2.133020 
# 
# From -- ./inp_files/346148.got.cif
#   From: 2010.05.17/outbox.cif.g08.bks.cpg/sg2_174_cif.got.tgz:346148.got - 2010.06.03 11:33:40.
