data_PCOD9085227
_publ_section_title
;
Structure prediction by ZEFSAII (Michael W. Deem and Ramdas Pophale) SiO2 
 PCOD9085227
Probable space group: P -1
;
_chemical_formula_sum "Si O2"
_cell_formula_units_Z 16
_cell_length_a 7.453429
_cell_length_b 16.406392
_cell_length_c 7.253015
_cell_angle_alpha 57.713289
_cell_angle_beta 64.256592
_cell_angle_gamma 68.087625
_cell_volume 663.667253
_symmetry_space_group_name_H-M "P -1"
_symmetry_group_IT_number 2
_symmetry_cell_setting 'triclinic'
loop_
_space_group_symop_operation_xyz
x,y,z
-x,-y,-z
loop_
_atom_site_type_symbol
_atom_site_label
_atom_site_fract_x
_atom_site_fract_y
_atom_site_fract_z
Si Si1 0.863361 0.963731 0.402844
Si Si2 0.571912 0.768933 0.010725
Si Si3 0.827327 0.332771 0.001507
Si Si4 0.168310 0.427712 0.899400
Si Si5 0.239439 0.496509 0.429295
Si Si6 0.457041 0.701835 0.515295
Si Si7 0.065154 0.133941 0.141240
Si Si8 0.482783 0.119876 0.475912
O O1 0.734397 0.914605 0.372883
O O2 0.967894 0.884728 0.601343
O O3 0.020026 0.033615 0.193700
O O4 0.675782 0.032504 0.513694
O O5 0.677400 0.666933 0.982444
O O6 0.432017 0.734331 0.273374
O O7 0.498475 0.840838 0.788714
O O8 0.724008 0.826603 0.989373
O O9 0.723070 0.329084 0.249955
O O10 0.895668 0.222366 0.034662
O O11 0.708762 0.412958 0.818751
O O12 0.036504 0.367780 0.905086
O O13 0.271925 0.495854 0.635734
O O14 0.000000 0.500000 0.000000
O O15 0.363557 0.392423 0.436098
O O16 0.000000 0.500000 0.500000
O O17 0.507961 0.793719 0.493068
#
# Coordination Sequence:
#
# PCOD9085227 Si02
#       8
#     2   2   2   2   2   2   2   2
#     4   9  18  36  63  86 114 157 200 249 302 346
#     4   9  21  37  58  86 122 156 197 241 295 356
#     4  10  19  35  59  87 113 163 196 232 303 351
#     4   9  19  37  57  83 117 156 194 244 290 346
#     4   9  20  36  57  84 117 154 197 231 290 356
#     4  11  21  38  59  88 126 156 194 246 296 351
#     4   9  17  37  62  83 119 157 194 249 299 347
#     4  10  20  36  63  90 115 156 202 247 299 348
#
# _framework density 24.108468999999999
#
# number of rings (size 3 to 8) (size 9 to 14) (size 15 to 20)
#    0.000    2.500    1.250    1.125    3.500    0.000 
#    2.250    7.500    5.500    0.000    0.000    0.000 
#    0.000    0.000    0.000    0.000    0.000    0.000 
#
# Total GULP energy -89182.800517 kJ/mol
# GULP energy per Si atom -5573.925032 kJ/mol
# Density = 2.405360 g / cm^3
# Si number density = 24.108469 Si / 1000 Ang^3
#
#
#
# Elastic Constant Matrix: (Units=GPa)
#
#
# Indices 1 2 3 4 5 6 
#
# 1 57.7326 9.3753 2.7394 -6.6594 -15.1695 9.6511
# 2 9.3753 75.0998 30.7172 -24.2460 21.6667 -3.3586
# 3 2.7394 30.7172 134.4654 -11.4965 2.0443 -6.6027
# 4 -6.6594 -24.2460 -11.4965 26.4161 -1.9625 -1.2804
# 5 -15.1695 21.6667 2.0443 -1.9625 27.8835 -5.7068
# 6 9.6511 -3.3586 -6.6027 -1.2804 -5.7068 22.6236
#
#
#
# Elastic Compliance Matrix: (Units=1/GPa)
#
#
# Indices 1 2 3 4 5 6 
#
# 1 0.025135 -0.010004 0.001021 -0.001264 0.019857 -0.006972
# 2 -0.010004 0.031981 -0.004631 0.022831 -0.027957 0.001904
# 3 0.001021 -0.004631 0.008542 0.000139 0.004028 0.002394
# 4 -0.001264 0.022831 0.000139 0.057728 -0.013597 0.003807
# 5 0.019857 -0.027957 0.004028 -0.013597 0.068156 0.004977
# 6 -0.006972 0.001904 0.002394 0.003807 0.004977 0.049628
#
#
# Mechanical properties :
#
#
# Convention : Reuss Voigt Hill
#
# Bulk Modulus (GPa) = 26.02236 39.21796 32.62016
# Shear Modulus (GPa) = 17.78044 30.34904 24.06474
#
# Velocity S-wave (km/s) = 2.71868 3.55188 3.16284
# Velocity P-wave (km/s) = 4.54667 5.75533 5.18633
#
# Compressibility (1/GPa) = 0.03842849
#
# Stress axis : x y z
#
# Youngs Moduli (GPa) = 39.78595 31.26887 117.06502
#
# Poissons Ratio (x) = 0.31282 -0.11951
# Poissons Ratio (y) = 0.39802 0.54216
# Poissons Ratio (z) = -0.04062 0.14482
#
# Static dielectric constant tensor:
#      x y z
#    x 1.986520 -0.036550 -0.004670 
#    y -0.036550 2.033700 -0.051530 
#    z -0.004670 -0.051530 2.028740 
# 
# From -- ./inp_files/216593.got.cif
#   From: 2010.05.17/outbox.cif.g08.bks.cpg/sg2_109_cif.got.tgz:216593.got - 2010.06.03 11:33:40.
