data_PCOD9085541
_publ_section_title
;
Structure prediction by ZEFSAII (Michael W. Deem and Ramdas Pophale) SiO2 
 PCOD9085541
Probable space group: P -1
;
_chemical_formula_sum "Si O2"
_cell_formula_units_Z 16
_cell_length_a 13.854792
_cell_length_b 21.776976
_cell_length_c 22.978867
_cell_angle_alpha 19.181902
_cell_angle_beta 160.238237
_cell_angle_gamma 155.063979
_cell_volume 760.121767
_symmetry_space_group_name_H-M "P -1"
_symmetry_group_IT_number 2
_symmetry_cell_setting 'triclinic'
loop_
_space_group_symop_operation_xyz
x,y,z
-x,-y,-z
loop_
_atom_site_type_symbol
_atom_site_label
_atom_site_fract_x
_atom_site_fract_y
_atom_site_fract_z
Si Si1 0.794508 0.455351 0.176669
Si Si2 0.754409 0.348070 0.964178
Si Si3 0.520040 0.098340 0.283684
Si Si4 0.766948 0.311531 0.491031
Si Si5 0.833413 0.557630 0.977085
Si Si6 0.004158 0.211583 0.833555
Si Si7 0.211175 0.864262 0.716540
Si Si8 0.203994 0.516621 0.460019
O O1 0.745141 0.232104 0.331460
O O2 0.069019 0.502079 0.332805
O O3 0.500000 0.500000 0.000000
O O4 0.845720 0.569224 0.043171
O O5 0.639387 0.197062 0.084392
O O6 0.937414 0.293168 0.062086
O O7 0.494724 0.438728 0.708757
O O8 0.000000 0.500000 0.000000
O O9 0.630744 0.034978 0.340621
O O10 0.360425 0.910877 0.391982
O O11 0.300163 0.241139 0.011527
O O12 0.486025 0.411915 0.251098
O O13 0.960056 0.313079 0.657264
O O14 0.956140 0.401241 0.464328
O O15 0.892334 0.345111 0.183961
O O16 0.768296 0.268733 0.692361
O O17 0.000000 0.000000 0.000000
O O18 0.000000 0.000000 0.500000
#
# Coordination Sequence:
#
# PCOD9085541 Si02
#       8
#     2   2   2   2   2   2   2   2
#     4  11  21  41  63  89 127 168 210 253 306 369
#     4  10  22  39  61  91 121 157 207 251 318 371
#     4  10  21  37  59  93 127 161 205 257 313 367
#     4  11  21  36  62  92 123 160 210 263 311 362
#     4  10  21  39  60  88 120 164 205 250 309 370
#     4  10  20  33  55  88 123 152 202 258 309 361
#     4  10  19  35  61  86 120 158 197 254 314 369
#     4  12  22  38  63  89 126 168 206 257 308 369
#
# _framework density 21.049258999999999
#
# number of rings (size 3 to 8) (size 9 to 14) (size 15 to 20)
#    0.000    1.500    2.500    4.125    0.000    4.000 
#    0.000    0.000    0.000    6.750    0.000    0.000 
#    0.000    0.000    0.000    0.000    0.000    0.000 
#
# Total GULP energy -89152.690327 kJ/mol
# GULP energy per Si atom -5572.043145 kJ/mol
# Density = 2.100135 g / cm^3
# Si number density = 21.049259 Si / 1000 Ang^3
#
#
#
# Elastic Constant Matrix: (Units=GPa)
#
#
# Indices 1 2 3 4 5 6 
#
# 1 120.3861 20.9504 31.0341 7.3224 2.3139 -14.1920
# 2 20.9504 71.9969 29.8028 3.1607 -7.0738 -16.3136
# 3 31.0341 29.8028 133.9106 17.5712 3.3595 -12.4147
# 4 7.3224 3.1607 17.5712 33.6753 4.7768 -7.6858
# 5 2.3139 -7.0738 3.3595 4.7768 35.2624 7.7410
# 6 -14.1920 -16.3136 -12.4147 -7.6858 7.7410 32.8477
#
#
#
# Elastic Compliance Matrix: (Units=1/GPa)
#
#
# Indices 1 2 3 4 5 6 
#
# 1 0.009352 -0.001562 -0.001477 -0.000235 -0.001409 0.002984
# 2 -0.001562 0.017277 -0.003132 0.001534 0.002219 0.006558
# 3 -0.001477 -0.003132 0.009091 -0.003855 -0.001002 0.000577
# 4 -0.000235 0.001534 -0.003855 0.034418 -0.005869 0.008640
# 5 -0.001409 0.002219 -0.001002 -0.005869 0.031703 -0.008730
# 6 0.002984 0.006558 0.000577 0.008640 -0.008730 0.039286
#
#
# Mechanical properties :
#
#
# Convention : Reuss Voigt Hill
#
# Bulk Modulus (GPa) = 42.77412 54.42980 48.60196
# Shear Modulus (GPa) = 31.00499 36.65750 33.83124
#
# Velocity S-wave (km/s) = 3.84210 4.17767 4.01339
# Velocity P-wave (km/s) = 6.32830 7.01320 6.67953
#
# Compressibility (1/GPa) = 0.02337862
#
# Stress axis : x y z
#
# Youngs Moduli (GPa) = 106.92506 57.87957 109.99348
#
# Poissons Ratio (x) = 0.09042 0.16245
# Poissons Ratio (y) = 0.16703 0.34452
# Poissons Ratio (z) = 0.15792 0.18129
#
# Static dielectric constant tensor:
#      x y z
#    x 1.836000 0.070920 0.019080 
#    y 0.070920 1.910020 -0.012140 
#    z 0.019080 -0.012140 1.799050 
# 
# From -- ./inp_files/612258.got.cif
#   From: 2010.05.17/outbox.cif.g08.bks.cpg/sg2_307_cif.got.tgz:612258.got - 2010.06.03 11:33:40.
