data_PCOD9085579
_publ_section_title
;
Structure prediction by ZEFSAII (Michael W. Deem and Ramdas Pophale) SiO2 
 PCOD9085579
Probable space group: P -1
;
_chemical_formula_sum "Si O2"
_cell_formula_units_Z 14
_cell_length_a 10.862044
_cell_length_b 8.378700
_cell_length_c 6.627953
_cell_angle_alpha 98.909295
_cell_angle_beta 90.068589
_cell_angle_gamma 115.124342
_cell_volume 538.035321
_symmetry_space_group_name_H-M "P -1"
_symmetry_group_IT_number 2
_symmetry_cell_setting 'triclinic'
loop_
_space_group_symop_operation_xyz
x,y,z
-x,-y,-z
loop_
_atom_site_type_symbol
_atom_site_label
_atom_site_fract_x
_atom_site_fract_y
_atom_site_fract_z
Si Si1 0.115179 0.970785 0.863167
Si Si2 0.689184 0.481757 0.115642
Si Si3 0.220546 0.505681 0.348730
Si Si4 0.562861 0.863102 0.044644
Si Si5 0.488206 0.300137 0.537522
Si Si6 0.780737 0.804145 0.462889
Si Si7 0.952196 0.440889 0.214239
O O1 0.118191 0.042225 0.648452
O O2 0.078922 0.764015 0.812957
O O3 0.273041 0.060916 0.961979
O O4 0.000000 0.000000 0.000000
O O5 0.537714 0.324159 0.098540
O O6 0.696395 0.657753 0.258215
O O7 0.812794 0.459553 0.222374
O O8 0.731488 0.508067 0.884175
O O9 0.353830 0.653545 0.483241
O O10 0.174761 0.309556 0.407614
O O11 0.092010 0.552693 0.358504
O O12 0.529526 0.807689 0.268292
O O13 0.500000 0.000000 0.000000
O O14 0.500000 0.500000 0.500000
O O15 0.340626 0.167192 0.421523
O O16 0.000000 0.500000 0.000000
#
# Coordination Sequence:
#
# PCOD9085579 Si02
#       7
#     2   2   2   2   2   2   2
#     4  11  22  36  58  91 123 149 207 256 291 358
#     4  10  20  37  62  87 117 156 201 239 304 367
#     4   9  19  35  58  85 116 156 193 242 300 348
#     4  10  19  35  61  89 117 163 198 245 313 359
#     4   8  17  34  57  85 115 155 197 244 296 361
#     4  10  21  37  59  88 116 154 201 248 290 363
#     4  10  20  35  56  83 116 160 193 236 307 354
#
# _framework density 26.020596000000001
#
# number of rings (size 3 to 8) (size 9 to 14) (size 15 to 20)
#    0.000    2.286    1.429    1.714    0.000    7.429 
#    0.000    0.000    0.000    9.429    0.000    0.000 
#    0.000    0.000    0.000    0.000    0.000    0.000 
#
# Total GULP energy -77990.932046 kJ/mol
# GULP energy per Si atom -5570.780860 kJ/mol
# Density = 2.596137 g / cm^3
# Si number density = 26.020596 Si / 1000 Ang^3
#
#
#
# Elastic Constant Matrix: (Units=GPa)
#
#
# Indices 1 2 3 4 5 6 
#
# 1 200.2278 36.0182 74.5117 -29.1373 10.0897 37.7495
# 2 36.0182 105.4443 35.1512 -27.9091 -0.8674 11.6028
# 3 74.5117 35.1512 122.8455 -32.8429 1.5206 11.6552
# 4 -29.1373 -27.9091 -32.8429 52.6557 10.2210 3.8592
# 5 10.0897 -0.8674 1.5206 10.2210 54.2490 -5.5578
# 6 37.7495 11.6028 11.6552 3.8592 -5.5578 44.0030
#
#
#
# Elastic Compliance Matrix: (Units=1/GPa)
#
#
# Indices 1 2 3 4 5 6 
#
# 1 0.008159 -0.000042 -0.003342 0.003439 -0.002764 -0.006754
# 2 -0.000042 0.011899 -0.001483 0.005840 -0.001206 -0.003373
# 3 -0.003342 -0.001483 0.011984 0.005013 -0.000728 -0.000448
# 4 0.003439 0.005840 0.005013 0.029182 -0.007136 -0.009279
# 5 -0.002764 -0.001206 -0.000728 -0.007136 0.020923 0.006151
# 6 -0.006754 -0.003373 -0.000448 -0.009279 0.006151 0.031118
#
#
# Mechanical properties :
#
#
# Convention : Reuss Voigt Hill
#
# Bulk Modulus (GPa) = 44.82813 79.98664 62.40739
# Shear Modulus (GPa) = 38.33304 49.03732 43.68518
#
# Velocity S-wave (km/s) = 3.84237 4.34586 4.10185
# Velocity P-wave (km/s) = 6.07868 7.48254 6.81685
#
# Compressibility (1/GPa) = 0.02230742
#
# Stress axis : x y z
#
# Youngs Moduli (GPa) = 122.56913 84.03717 83.44726
#
# Poissons Ratio (x) = 0.00353 0.27889
# Poissons Ratio (y) = 0.00515 0.12376
# Poissons Ratio (z) = 0.40964 0.12463
#
# Static dielectric constant tensor:
#      x y z
#    x 2.214740 0.050290 -0.099460 
#    y 0.050290 2.011050 0.018910 
#    z -0.099460 0.018910 2.238360 
# 
# From -- ./inp_files/233879.got.cif
#   From: 2010.05.17/outbox.cif.g08.bks.cpg/sg2_117_cif.got.tgz:233879.got - 2010.06.03 11:33:40.
