data_PCOD9085859
_publ_section_title
;
Structure prediction by ZEFSAII (Michael W. Deem and Ramdas Pophale) SiO2 
 PCOD9085859
Probable space group: P -1
;
_chemical_formula_sum "Si O2"
_cell_formula_units_Z 16
_cell_length_a 12.221850
_cell_length_b 12.594305
_cell_length_c 9.059538
_cell_angle_alpha 126.872593
_cell_angle_beta 69.990871
_cell_angle_gamma 132.628432
_cell_volume 815.886455
_symmetry_space_group_name_H-M "P -1"
_symmetry_group_IT_number 2
_symmetry_cell_setting 'triclinic'
loop_
_space_group_symop_operation_xyz
x,y,z
-x,-y,-z
loop_
_atom_site_type_symbol
_atom_site_label
_atom_site_fract_x
_atom_site_fract_y
_atom_site_fract_z
Si Si1 0.366475 0.065332 0.386074
Si Si2 0.100955 0.339513 0.513781
Si Si3 0.710546 0.302724 0.423630
Si Si4 0.759056 0.113152 0.002001
Si Si5 0.038821 0.876041 0.873606
Si Si6 0.830376 0.303309 0.684061
Si Si7 0.906100 0.642218 0.005019
Si Si8 0.165217 0.181584 0.588866
O O1 0.539009 0.198406 0.460594
O O2 0.279407 0.141573 0.515296
O O3 0.285958 0.887817 0.362081
O O4 0.353576 0.018477 0.178803
O O5 0.214459 0.509392 0.511293
O O6 0.978621 0.184004 0.334200
O O7 0.183584 0.285327 0.521909
O O8 0.997568 0.364054 0.677932
O O9 0.718242 0.208679 0.201375
O O10 0.801297 0.311082 0.529461
O O11 0.806410 0.038589 0.041288
O O12 0.915883 0.249483 0.955193
O O13 0.921469 0.706687 0.883883
O O14 0.000000 0.000000 0.000000
O O15 0.824021 0.442916 0.880911
O O16 0.838792 0.713262 0.190580
O O17 0.000000 0.000000 0.500000
#
# Coordination Sequence:
#
# PCOD9085859 Si02
#       8
#     2   2   2   2   2   2   2   2
#     4  12  27  41  65  92 138 166 208 258 323 387
#     4  12  21  39  73  88 130 161 217 271 302 375
#     4  12  24  43  62  99 128 167 208 263 326 371
#     4  10  20  39  62  95 122 160 212 259 314 371
#     4  10  19  35  63  97 123 159 214 268 307 362
#     4  12  22  43  67  97 121 170 216 266 308 370
#     4  10  21  37  66  96 123 153 229 258 306 366
#     4  12  23  42  63  98 125 171 209 257 319 373
#
# _framework density 19.610569999999999
#
# number of rings (size 3 to 8) (size 9 to 14) (size 15 to 20)
#    0.750    0.000    6.250    2.625    1.750    1.500 
#    0.000    0.625    0.000    0.000    0.000    0.000 
#    0.000    0.000    0.000    0.000    0.000    0.000 
#
# Total GULP energy -89259.775668 kJ/mol
# GULP energy per Si atom -5578.735979 kJ/mol
# Density = 1.956594 g / cm^3
# Si number density = 19.610570 Si / 1000 Ang^3
#
#
#
# Elastic Constant Matrix: (Units=GPa)
#
#
# Indices 1 2 3 4 5 6 
#
# 1 63.5836 33.9223 5.3800 12.2647 -18.3214 -12.5211
# 2 33.9223 75.4089 -6.9283 10.0860 -20.6163 -7.4851
# 3 5.3800 -6.9283 89.5113 10.7759 -17.0545 -12.8846
# 4 12.2647 10.0860 10.7759 24.2161 -12.1834 -0.4286
# 5 -18.3214 -20.6163 -17.0545 -12.1834 22.6087 6.0364
# 6 -12.5211 -7.4851 -12.8846 -0.4286 6.0364 28.5261
#
#
#
# Elastic Compliance Matrix: (Units=1/GPa)
#
#
# Indices 1 2 3 4 5 6 
#
# 1 0.024582 -0.006635 0.001685 -0.005073 0.010397 0.007534
# 2 -0.006635 0.022090 0.005872 0.001427 0.019587 0.001413
# 3 0.001685 0.005872 0.015653 -0.002252 0.015714 0.005991
# 4 -0.005073 0.001427 -0.002252 0.058942 0.029447 -0.008215
# 5 0.010397 0.019587 0.015714 0.029447 0.099242 -0.003757
# 6 0.007534 0.001413 0.005991 -0.008215 -0.003757 0.042111
#
#
# Mechanical properties :
#
#
# Convention : Reuss Voigt Hill
#
# Bulk Modulus (GPa) = 15.58382 32.58355 24.08369
# Shear Modulus (GPa) = 17.72015 28.14552 22.93284
#
# Velocity S-wave (km/s) = 3.00926 3.79254 3.42338
# Velocity P-wave (km/s) = 4.47639 5.98575 5.28523
#
# Compressibility (1/GPa) = 0.06416911
#
# Stress axis : x y z
#
# Youngs Moduli (GPa) = 40.67976 45.27010 63.88748
#
# Poissons Ratio (x) = 0.30036 -0.10765
# Poissons Ratio (y) = 0.26990 -0.37516
# Poissons Ratio (z) = -0.06854 -0.26583
#
# Static dielectric constant tensor:
#      x y z
#    x 1.682710 -0.017000 0.008630 
#    y -0.017000 1.680110 -0.029160 
#    z 0.008630 -0.029160 1.730770 
# 
# From -- ./inp_files/263015.got.cif
#   From: 2010.05.17/outbox.cif.g08.bks.cpg/sg2_132_cif.got.tgz:263015.got - 2010.06.03 11:33:40.
