data_PCOD9085177
_publ_section_title
;
Structure prediction by ZEFSAII (Michael W. Deem and Ramdas Pophale) SiO2 
 PCOD9085177
Probable space group: P -1
;
_chemical_formula_sum "Si O2"
_cell_formula_units_Z 16
_cell_length_a 6.545682
_cell_length_b 21.782121
_cell_length_c 5.162728
_cell_angle_alpha 75.108371
_cell_angle_beta 107.129434
_cell_angle_gamma 102.091002
_cell_volume 672.648443
_symmetry_space_group_name_H-M "P -1"
_symmetry_group_IT_number 2
_symmetry_cell_setting 'triclinic'
loop_
_space_group_symop_operation_xyz
x,y,z
-x,-y,-z
loop_
_atom_site_type_symbol
_atom_site_label
_atom_site_fract_x
_atom_site_fract_y
_atom_site_fract_z
Si Si1 0.250996 0.510442 0.413224
Si Si2 0.653759 0.950263 0.411602
Si Si3 0.227311 0.429816 0.991909
Si Si4 0.934908 0.294405 0.103442
Si Si5 0.553360 0.365796 0.885642
Si Si6 0.153689 0.262332 0.720676
Si Si7 0.161135 0.956591 0.246062
Si Si8 0.218716 0.126006 0.953677
O O1 0.500000 0.500000 0.500000
O O2 0.176213 0.469667 0.177652
O O3 0.291007 0.587093 0.300098
O O4 0.834393 0.527366 0.318656
O O5 0.411134 0.963598 0.258732
O O6 0.706553 0.909560 0.231431
O O7 0.801563 0.018289 0.469332
O O8 0.692303 0.906381 0.724494
O O9 0.089824 0.361744 0.061203
O O10 0.466100 0.411026 0.027290
O O11 0.038644 0.256452 0.407411
O O12 0.970580 0.264102 0.870454
O O13 0.702801 0.312813 0.076144
O O14 0.332348 0.327074 0.726557
O O15 0.276482 0.202035 0.889332
O O16 0.041381 0.888200 0.180854
O O17 0.000000 0.000000 0.000000
#
# Coordination Sequence:
#
# PCOD9085177 Si02
#       8
#     2   2   2   2   2   2   2   2
#     4  10  19  35  59  84 115 149 186 242 305 363
#     4  10  22  39  64  95 124 161 202 240 299 355
#     4  10  21  38  58  87 116 145 194 245 299 371
#     4  11  24  41  62  86 117 157 199 249 306 355
#     4  10  23  40  62  84 119 158 192 247 307 356
#     4  11  26  43  59  88 121 156 209 251 286 352
#     4   9  21  39  64  97 131 159 195 248 298 346
#     4  11  23  41  63  87 123 165 204 248 290 346
#
# _framework density 23.786574000000002
#
# number of rings (size 3 to 8) (size 9 to 14) (size 15 to 20)
#    0.000    1.750    0.000    4.875    0.000   15.500 
#    0.000    0.000    0.000    0.750    0.000    0.000 
#    0.000    0.000    0.000    0.000    0.000    0.000 
#
# Total GULP energy -89180.246556 kJ/mol
# GULP energy per Si atom -5573.765410 kJ/mol
# Density = 2.373244 g / cm^3
# Si number density = 23.786574 Si / 1000 Ang^3
#
#
#
# Elastic Constant Matrix: (Units=GPa)
#
#
# Indices 1 2 3 4 5 6 
#
# 1 72.2412 2.9136 33.1337 4.4496 6.8950 -11.7319
# 2 2.9136 88.0822 26.6397 -5.5618 -9.4036 1.8981
# 3 33.1337 26.6397 129.9597 -1.3496 -19.8960 -10.6606
# 4 4.4496 -5.5618 -1.3496 34.6296 -12.3735 1.1062
# 5 6.8950 -9.4036 -19.8960 -12.3735 31.1013 1.2321
# 6 -11.7319 1.8981 -10.6606 1.1062 1.2321 28.7169
#
#
#
# Elastic Compliance Matrix: (Units=1/GPa)
#
#
# Indices 1 2 3 4 5 6 
#
# 1 0.019212 -0.000601 -0.006067 -0.007076 -0.011391 0.006397
# 2 -0.000601 0.012687 -0.001931 0.003630 0.004262 -0.002124
# 3 -0.006067 -0.001931 0.011259 0.004309 0.009628 0.001249
# 4 -0.007076 0.003630 0.004309 0.038065 0.020721 -0.003887
# 5 -0.011391 0.004262 0.009628 0.020721 0.050541 -0.004328
# 6 0.006397 -0.002124 0.001249 -0.003887 -0.004328 0.038376
#
#
# Mechanical properties :
#
#
# Convention : Reuss Voigt Hill
#
# Bulk Modulus (GPa) = 38.52461 46.18411 42.35436
# Shear Modulus (GPa) = 25.51126 34.06264 29.78695
#
# Velocity S-wave (km/s) = 3.27847 3.78830 3.54257
# Velocity P-wave (km/s) = 5.52831 6.21234 5.88028
#
# Compressibility (1/GPa) = 0.02595743
#
# Stress axis : x y z
#
# Youngs Moduli (GPa) = 52.05210 78.82040 88.81976
#
# Poissons Ratio (x) = 0.04738 0.53891
# Poissons Ratio (y) = 0.03129 0.17155
# Poissons Ratio (z) = 0.31582 0.15223
#
# Static dielectric constant tensor:
#      x y z
#    x 2.058270 0.039730 -0.053120 
#    y 0.039730 2.014530 -0.013490 
#    z -0.053120 -0.013490 1.994710 
# 
# From -- ./inp_files/12351.got.cif
#   From: 2010.05.17/outbox.cif.g08.bks.cpg/sg2_7_cif.got.tgz:12351.got - 2010.06.03 11:33:40.
