data_PCOD9085856
_publ_section_title
;
Structure prediction by ZEFSAII (Michael W. Deem and Ramdas Pophale) SiO2 
 PCOD9085856
Probable space group: P -1
;
_chemical_formula_sum "Si O2"
_cell_formula_units_Z 16
_cell_length_a 13.546488
_cell_length_b 9.742446
_cell_length_c 8.426813
_cell_angle_alpha 97.159962
_cell_angle_beta 94.880457
_cell_angle_gamma 31.848524
_cell_volume 581.811239
_symmetry_space_group_name_H-M "P -1"
_symmetry_group_IT_number 2
_symmetry_cell_setting 'triclinic'
loop_
_space_group_symop_operation_xyz
x,y,z
-x,-y,-z
loop_
_atom_site_type_symbol
_atom_site_label
_atom_site_fract_x
_atom_site_fract_y
_atom_site_fract_z
Si Si1 0.453832 0.141778 0.810950
Si Si2 0.907074 0.292074 0.068522
Si Si3 0.285325 0.983411 0.347713
Si Si4 0.158655 0.339155 0.127914
Si Si5 0.286672 0.757087 0.066071
Si Si6 0.380749 0.740674 0.633894
Si Si7 0.650512 0.642601 0.694120
Si Si8 0.850257 0.238261 0.391651
O O1 0.251779 0.403097 0.892126
O O2 0.514588 0.188189 0.702136
O O3 0.500734 0.944237 0.701160
O O4 0.374776 0.045961 0.065364
O O5 0.807971 0.281276 0.964493
O O6 0.923819 0.228891 0.247072
O O7 0.121695 0.051183 0.007830
O O8 0.295409 0.821822 0.245557
O O9 0.146200 0.255121 0.273895
O O10 0.183360 0.470068 0.208459
O O11 0.000000 0.500000 0.000000
O O12 0.500000 0.500000 0.000000
O O13 0.500000 0.500000 0.500000
O O14 0.521676 0.668810 0.742999
O O15 0.252125 0.776141 0.695993
O O16 0.269404 0.975261 0.531198
O O17 0.738469 0.475185 0.524565
O O18 0.000000 0.000000 0.500000
#
# Coordination Sequence:
#
# PCOD9085856 Si02
#       8
#     2   2   2   2   2   2   2   2
#     4   8  18  37  65  95 137 183 244 295 357 430
#     4  11  23  40  67 104 140 189 244 304 354 446
#     4   9  19  35  63  98 135 186 241 291 362 424
#     4   8  18  36  67  98 142 196 246 302 357 436
#     4  11  22  40  67 101 141 185 239 301 380 424
#     4  10  19  35  63  96 143 186 238 299 348 438
#     4   8  20  36  65  97 139 199 236 294 376 417
#     4  11  23  39  60 103 147 186 242 300 358 435
#
# _framework density 27.500329000000001
#
# number of rings (size 3 to 8) (size 9 to 14) (size 15 to 20)
#    1.500    0.750    1.250    2.250    0.000    5.500 
#    0.000    3.750    0.000    8.250    0.000    2.625 
#    0.000    0.000    0.000    0.000    0.000    0.375 
#
# Total GULP energy -89283.990368 kJ/mol
# GULP energy per Si atom -5580.249398 kJ/mol
# Density = 2.743774 g / cm^3
# Si number density = 27.500329 Si / 1000 Ang^3
#
#
#
# Elastic Constant Matrix: (Units=GPa)
#
#
# Indices 1 2 3 4 5 6 
#
# 1 142.7257 54.5276 53.0769 -1.2758 27.8171 -4.7823
# 2 54.5276 210.5517 75.3046 -19.5643 10.1683 -8.0100
# 3 53.0769 75.3046 145.3855 -7.3315 23.9682 2.3916
# 4 -1.2758 -19.5643 -7.3315 60.1413 0.3564 -0.2311
# 5 27.8171 10.1683 23.9682 0.3564 55.6175 -6.4090
# 6 -4.7823 -8.0100 2.3916 -0.2311 -6.4090 49.5092
#
#
#
# Elastic Compliance Matrix: (Units=1/GPa)
#
#
# Indices 1 2 3 4 5 6 
#
# 1 0.008966 -0.001488 -0.001986 -0.000515 -0.003320 0.000289
# 2 -0.001488 0.006291 -0.002801 0.001672 0.000922 0.001136
# 3 -0.001986 -0.002801 0.009548 0.000221 -0.002779 -0.001465
# 4 -0.000515 0.001672 0.000221 0.017190 -0.000223 0.000261
# 5 -0.003320 0.000922 -0.002779 -0.000223 0.020980 0.002678
# 6 0.000289 0.001136 -0.001465 0.000261 0.002678 0.020829
#
#
# Mechanical properties :
#
#
# Convention : Reuss Voigt Hill
#
# Bulk Modulus (GPa) = 81.61013 96.05347 88.83180
# Shear Modulus (GPa) = 49.78214 54.10384 51.94299
#
# Velocity S-wave (km/s) = 4.25931 4.44034 4.35076
# Velocity P-wave (km/s) = 7.34366 7.82897 7.59020
#
# Compressibility (1/GPa) = 0.01225338
#
# Stress axis : x y z
#
# Youngs Moduli (GPa) = 111.53809 158.95960 104.73660
#
# Poissons Ratio (x) = 0.23656 0.20798
# Poissons Ratio (y) = 0.16599 0.29342
# Poissons Ratio (z) = 0.22148 0.44532
#
# Static dielectric constant tensor:
#      x y z
#    x 2.280700 0.077700 -0.084470 
#    y 0.077700 2.290050 -0.125930 
#    z -0.084470 -0.125930 2.171490 
# 
# From -- ./inp_files/530675.got.cif
#   From: 2010.05.17/outbox.cif.g08.bks.cpg/sg2_266_cif.got.tgz:530675.got - 2010.06.03 11:33:40.
