data_PCOD9085828
_publ_section_title
;
Structure prediction by ZEFSAII (Michael W. Deem and Ramdas Pophale) SiO2 
 PCOD9085828
Probable space group: P -1
;
_chemical_formula_sum "Si O2"
_cell_formula_units_Z 16
_cell_length_a 11.549716
_cell_length_b 7.219841
_cell_length_c 17.355189
_cell_angle_alpha 107.966955
_cell_angle_beta 34.570921
_cell_angle_gamma 96.200640
_cell_volume 752.018109
_symmetry_space_group_name_H-M "P -1"
_symmetry_group_IT_number 2
_symmetry_cell_setting 'triclinic'
loop_
_space_group_symop_operation_xyz
x,y,z
-x,-y,-z
loop_
_atom_site_type_symbol
_atom_site_label
_atom_site_fract_x
_atom_site_fract_y
_atom_site_fract_z
Si Si1 0.858344 0.890815 0.917470
Si Si2 0.289184 0.273801 0.683236
Si Si3 0.573796 0.569880 0.212154
Si Si4 0.432032 0.841023 0.766983
Si Si5 0.176793 0.670234 0.085878
Si Si6 0.474218 0.817802 0.047491
Si Si7 0.665671 0.194347 0.359358
Si Si8 0.749525 0.078316 0.652825
O O1 0.102081 0.773021 0.758838
O O2 0.843687 0.105169 0.910055
O O3 0.710972 0.761000 0.945378
O O4 0.754330 0.978472 0.068521
O O5 0.317145 0.363840 0.763859
O O6 0.475943 0.312779 0.533076
O O7 0.064729 0.334880 0.769277
O O8 0.318309 0.037511 0.655342
O O9 0.526307 0.359398 0.231412
O O10 0.366931 0.729689 0.311825
O O11 0.740474 0.506123 0.043927
O O12 0.380024 0.791387 0.703779
O O13 0.643664 0.910305 0.658241
O O14 0.363305 0.667843 0.044711
O O15 0.325547 0.888828 0.212777
O O16 0.500000 0.000000 0.000000
O O17 0.000000 0.000000 0.500000
#
# Coordination Sequence:
#
# PCOD9085828 Si02
#       8
#     2   2   2   2   2   2   2   2
#     4   8  17  34  59  94 121 169 209 261 306 376
#     4  10  21  36  62  96 128 168 211 267 320 376
#     4  11  23  42  63  92 129 166 217 262 321 381
#     4  10  21  40  64  91 129 166 217 259 314 390
#     4   9  19  36  62  89 128 166 210 263 310 378
#     4   9  19  39  65  92 129 166 218 259 316 378
#     4  10  19  35  63  92 129 168 215 258 324 375
#     4  11  25  42  69  96 129 171 210 269 328 383
#
# _framework density 21.276084999999998
#
# number of rings (size 3 to 8) (size 9 to 14) (size 15 to 20)
#    0.000    2.250    1.250    1.500    1.750    3.500 
#    4.500    1.250    2.750    0.000    0.000    0.000 
#    0.000    0.000    0.000    0.000    0.000    0.000 
#
# Total GULP energy -89188.333061 kJ/mol
# GULP energy per Si atom -5574.270816 kJ/mol
# Density = 2.122766 g / cm^3
# Si number density = 21.276085 Si / 1000 Ang^3
#
#
#
# Elastic Constant Matrix: (Units=GPa)
#
#
# Indices 1 2 3 4 5 6 
#
# 1 135.2921 32.8474 87.3483 -14.3804 -4.2378 31.1486
# 2 32.8474 89.4930 42.9837 -5.2914 -14.6332 -9.0908
# 3 87.3483 42.9837 108.8625 -70.7856 -9.2942 89.3599
# 4 -14.3804 -5.2914 -70.7856 -62.2378 40.6742 109.5852
# 5 -4.2378 -14.6332 -9.2942 40.6742 13.0762 -54.8750
# 6 31.1486 -9.0908 89.3599 109.5852 -54.8750 -95.2965
#
#
#
# Elastic Compliance Matrix: (Units=1/GPa)
#
#
# Indices 1 2 3 4 5 6 
#
# 1 0.015824 -0.002461 -0.011889 -0.003731 -0.010704 -0.003868
# 2 -0.002461 0.013557 -0.000816 0.005788 0.003427 0.001820
# 3 -0.011889 -0.000816 0.018563 0.001494 0.019920 0.003846
# 4 -0.003731 0.005788 0.001494 0.021986 0.012436 0.017752
# 5 -0.010704 0.003427 0.019920 0.012436 0.051123 -0.000284
# 6 -0.003868 0.001820 0.003846 0.017752 -0.000284 0.012252
#
#
# Mechanical properties :
#
#
# Convention : Reuss Voigt Hill
#
# Bulk Modulus (GPa) = 56.78344 73.33404 65.05874
# Shear Modulus (GPa) = 29.49702 -17.52708 5.98497
#
# Velocity S-wave (km/s) = 3.72747 -2.87329 1.67902
# Velocity P-wave (km/s) = 6.72846 4.85128 5.86545
#
# Compressibility (1/GPa) = 0.01761077
#
# Stress axis : x y z
#
# Youngs Moduli (GPa) = 63.19577 73.76424 53.87038
#
# Poissons Ratio (x) = 0.18155 0.64049
# Poissons Ratio (y) = 0.15554 0.04394
# Poissons Ratio (z) = 0.75137 0.06017
#
# Static dielectric constant tensor:
#      x y z
#    x 1.840780 -0.035500 -0.018040 
#    y -0.035500 1.806710 0.006480 
#    z -0.018040 0.006480 1.782170 
# 
# From -- ./inp_files/566803.got.cif
#   From: 2010.05.17/outbox.cif.g08.bks.cpg/sg2_284_cif.got.tgz:566803.got - 2010.06.03 11:33:40.
