data_PCOD9085404
_publ_section_title
;
Structure prediction by ZEFSAII (Michael W. Deem and Ramdas Pophale) SiO2 
 PCOD9085404
Probable space group: P -1
;
_chemical_formula_sum "Si O2"
_cell_formula_units_Z 16
_cell_length_a 8.950762
_cell_length_b 10.318225
_cell_length_c 9.396243
_cell_angle_alpha 61.286168
_cell_angle_beta 115.939859
_cell_angle_gamma 101.491030
_cell_volume 684.343629
_symmetry_space_group_name_H-M "P -1"
_symmetry_group_IT_number 2
_symmetry_cell_setting 'triclinic'
loop_
_space_group_symop_operation_xyz
x,y,z
-x,-y,-z
loop_
_atom_site_type_symbol
_atom_site_label
_atom_site_fract_x
_atom_site_fract_y
_atom_site_fract_z
Si Si1 0.835613 0.055857 0.541120
Si Si2 0.334590 0.647679 0.981461
Si Si3 0.490266 0.811326 0.713577
Si Si4 0.827872 0.656212 0.877861
Si Si5 0.552888 0.639570 0.351958
Si Si6 0.406602 0.955275 0.132629
Si Si7 0.121896 0.235493 0.462065
Si Si8 0.913429 0.137544 0.069215
O O1 0.653903 0.111749 0.479780
O O2 0.941569 0.198053 0.466009
O O3 0.817672 0.931721 0.473616
O O4 0.955418 0.972099 0.744810
O O5 0.223003 0.504367 0.013663
O O6 0.482459 0.621377 0.172543
O O7 0.407572 0.682099 0.840239
O O8 0.221321 0.784598 0.920984
O O9 0.656913 0.751221 0.745349
O O10 0.542411 0.926619 0.794265
O O11 0.892390 0.667762 0.737419
O O12 0.966462 0.729814 0.996863
O O13 0.500000 0.500000 0.500000
O O14 0.460943 0.789925 0.285151
O O15 0.745974 0.683500 0.425578
O O16 0.207467 0.950768 0.036138
O O17 0.500000 0.000000 0.000000
#
# Coordination Sequence:
#
# PCOD9085404 Si02
#       8
#     2   2   2   2   2   2   2   2
#     4  10  21  37  62  94 115 158 211 254 307 357
#     4  11  22  40  63  89 122 167 211 250 307 371
#     4  12  23  39  64  89 127 166 198 260 310 380
#     4  11  24  38  58  92 129 160 201 252 321 366
#     4  11  20  36  63  92 123 157 209 264 299 357
#     4  11  21  40  64  92 120 164 215 251 306 366
#     4  10  19  35  60  88 117 152 207 252 294 357
#     4  10  22  39  65  91 118 161 211 261 297 362
#
# _framework density 23.380067
#
# number of rings (size 3 to 8) (size 9 to 14) (size 15 to 20)
#    0.000    1.250    5.000    3.750    0.000    2.500 
#    0.000    0.000    0.000    0.750    0.000    0.000 
#    0.000    0.000    0.000    0.000    0.000    0.000 
#
# Total GULP energy -89470.056507 kJ/mol
# GULP energy per Si atom -5591.878532 kJ/mol
# Density = 2.332685 g / cm^3
# Si number density = 23.380067 Si / 1000 Ang^3
#
#
#
# Elastic Constant Matrix: (Units=GPa)
#
#
# Indices 1 2 3 4 5 6 
#
# 1 96.1982 40.3030 37.9455 4.2201 17.7316 30.2256
# 2 40.3030 114.9253 43.4482 -7.2813 0.3840 49.4329
# 3 37.9455 43.4482 97.2773 -4.5282 15.4224 18.4998
# 4 4.2201 -7.2813 -4.5282 33.6799 14.7292 5.3064
# 5 17.7316 0.3840 15.4224 14.7292 43.1363 -1.7703
# 6 30.2256 49.4329 18.4998 5.3064 -1.7703 49.4207
#
#
#
# Elastic Compliance Matrix: (Units=1/GPa)
#
#
# Indices 1 2 3 4 5 6 
#
# 1 0.015494 -0.000704 -0.003206 0.001350 -0.006003 -0.007932
# 2 -0.000704 0.018299 -0.004096 0.006822 -0.001441 -0.017124
# 3 -0.003206 -0.004096 0.014288 0.003589 -0.004973 0.000146
# 4 0.001350 0.006822 0.003589 0.040864 -0.016425 -0.013969
# 5 -0.006003 -0.001441 -0.004973 -0.016425 0.033457 0.009937
# 6 -0.007932 -0.017124 0.000146 -0.013969 0.009937 0.044015
#
#
# Mechanical properties :
#
#
# Convention : Reuss Voigt Hill
#
# Bulk Modulus (GPa) = 31.18340 61.31046 46.24693
# Shear Modulus (GPa) = 25.89058 37.69430 31.79244
#
# Velocity S-wave (km/s) = 3.33134 4.01963 3.69156
# Velocity P-wave (km/s) = 5.30694 6.91546 6.16389
#
# Compressibility (1/GPa) = 0.03206834
#
# Stress axis : x y z
#
# Youngs Moduli (GPa) = 64.53920 54.64658 69.98942
#
# Poissons Ratio (x) = 0.03849 0.22442
# Poissons Ratio (y) = 0.04545 0.28667
# Poissons Ratio (z) = 0.20694 0.22383
#
# Static dielectric constant tensor:
#      x y z
#    x 1.902130 0.012020 0.005020 
#    y 0.012020 1.914610 0.005190 
#    z 0.005020 0.005190 1.931540 
# 
# From -- ./inp_files/389178.got.cif
#   From: 2010.05.17/outbox.cif.g08.bks.cpg/sg2_195_cif.got.tgz:389178.got - 2010.06.03 11:33:40.
