data_PCOD9085222
_publ_section_title
;
Structure prediction by ZEFSAII (Michael W. Deem and Ramdas Pophale) SiO2 
 PCOD9085222
Probable space group: P -1
;
_chemical_formula_sum "Si O2"
_cell_formula_units_Z 16
_cell_length_a 5.534934
_cell_length_b 10.074765
_cell_length_c 12.917677
_cell_angle_alpha 67.739278
_cell_angle_beta 84.755229
_cell_angle_gamma 77.957022
_cell_volume 651.911157
_symmetry_space_group_name_H-M "P -1"
_symmetry_group_IT_number 2
_symmetry_cell_setting 'triclinic'
loop_
_space_group_symop_operation_xyz
x,y,z
-x,-y,-z
loop_
_atom_site_type_symbol
_atom_site_label
_atom_site_fract_x
_atom_site_fract_y
_atom_site_fract_z
Si Si1 0.443934 0.860946 0.915335
Si Si2 0.235311 0.907747 0.463967
Si Si3 0.722106 0.553209 0.037090
Si Si4 0.696243 0.132927 0.862850
Si Si5 0.966143 0.832004 0.319740
Si Si6 0.027485 0.484165 0.626017
Si Si7 0.571088 0.092320 0.326543
Si Si8 0.497358 0.473895 0.725862
O O1 0.666147 0.729397 0.978505
O O2 0.390653 0.831417 0.805649
O O3 0.519684 0.019017 0.877704
O O4 0.258314 0.855039 0.020049
O O5 0.394125 0.847731 0.577261
O O6 0.172019 0.798386 0.412238
O O7 0.313507 0.039835 0.356091
O O8 0.000000 0.000000 0.500000
O O9 0.500000 0.500000 0.000000
O O10 0.661254 0.502208 0.168971
O O11 0.000000 0.500000 0.000000
O O12 0.591644 0.296871 0.776948
O O13 0.939395 0.078836 0.802445
O O14 0.905426 0.690366 0.311648
O O15 0.743653 0.932511 0.356121
O O16 0.757688 0.531301 0.679401
O O17 0.000000 0.500000 0.500000
O O18 0.278328 0.533429 0.636777
#
# Coordination Sequence:
#
# PCOD9085222 Si02
#       8
#     2   2   2   2   2   2   2   2
#     4  10  20  37  65  97 124 158 223 261 319 401
#     4   9  19  36  53  81 124 165 194 252 316 375
#     4  11  25  47  68  92 134 184 217 265 327 393
#     4   9  19  36  64  98 126 158 201 279 336 372
#     4  10  20  35  62  87 130 160 206 260 344 376
#     4  11  23  40  66  95 127 169 219 271 322 395
#     4  10  19  35  59  86 122 160 210 257 318 378
#     4  10  22  44  67  95 134 169 217 277 336 381
#
# _framework density 24.543223000000001
#
# number of rings (size 3 to 8) (size 9 to 14) (size 15 to 20)
#    0.000    2.000    1.250    1.875    1.750    1.500 
#    2.250    7.500    0.000    0.000    0.000    0.000 
#    0.000    0.000    0.000    0.000    0.000    0.000 
#
# Total GULP energy -89120.881951 kJ/mol
# GULP energy per Si atom -5570.055122 kJ/mol
# Density = 2.448736 g / cm^3
# Si number density = 24.543223 Si / 1000 Ang^3
#
#
#
# Elastic Constant Matrix: (Units=GPa)
#
#
# Indices 1 2 3 4 5 6 
#
# 1 82.3707 17.6467 7.2898 2.1377 -14.8030 -15.1102
# 2 17.6467 56.6712 1.0810 3.7229 -10.4647 -3.4087
# 3 7.2898 1.0810 132.4645 15.8764 -2.1239 -15.8294
# 4 2.1377 3.7229 15.8764 32.7912 -7.4837 -7.8702
# 5 -14.8030 -10.4647 -2.1239 -7.4837 36.4869 13.2981
# 6 -15.1102 -3.4087 -15.8294 -7.8702 13.2981 27.5670
#
#
#
# Elastic Compliance Matrix: (Units=1/GPa)
#
#
# Indices 1 2 3 4 5 6 
#
# 1 0.014630 -0.003754 -0.000151 0.001774 0.002800 0.006624
# 2 -0.003754 0.019630 0.000027 -0.001485 0.004633 -0.002274
# 3 -0.000151 0.000027 0.008508 -0.003419 -0.002009 0.004799
# 4 0.001774 -0.001485 -0.003419 0.034863 0.004909 0.006411
# 5 0.002800 0.004633 -0.002009 0.004909 0.036282 -0.015147
# 6 0.006624 -0.002274 0.004799 0.006411 -0.015147 0.051518
#
#
# Mechanical properties :
#
#
# Convention : Reuss Voigt Hill
#
# Bulk Modulus (GPa) = 28.56023 35.94905 32.25464
# Shear Modulus (GPa) = 27.04777 35.73494 31.39136
#
# Velocity S-wave (km/s) = 3.32331 3.81990 3.58022
# Velocity P-wave (km/s) = 5.13691 5.84248 5.50102
#
# Compressibility (1/GPa) = 0.03501372
#
# Stress axis : x y z
#
# Youngs Moduli (GPa) = 68.35238 50.94159 117.53141
#
# Poissons Ratio (x) = 0.19123 0.01770
# Poissons Ratio (y) = 0.25659 -0.00317
# Poissons Ratio (z) = 0.01030 -0.00138
#
# Static dielectric constant tensor:
#      x y z
#    x 2.022610 -0.250220 0.198280 
#    y -0.250220 1.607810 0.146740 
#    z 0.198280 0.146740 2.023500 
# 
# From -- ./inp_files/364065.got.cif
#   From: 2010.05.17/outbox.cif.g08.bks.cpg/sg2_183_cif.got.tgz:364065.got - 2010.06.03 11:33:40.
