data_PCOD9085050
_publ_section_title
;
Structure prediction by ZEFSAII (Michael W. Deem and Ramdas Pophale) SiO2 
 PCOD9085050
Probable space group: P -1
;
_chemical_formula_sum "Si O2"
_cell_formula_units_Z 16
_cell_length_a 12.069142
_cell_length_b 8.208068
_cell_length_c 11.575405
_cell_angle_alpha 54.509564
_cell_angle_beta 131.524779
_cell_angle_gamma 113.589554
_cell_volume 698.786256
_symmetry_space_group_name_H-M "P -1"
_symmetry_group_IT_number 2
_symmetry_cell_setting 'triclinic'
loop_
_space_group_symop_operation_xyz
x,y,z
-x,-y,-z
loop_
_atom_site_type_symbol
_atom_site_label
_atom_site_fract_x
_atom_site_fract_y
_atom_site_fract_z
Si Si1 0.837875 0.951897 0.777648
Si Si2 0.237700 0.502177 0.045876
Si Si3 0.331097 0.033102 0.130383
Si Si4 0.780213 0.881925 0.409106
Si Si5 0.951740 0.117607 0.236109
Si Si6 0.329116 0.444356 0.876108
Si Si7 0.638186 0.173093 0.372554
Si Si8 0.508894 0.362769 0.676389
O O1 0.821326 0.711133 0.862191
O O2 0.809886 0.007163 0.868447
O O3 0.982843 0.993586 0.784011
O O4 0.708201 0.061636 0.574028
O O5 0.400760 0.534442 0.199766
O O6 0.139025 0.687431 0.937713
O O7 0.241931 0.495752 0.912270
O O8 0.461521 0.135730 0.259016
O O9 0.398039 0.832567 0.211311
O O10 0.310393 0.205987 0.949695
O O11 0.655323 0.712510 0.373736
O O12 0.908518 0.818380 0.612254
O O13 0.853757 0.970912 0.308960
O O14 0.698708 0.061238 0.346104
O O15 0.300424 0.599635 0.690323
O O16 0.500000 0.500000 0.000000
O O17 0.500000 0.500000 0.500000
#
# Coordination Sequence:
#
# PCOD9085050 Si02
#       8
#     2   2   2   2   2   2   2   2
#     4  10  20  33  59  87 114 152 200 238 283 344
#     4  11  21  36  60  91 117 153 198 240 292 345
#     4   9  19  34  53  82 116 149 195 240 288 340
#     4   9  19  35  57  87 118 150 194 242 290 340
#     4  10  19  35  58  86 119 154 200 237 279 351
#     4   9  18  33  54  85 114 146 192 244 290 335
#     4   9  15  31  53  80 112 142 191 246 285 325
#     4  11  23  39  60  89 122 153 189 246 303 341
#
# _framework density 22.896841999999999
#
# number of rings (size 3 to 8) (size 9 to 14) (size 15 to 20)
#    0.000    2.250    1.250    3.000    0.000    2.500 
#    0.000    0.625    0.000    0.750    0.000    0.000 
#    0.000    0.000    0.000    0.000    0.000    0.000 
#
# Total GULP energy -89412.686666 kJ/mol
# GULP energy per Si atom -5588.292917 kJ/mol
# Density = 2.284473 g / cm^3
# Si number density = 22.896842 Si / 1000 Ang^3
#
#
#
# Elastic Constant Matrix: (Units=GPa)
#
#
# Indices 1 2 3 4 5 6 
#
# 1 110.2511 22.2009 20.7602 2.7019 -10.8099 20.1298
# 2 22.2009 54.2819 32.3686 -1.6705 -6.8941 2.7149
# 3 20.7602 32.3686 106.4135 -13.0962 -6.6689 2.4608
# 4 2.7019 -1.6705 -13.0962 36.5105 8.5971 -4.0476
# 5 -10.8099 -6.8941 -6.6689 8.5971 30.0867 -5.5552
# 6 20.1298 2.7149 2.4608 -4.0476 -5.5552 24.5996
#
#
#
# Elastic Compliance Matrix: (Units=1/GPa)
#
#
# Indices 1 2 3 4 5 6 
#
# 1 0.012024 -0.003461 -0.001310 -0.003116 0.002411 -0.009294
# 2 -0.003461 0.024160 -0.006695 -0.001726 0.003552 0.001353
# 3 -0.001310 -0.006695 0.012179 0.004373 -0.000326 0.001239
# 4 -0.003116 -0.001726 0.004373 0.031751 -0.008587 0.005588
# 5 0.002411 0.003552 -0.000326 -0.008587 0.038200 0.004882
# 6 -0.009294 0.001353 0.001239 0.005588 0.004882 0.050005
#
#
# Mechanical properties :
#
#
# Convention : Reuss Voigt Hill
#
# Bulk Modulus (GPa) = 39.32415 46.84509 43.08462
# Shear Modulus (GPa) = 25.03406 31.28048 28.15727
#
# Velocity S-wave (km/s) = 3.31016 3.70015 3.51058
# Velocity P-wave (km/s) = 5.64104 6.22563 5.94053
#
# Compressibility (1/GPa) = 0.02542967
#
# Stress axis : x y z
#
# Youngs Moduli (GPa) = 83.17000 41.39004 82.11173
#
# Poissons Ratio (x) = 0.14325 0.10760
# Poissons Ratio (y) = 0.28785 0.54974
# Poissons Ratio (z) = 0.10899 0.27711
#
# Static dielectric constant tensor:
#      x y z
#    x 1.872550 -0.008640 0.012040 
#    y -0.008640 1.865770 0.014230 
#    z 0.012040 0.014230 1.858860 
# 
# From -- ./inp_files/419016.got.cif
#   From: 2010.05.17/outbox.cif.g08.bks.cpg/sg2_210_cif.got.tgz:419016.got - 2010.06.03 11:33:40.
