data_PCOD9085612
_publ_section_title
;
Structure prediction by ZEFSAII (Michael W. Deem and Ramdas Pophale) SiO2 
 PCOD9085612
Probable space group: P -1
;
_chemical_formula_sum "Si O2"
_cell_formula_units_Z 16
_cell_length_a 22.719918
_cell_length_b 8.288365
_cell_length_c 12.144142
_cell_angle_alpha 39.425796
_cell_angle_beta 28.294367
_cell_angle_gamma 35.205255
_cell_volume 613.067005
_symmetry_space_group_name_H-M "P -1"
_symmetry_group_IT_number 2
_symmetry_cell_setting 'triclinic'
loop_
_space_group_symop_operation_xyz
x,y,z
-x,-y,-z
loop_
_atom_site_type_symbol
_atom_site_label
_atom_site_fract_x
_atom_site_fract_y
_atom_site_fract_z
Si Si1 0.311613 0.416087 0.854895
Si Si2 0.084922 0.486167 0.020336
Si Si3 0.906888 0.091290 0.714687
Si Si4 0.860453 0.949114 0.257776
Si Si5 0.571656 0.011567 0.490411
Si Si6 0.137339 0.966036 0.556482
Si Si7 0.639815 0.467882 0.050576
Si Si8 0.397016 0.575447 0.231397
O O1 0.451664 0.200759 0.675116
O O2 0.336499 0.371214 0.968683
O O3 0.267368 0.751343 0.722898
O O4 0.183442 0.394119 0.016167
O O5 0.104225 0.197093 0.086694
O O6 0.923060 0.675161 0.221586
O O7 0.134891 0.679060 0.762653
O O8 0.990797 0.146680 0.645760
O O9 0.000000 0.000000 0.500000
O O10 0.756297 0.361759 0.819668
O O11 0.838524 0.889610 0.451109
O O12 0.000000 0.000000 0.000000
O O13 0.658422 0.175825 0.230970
O O14 0.500000 0.000000 0.500000
O O15 0.644501 0.681704 0.572639
O O16 0.256651 0.863565 0.322703
O O17 0.488583 0.584756 0.181438
O O18 0.500000 0.500000 0.000000
#
# Coordination Sequence:
#
# PCOD9085612 Si02
#       8
#     2   2   2   2   2   2   2   2
#     4  10  19  35  61  93 117 146 198 254 296 344
#     4  10  19  36  61  88 116 151 195 245 295 354
#     4  12  24  38  58  88 120 157 199 244 294 352
#     4   8  16  32  55  84 113 142 184 241 291 338
#     4  10  20  36  61  88 114 153 196 240 291 348
#     4  10  20  38  59  84 115 155 195 241 293 347
#     4  11  21  39  62  87 117 156 200 248 292 350
#     4  11  23  40  59  86 123 160 196 241 293 351
#
# _framework density 26.098289999999999
#
# number of rings (size 3 to 8) (size 9 to 14) (size 15 to 20)
#    0.000    2.000    0.000    9.000    0.000    1.000 
#    0.000    4.375    0.000    1.500    0.000    0.000 
#    0.000    0.000    0.000    0.000    0.000    0.000 
#
# Total GULP energy -89398.126400 kJ/mol
# GULP energy per Si atom -5587.382900 kJ/mol
# Density = 2.603889 g / cm^3
# Si number density = 26.098290 Si / 1000 Ang^3
#
#
#
# Elastic Constant Matrix: (Units=GPa)
#
#
# Indices 1 2 3 4 5 6 
#
# 1 120.0739 11.9585 8.6617 9.3971 0.5772 4.9484
# 2 11.9585 93.2568 29.2438 29.4051 -2.9695 8.2120
# 3 8.6617 29.2438 87.7880 21.5402 17.9254 15.4836
# 4 9.3971 29.4051 21.5402 51.3207 5.8258 11.2846
# 5 0.5772 -2.9695 17.9254 5.8258 34.6354 11.2677
# 6 4.9484 8.2120 15.4836 11.2846 11.2677 23.9129
#
#
#
# Elastic Compliance Matrix: (Units=1/GPa)
#
#
# Indices 1 2 3 4 5 6 
#
# 1 0.008526 -0.000594 -0.000322 -0.000885 0.000504 -0.001171
# 2 -0.000594 0.014413 -0.003811 -0.006783 0.004824 -0.001432
# 3 -0.000322 -0.003811 0.015399 -0.002529 -0.006446 -0.004365
# 4 -0.000885 -0.006783 -0.002529 0.026438 -0.001176 -0.007772
# 5 0.000504 0.004824 -0.006446 -0.001176 0.037611 -0.014755
# 6 -0.001171 -0.001432 -0.004365 -0.007772 -0.014755 0.055998
#
#
# Mechanical properties :
#
#
# Convention : Reuss Voigt Hill
#
# Bulk Modulus (GPa) = 34.62280 44.53852 39.58066
# Shear Modulus (GPa) = 28.17435 38.72412 33.44923
#
# Velocity S-wave (km/s) = 3.28921 3.85617 3.58392
# Velocity P-wave (km/s) = 5.26501 6.07696 5.68550
#
# Compressibility (1/GPa) = 0.02888270
#
# Stress axis : x y z
#
# Youngs Moduli (GPa) = 117.29197 69.38379 64.93959
#
# Poissons Ratio (x) = 0.04121 0.02094
# Poissons Ratio (y) = 0.06966 0.24748
# Poissons Ratio (z) = 0.03782 0.26442
#
# Static dielectric constant tensor:
#      x y z
#    x 2.146650 0.102850 0.036460 
#    y 0.102850 2.114170 -0.041030 
#    z 0.036460 -0.041030 2.122360 
# 
# From -- ./inp_files/474108.got.cif
#   From: 2010.05.17/outbox.cif.g08.bks.cpg/sg2_238_cif.got.tgz:474108.got - 2010.06.03 11:33:40.
