data_PCOD9085949
_publ_section_title
;
Structure prediction by ZEFSAII (Michael W. Deem and Ramdas Pophale) SiO2 
 PCOD9085949
Probable space group: P -1
;
_chemical_formula_sum "Si O2"
_cell_formula_units_Z 16
_cell_length_a 8.957853
_cell_length_b 13.563722
_cell_length_c 21.486698
_cell_angle_alpha 34.678327
_cell_angle_beta 148.895910
_cell_angle_gamma 133.038736
_cell_volume 765.262816
_symmetry_space_group_name_H-M "P -1"
_symmetry_group_IT_number 2
_symmetry_cell_setting 'triclinic'
loop_
_space_group_symop_operation_xyz
x,y,z
-x,-y,-z
loop_
_atom_site_type_symbol
_atom_site_label
_atom_site_fract_x
_atom_site_fract_y
_atom_site_fract_z
Si Si1 0.448693 0.302011 0.926057
Si Si2 0.690980 0.057541 0.777009
Si Si3 0.498378 0.421236 0.745657
Si Si4 0.042729 0.444060 0.341485
Si Si5 0.141140 0.539719 0.922008
Si Si6 0.346941 0.582606 0.490427
Si Si7 0.666900 0.090173 0.895058
Si Si8 0.355719 0.753260 0.771236
O O1 0.385941 0.375204 0.797001
O O2 0.193326 0.389991 0.833585
O O3 0.744996 0.368973 0.023119
O O4 0.453150 0.095917 0.036494
O O5 0.733975 0.223135 0.663517
O O6 0.620605 0.121262 0.788910
O O7 0.446449 0.943337 0.721010
O O8 0.990240 0.939495 0.952758
O O9 0.313446 0.554425 0.566005
O O10 0.535768 0.244991 0.810184
O O11 0.811779 0.495534 0.828524
O O12 0.178507 0.455546 0.452202
O O13 0.311570 0.454060 0.385736
O O14 0.866566 0.278923 0.347309
O O15 0.211385 0.667266 0.824152
O O16 0.350308 0.365234 0.077308
#
# Coordination Sequence:
#
# PCOD9085949 Si02
#       8
#     2   2   2   2   2   2   2   2
#     4  11  23  40  64  90 123 159 204 248 299 357
#     4  11  22  37  64  92 122 154 201 260 295 348
#     4  12  24  40  62  91 126 162 196 247 303 364
#     4  10  21  39  60  87 120 157 204 242 295 359
#     4  10  20  37  61  95 117 154 205 246 303 352
#     4  11  23  39  61  91 123 160 201 247 301 360
#     4  11  22  38  62  94 118 155 209 250 300 345
#     4  10  19  35  65  90 118 152 199 256 298 345
#
# _framework density 20.907848999999999
#
# number of rings (size 3 to 8) (size 9 to 14) (size 15 to 20)
#    0.000    1.250    5.000    2.250    1.750    1.000 
#    0.000    0.000    0.000    3.000    0.000    0.000 
#    0.000    0.000    0.000    0.000    0.000    0.000 
#
# Total GULP energy -89460.365836 kJ/mol
# GULP energy per Si atom -5591.272865 kJ/mol
# Density = 2.086026 g / cm^3
# Si number density = 20.907849 Si / 1000 Ang^3
#
#
#
# Elastic Constant Matrix: (Units=GPa)
#
#
# Indices 1 2 3 4 5 6 
#
# 1 53.7810 22.7951 15.7718 6.0122 -12.1176 4.6523
# 2 22.7951 158.5330 41.7009 23.3163 -9.1442 -0.8827
# 3 15.7718 41.7009 63.2202 8.4414 -15.0503 5.6493
# 4 6.0122 23.3163 8.4414 29.5496 -3.1272 -3.4693
# 5 -12.1176 -9.1442 -15.0503 -3.1272 32.4977 3.5271
# 6 4.6523 -0.8827 5.6493 -3.4693 3.5271 20.2141
#
#
#
# Elastic Compliance Matrix: (Units=1/GPa)
#
#
# Indices 1 2 3 4 5 6 
#
# 1 0.022467 -0.002066 -0.001522 -0.002478 0.007567 -0.006582
# 2 -0.002066 0.008551 -0.004927 -0.004866 -0.001289 0.001616
# 3 -0.001522 -0.004927 0.022678 -0.002268 0.009221 -0.008201
# 4 -0.002478 -0.004866 -0.002268 0.039718 -0.000377 0.007874
# 5 0.007567 -0.001289 0.009221 -0.000377 0.038679 -0.011188
# 6 -0.006582 0.001616 -0.008201 0.007874 -0.011188 0.056651
#
#
# Mechanical properties :
#
#
# Convention : Reuss Voigt Hill
#
# Bulk Modulus (GPa) = 27.27206 48.45222 37.86214
# Shear Modulus (GPa) = 22.93626 29.47003 26.20315
#
# Velocity S-wave (km/s) = 3.31572 3.75843 3.54399
# Velocity P-wave (km/s) = 5.26601 6.48528 5.90719
#
# Compressibility (1/GPa) = 0.03666756
#
# Stress axis : x y z
#
# Youngs Moduli (GPa) = 44.50932 116.94347 44.09595
#
# Poissons Ratio (x) = 0.24159 0.06711
# Poissons Ratio (y) = 0.09195 0.21724
# Poissons Ratio (z) = 0.06773 0.57613
#
# Static dielectric constant tensor:
#      x y z
#    x 1.754650 0.000160 -0.006270 
#    y 0.000160 1.744390 0.027590 
#    z -0.006270 0.027590 1.775530 
# 
# From -- ./inp_files/244112.got.cif
#   From: 2010.05.17/outbox.cif.g08.bks.cpg/sg2_123_cif.got.tgz:244112.got - 2010.06.03 11:33:40.
