data_PCOD9085734
_publ_section_title
;
Structure prediction by ZEFSAII (Michael W. Deem and Ramdas Pophale) SiO2 
 PCOD9085734
Probable space group: P -1
;
_chemical_formula_sum "Si O2"
_cell_formula_units_Z 16
_cell_length_a 13.049889
_cell_length_b 12.690030
_cell_length_c 9.532250
_cell_angle_alpha 111.705710
_cell_angle_beta 33.104713
_cell_angle_gamma 98.565342
_cell_volume 759.722302
_symmetry_space_group_name_H-M "P -1"
_symmetry_group_IT_number 2
_symmetry_cell_setting 'triclinic'
loop_
_space_group_symop_operation_xyz
x,y,z
-x,-y,-z
loop_
_atom_site_type_symbol
_atom_site_label
_atom_site_fract_x
_atom_site_fract_y
_atom_site_fract_z
Si Si1 0.567287 0.086068 0.066220
Si Si2 0.883496 0.039995 0.912107
Si Si3 0.860707 0.297350 0.984249
Si Si4 0.272523 0.831932 0.347003
Si Si5 0.540070 0.639325 0.346488
Si Si6 0.267438 0.338133 0.584240
Si Si7 0.572239 0.107603 0.525034
Si Si8 0.598955 0.392489 0.055399
O O1 0.712168 0.029605 0.998748
O O2 0.683813 0.140370 0.848154
O O3 0.387967 0.195690 0.384097
O O4 0.500000 0.000000 0.000000
O O5 0.943003 0.151986 0.836035
O O6 0.787057 0.079674 0.193012
O O7 0.051296 0.914422 0.667820
O O8 0.040494 0.349488 0.827027
O O9 0.678882 0.337460 0.323483
O O10 0.755667 0.339307 0.976335
O O11 0.403681 0.876636 0.329675
O O12 0.326964 0.688953 0.206910
O O13 0.687071 0.607377 0.295435
O O14 0.550018 0.762522 0.330470
O O15 0.581908 0.530863 0.137435
O O16 0.386654 0.383373 0.348605
O O17 0.500000 0.000000 0.500000
#
# Coordination Sequence:
#
# PCOD9085734 Si02
#       8
#     2   2   2   2   2   2   2   2
#     4  11  20  33  59  95 125 155 196 260 313 353
#     4  11  21  39  61  93 124 159 204 254 308 367
#     4  10  19  35  65  94 124 158 201 255 308 362
#     4  11  23  37  60  90 123 163 197 253 311 357
#     4  10  22  41  60  87 125 163 209 250 297 371
#     4  10  19  35  62  93 122 161 199 251 310 361
#     4  11  24  43  62  86 117 166 210 251 305 369
#     4  10  22  39  58  93 128 156 204 252 306 368
#
# _framework density 21.060327999999998
#
# number of rings (size 3 to 8) (size 9 to 14) (size 15 to 20)
#    0.000    1.500    5.000    3.750    3.500    2.500 
#    0.000    0.000    0.000    0.750    0.000    0.000 
#    0.000    0.000    0.000    0.000    0.000    0.000 
#
# Total GULP energy -89278.980084 kJ/mol
# GULP energy per Si atom -5579.936255 kJ/mol
# Density = 2.101239 g / cm^3
# Si number density = 21.060328 Si / 1000 Ang^3
#
#
#
# Elastic Constant Matrix: (Units=GPa)
#
#
# Indices 1 2 3 4 5 6 
#
# 1 97.7278 36.4542 39.7432 5.0704 0.7731 19.0374
# 2 36.4542 112.1124 34.4266 31.0644 -2.8449 24.4540
# 3 39.7432 34.4266 52.4947 17.7510 1.3435 10.4317
# 4 5.0704 31.0644 17.7510 40.7502 14.3407 9.2080
# 5 0.7731 -2.8449 1.3435 14.3407 28.1812 -3.4331
# 6 19.0374 24.4540 10.4317 9.2080 -3.4331 34.5824
#
#
#
# Elastic Compliance Matrix: (Units=1/GPa)
#
#
# Indices 1 2 3 4 5 6 
#
# 1 0.017446 -0.002949 -0.012920 0.009189 -0.005644 -0.006628
# 2 -0.002949 0.015096 -0.003182 -0.011186 0.006910 -0.004427
# 3 -0.012920 -0.003182 0.034849 -0.013906 0.005830 0.003132
# 4 0.009189 -0.011186 -0.013906 0.049456 -0.026957 -0.008798
# 5 -0.005644 0.006910 0.005830 -0.026957 0.050835 0.008687
# 6 -0.006628 -0.004427 0.003132 -0.008798 0.008687 0.037956
#
#
# Mechanical properties :
#
#
# Convention : Reuss Voigt Hill
#
# Bulk Modulus (GPa) = 34.14258 53.73144 43.93701
# Shear Modulus (GPa) = 19.72371 30.81683 25.27027
#
# Velocity S-wave (km/s) = 3.06360 3.82941 3.46771
# Velocity P-wave (km/s) = 5.36295 6.71722 6.07792
#
# Compressibility (1/GPa) = 0.02928894
#
# Stress axis : x y z
#
# Youngs Moduli (GPa) = 57.32087 66.24240 28.69554
#
# Poissons Ratio (x) = 0.19534 0.37074
# Poissons Ratio (y) = 0.16903 0.09131
# Poissons Ratio (z) = 0.74057 0.21079
#
# Static dielectric constant tensor:
#      x y z
#    x 1.731220 -0.012450 -0.008740 
#    y -0.012450 1.910670 0.047870 
#    z -0.008740 0.047870 1.769330 
# 
# From -- ./inp_files/273976.got.cif
#   From: 2010.05.17/outbox.cif.g08.bks.cpg/sg2_137_cif.got.tgz:273976.got - 2010.06.03 11:33:40.
