data_PCOD9085219
_publ_section_title
;
Structure prediction by ZEFSAII (Michael W. Deem and Ramdas Pophale) SiO2 
 PCOD9085219
Probable space group: P -1
;
_chemical_formula_sum "Si O2"
_cell_formula_units_Z 14
_cell_length_a 9.067591
_cell_length_b 7.621158
_cell_length_c 11.187430
_cell_angle_alpha 57.174962
_cell_angle_beta 58.976048
_cell_angle_gamma 71.364890
_cell_volume 555.869904
_symmetry_space_group_name_H-M "P -1"
_symmetry_group_IT_number 2
_symmetry_cell_setting 'triclinic'
loop_
_space_group_symop_operation_xyz
x,y,z
-x,-y,-z
loop_
_atom_site_type_symbol
_atom_site_label
_atom_site_fract_x
_atom_site_fract_y
_atom_site_fract_z
Si Si1 0.672874 0.434017 0.289805
Si Si2 0.147610 0.892750 0.846799
Si Si3 0.131505 0.760353 0.169700
Si Si4 0.777413 0.978562 0.696590
Si Si5 0.526255 0.674194 0.034297
Si Si6 0.476364 0.115617 0.591910
Si Si7 0.943648 0.357849 0.403999
O O1 0.779483 0.258804 0.230447
O O2 0.603673 0.587995 0.158715
O O3 0.503286 0.350267 0.454652
O O4 0.804926 0.466248 0.330065
O O5 0.300378 0.051062 0.748421
O O6 0.113128 0.767760 0.028214
O O7 0.980319 0.030575 0.825017
O O8 0.333629 0.764552 0.104210
O O9 0.056651 0.546922 0.326070
O O10 0.641721 0.034771 0.626514
O O11 0.855337 0.207870 0.592652
O O12 0.928707 0.810836 0.655762
O O13 0.655449 0.848503 0.879132
O O14 0.500000 0.500000 0.000000
O O15 0.500000 0.000000 0.500000
#
# Coordination Sequence:
#
# PCOD9085219 Si02
#       7
#     2   2   2   2   2   2   2
#     4  10  21  37  65  88 120 153 207 244 298 350
#     4  10  20  37  61  88 121 157 198 248 294 358
#     4  11  22  36  63  92 120 152 203 248 302 344
#     4  10  19  35  59  86 121 153 202 239 298 347
#     4  12  19  36  64  91 112 162 208 243 280 372
#     4   9  17  34  60  87 110 156 199 241 278 354
#     4  10  22  37  60  93 119 155 198 255 297 348
#
# _framework density 25.185749999999999
#
# number of rings (size 3 to 8) (size 9 to 14) (size 15 to 20)
#    0.000    1.714    4.286    0.857    0.000    2.286 
#    0.000    3.571    3.143    2.571    0.000    0.000 
#    0.000    0.000    0.000    0.000    0.000    0.000 
#
# Total GULP energy -78275.709389 kJ/mol
# GULP energy per Si atom -5591.122099 kJ/mol
# Density = 2.512843 g / cm^3
# Si number density = 25.185750 Si / 1000 Ang^3
#
#
#
# Elastic Constant Matrix: (Units=GPa)
#
#
# Indices 1 2 3 4 5 6 
#
# 1 133.1733 43.8511 82.2388 -17.9307 -8.8751 -20.0489
# 2 43.8511 116.8446 39.9008 -7.4514 -11.4443 -6.1520
# 3 82.2388 39.9008 179.6567 -42.3031 -13.4667 -8.3150
# 4 -17.9307 -7.4514 -42.3031 30.6192 -3.0495 -5.8107
# 5 -8.8751 -11.4443 -13.4667 -3.0495 52.6049 -3.6150
# 6 -20.0489 -6.1520 -8.3150 -5.8107 -3.6150 44.4373
#
#
#
# Elastic Compliance Matrix: (Units=1/GPa)
#
#
# Indices 1 2 3 4 5 6 
#
# 1 0.011925 -0.002616 -0.004311 0.001305 0.000720 0.004441
# 2 -0.002616 0.010005 -0.000974 -0.000275 0.001478 0.000107
# 3 -0.004311 -0.000974 0.011217 0.013399 0.002847 0.002003
# 4 0.001305 -0.000275 0.013399 0.054669 0.007503 0.010817
# 5 0.000720 0.001478 0.002847 0.007503 0.020873 0.003741
# 6 0.004441 0.000107 0.002003 0.010817 0.003741 0.026615
#
#
# Mechanical properties :
#
#
# Convention : Reuss Voigt Hill
#
# Bulk Modulus (GPa) = 57.64870 84.62845 71.13858
# Shear Modulus (GPa) = 31.87000 43.11122 37.49061
#
# Velocity S-wave (km/s) = 3.56110 4.14180 3.86238
# Velocity P-wave (km/s) = 6.31250 7.51979 6.94244
#
# Compressibility (1/GPa) = 0.01734644
#
# Stress axis : x y z
#
# Youngs Moduli (GPa) = 83.86052 99.94623 89.15097
#
# Poissons Ratio (x) = 0.26142 0.38431
# Poissons Ratio (y) = 0.21934 0.08682
# Poissons Ratio (z) = 0.36151 0.09733
#
# Static dielectric constant tensor:
#      x y z
#    x 1.972230 0.081270 0.007360 
#    y 0.081270 2.025440 -0.000600 
#    z 0.007360 -0.000600 1.999800 
# 
# From -- ./inp_files/216291.got.cif
#   From: 2010.05.17/outbox.cif.g08.bks.cpg/sg2_109_cif.got.tgz:216291.got - 2010.06.03 11:33:40.
