data_PCOD9085238
_publ_section_title
;
Structure prediction by ZEFSAII (Michael W. Deem and Ramdas Pophale) SiO2 
 PCOD9085238
Probable space group: P -1
;
_chemical_formula_sum "Si O2"
_cell_formula_units_Z 16
_cell_length_a 15.225719
_cell_length_b 8.985521
_cell_length_c 9.044676
_cell_angle_alpha 83.674095
_cell_angle_beta 47.531565
_cell_angle_gamma 70.132275
_cell_volume 845.663654
_symmetry_space_group_name_H-M "P -1"
_symmetry_group_IT_number 2
_symmetry_cell_setting 'triclinic'
loop_
_space_group_symop_operation_xyz
x,y,z
-x,-y,-z
loop_
_atom_site_type_symbol
_atom_site_label
_atom_site_fract_x
_atom_site_fract_y
_atom_site_fract_z
Si Si1 0.377869 0.928515 0.551603
Si Si2 0.091608 0.612285 0.499929
Si Si3 0.866114 0.072245 0.555655
Si Si4 0.890478 0.963346 0.209510
Si Si5 0.346175 0.242041 0.735928
Si Si6 0.194310 0.333920 0.206555
Si Si7 0.117742 0.391782 0.778062
Si Si8 0.358989 0.040957 0.220495
O O1 0.506649 0.774131 0.429865
O O2 0.243060 0.908103 0.711284
O O3 0.366279 0.060227 0.678097
O O4 0.374150 0.004640 0.382561
O O5 0.156691 0.739735 0.446357
O O6 0.145538 0.517587 0.297063
O O7 0.111409 0.483274 0.622161
O O8 0.937632 0.698617 0.655232
O O9 0.899861 0.989922 0.367848
O O10 0.731798 0.045986 0.743351
O O11 0.000000 0.000000 0.500000
O O12 0.892566 0.783566 0.204214
O O13 0.000000 0.000000 0.000000
O O14 0.251371 0.359294 0.713293
O O15 0.276072 0.287878 0.968442
O O16 0.280089 0.225031 0.250256
O O17 0.000000 0.500000 0.000000
O O18 0.500000 0.000000 0.000000
#
# Coordination Sequence:
#
# PCOD9085238 Si02
#       8
#     2   2   2   2   2   2   2   2
#     4   9  20  35  59  88 118 152 202 251 297 355
#     4  11  23  38  58  92 124 158 206 259 312 364
#     4  11  23  38  61  92 121 154 208 260 298 363
#     4  10  22  38  60  89 124 155 202 259 305 356
#     4  10  19  35  59  88 113 157 208 241 292 373
#     4  11  21  35  64  88 121 161 205 254 307 366
#     4  11  21  36  61  89 124 166 198 249 314 367
#     4  11  21  40  64  91 123 162 202 253 313 364
#
# _framework density 18.920051000000001
#
# number of rings (size 3 to 8) (size 9 to 14) (size 15 to 20)
#    0.000    1.500    3.750    3.000    3.500    0.000 
#    0.000    0.625    0.000    8.250    0.000    0.000 
#    0.000    0.000    0.000    0.000    0.000    0.000 
#
# Total GULP energy -89151.280881 kJ/mol
# GULP energy per Si atom -5571.955055 kJ/mol
# Density = 1.887699 g / cm^3
# Si number density = 18.920051 Si / 1000 Ang^3
#
#
#
# Elastic Constant Matrix: (Units=GPa)
#
#
# Indices 1 2 3 4 5 6 
#
# 1 114.5019 33.3617 57.1011 10.6425 -25.5735 -7.4569
# 2 33.3617 59.8823 32.3630 7.0816 -12.2265 5.7163
# 3 57.1011 32.3630 137.6548 17.9575 -26.5660 6.5815
# 4 10.6425 7.0816 17.9575 26.8484 0.6734 -4.0300
# 5 -25.5735 -12.2265 -26.5660 0.6734 40.9604 7.1043
# 6 -7.4569 5.7163 6.5815 -4.0300 7.1043 35.6139
#
#
#
# Elastic Compliance Matrix: (Units=1/GPa)
#
#
# Indices 1 2 3 4 5 6 
#
# 1 0.013082 -0.004739 -0.003564 -0.001162 0.003897 0.003250
# 2 -0.004739 0.021937 -0.001825 -0.003560 0.003375 -0.005252
# 3 -0.003564 -0.001825 0.011257 -0.006421 0.005388 -0.004335
# 4 -0.001162 -0.003560 -0.006421 0.044367 -0.008095 0.008150
# 5 0.003897 0.003375 0.005388 -0.008095 0.032905 -0.008202
# 6 0.003250 -0.005252 -0.004335 0.008150 -0.008202 0.032962
#
#
# Mechanical properties :
#
#
# Convention : Reuss Voigt Hill
#
# Bulk Modulus (GPa) = 38.43177 61.96563 50.19870
# Shear Modulus (GPa) = 26.96321 33.29877 30.13099
#
# Velocity S-wave (km/s) = 3.77916 4.19975 3.99500
# Velocity P-wave (km/s) = 6.27691 7.50597 6.91879
#
# Compressibility (1/GPa) = 0.02602014
#
# Stress axis : x y z
#
# Youngs Moduli (GPa) = 76.44368 45.58428 88.83543
#
# Poissons Ratio (x) = 0.21603 0.31661
# Poissons Ratio (y) = 0.36227 0.16210
# Poissons Ratio (z) = 0.27245 0.08318
#
# Static dielectric constant tensor:
#      x y z
#    x 1.727520 0.000890 -0.025120 
#    y 0.000890 1.663420 0.013190 
#    z -0.025120 0.013190 1.657980 
# 
# From -- ./inp_files/218066.got.cif
#   From: 2010.05.17/outbox.cif.g08.bks.cpg/sg2_110_cif.got.tgz:218066.got - 2010.06.03 11:33:40.
