data_PCOD9085884
_publ_section_title
;
Structure prediction by ZEFSAII (Michael W. Deem and Ramdas Pophale) SiO2 
 PCOD9085884
Probable space group: P -1
;
_chemical_formula_sum "Si O2"
_cell_formula_units_Z 16
_cell_length_a 11.823263
_cell_length_b 7.771576
_cell_length_c 7.796819
_cell_angle_alpha 113.281555
_cell_angle_beta 73.866597
_cell_angle_gamma 98.816935
_cell_volume 631.395100
_symmetry_space_group_name_H-M "P -1"
_symmetry_group_IT_number 2
_symmetry_cell_setting 'triclinic'
loop_
_space_group_symop_operation_xyz
x,y,z
-x,-y,-z
loop_
_atom_site_type_symbol
_atom_site_label
_atom_site_fract_x
_atom_site_fract_y
_atom_site_fract_z
Si Si1 0.076968 0.473272 0.186806
Si Si2 0.647273 0.409242 0.269074
Si Si3 0.842252 0.366590 0.410524
Si Si4 0.734899 0.813582 0.975435
Si Si5 0.706132 0.116521 0.572689
Si Si6 0.569833 0.495186 0.790662
Si Si7 0.478606 0.975016 0.789121
Si Si8 0.825342 0.182032 0.888961
O O1 0.116170 0.546576 0.391018
O O2 0.174820 0.327193 0.035017
O O3 0.073449 0.657354 0.139488
O O4 0.951896 0.368488 0.236008
O O5 0.743403 0.478101 0.393823
O O6 0.539664 0.525695 0.300577
O O7 0.579098 0.226399 0.298847
O O8 0.721517 0.316504 0.047708
O O9 0.789427 0.155444 0.388753
O O10 0.657084 0.682182 0.820573
O O11 0.809447 0.996619 0.942269
O O12 0.625062 0.886438 0.158776
O O13 0.650140 0.320494 0.688292
O O14 0.592164 0.993051 0.628490
O O15 0.794285 0.092872 0.683007
O O16 0.500000 0.500000 0.000000
O O17 0.500000 0.000000 0.000000
#
# Coordination Sequence:
#
# PCOD9085884 Si02
#       8
#     2   2   2   2   2   2   2   2
#     4  10  22  45  63  78 118 170 207 242 293 358
#     4  11  21  35  59  94 122 148 198 254 299 359
#     4  10  24  40  58  82 125 163 197 245 304 353
#     4  11  18  34  65  95 107 152 209 248 286 357
#     4  11  19  35  58  87 121 163 187 238 309 363
#     4  12  17  31  62  91 119 151 195 243 300 361
#     4  11  18  33  60  94 117 147 197 248 298 360
#     4  10  19  35  64  89 110 154 210 244 294 344
#
# _framework density 25.340710999999999
#
# number of rings (size 3 to 8) (size 9 to 14) (size 15 to 20)
#    0.000    1.250    8.750    0.000    0.000    1.500 
#    0.000    8.125    2.750    0.000    0.000    0.000 
#    0.000    0.000    0.000    0.000    0.000    0.000 
#
# Total GULP energy -89187.607687 kJ/mol
# GULP energy per Si atom -5574.225480 kJ/mol
# Density = 2.528303 g / cm^3
# Si number density = 25.340711 Si / 1000 Ang^3
#
#
#
# Elastic Constant Matrix: (Units=GPa)
#
#
# Indices 1 2 3 4 5 6 
#
# 1 68.6623 29.4437 29.2692 -21.0159 -7.3900 20.5983
# 2 29.4437 131.5742 19.5379 -31.4300 -16.4443 20.8913
# 3 29.2692 19.5379 76.8110 -21.3258 9.1684 10.7292
# 4 -21.0159 -31.4300 -21.3258 35.4263 5.3145 -19.8483
# 5 -7.3900 -16.4443 9.1684 5.3145 37.8013 -15.7228
# 6 20.5983 20.8913 10.7292 -19.8483 -15.7228 41.8265
#
#
#
# Elastic Compliance Matrix: (Units=1/GPa)
#
#
# Indices 1 2 3 4 5 6 
#
# 1 0.020838 -0.001743 -0.005884 0.004058 0.002008 -0.005202
# 2 -0.001743 0.010187 -0.000289 0.007775 0.003406 0.000815
# 3 -0.005884 -0.000289 0.018532 0.008198 -0.007132 -0.000503
# 4 0.004058 0.007775 0.008198 0.051932 0.002152 0.017468
# 5 0.002008 0.003406 -0.007132 0.002152 0.035349 0.013448
# 6 -0.005202 0.000815 -0.000503 0.017468 0.013448 0.039537
#
#
# Mechanical properties :
#
#
# Convention : Reuss Voigt Hill
#
# Bulk Modulus (GPa) = 29.65047 48.17211 38.91129
# Shear Modulus (GPa) = 24.57633 36.26394 30.42013
#
# Velocity S-wave (km/s) = 3.11760 3.78703 3.46850
# Velocity P-wave (km/s) = 4.96843 6.17845 5.60618
#
# Compressibility (1/GPa) = 0.03372628
#
# Stress axis : x y z
#
# Youngs Moduli (GPa) = 47.98867 98.16454 53.96093
#
# Poissons Ratio (x) = 0.17113 0.31749
# Poissons Ratio (y) = 0.08366 0.01557
# Poissons Ratio (z) = 0.28235 0.02833
#
# Static dielectric constant tensor:
#      x y z
#    x 2.122960 0.060810 0.041730 
#    y 0.060810 2.078830 -0.107730 
#    z 0.041730 -0.107730 2.168560 
# 
# From -- ./inp_files/245001.got.cif
#   From: 2010.05.17/outbox.cif.g08.bks.cpg/sg2_123_cif.got.tgz:245001.got - 2010.06.03 11:33:40.
