data_PCOD9085688
_publ_section_title
;
Structure prediction by ZEFSAII (Michael W. Deem and Ramdas Pophale) SiO2 
 PCOD9085688
Probable space group: P -1
;
_chemical_formula_sum "Si O2"
_cell_formula_units_Z 14
_cell_length_a 20.962876
_cell_length_b 9.385350
_cell_length_c 12.845266
_cell_angle_alpha 137.851886
_cell_angle_beta 152.558218
_cell_angle_gamma 27.867927
_cell_volume 533.375104
_symmetry_space_group_name_H-M "P -1"
_symmetry_group_IT_number 2
_symmetry_cell_setting 'triclinic'
loop_
_space_group_symop_operation_xyz
x,y,z
-x,-y,-z
loop_
_atom_site_type_symbol
_atom_site_label
_atom_site_fract_x
_atom_site_fract_y
_atom_site_fract_z
Si Si1 0.125760 0.664410 0.808131
Si Si2 0.001121 0.411666 0.212745
Si Si3 0.790718 0.555763 0.768972
Si Si4 0.346924 0.723045 0.598784
Si Si5 0.689371 0.099872 0.131209
Si Si6 0.621780 0.925351 0.298704
Si Si7 0.794741 0.021582 0.020079
O O1 0.105507 0.616704 0.871285
O O2 0.239612 0.361523 0.739105
O O3 0.891220 0.952665 0.590466
O O4 0.226022 0.778212 0.989245
O O5 0.910672 0.748553 0.279543
O O6 0.235411 0.157692 0.445585
O O7 0.927089 0.422203 0.998691
O O8 0.634083 0.542061 0.550314
O O9 0.709333 0.880809 0.802186
O O10 0.960986 0.296099 0.790467
O O11 0.370792 0.709500 0.749868
O O12 0.454938 0.784817 0.721185
O O13 0.708133 0.194978 0.099593
O O14 0.545208 0.053223 0.892316
#
# Coordination Sequence:
#
# PCOD9085688 Si02
#       7
#     2   2   2   2   2   2   2
#     4  10  19  35  62  89 119 146 203 247 288 343
#     4  10  20  40  64  88 115 158 196 246 293 347
#     4   9  20  39  63  85 120 159 198 235 299 354
#     4  10  19  36  63  91 114 154 200 245 290 347
#     4  11  21  38  65  86 120 157 198 239 297 347
#     4  11  21  36  63  97 114 147 205 253 285 340
#     4   9  21  38  58  88 119 161 195 236 293 362
#
# _framework density 26.247945999999999
#
# number of rings (size 3 to 8) (size 9 to 14) (size 15 to 20)
#    0.000    2.000    2.857    1.286    0.000    8.000 
#    2.571    3.571   12.571    0.000    0.000    0.000 
#    0.000    0.000    0.000    0.000    0.000    0.000 
#
# Total GULP energy -78392.485654 kJ/mol
# GULP energy per Si atom -5599.463261 kJ/mol
# Density = 2.618820 g / cm^3
# Si number density = 26.247946 Si / 1000 Ang^3
#
#
#
# Elastic Constant Matrix: (Units=GPa)
#
#
# Indices 1 2 3 4 5 6 
#
# 1 131.6347 16.3032 39.3893 -4.2379 -8.1366 28.6688
# 2 16.3032 68.1027 16.0606 7.4933 1.5033 20.7776
# 3 39.3893 16.0606 102.6450 18.7363 -7.9125 15.7809
# 4 -4.2379 7.4933 18.7363 42.7805 8.9435 14.6757
# 5 -8.1366 1.5033 -7.9125 8.9435 34.8770 -1.6335
# 6 28.6688 20.7776 15.7809 14.6757 -1.6335 55.3930
#
#
#
# Elastic Compliance Matrix: (Units=1/GPa)
#
#
# Indices 1 2 3 4 5 6 
#
# 1 0.010063 -0.000437 -0.003813 0.004484 0.000111 -0.005143
# 2 -0.000437 0.016964 -0.001728 0.000007 -0.001493 -0.005691
# 3 -0.003813 -0.001728 0.012890 -0.006837 0.003904 0.000876
# 4 0.004484 0.000007 -0.006837 0.031826 -0.009091 -0.009076
# 5 0.000111 -0.001493 0.003904 -0.009091 0.032108 0.002746
# 6 -0.005143 -0.005691 0.000876 -0.009076 0.002746 0.025085
#
#
# Mechanical properties :
#
#
# Convention : Reuss Voigt Hill
#
# Bulk Modulus (GPa) = 35.76242 49.54318 42.65280
# Shear Modulus (GPa) = 33.28620 41.98539 37.63579
#
# Velocity S-wave (km/s) = 3.56497 4.00380 3.79074
# Velocity P-wave (km/s) = 5.53170 6.34743 5.95356
#
# Compressibility (1/GPa) = 0.02796231
#
# Stress axis : x y z
#
# Youngs Moduli (GPa) = 99.37385 58.94765 77.57948
#
# Poissons Ratio (x) = 0.02574 0.29578
# Poissons Ratio (y) = 0.04339 0.13407
# Poissons Ratio (z) = 0.37887 0.10187
#
# Static dielectric constant tensor:
#      x y z
#    x 2.031710 -0.003140 0.027580 
#    y -0.003140 2.096960 -0.024540 
#    z 0.027580 -0.024540 2.094060 
# 
# From -- ./inp_files/168548.got.cif
#   From: 2010.05.17/outbox.cif.g08.bks.cpg/sg2_85_cif.got.tgz:168548.got - 2010.06.03 11:33:40.
