data_PCOD9085844
_publ_section_title
;
Structure prediction by ZEFSAII (Michael W. Deem and Ramdas Pophale) SiO2 
 PCOD9085844
Probable space group: P -1
;
_chemical_formula_sum "Si O2"
_cell_formula_units_Z 14
_cell_length_a 9.048114
_cell_length_b 9.358997
_cell_length_c 12.120048
_cell_angle_alpha 128.377254
_cell_angle_beta 53.401647
_cell_angle_gamma 111.845434
_cell_volume 645.949418
_symmetry_space_group_name_H-M "P -1"
_symmetry_group_IT_number 2
_symmetry_cell_setting 'triclinic'
loop_
_space_group_symop_operation_xyz
x,y,z
-x,-y,-z
loop_
_atom_site_type_symbol
_atom_site_label
_atom_site_fract_x
_atom_site_fract_y
_atom_site_fract_z
Si Si1 0.104641 0.898768 0.239192
Si Si2 0.545689 0.367102 0.812181
Si Si3 0.929725 0.533094 0.724249
Si Si4 0.947883 0.074272 0.178578
Si Si5 0.481284 0.959002 0.618593
Si Si6 0.181868 0.505824 0.996254
Si Si7 0.801477 0.777861 0.498118
O O1 0.228884 0.720105 0.088763
O O2 0.946985 0.842954 0.370572
O O3 0.196984 0.077294 0.333944
O O4 0.017246 0.943934 0.182293
O O5 0.749055 0.424944 0.708686
O O6 0.543037 0.153049 0.737601
O O7 0.500000 0.500000 0.000000
O O8 0.367594 0.402039 0.830216
O O9 0.881311 0.567171 0.891196
O O10 0.965231 0.726168 0.746294
O O11 0.111764 0.408718 0.585410
O O12 0.729069 0.083269 0.284873
O O13 0.000000 0.000000 0.000000
O O14 0.500000 0.000000 0.500000
O O15 0.607474 0.798821 0.533955
O O16 0.000000 0.500000 0.000000
#
# Coordination Sequence:
#
# PCOD9085844 Si02
#       7
#     2   2   2   2   2   2   2
#     4  10  20  39  65  91 129 175 219 265 325 403
#     4  10  20  39  63  93 128 177 224 261 323 412
#     4  10  23  39  62  92 134 171 213 274 333 392
#     4  12  25  43  65 101 140 169 215 287 349 378
#     4  12  24  42  69 101 130 176 229 276 331 410
#     4  10  19  35  63  94 124 175 225 265 315 395
#     4  10  21  41  65  92 126 176 227 263 325 408
#
# _framework density 21.673522999999999
#
# number of rings (size 3 to 8) (size 9 to 14) (size 15 to 20)
#    0.000    1.429    1.429    6.857    2.000    1.143 
#    0.000    4.286    0.000    0.000    0.000    0.000 
#    0.000    0.000    0.000    0.000    0.000    0.000 
#
# Total GULP energy -78214.831643 kJ/mol
# GULP energy per Si atom -5586.773689 kJ/mol
# Density = 2.162419 g / cm^3
# Si number density = 21.673523 Si / 1000 Ang^3
#
#
#
# Elastic Constant Matrix: (Units=GPa)
#
#
# Indices 1 2 3 4 5 6 
#
# 1 108.3704 7.1007 25.3488 1.8127 -24.1471 -8.6770
# 2 7.1007 83.8698 4.5790 20.7162 -15.8503 -0.0536
# 3 25.3488 4.5790 53.4221 12.4437 -12.7425 -9.7512
# 4 1.8127 20.7162 12.4437 23.4522 -1.3535 -8.9529
# 5 -24.1471 -15.8503 -12.7425 -1.3535 45.5270 4.0594
# 6 -8.6770 -0.0536 -9.7512 -8.9529 4.0594 32.4087
#
#
#
# Elastic Compliance Matrix: (Units=1/GPa)
#
#
# Indices 1 2 3 4 5 6 
#
# 1 0.011470 -0.000665 -0.004710 0.003214 0.004452 0.001983
# 2 -0.000665 0.017852 0.004003 -0.019419 0.006866 -0.005169
# 3 -0.004710 0.004003 0.025937 -0.016074 0.005551 0.001414
# 4 0.003214 -0.019419 -0.016074 0.074290 -0.008918 0.017632
# 5 0.004452 0.006866 0.005551 -0.008918 0.028285 -0.003133
# 6 0.001983 -0.005169 0.001414 0.017632 -0.003133 0.037067
#
#
# Mechanical properties :
#
#
# Convention : Reuss Voigt Hill
#
# Bulk Modulus (GPa) = 19.04243 35.52434 27.28339
# Shear Modulus (GPa) = 23.23959 34.18648 28.71304
#
# Velocity S-wave (km/s) = 3.27809 3.97588 3.64373
# Velocity P-wave (km/s) = 4.80967 6.12398 5.50618
#
# Compressibility (1/GPa) = 0.05251430
#
# Stress axis : x y z
#
# Youngs Moduli (GPa) = 87.18349 56.01658 38.55495
#
# Poissons Ratio (x) = 0.03726 0.18160
# Poissons Ratio (y) = 0.05799 -0.15434
# Poissons Ratio (z) = 0.41066 -0.22424
#
# Static dielectric constant tensor:
#      x y z
#    x 1.860150 0.021960 0.028140 
#    y 0.021960 1.759070 0.047240 
#    z 0.028140 0.047240 1.820720 
# 
# From -- ./inp_files/225992.got.cif
#   From: 2010.05.17/outbox.cif.g08.bks.cpg/sg2_113_cif.got.tgz:225992.got - 2010.06.03 11:33:40.
