data_PCOD9085770
_publ_section_title
;
Structure prediction by ZEFSAII (Michael W. Deem and Ramdas Pophale) SiO2 
 PCOD9085770
Probable space group: P -1
;
_chemical_formula_sum "Si O2"
_cell_formula_units_Z 14
_cell_length_a 12.506837
_cell_length_b 10.481877
_cell_length_c 11.234336
_cell_angle_alpha 44.625715
_cell_angle_beta 87.050493
_cell_angle_gamma 116.247726
_cell_volume 755.056983
_symmetry_space_group_name_H-M "P -1"
_symmetry_group_IT_number 2
_symmetry_cell_setting 'triclinic'
loop_
_space_group_symop_operation_xyz
x,y,z
-x,-y,-z
loop_
_atom_site_type_symbol
_atom_site_label
_atom_site_fract_x
_atom_site_fract_y
_atom_site_fract_z
Si Si1 0.772298 0.409914 0.786573
Si Si2 0.914688 0.145343 0.558334
Si Si3 0.761161 0.275671 0.612570
Si Si4 0.477192 0.742023 0.928945
Si Si5 0.323013 0.376429 0.980799
Si Si6 0.880963 0.721389 0.141632
Si Si7 0.998082 0.520957 0.125817
O O1 0.734785 0.274888 0.753537
O O2 0.913450 0.701977 0.556085
O O3 0.845718 0.347875 0.911811
O O4 0.639085 0.346400 0.903778
O O5 0.874492 0.241404 0.602408
O O6 0.893644 0.246418 0.375424
O O7 0.807584 0.854621 0.774930
O O8 0.822573 0.526542 0.380385
O O9 0.607899 0.038144 0.720957
O O10 0.557446 0.644913 0.019358
O O11 0.395964 0.623928 0.885781
O O12 0.250406 0.336580 0.885330
O O13 0.950769 0.662037 0.081669
O O14 0.000000 0.000000 0.000000
O O15 0.000000 0.500000 0.000000
#
# Coordination Sequence:
#
# PCOD9085770 Si02
#       7
#     2   2   2   2   2   2   2
#     4  10  19  35  63  84 114 151 202 240 286 352
#     4   8  19  34  64  79 116 149 198 240 287 347
#     4  10  20  38  57  87 113 164 192 230 300 357
#     4  10  22  37  61  81 120 163 193 235 290 367
#     4  10  21  40  58  88 119 155 198 238 297 349
#     4  11  23  37  64  89 119 151 201 254 291 340
#     4   9  20  37  59  89 114 150 194 248 292 339
#
# _framework density 18.541647000000001
#
# number of rings (size 3 to 8) (size 9 to 14) (size 15 to 20)
#    0.857    1.429    0.000    2.571    4.000    1.143 
#    2.571    3.571    0.000    0.000    0.000    0.000 
#    0.000    0.000    0.000    0.000    0.000    0.000 
#
# Total GULP energy -78011.375938 kJ/mol
# GULP energy per Si atom -5572.241138 kJ/mol
# Density = 1.849945 g / cm^3
# Si number density = 18.541647 Si / 1000 Ang^3
#
#
#
# Elastic Constant Matrix: (Units=GPa)
#
#
# Indices 1 2 3 4 5 6 
#
# 1 60.5921 24.3530 25.5056 1.1896 -14.6634 4.0483
# 2 24.3530 115.6837 35.9046 6.5450 7.8576 14.5453
# 3 25.5056 35.9046 69.3385 -12.8239 -8.4444 -1.9482
# 4 1.1896 6.5450 -12.8239 28.2261 1.5249 -8.2092
# 5 -14.6634 7.8576 -8.4444 1.5249 28.4671 6.9904
# 6 4.0483 14.5453 -1.9482 -8.2092 6.9904 24.7926
#
#
#
# Elastic Compliance Matrix: (Units=1/GPa)
#
#
# Indices 1 2 3 4 5 6 
#
# 1 0.024945 -0.001868 -0.008310 -0.008114 0.013844 -0.010220
# 2 -0.001868 0.014272 -0.009500 -0.010518 -0.004444 -0.011044
# 3 -0.008310 -0.009500 0.026481 0.018804 0.001556 0.014799
# 4 -0.008114 -0.010518 0.018804 0.055493 -0.005787 0.028980
# 5 0.013844 -0.004444 0.001556 -0.005787 0.047931 -0.014962
# 6 -0.010220 -0.011044 0.014799 0.028980 -0.014962 0.063460
#
#
# Mechanical properties :
#
#
# Convention : Reuss Voigt Hill
#
# Bulk Modulus (GPa) = 37.96332 46.34898 42.15615
# Shear Modulus (GPa) = 17.81140 26.95391 22.38266
#
# Velocity S-wave (km/s) = 3.10274 3.81687 3.47818
# Velocity P-wave (km/s) = 5.77539 6.66905 6.23824
#
# Compressibility (1/GPa) = 0.02634122
#
# Stress axis : x y z
#
# Youngs Moduli (GPa) = 40.08779 70.06957 37.76297
#
# Poissons Ratio (x) = 0.13091 0.31382
# Poissons Ratio (y) = 0.07490 0.35874
# Poissons Ratio (z) = 0.33314 0.66564
#
# Static dielectric constant tensor:
#      x y z
#    x 1.649350 0.008580 -0.005670 
#    y 0.008580 1.651730 -0.016290 
#    z -0.005670 -0.016290 1.636980 
# 
# From -- ./inp_files/388155.got.cif
#   From: 2010.05.17/outbox.cif.g08.bks.cpg/sg2_195_cif.got.tgz:388155.got - 2010.06.03 11:33:40.
