data_PCOD9085557
_publ_section_title
;
Structure prediction by ZEFSAII (Michael W. Deem and Ramdas Pophale) SiO2 
 PCOD9085557
Probable space group: P -1
;
_chemical_formula_sum "Si O2"
_cell_formula_units_Z 16
_cell_length_a 8.738258
_cell_length_b 9.135808
_cell_length_c 14.752343
_cell_angle_alpha 38.998170
_cell_angle_beta 73.869513
_cell_angle_gamma 82.335356
_cell_volume 705.273711
_symmetry_space_group_name_H-M "P -1"
_symmetry_group_IT_number 2
_symmetry_cell_setting 'triclinic'
loop_
_space_group_symop_operation_xyz
x,y,z
-x,-y,-z
loop_
_atom_site_type_symbol
_atom_site_label
_atom_site_fract_x
_atom_site_fract_y
_atom_site_fract_z
Si Si1 0.416015 0.357571 0.805518
Si Si2 0.866630 0.355647 0.027458
Si Si3 0.277829 0.249912 0.197618
Si Si4 0.589085 0.982826 0.868443
Si Si5 0.099885 0.661650 0.324531
Si Si6 0.949973 0.722444 0.138655
Si Si7 0.937364 0.968016 0.328908
Si Si8 0.687635 0.714169 0.611000
O O1 0.227281 0.348433 0.834802
O O2 0.505253 0.621800 0.657808
O O3 0.474035 0.180752 0.806241
O O4 0.462162 0.233893 0.951099
O O5 0.866117 0.097062 0.192946
O O6 0.717125 0.500701 0.976135
O O7 0.000000 0.500000 0.000000
O O8 0.928146 0.366041 0.909574
O O9 0.394658 0.100272 0.196452
O O10 0.304982 0.270979 0.289434
O O11 0.095823 0.117524 0.273481
O O12 0.770097 0.095234 0.814978
O O13 0.223275 0.490235 0.350864
O O14 0.970233 0.635665 0.278151
O O15 0.999191 0.724765 0.400546
O O16 0.000000 0.000000 0.000000
O O17 0.793751 0.934465 0.441299
#
# Coordination Sequence:
#
# PCOD9085557 Si02
#       8
#     2   2   2   2   2   2   2   2
#     4  10  21  35  57  89 123 147 190 249 297 338
#     4  10  20  34  61  92 115 145 201 248 281 333
#     4  10  20  37  63  88 113 154 203 237 283 350
#     4   9  19  37  58  87 119 147 194 251 290 329
#     4  10  19  35  61  88 110 155 204 238 281 343
#     4  12  19  36  64  89 110 151 202 248 285 333
#     4  10  20  36  57  88 122 153 193 242 287 347
#     4  11  22  36  57  89 124 156 185 238 302 353
#
# _framework density 22.686229000000001
#
# number of rings (size 3 to 8) (size 9 to 14) (size 15 to 20)
#    0.000    1.750    3.750    2.250    0.000    0.500 
#    0.000    1.875    0.000    6.750    3.250    0.000 
#    0.000    0.000    0.000    0.000    0.000    0.000 
#
# Total GULP energy -89215.427115 kJ/mol
# GULP energy per Si atom -5575.964195 kJ/mol
# Density = 2.263459 g / cm^3
# Si number density = 22.686229 Si / 1000 Ang^3
#
#
#
# Elastic Constant Matrix: (Units=GPa)
#
#
# Indices 1 2 3 4 5 6 
#
# 1 18.0763 -0.7403 -7.4848 1.1740 -5.0555 4.6850
# 2 -0.7403 84.3364 84.1337 -6.3438 -10.2085 -4.5127
# 3 -7.4848 84.1337 -180.0819 75.6557 5.0270 -3.0042
# 4 1.1740 -6.3438 75.6557 6.6165 -5.8294 -0.4132
# 5 -5.0555 -10.2085 5.0270 -5.8294 25.2101 -0.7603
# 6 4.6850 -4.5127 -3.0042 -0.4132 -0.7603 25.3475
#
#
#
# Elastic Compliance Matrix: (Units=1/GPa)
#
#
# Indices 1 2 3 4 5 6 
#
# 1 0.061715 0.001847 -0.000055 0.002606 0.013417 -0.010639
# 2 0.001847 0.010077 0.001648 -0.007203 0.002505 0.001606
# 3 -0.000055 0.001648 -0.000496 0.010013 0.003086 0.000501
# 4 0.002606 -0.007203 0.010013 0.031906 0.002988 0.000032
# 5 0.013417 0.002505 0.003086 0.002988 0.043438 -0.000316
# 6 -0.010639 0.001606 0.000501 0.000032 -0.000316 0.041754
#
#
# Mechanical properties :
#
#
# Convention : Reuss Voigt Hill
#
# Bulk Modulus (GPa) = 12.79164 8.23866 10.51515
# Shear Modulus (GPa) = 24.08816 1.19629 12.64223
#
# Velocity S-wave (km/s) = 3.26206 0.72696 2.36321
# Velocity P-wave (km/s) = 4.45407 2.08424 3.47727
#
# Compressibility (1/GPa) = 0.07817606
#
# Stress axis : x y z
#
# Youngs Moduli (GPa) = 16.20359 99.23832 -2015.36438
#
# Poissons Ratio (x) = -0.18333 -0.11082
# Poissons Ratio (y) = -0.02993 3.32137
# Poissons Ratio (z) = 0.00089 -0.16355
#
# Static dielectric constant tensor:
#      x y z
#    x 1.927860 -0.151240 0.023890 
#    y -0.151240 1.978530 -0.115410 
#    z 0.023890 -0.115410 2.038760 
# 
# From -- ./inp_files/270188.got.cif
#   From: 2010.05.17/outbox.cif.g08.bks.cpg/sg2_136_cif.got.tgz:270188.got - 2010.06.03 11:33:40.
