data_PCOD9085914
_publ_section_title
;
Structure prediction by ZEFSAII (Michael W. Deem and Ramdas Pophale) SiO2 
 PCOD9085914
Probable space group: P -1
;
_chemical_formula_sum "Si O2"
_cell_formula_units_Z 14
_cell_length_a 17.951630
_cell_length_b 14.744725
_cell_length_c 7.387961
_cell_angle_alpha 131.391903
_cell_angle_beta 112.705319
_cell_angle_gamma 28.117334
_cell_volume 573.877805
_symmetry_space_group_name_H-M "P -1"
_symmetry_group_IT_number 2
_symmetry_cell_setting 'triclinic'
loop_
_space_group_symop_operation_xyz
x,y,z
-x,-y,-z
loop_
_atom_site_type_symbol
_atom_site_label
_atom_site_fract_x
_atom_site_fract_y
_atom_site_fract_z
Si Si1 0.089208 0.199053 0.591878
Si Si2 0.823286 0.721547 0.492291
Si Si3 0.553831 0.392040 0.700291
Si Si4 0.135005 0.928016 0.971449
Si Si5 0.315411 0.333976 0.246447
Si Si6 0.427256 0.366817 0.092190
Si Si7 0.808681 0.463853 0.188663
O O1 0.131069 0.271768 0.640878
O O2 0.124307 0.048157 0.271245
O O3 0.863268 0.490254 0.786572
O O4 0.251702 0.949130 0.561936
O O5 0.783101 0.634487 0.320622
O O6 0.000000 0.500000 0.500000
O O7 0.643238 0.032520 0.820405
O O8 0.643086 0.401037 0.274907
O O9 0.500000 0.500000 0.000000
O O10 0.583938 0.474473 0.727088
O O11 0.029685 0.125676 0.958668
O O12 0.000000 0.000000 0.000000
O O13 0.260735 0.440399 0.541820
O O14 0.355955 0.393026 0.235657
O O15 0.500000 0.000000 0.000000
O O16 0.306637 0.474926 0.955375
#
# Coordination Sequence:
#
# PCOD9085914 Si02
#       7
#     2   2   2   2   2   2   2
#     4  10  21  38  63  93 128 173 212 265 322 378
#     4  12  19  38  64  90 127 176 211 258 326 373
#     4  10  19  38  64  94 124 172 213 260 328 380
#     4  10  19  35  64  93 121 165 213 257 317 384
#     4  11  23  40  63  96 135 167 213 270 318 372
#     4  12  23  40  70  93 128 172 214 262 325 384
#     4  11  23  39  66  97 127 166 220 260 318 385
#
# _framework density 24.395436
#
# number of rings (size 3 to 8) (size 9 to 14) (size 15 to 20)
#    0.000    1.143    7.143    2.143    0.000    0.571 
#    0.000    0.714    6.286    8.571    0.000    0.000 
#    0.000    0.000    0.000    0.000    0.000    0.000 
#
# Total GULP energy -78382.623242 kJ/mol
# GULP energy per Si atom -5598.758803 kJ/mol
# Density = 2.433991 g / cm^3
# Si number density = 24.395436 Si / 1000 Ang^3
#
#
#
# Elastic Constant Matrix: (Units=GPa)
#
#
# Indices 1 2 3 4 5 6 
#
# 1 209.3214 66.0154 52.4915 17.9682 -20.8161 26.7536
# 2 66.0154 169.7055 78.9437 52.8932 -8.4671 0.6608
# 3 52.4915 78.9437 68.2776 13.3183 -16.3374 -1.9375
# 4 17.9682 52.8932 13.3183 58.5853 3.5289 -1.3417
# 5 -20.8161 -8.4671 -16.3374 3.5289 34.6725 -0.1647
# 6 26.7536 0.6608 -1.9375 -1.3417 -0.1647 43.6289
#
#
#
# Elastic Compliance Matrix: (Units=1/GPa)
#
#
# Indices 1 2 3 4 5 6 
#
# 1 0.006812 0.000053 -0.004692 -0.001292 0.002002 -0.004419
# 2 0.000053 0.019290 -0.020869 -0.012495 -0.003827 -0.001650
# 3 -0.004692 -0.020869 0.043380 0.009848 0.011551 0.005466
# 4 -0.001292 -0.012495 0.009848 0.026672 -0.001891 0.002232
# 5 0.002002 -0.003827 0.011551 -0.001891 0.034741 -0.000584
# 6 -0.004419 -0.001650 0.005466 0.002232 -0.000584 0.025964
#
#
# Mechanical properties :
#
#
# Convention : Reuss Voigt Hill
#
# Bulk Modulus (GPa) = 54.15591 93.57841 73.86716
# Shear Modulus (GPa) = 23.36102 44.03426 33.69764
#
# Velocity S-wave (km/s) = 3.09787 4.25316 3.72063
# Velocity P-wave (km/s) = 5.91972 7.90958 6.98586
#
# Compressibility (1/GPa) = 0.01846520
#
# Stress axis : x y z
#
# Youngs Moduli (GPa) = 146.79552 51.84133 23.05193
#
# Poissons Ratio (x) = -0.00272 0.10817
# Poissons Ratio (y) = -0.00771 0.48107
# Poissons Ratio (z) = 0.68880 1.08186
#
# Static dielectric constant tensor:
#      x y z
#    x 1.827130 0.054310 -0.032320 
#    y 0.054310 1.925310 0.029020 
#    z -0.032320 0.029020 2.010240 
# 
# From -- ./inp_files/316815.got.cif
#   From: 2010.05.17/outbox.cif.g08.bks.cpg/sg2_159_cif.got.tgz:316815.got - 2010.06.03 11:33:40.
