data_PCOD9085038
_publ_section_title
;
Structure prediction by ZEFSAII (Michael W. Deem and Ramdas Pophale) SiO2 
 PCOD9085038
Probable space group: P -1
;
_chemical_formula_sum "Si O2"
_cell_formula_units_Z 14
_cell_length_a 9.170042
_cell_length_b 9.384016
_cell_length_c 11.759799
_cell_angle_alpha 58.948628
_cell_angle_beta 141.220358
_cell_angle_gamma 107.383589
_cell_volume 532.826447
_symmetry_space_group_name_H-M "P -1"
_symmetry_group_IT_number 2
_symmetry_cell_setting 'triclinic'
loop_
_space_group_symop_operation_xyz
x,y,z
-x,-y,-z
loop_
_atom_site_type_symbol
_atom_site_label
_atom_site_fract_x
_atom_site_fract_y
_atom_site_fract_z
Si Si1 0.347853 0.093865 0.524698
Si Si2 0.557165 0.374485 0.941028
Si Si3 0.482667 0.731080 0.643916
Si Si4 0.761913 0.419351 0.639172
Si Si5 0.248387 0.824368 0.090194
Si Si6 0.989559 0.265842 0.393028
Si Si7 0.244993 0.126444 0.830563
O O1 0.333136 0.224959 0.356973
O O2 0.540641 0.134543 0.716683
O O3 0.104057 0.126274 0.428806
O O4 0.416786 0.905157 0.599418
O O5 0.721718 0.315552 0.172258
O O6 0.549243 0.570105 0.830660
O O7 0.658082 0.289606 0.915944
O O8 0.323326 0.296724 0.852643
O O9 0.281661 0.678183 0.461760
O O10 0.500000 0.500000 0.500000
O O11 0.885241 0.286066 0.863626
O O12 0.892419 0.571096 0.627444
O O13 0.132282 0.007775 0.895988
O O14 0.075151 0.192919 0.596174
O O15 0.500000 0.000000 0.000000
#
# Coordination Sequence:
#
# PCOD9085038 Si02
#       7
#     2   2   2   2   2   2   2
#     4  10  19  35  58  85 118 155 186 236 294 344
#     4  11  21  35  62  88 114 151 196 238 281 342
#     4  10  19  35  58  86 118 152 189 236 294 337
#     4  11  16  36  61  84 113 153 190 237 281 343
#     4  10  19  36  59  82 118 153 192 233 288 336
#     4  12  21  35  65  90 113 147 202 236 285 340
#     4  10  19  38  59  84 118 153 193 240 281 336
#
# _framework density 26.274972999999999
#
# number of rings (size 3 to 8) (size 9 to 14) (size 15 to 20)
#    0.000    1.429    8.571    0.000    0.000    4.571 
#    0.000    2.143    0.000    6.000    0.000    3.000 
#    0.000    0.000    0.000    0.000    0.000    0.000 
#
# Total GULP energy -78447.037793 kJ/mol
# GULP energy per Si atom -5603.359842 kJ/mol
# Density = 2.621517 g / cm^3
# Si number density = 26.274973 Si / 1000 Ang^3
#
#
#
# Elastic Constant Matrix: (Units=GPa)
#
#
# Indices 1 2 3 4 5 6 
#
# 1 71.3780 42.3438 56.6339 -4.8131 -23.7087 -2.4496
# 2 42.3438 165.5511 71.0255 -6.6232 -13.3581 10.3975
# 3 56.6339 71.0255 216.7499 -16.9805 -41.1046 16.8156
# 4 -4.8131 -6.6232 -16.9805 45.4261 14.7872 -12.3966
# 5 -23.7087 -13.3581 -41.1046 14.7872 28.1618 -8.8725
# 6 -2.4496 10.3975 16.8156 -12.3966 -8.8725 46.6426
#
#
#
# Elastic Compliance Matrix: (Units=1/GPa)
#
#
# Indices 1 2 3 4 5 6 
#
# 1 0.024592 -0.004350 -0.002065 -0.003509 0.019278 0.005740
# 2 -0.004350 0.007825 -0.001936 0.000667 -0.003694 -0.001800
# 3 -0.002065 -0.001936 0.007349 -0.000656 0.008113 -0.000957
# 4 -0.003509 0.000667 -0.000656 0.028188 -0.017091 0.004144
# 5 0.019278 -0.003694 0.008113 -0.017091 0.073428 0.008336
# 6 0.005740 -0.001800 -0.000957 0.004144 0.008336 0.025175
#
#
# Mechanical properties :
#
#
# Convention : Reuss Voigt Hill
#
# Bulk Modulus (GPa) = 43.35554 88.18725 65.77139
# Shear Modulus (GPa) = 26.18533 42.95784 34.57158
#
# Velocity S-wave (km/s) = 3.16030 4.04782 3.63128
# Velocity P-wave (km/s) = 5.46381 7.44866 6.53206
#
# Compressibility (1/GPa) = 0.02306511
#
# Stress axis : x y z
#
# Youngs Moduli (GPa) = 40.66373 127.78926 136.07417
#
# Poissons Ratio (x) = 0.55583 0.28095
# Poissons Ratio (y) = 0.17687 0.26348
# Poissons Ratio (z) = 0.08396 0.24744
#
# Static dielectric constant tensor:
#      x y z
#    x 2.142380 -0.010480 0.033560 
#    y -0.010480 2.046770 -0.032170 
#    z 0.033560 -0.032170 2.077890 
# 
# From -- ./inp_files/416724.got.cif
#   From: 2010.05.17/outbox.cif.g08.bks.cpg/sg2_209_cif.got.tgz:416724.got - 2010.06.03 11:33:40.
