data_PCOD9085475
_publ_section_title
;
Structure prediction by ZEFSAII (Michael W. Deem and Ramdas Pophale) SiO2 
 PCOD9085475
Probable space group: P -1
;
_chemical_formula_sum "Si O2"
_cell_formula_units_Z 16
_cell_length_a 8.826906
_cell_length_b 11.956900
_cell_length_c 12.099084
_cell_angle_alpha 70.586446
_cell_angle_beta 127.295587
_cell_angle_gamma 139.059938
_cell_volume 646.131235
_symmetry_space_group_name_H-M "P -1"
_symmetry_group_IT_number 2
_symmetry_cell_setting 'triclinic'
loop_
_space_group_symop_operation_xyz
x,y,z
-x,-y,-z
loop_
_atom_site_type_symbol
_atom_site_label
_atom_site_fract_x
_atom_site_fract_y
_atom_site_fract_z
Si Si1 0.287367 0.104218 0.202731
Si Si2 0.317595 0.225417 0.861362
Si Si3 0.264378 0.475848 0.524121
Si Si4 0.760137 0.283147 0.541423
Si Si5 0.030072 0.138390 0.525796
Si Si6 0.681467 0.616976 0.849982
Si Si7 0.211367 0.708713 0.037529
Si Si8 0.588594 0.079939 0.727722
O O1 0.487023 0.170641 0.377651
O O2 0.338213 0.263802 0.140035
O O3 0.384306 0.043724 0.184792
O O4 0.958167 0.933240 0.138395
O O5 0.508474 0.432247 0.895913
O O6 0.530603 0.211567 0.952165
O O7 0.188808 0.190490 0.693365
O O8 0.258007 0.604010 0.430032
O O9 0.541589 0.575821 0.682797
O O10 0.023671 0.385762 0.542774
O O11 0.186039 0.320936 0.475422
O O12 0.791433 0.196157 0.675044
O O13 0.710750 0.036086 0.423697
O O14 0.000000 0.000000 0.500000
O O15 0.999211 0.721848 0.929887
O O16 0.350908 0.800857 0.187647
O O17 0.000000 0.500000 0.000000
#
# Coordination Sequence:
#
# PCOD9085475 Si02
#       8
#     2   2   2   2   2   2   2   2
#     4  11  21  36  64  96 120 150 202 255 307 364
#     4  10  20  39  63  87 123 159 193 252 309 354
#     4   9  19  36  59  88 128 154 185 250 317 354
#     4  10  19  35  60  94 125 149 189 253 313 365
#     4  11  19  33  56  89 120 152 193 246 308 363
#     4   9  21  39  59  84 122 166 197 241 296 357
#     4  10  23  43  61  80 123 171 206 244 296 353
#     4  12  21  35  64  92 117 156 204 249 301 363
#
# _framework density 24.762772999999999
#
# number of rings (size 3 to 8) (size 9 to 14) (size 15 to 20)
#    0.000    1.750    3.750    1.875    0.000    1.000 
#    0.000    8.750    5.500    0.000    0.000    0.000 
#    0.000    0.000    0.000    0.000    0.000    0.000 
#
# Total GULP energy -89313.497901 kJ/mol
# GULP energy per Si atom -5582.093619 kJ/mol
# Density = 2.470641 g / cm^3
# Si number density = 24.762773 Si / 1000 Ang^3
#
#
#
# Elastic Constant Matrix: (Units=GPa)
#
#
# Indices 1 2 3 4 5 6 
#
# 1 60.3510 35.3063 31.2125 -2.3267 13.1850 -16.2659
# 2 35.3063 104.2909 26.8069 0.1565 -14.2017 -33.7509
# 3 31.2125 26.8069 79.5075 7.5772 19.3596 3.4749
# 4 -2.3267 0.1565 7.5772 26.2659 -3.5935 3.7244
# 5 13.1850 -14.2017 19.3596 -3.5935 41.8425 9.0157
# 6 -16.2659 -33.7509 3.4749 3.7244 9.0157 50.4908
#
#
#
# Elastic Compliance Matrix: (Units=1/GPa)
#
#
# Indices 1 2 3 4 5 6 
#
# 1 0.027975 -0.006870 -0.006957 0.002382 -0.009091 0.006346
# 2 -0.006870 0.017211 -0.005756 0.001052 0.009037 0.007996
# 3 -0.006957 -0.005756 0.020211 -0.006805 -0.008521 -0.005456
# 4 0.002382 0.001052 -0.006805 0.041505 0.006824 -0.002341
# 5 -0.009091 0.009037 -0.008521 0.006824 0.035019 -0.003058
# 6 0.006346 0.007996 -0.005456 -0.002341 -0.003058 0.028289
#
#
# Mechanical properties :
#
#
# Convention : Reuss Voigt Hill
#
# Bulk Modulus (GPa) = 38.12229 47.86674 42.99451
# Shear Modulus (GPa) = 22.92318 33.77476 28.34897
#
# Velocity S-wave (km/s) = 3.04585 3.69715 3.38719
# Velocity P-wave (km/s) = 5.27238 6.13167 5.71819
#
# Compressibility (1/GPa) = 0.02623137
#
# Stress axis : x y z
#
# Youngs Moduli (GPa) = 35.74571 58.10375 49.47817
#
# Poissons Ratio (x) = 0.39919 0.34421
# Poissons Ratio (y) = 0.24558 0.28479
# Poissons Ratio (z) = 0.24867 0.33443
#
# Static dielectric constant tensor:
#      x y z
#    x 1.988130 -0.018760 0.008340 
#    y -0.018760 2.095730 0.017130 
#    z 0.008340 0.017130 1.952190 
# 
# From -- ./inp_files/174960.got.cif
#   From: 2010.05.17/outbox.cif.g08.bks.cpg/sg2_88_cif.got.tgz:174960.got - 2010.06.03 11:33:40.
