data_PCOD9085927
_publ_section_title
;
Structure prediction by ZEFSAII (Michael W. Deem and Ramdas Pophale) SiO2 
 PCOD9085927
Probable space group: P -1
;
_chemical_formula_sum "Si O2"
_cell_formula_units_Z 16
_cell_length_a 9.014618
_cell_length_b 7.940088
_cell_length_c 13.603922
_cell_angle_alpha 43.071951
_cell_angle_beta 94.850486
_cell_angle_gamma 97.372031
_cell_volume 659.416072
_symmetry_space_group_name_H-M "P -1"
_symmetry_group_IT_number 2
_symmetry_cell_setting 'triclinic'
loop_
_space_group_symop_operation_xyz
x,y,z
-x,-y,-z
loop_
_atom_site_type_symbol
_atom_site_label
_atom_site_fract_x
_atom_site_fract_y
_atom_site_fract_z
Si Si1 0.039245 0.165448 0.833923
Si Si2 0.338350 0.384439 0.084358
Si Si3 0.254345 0.880742 0.852480
Si Si4 0.688054 0.730352 0.081308
Si Si5 0.308265 0.040936 0.581622
Si Si6 0.214172 0.551355 0.401570
Si Si7 0.662705 0.103893 0.574202
Si Si8 0.534632 0.213920 0.821378
O O1 0.184097 0.330844 0.812438
O O2 0.916625 0.322900 0.714501
O O3 0.105322 0.995181 0.827279
O O4 0.000000 0.000000 0.000000
O O5 0.260768 0.618291 0.017853
O O6 0.262649 0.295546 0.015463
O O7 0.500000 0.500000 0.000000
O O8 0.332255 0.150390 0.254229
O O9 0.277505 0.846585 0.751838
O O10 0.398321 0.064657 0.817004
O O11 0.533402 0.614548 0.172549
O O12 0.638993 0.013943 0.957392
O O13 0.207182 0.257051 0.516828
O O14 0.280554 0.939403 0.514018
O O15 0.485394 0.136526 0.550510
O O16 0.364395 0.635550 0.314530
O O17 0.243090 0.671837 0.459058
#
# Coordination Sequence:
#
# PCOD9085927 Si02
#       8
#     2   2   2   2   2   2   2   2
#     4  11  24  42  65  96 133 173 224 267 328 400
#     4  12  20  38  68  99 134 163 215 291 328 377
#     4  11  24  43  64 101 134 168 218 275 333 390
#     4  10  20  35  61  97 130 160 215 272 334 382
#     4  11  25  42  69  97 137 174 221 269 338 391
#     4  12  23  44  69  92 136 181 218 271 328 395
#     4  11  24  42  66 107 130 167 227 276 330 391
#     4  10  19  35  64  95 124 164 222 269 322 386
#
# _framework density 24.26389
#
# number of rings (size 3 to 8) (size 9 to 14) (size 15 to 20)
#    0.000    1.000    6.250    0.375    3.500    0.500 
#    4.500    1.875    0.000    0.000    0.000    0.000 
#    0.000    0.000    0.000    0.000    0.000    0.000 
#
# Total GULP energy -89438.979309 kJ/mol
# GULP energy per Si atom -5589.936207 kJ/mol
# Density = 2.420866 g / cm^3
# Si number density = 24.263890 Si / 1000 Ang^3
#
#
#
# Elastic Constant Matrix: (Units=GPa)
#
#
# Indices 1 2 3 4 5 6 
#
# 1 61.7096 38.2905 41.2567 -0.3773 20.1279 -15.3026
# 2 38.2905 107.6574 68.5919 24.7597 16.9960 -16.0689
# 3 41.2567 68.5919 123.1450 7.4968 20.5059 -14.7777
# 4 -0.3773 24.7597 7.4968 48.8478 -12.1849 2.6555
# 5 20.1279 16.9960 20.5059 -12.1849 36.4932 4.5479
# 6 -15.3026 -16.0689 -14.7777 2.6555 4.5479 24.0115
#
#
#
# Elastic Compliance Matrix: (Units=1/GPa)
#
#
# Indices 1 2 3 4 5 6 
#
# 1 0.030339 -0.002034 -0.003581 -0.003582 -0.017395 0.019460
# 2 -0.002034 0.020731 -0.006990 -0.012646 -0.010275 0.011619
# 3 -0.003581 -0.006990 0.013842 0.000640 -0.002579 0.001976
# 4 -0.003582 -0.012646 0.000640 0.032898 0.020722 -0.017914
# 5 -0.017395 -0.010275 -0.002579 0.020722 0.054151 -0.032098
# 6 0.019460 0.011619 0.001976 -0.017914 -0.032098 0.071102
#
#
# Mechanical properties :
#
#
# Convention : Reuss Voigt Hill
#
# Bulk Modulus (GPa) = 25.18915 65.42113 45.30514
# Shear Modulus (GPa) = 19.11993 31.49535 25.30764
#
# Velocity S-wave (km/s) = 2.81018 3.60673 3.23308
# Velocity P-wave (km/s) = 4.57530 6.66075 5.71397
#
# Compressibility (1/GPa) = 0.03969963
#
# Stress axis : x y z
#
# Youngs Moduli (GPa) = 32.96071 48.23739 72.24618
#
# Poissons Ratio (x) = 0.09813 0.25873
# Poissons Ratio (y) = 0.06705 0.50502
# Poissons Ratio (z) = 0.11804 0.33719
#
# Static dielectric constant tensor:
#      x y z
#    x 1.985280 0.063690 -0.034810 
#    y 0.063690 2.093310 0.011920 
#    z -0.034810 0.011920 1.959420 
# 
# From -- ./inp_files/494285.got.cif
#   From: 2010.05.17/outbox.cif.g08.bks.cpg/sg2_248_cif.got.tgz:494285.got - 2010.06.03 11:33:40.
