data_PCOD9085637
_publ_section_title
;
Structure prediction by ZEFSAII (Michael W. Deem and Ramdas Pophale) SiO2 
 PCOD9085637
Probable space group: P -1
;
_chemical_formula_sum "Si O2"
_cell_formula_units_Z 13
_cell_length_a 6.881104
_cell_length_b 6.934330
_cell_length_c 18.124176
_cell_angle_alpha 40.012730
_cell_angle_beta 59.542365
_cell_angle_gamma 66.370746
_cell_volume 479.182374
_symmetry_space_group_name_H-M "P -1"
_symmetry_group_IT_number 2
_symmetry_cell_setting 'triclinic'
loop_
_space_group_symop_operation_xyz
x,y,z
-x,-y,-z
loop_
_atom_site_type_symbol
_atom_site_label
_atom_site_fract_x
_atom_site_fract_y
_atom_site_fract_z
Si Si1 0.988981 0.272527 0.479514
Si Si2 0.472650 0.844433 0.769674
Si Si3 0.676885 0.758052 0.452986
Si Si4 0.500000 0.500000 0.000000
Si Si5 0.251549 0.041224 0.970926
Si Si6 0.629701 0.583151 0.285533
Si Si7 0.151682 0.599551 0.229296
O O1 0.752354 0.448110 0.486750
O O2 0.099511 0.171935 0.563955
O O3 0.147376 0.525885 0.338137
O O4 0.000000 0.000000 0.500000
O O5 0.357850 0.613722 0.915281
O O6 0.707315 0.672300 0.756139
O O7 0.373379 0.986837 0.672110
O O8 0.491592 0.130248 0.736414
O O9 0.487538 0.691884 0.570340
O O10 0.389182 0.772161 0.985749
O O11 0.351925 0.344046 0.827494
O O12 0.235765 0.924063 0.092474
O O13 0.000000 0.000000 0.000000
O O14 0.890523 0.580214 0.261728
#
# Coordination Sequence:
#
# PCOD9085637 Si02
#       7
#     2   2   2   1   2   2   2
#     4  11  25  44  64  95 134 177 228 277 335 395
#     4  10  19  35  61  96 135 173 216 267 332 392
#     4  11  24  41  65  99 135 175 221 280 331 393
#     4   8  16  30  54  90 126 176 210 256 322 390
#     4   8  16  31  54  88 120 170 211 255 317 387
#     4  10  19  36  61  92 133 168 214 270 331 392
#     4  10  20  35  61  90 129 174 214 259 332 393
#
# _framework density 27.129542000000001
#
# number of rings (size 3 to 8) (size 9 to 14) (size 15 to 20)
#    0.000    2.154    1.538    1.385    2.154    0.615 
#    0.000    0.769    0.000    0.000    4.000   10.769 
#    0.000    0.154    0.000    0.000    0.000    0.000 
#
# Total GULP energy -72383.248498 kJ/mol
# GULP energy per Si atom -5567.942192 kJ/mol
# Density = 2.706779 g / cm^3
# Si number density = 27.129542 Si / 1000 Ang^3
#
#
#
# Elastic Constant Matrix: (Units=GPa)
#
#
# Indices 1 2 3 4 5 6 
#
# 1 91.5551 47.9698 73.4504 -6.1602 18.5575 -9.3421
# 2 47.9698 130.3711 42.5131 -23.0374 -21.5152 -10.0100
# 3 73.4504 42.5131 281.3804 -5.0207 46.4473 -3.9755
# 4 -6.1602 -23.0374 -5.0207 31.1964 1.6390 2.3659
# 5 18.5575 -21.5152 46.4473 1.6390 49.2079 6.3228
# 6 -9.3421 -10.0100 -3.9755 2.3659 6.3228 21.4741
#
#
#
# Elastic Compliance Matrix: (Units=1/GPa)
#
#
# Indices 1 2 3 4 5 6 
#
# 1 0.019307 -0.007777 -0.002245 -0.002357 -0.009434 0.007396
# 2 -0.007777 0.014232 -0.001752 0.008216 0.010680 -0.001124
# 3 -0.002245 -0.001752 0.005212 -0.000693 -0.004905 0.000692
# 4 -0.002357 0.008216 -0.000693 0.037528 0.004233 -0.002705
# 5 -0.009434 0.010680 -0.004905 0.004233 0.034404 -0.010630
# 6 0.007396 -0.001124 0.000692 -0.002705 -0.010630 0.052817
#
#
# Mechanical properties :
#
#
# Convention : Reuss Voigt Hill
#
# Bulk Modulus (GPa) = 65.78702 92.35256 79.06979
# Shear Modulus (GPa) = 26.02607 43.00057 34.51332
#
# Velocity S-wave (km/s) = 3.10066 3.98554 3.57062
# Velocity P-wave (km/s) = 6.09267 7.43603 6.79762
#
# Compressibility (1/GPa) = 0.01520057
#
# Stress axis : x y z
#
# Youngs Moduli (GPa) = 51.79575 70.26615 191.87711
#
# Poissons Ratio (x) = 0.54649 0.43074
# Poissons Ratio (y) = 0.40284 0.33623
# Poissons Ratio (z) = 0.11628 0.12313
#
# Static dielectric constant tensor:
#      x y z
#    x 2.108940 0.006420 0.077260 
#    y 0.006420 2.038610 0.013780 
#    z 0.077260 0.013780 2.215900 
# 
# From -- ./inp_files/553998.got.cif
#   From: 2010.05.17/outbox.cif.g08.bks.cpg/sg2_277_cif.got.tgz:553998.got - 2010.06.03 11:33:40.
