data_PCOD9085043
_publ_section_title
;
Structure prediction by ZEFSAII (Michael W. Deem and Ramdas Pophale) SiO2 
 PCOD9085043
Probable space group: P -1
;
_chemical_formula_sum "Si O2"
_cell_formula_units_Z 14
_cell_length_a 11.420652
_cell_length_b 12.443219
_cell_length_c 29.254535
_cell_angle_alpha 30.243383
_cell_angle_beta 30.543903
_cell_angle_gamma 24.239229
_cell_volume 803.514784
_symmetry_space_group_name_H-M "P -1"
_symmetry_group_IT_number 2
_symmetry_cell_setting 'triclinic'
loop_
_space_group_symop_operation_xyz
x,y,z
-x,-y,-z
loop_
_atom_site_type_symbol
_atom_site_label
_atom_site_fract_x
_atom_site_fract_y
_atom_site_fract_z
Si Si1 0.749308 0.900688 0.393325
Si Si2 0.322859 0.099223 0.104867
Si Si3 0.142204 0.484216 0.813931
Si Si4 0.981708 0.971678 0.201210
Si Si5 0.534898 0.438652 0.882709
Si Si6 0.190889 0.675529 0.068504
Si Si7 0.587865 0.588873 0.612514
O O1 0.619565 0.744352 0.504800
O O2 0.078769 0.705783 0.379576
O O3 0.810973 0.922910 0.312368
O O4 0.530910 0.205047 0.379293
O O5 0.117044 0.262838 0.158821
O O6 0.140895 0.059969 0.145531
O O7 0.632557 0.793844 0.128033
O O8 0.401477 0.280585 0.990578
O O9 0.348350 0.546638 0.700895
O O10 0.992555 0.421305 0.850096
O O11 0.740961 0.230951 0.153569
O O12 0.241008 0.696675 0.186204
O O13 0.719255 0.375578 0.889986
O O14 0.500000 0.500000 0.000000
O O15 0.000000 0.000000 0.000000
#
# Coordination Sequence:
#
# PCOD9085043 Si02
#       7
#     2   2   2   2   2   2   2
#     4  10  20  35  57  83 116 141 181 230 284 342
#     4  12  22  36  56  86 114 150 179 232 283 337
#     4  12  20  37  62  82 114 142 192 238 278 316
#     4  12  22  37  55  83 120 149 177 227 288 347
#     4  12  24  37  54  80 117 158 184 219 281 338
#     4  12  23  41  58  78 111 154 198 235 261 318
#     4  10  19  35  58  86 108 144 183 233 287 322
#
# _framework density 17.423449999999999
#
# number of rings (size 3 to 8) (size 9 to 14) (size 15 to 20)
#    0.000    0.571    5.714    4.286    0.000    0.000 
#    0.000    0.000    0.000    1.714    0.000    0.000 
#    0.000    0.000    0.000    0.000    0.000    0.000 
#
# Total GULP energy -78289.029614 kJ/mol
# GULP energy per Si atom -5592.073544 kJ/mol
# Density = 1.738379 g / cm^3
# Si number density = 17.423450 Si / 1000 Ang^3
#
#
#
# Elastic Constant Matrix: (Units=GPa)
#
#
# Indices 1 2 3 4 5 6 
#
# 1 67.5570 -3.0910 11.8180 0.1624 -0.0093 3.4707
# 2 -3.0910 60.1300 -11.0828 3.4777 -4.6349 0.1890
# 3 11.8180 -11.0828 106.3533 14.2347 -6.4178 1.1269
# 4 0.1624 3.4777 14.2347 24.8678 1.0965 7.1706
# 5 -0.0093 -4.6349 -6.4178 1.0965 18.7654 -0.6857
# 6 3.4707 0.1890 1.1269 7.1706 -0.6857 23.3443
#
#
#
# Elastic Compliance Matrix: (Units=1/GPa)
#
#
# Indices 1 2 3 4 5 6 
#
# 1 0.015290 0.000274 -0.001929 0.001796 -0.000790 -0.002757
# 2 0.000274 0.017868 0.002794 -0.004725 0.005692 0.001298
# 3 -0.001929 0.002794 0.011215 -0.007662 0.005054 0.002225
# 4 0.001796 -0.004725 -0.007662 0.050020 -0.007273 -0.015437
# 5 -0.000790 0.005692 0.005054 -0.007273 0.056985 0.003735
# 6 -0.002757 0.001298 0.002225 -0.015437 0.003735 0.047981
#
#
# Mechanical properties :
#
#
# Convention : Reuss Voigt Hill
#
# Bulk Modulus (GPa) = 21.43647 25.48094 23.45871
# Shear Modulus (GPa) = 23.51505 29.15524 26.33514
#
# Velocity S-wave (km/s) = 3.67770 4.09508 3.89199
# Velocity P-wave (km/s) = 5.51035 6.08406 5.80430
#
# Compressibility (1/GPa) = 0.04664947
#
# Stress axis : x y z
#
# Youngs Moduli (GPa) = 65.40400 55.96725 89.16616
#
# Poissons Ratio (x) = -0.01535 0.17202
# Poissons Ratio (y) = -0.01794 -0.24910
# Poissons Ratio (z) = 0.12618 -0.15635
#
# Static dielectric constant tensor:
#      x y z
#    x 1.559990 -0.001900 0.002860 
#    y -0.001900 1.590180 0.002960 
#    z 0.002860 0.002960 1.599060 
# 
# From -- ./inp_files/66946.got.cif
#   From: 2010.05.17/outbox.cif.g08.bks.cpg/sg2_34_cif.got.tgz:66946.got - 2010.06.03 11:33:40.
