data_PCOD9085685
_publ_section_title
;
Structure prediction by ZEFSAII (Michael W. Deem and Ramdas Pophale) SiO2 
 PCOD9085685
Probable space group: P -1
;
_chemical_formula_sum "Si O2"
_cell_formula_units_Z 16
_cell_length_a 9.880520
_cell_length_b 15.049069
_cell_length_c 7.543038
_cell_angle_alpha 88.424314
_cell_angle_beta 108.611671
_cell_angle_gamma 138.745688
_cell_volume 659.161945
_symmetry_space_group_name_H-M "P -1"
_symmetry_group_IT_number 2
_symmetry_cell_setting 'triclinic'
loop_
_space_group_symop_operation_xyz
x,y,z
-x,-y,-z
loop_
_atom_site_type_symbol
_atom_site_label
_atom_site_fract_x
_atom_site_fract_y
_atom_site_fract_z
Si Si1 0.232333 0.190953 0.261028
Si Si2 0.671535 0.111650 0.403717
Si Si3 0.025688 0.438518 0.166868
Si Si4 0.560856 0.156658 0.863470
Si Si5 0.691547 0.586341 0.820277
Si Si6 0.679377 0.302332 0.524125
Si Si7 0.799939 0.874842 0.164067
Si Si8 0.811562 0.682340 0.274630
O O1 0.206770 0.283998 0.260612
O O2 0.478528 0.274084 0.409876
O O3 0.204734 0.156277 0.042047
O O4 0.039109 0.041284 0.289392
O O5 0.660121 0.212777 0.381662
O O6 0.937384 0.220774 0.556082
O O7 0.500000 0.000000 0.500000
O O8 0.575886 0.001636 0.215098
O O9 0.234093 0.473109 0.213569
O O10 0.088499 0.528142 0.358090
O O11 0.000000 0.500000 0.000000
O O12 0.797761 0.267955 0.064884
O O13 0.629146 0.228070 0.693936
O O14 0.400436 0.153674 0.880638
O O15 0.416807 0.467316 0.720368
O O16 0.787299 0.641535 0.059400
O O17 0.783436 0.774981 0.267117
#
# Coordination Sequence:
#
# PCOD9085685 Si02
#       8
#     2   2   2   2   2   2   2   2
#     4  10  23  40  59  88 130 162 189 250 323 364
#     4  10  20  35  60  92 122 154 204 259 300 346
#     4  10  20  37  61  87 118 157 204 255 298 351
#     4  10  21  37  64  91 115 158 214 255 289 360
#     4  10  21  37  59  88 123 160 201 248 305 364
#     4  10  21  38  61  87 122 162 199 250 308 360
#     4  10  21  39  62  89 122 162 203 247 305 368
#     4  10  19  35  62  89 116 161 211 249 290 363
#
# _framework density 24.273247000000001
#
# number of rings (size 3 to 8) (size 9 to 14) (size 15 to 20)
#    0.000    2.000    0.000    5.250    0.000    7.500 
#    0.000    5.000    0.000    0.000    0.000    0.000 
#    0.000    0.000    0.000    0.000    0.000    0.000 
#
# Total GULP energy -89543.182125 kJ/mol
# GULP energy per Si atom -5596.448883 kJ/mol
# Density = 2.421800 g / cm^3
# Si number density = 24.273247 Si / 1000 Ang^3
#
#
#
# Elastic Constant Matrix: (Units=GPa)
#
#
# Indices 1 2 3 4 5 6 
#
# 1 108.8594 28.1224 25.9742 14.8636 1.9182 -15.9849
# 2 28.1224 98.7974 40.8745 26.7678 -5.2119 -21.3307
# 3 25.9742 40.8745 90.7663 28.6204 11.9242 -0.4612
# 4 14.8636 26.7678 28.6204 36.9871 9.5055 -7.1560
# 5 1.9182 -5.2119 11.9242 9.5055 32.7117 11.1602
# 6 -15.9849 -21.3307 -0.4612 -7.1560 11.1602 32.6121
#
#
#
# Elastic Compliance Matrix: (Units=1/GPa)
#
#
# Indices 1 2 3 4 5 6 
#
# 1 0.010819 -0.001004 -0.002256 -0.000506 -0.001541 0.005031
# 2 -0.001004 0.016258 -0.005370 -0.006905 0.004185 0.007118
# 3 -0.002256 -0.005370 0.017200 -0.008922 -0.002536 -0.005465
# 4 -0.000506 -0.006905 -0.008922 0.044652 -0.014116 0.009738
# 5 -0.001541 0.004185 -0.002536 -0.014116 0.041604 -0.015389
# 6 0.005031 0.007118 -0.005465 0.009738 -0.015389 0.045111
#
#
# Mechanical properties :
#
#
# Convention : Reuss Voigt Hill
#
# Bulk Modulus (GPa) = 37.01646 54.26280 45.63963
# Shear Modulus (GPa) = 24.76349 34.02564 29.39456
#
# Velocity S-wave (km/s) = 3.19752 3.74809 3.48370
# Velocity P-wave (km/s) = 5.37728 6.41361 5.91817
#
# Compressibility (1/GPa) = 0.02701501
#
# Stress axis : x y z
#
# Youngs Moduli (GPa) = 92.43134 61.50875 58.13992
#
# Poissons Ratio (x) = 0.06177 0.13118
# Poissons Ratio (y) = 0.09283 0.31222
# Poissons Ratio (z) = 0.20855 0.33032
#
# Static dielectric constant tensor:
#      x y z
#    x 1.768580 -0.071190 -0.085950 
#    y -0.071190 1.873880 -0.019270 
#    z -0.085950 -0.019270 1.930690 
# 
# From -- ./inp_files/207940.got.cif
#   From: 2010.05.17/outbox.cif.g08.bks.cpg/sg2_104_cif.got.tgz:207940.got - 2010.06.03 11:33:40.
