data_PCOD9085788
_publ_section_title
;
Structure prediction by ZEFSAII (Michael W. Deem and Ramdas Pophale) SiO2 
 PCOD9085788
Probable space group: P -1
;
_chemical_formula_sum "Si O2"
_cell_formula_units_Z 16
_cell_length_a 18.511228
_cell_length_b 14.461230
_cell_length_c 8.194902
_cell_angle_alpha 129.557460
_cell_angle_beta 139.142531
_cell_angle_gamma 30.610747
_cell_volume 730.101474
_symmetry_space_group_name_H-M "P -1"
_symmetry_group_IT_number 2
_symmetry_cell_setting 'triclinic'
loop_
_space_group_symop_operation_xyz
x,y,z
-x,-y,-z
loop_
_atom_site_type_symbol
_atom_site_label
_atom_site_fract_x
_atom_site_fract_y
_atom_site_fract_z
Si Si1 0.846025 0.783800 0.631815
Si Si2 0.653386 0.303105 0.964050
Si Si3 0.772148 0.580985 0.651409
Si Si4 0.151336 0.966262 0.249993
Si Si5 0.913868 0.594125 0.207276
Si Si6 0.578770 0.105292 0.757586
Si Si7 0.156617 0.736926 0.500428
Si Si8 0.784492 0.054706 0.293283
O O1 0.830654 0.723451 0.367705
O O2 0.682475 0.924828 0.626458
O O3 0.991355 0.601131 0.778943
O O4 0.882497 0.889536 0.757147
O O5 0.813335 0.241921 0.239355
O O6 0.500000 0.500000 0.000000
O O7 0.685443 0.243762 0.766060
O O8 0.640089 0.184712 0.888364
O O9 0.614132 0.738618 0.445460
O O10 0.758229 0.461980 0.579303
O O11 0.937409 0.449503 0.671872
O O12 0.796263 0.653907 0.922927
O O13 0.182610 0.986023 0.506323
O O14 0.000000 0.000000 0.000000
O O15 0.643964 0.073583 0.016969
O O16 0.234919 0.784061 0.585655
O O17 0.958295 0.886567 0.303657
#
# Coordination Sequence:
#
# PCOD9085788 Si02
#       8
#     2   2   2   2   2   2   2   2
#     4  10  23  44  62  91 132 156 214 267 306 368
#     4  10  19  36  59  91 127 160 198 250 328 363
#     4  11  22  40  67  91 118 173 213 258 315 362
#     4  11  22  37  65  97 122 169 206 257 311 381
#     4  10  24  42  65  94 120 169 218 259 303 377
#     4  10  22  39  66  89 129 165 202 269 314 370
#     4  10  19  35  63  87 130 163 205 258 305 384
#     4  10  21  36  61 100 123 167 209 247 323 376
#
# _framework density 21.914762
#
# number of rings (size 3 to 8) (size 9 to 14) (size 15 to 20)
#    0.000    1.750    2.500    1.500    3.500    2.000 
#    0.000    7.500    0.000    0.000    0.000    0.000 
#    0.000    0.000    0.000    0.000    0.000    0.000 
#
# Total GULP energy -89178.623190 kJ/mol
# GULP energy per Si atom -5573.663949 kJ/mol
# Density = 2.186488 g / cm^3
# Si number density = 21.914762 Si / 1000 Ang^3
#
#
#
# Elastic Constant Matrix: (Units=GPa)
#
#
# Indices 1 2 3 4 5 6 
#
# 1 38.8689 22.7318 18.9903 5.8573 -2.6978 15.6325
# 2 22.7318 96.3015 41.2318 10.2678 8.5665 1.3826
# 3 18.9903 41.2318 111.7579 -17.8564 -4.3516 -10.1492
# 4 5.8573 10.2678 -17.8564 40.0596 1.1025 1.2060
# 5 -2.6978 8.5665 -4.3516 1.1025 32.3368 8.2318
# 6 15.6325 1.3826 -10.1492 1.2060 8.2318 30.8485
#
#
#
# Elastic Compliance Matrix: (Units=1/GPa)
#
#
# Indices 1 2 3 4 5 6 
#
# 1 0.049255 -0.007375 -0.009368 -0.008916 0.012952 -0.030819
# 2 -0.007375 0.015379 -0.005184 -0.005104 -0.006014 0.003147
# 3 -0.009368 -0.005184 0.014747 0.008990 -0.000154 0.009521
# 4 -0.008916 -0.005104 0.008990 0.031406 -0.000967 0.006735
# 5 0.012952 -0.006014 -0.000154 -0.000967 0.037783 -0.016389
# 6 -0.030819 0.003147 0.009521 0.006735 -0.016389 0.055135
#
#
# Mechanical properties :
#
#
# Convention : Reuss Voigt Hill
#
# Bulk Modulus (GPa) = 28.14769 45.87067 37.00918
# Shear Modulus (GPa) = 19.27527 31.58062 25.42794
#
# Velocity S-wave (km/s) = 2.96895 3.80026 3.41003
# Velocity P-wave (km/s) = 4.96235 6.34293 5.69463
#
# Compressibility (1/GPa) = 0.03552689
#
# Stress axis : x y z
#
# Youngs Moduli (GPa) = 20.30266 65.02571 67.80834
#
# Poissons Ratio (x) = 0.47955 0.63521
# Poissons Ratio (y) = 0.14973 0.35155
# Poissons Ratio (z) = 0.19019 0.33712
#
# Static dielectric constant tensor:
#      x y z
#    x 1.840240 0.019790 -0.039070 
#    y 0.019790 1.879490 -0.072460 
#    z -0.039070 -0.072460 1.972000 
# 
# From -- ./inp_files/304691.got.cif
#   From: 2010.05.17/outbox.cif.g08.bks.cpg/sg2_153_cif.got.tgz:304691.got - 2010.06.03 11:33:40.
