data_PCOD9085174
_publ_section_title
;
Structure prediction by ZEFSAII (Michael W. Deem and Ramdas Pophale) SiO2 
 PCOD9085174
Probable space group: P -1
;
_chemical_formula_sum "Si O2"
_cell_formula_units_Z 16
_cell_length_a 5.107322
_cell_length_b 23.673459
_cell_length_c 18.876642
_cell_angle_alpha 160.535375
_cell_angle_beta 96.111962
_cell_angle_gamma 93.469582
_cell_volume 661.048916
_symmetry_space_group_name_H-M "P -1"
_symmetry_group_IT_number 2
_symmetry_cell_setting 'triclinic'
loop_
_space_group_symop_operation_xyz
x,y,z
-x,-y,-z
loop_
_atom_site_type_symbol
_atom_site_label
_atom_site_fract_x
_atom_site_fract_y
_atom_site_fract_z
Si Si1 0.850774 0.636063 0.158118
Si Si2 0.071088 0.010714 0.695805
Si Si3 0.183407 0.438949 0.380104
Si Si4 0.645962 0.783566 0.733409
Si Si5 0.717239 0.661427 0.030385
Si Si6 0.284115 0.821403 0.044642
Si Si7 0.201937 0.887208 0.780265
Si Si8 0.937261 0.520546 0.248808
O O1 0.873288 0.725461 0.186384
O O2 0.988942 0.802784 0.417670
O O3 0.500000 0.500000 0.000000
O O4 0.000000 0.500000 0.000000
O O5 0.175833 0.158969 0.807621
O O6 0.360221 0.092351 0.852628
O O7 0.792831 0.026044 0.738873
O O8 0.500000 0.500000 0.500000
O O9 0.345673 0.579609 0.484435
O O10 0.000000 0.500000 0.500000
O O11 0.924683 0.244267 0.108158
O O12 0.524402 0.900537 0.820444
O O13 0.935211 0.782584 0.708560
O O14 0.728537 0.893233 0.941669
O O15 0.356711 0.554739 0.897504
O O16 0.812044 0.512375 0.821890
O O17 0.178830 0.632643 0.869474
O O18 0.059061 0.741210 0.538377
#
# Coordination Sequence:
#
# PCOD9085174 Si02
#       8
#     2   2   2   2   2   2   2   2
#     4  12  25  44  67  95 133 171 199 250 324 396
#     4  10  22  42  68  93 122 164 216 265 306 372
#     4  12  24  38  58  86 128 169 210 257 307 377
#     4  10  21  35  55  82 114 157 204 247 311 362
#     4  10  22  39  64  97 123 159 212 257 308 368
#     4  10  21  38  63  92 118 162 218 261 309 356
#     4  10  19  35  59  84 114 149 199 263 308 357
#     4  10  19  35  64  92 119 154 206 272 302 348
#
# _framework density 24.203958
#
# number of rings (size 3 to 8) (size 9 to 14) (size 15 to 20)
#    0.000    1.500    1.250    4.125    3.500    0.000 
#    0.000   12.500    0.000    0.000    0.000    0.000 
#    0.000    0.000    0.000    0.000    0.000    0.000 
#
# Total GULP energy -89369.580739 kJ/mol
# GULP energy per Si atom -5585.598796 kJ/mol
# Density = 2.414887 g / cm^3
# Si number density = 24.203958 Si / 1000 Ang^3
#
#
#
# Elastic Constant Matrix: (Units=GPa)
#
#
# Indices 1 2 3 4 5 6 
#
# 1 145.2131 18.3984 15.7245 3.9745 8.1927 -14.7387
# 2 18.3984 38.9061 6.3131 -3.3330 1.0484 -11.2357
# 3 15.7245 6.3131 113.6867 -9.9360 -2.4554 -6.7860
# 4 3.9745 -3.3330 -9.9360 24.6936 -3.4980 9.2146
# 5 8.1927 1.0484 -2.4554 -3.4980 31.3830 -6.5032
# 6 -14.7387 -11.2357 -6.7860 9.2146 -6.5032 30.1332
#
#
#
# Elastic Compliance Matrix: (Units=1/GPa)
#
#
# Indices 1 2 3 4 5 6 
#
# 1 0.007896 -0.002876 -0.001088 -0.003561 -0.001774 0.003251
# 2 -0.002876 0.030005 -0.000567 0.000896 0.001829 0.009774
# 3 -0.001088 -0.000567 0.009384 0.003906 0.001580 0.000516
# 4 -0.003561 0.000896 0.003906 0.048741 0.003601 -0.014656
# 5 -0.001774 0.001829 0.001580 0.003601 0.034124 0.006434
# 6 0.003251 0.009774 0.000516 -0.014656 0.006434 0.044407
#
#
# Mechanical properties :
#
#
# Convention : Reuss Voigt Hill
#
# Bulk Modulus (GPa) = 26.16182 42.07533 34.11857
# Shear Modulus (GPa) = 25.46323 34.39994 29.93159
#
# Velocity S-wave (km/s) = 3.24702 3.77404 3.52040
# Velocity P-wave (km/s) = 4.98897 6.03428 5.53635
#
# Compressibility (1/GPa) = 0.03822364
#
# Stress axis : x y z
#
# Youngs Moduli (GPa) = 126.64434 33.32764 106.56039
#
# Poissons Ratio (x) = 0.09585 0.11593
# Poissons Ratio (y) = 0.36422 0.06043
# Poissons Ratio (z) = 0.13778 0.01890
#
# Static dielectric constant tensor:
#      x y z
#    x 1.809140 0.006570 0.008620 
#    y 0.006570 2.019480 0.010790 
#    z 0.008620 0.010790 1.890040 
# 
# From -- ./inp_files/551296.got.cif
#   From: 2010.05.17/outbox.cif.g08.bks.cpg/sg2_276_cif.got.tgz:551296.got - 2010.06.03 11:33:40.
