data_PCOD9085110
_publ_section_title
;
Structure prediction by ZEFSAII (Michael W. Deem and Ramdas Pophale) SiO2 
 PCOD9085110
Probable space group: P -1
;
_chemical_formula_sum "Si O2"
_cell_formula_units_Z 16
_cell_length_a 11.219413
_cell_length_b 17.171029
_cell_length_c 9.657085
_cell_angle_alpha 118.825000
_cell_angle_beta 41.653976
_cell_angle_gamma 148.960690
_cell_volume 565.715034
_symmetry_space_group_name_H-M "P -1"
_symmetry_group_IT_number 2
_symmetry_cell_setting 'triclinic'
loop_
_space_group_symop_operation_xyz
x,y,z
-x,-y,-z
loop_
_atom_site_type_symbol
_atom_site_label
_atom_site_fract_x
_atom_site_fract_y
_atom_site_fract_z
Si Si1 0.822302 0.671064 0.965993
Si Si2 0.026443 0.539916 0.308817
Si Si3 0.042532 0.749771 0.438246
Si Si4 0.387128 0.060566 0.501434
Si Si5 0.396477 0.227899 0.797339
Si Si6 0.406412 0.052982 0.047862
Si Si7 0.636286 0.290253 0.241911
Si Si8 0.269323 0.311587 0.629227
O O1 0.813794 0.772727 0.039872
O O2 0.754124 0.638206 0.166917
O O3 0.500000 0.500000 0.000000
O O4 0.208250 0.797581 0.703231
O O5 0.725341 0.376137 0.531336
O O6 0.006202 0.457852 0.133150
O O7 0.940676 0.609322 0.453022
O O8 0.410764 0.694349 0.159806
O O9 0.844047 0.684333 0.408431
O O10 0.091648 0.860544 0.574132
O O11 0.448154 0.906330 0.191518
O O12 0.254523 0.074219 0.740834
O O13 0.417341 0.127913 0.387502
O O14 0.596484 0.222162 0.075766
O O15 0.007966 0.884269 0.266029
O O16 0.500000 0.000000 0.000000
O O17 0.562135 0.364743 0.379256
#
# Coordination Sequence:
#
# PCOD9085110 Si02
#       8
#     2   2   2   2   2   2   2   2
#     4  12  22  38  69  99 120 166 221 258 309 386
#     4  10  22  41  63  89 130 166 214 263 321 374
#     4  11  23  38  62  97 129 164 209 270 322 371
#     4  11  21  39  68  93 125 168 213 261 314 378
#     4  10  23  44  66  89 125 173 218 256 313 388
#     4  10  19  35  58  92 121 163 208 257 314 375
#     4  11  20  37  63  90 126 175 209 255 311 386
#     4  11  21  37  65  94 128 166 215 256 318 379
#
# _framework density 28.282791
#
# number of rings (size 3 to 8) (size 9 to 14) (size 15 to 20)
#    0.000    1.250    6.250    3.375    0.000    1.500 
#    0.000    0.625    2.750    0.000    0.000    0.000 
#    0.000    0.000    0.000    0.000    0.000    0.000 
#
# Total GULP energy -89251.239464 kJ/mol
# GULP energy per Si atom -5578.202466 kJ/mol
# Density = 2.821842 g / cm^3
# Si number density = 28.282791 Si / 1000 Ang^3
#
#
#
# Elastic Constant Matrix: (Units=GPa)
#
#
# Indices 1 2 3 4 5 6 
#
# 1 103.9029 47.9299 29.1188 33.1722 -15.4291 -0.5815
# 2 47.9299 166.9356 34.8587 59.1185 -1.1611 12.9737
# 3 29.1188 34.8587 106.1359 38.5742 -18.5172 5.4356
# 4 33.1722 59.1185 38.5742 52.7101 -6.3463 10.5174
# 5 -15.4291 -1.1611 -18.5172 -6.3463 45.5974 9.0212
# 6 -0.5815 12.9737 5.4356 10.5174 9.0212 43.2351
#
#
#
# Elastic Compliance Matrix: (Units=1/GPa)
#
#
# Indices 1 2 3 4 5 6 
#
# 1 0.012819 -0.001595 -0.000388 -0.005934 0.003014 0.001514
# 2 -0.001595 0.010274 0.000946 -0.011353 -0.001442 -0.000161
# 3 -0.000388 0.000946 0.013680 -0.010262 0.004092 -0.000367
# 4 -0.005934 -0.011353 -0.010262 0.044337 0.000967 -0.006370
# 5 0.003014 -0.001442 0.004092 0.000967 0.025832 -0.005666
# 6 0.001514 -0.000161 -0.000367 -0.006370 -0.005666 0.025976
#
#
# Mechanical properties :
#
#
# Convention : Reuss Voigt Hill
#
# Bulk Modulus (GPa) = 28.81908 66.75436 47.78672
# Shear Modulus (GPa) = 34.11611 45.97966 40.04789
#
# Velocity S-wave (km/s) = 3.47688 4.03639 3.76703
# Velocity P-wave (km/s) = 5.13128 6.73624 5.98778
#
# Compressibility (1/GPa) = 0.03469923
#
# Stress axis : x y z
#
# Youngs Moduli (GPa) = 78.00657 97.33617 73.09847
#
# Poissons Ratio (x) = 0.15523 0.02838
# Poissons Ratio (y) = 0.12441 -0.06916
# Poissons Ratio (z) = 0.03029 -0.09209
#
# Static dielectric constant tensor:
#      x y z
#    x 2.625890 0.197440 0.091860 
#    y 0.197440 2.445620 0.001890 
#    z 0.091860 0.001890 2.318920 
# 
# From -- ./inp_files/436862.got.cif
#   From: 2010.05.17/outbox.cif.g08.bks.cpg/sg2_219_cif.got.tgz:436862.got - 2010.06.03 11:33:40.
