data_PCOD9085667
_publ_section_title
;
Structure prediction by ZEFSAII (Michael W. Deem and Ramdas Pophale) SiO2 
 PCOD9085667
Probable space group: P -1
;
_chemical_formula_sum "Si O2"
_cell_formula_units_Z 16
_cell_length_a 12.954368
_cell_length_b 14.043045
_cell_length_c 7.007725
_cell_angle_alpha 106.404699
_cell_angle_beta 117.221642
_cell_angle_gamma 37.224209
_cell_volume 677.799981
_symmetry_space_group_name_H-M "P -1"
_symmetry_group_IT_number 2
_symmetry_cell_setting 'triclinic'
loop_
_space_group_symop_operation_xyz
x,y,z
-x,-y,-z
loop_
_atom_site_type_symbol
_atom_site_label
_atom_site_fract_x
_atom_site_fract_y
_atom_site_fract_z
Si Si1 0.215807 0.991088 0.407138
Si Si2 0.477637 0.119676 0.147332
Si Si3 0.820600 0.155784 0.256643
Si Si4 0.082470 0.127445 0.961446
Si Si5 0.543324 0.342097 0.484309
Si Si6 0.325633 0.617346 0.080626
Si Si7 0.091054 0.342763 0.088661
Si Si8 0.298154 0.425466 0.003275
O O1 0.171393 0.074989 0.219085
O O2 0.024045 0.072432 0.373864
O O3 0.330321 0.979562 0.646984
O O4 0.364057 0.804562 0.387896
O O5 0.308077 0.226140 0.218795
O O6 0.410065 0.247597 0.006437
O O7 0.500000 0.000000 0.000000
O O8 0.702031 0.243019 0.398097
O O9 0.714928 0.284705 0.073189
O O10 0.841775 0.024716 0.151745
O O11 0.099255 0.225600 0.938957
O O12 0.865439 0.253514 0.886953
O O13 0.526354 0.443756 0.673548
O O14 0.358029 0.427191 0.268482
O O15 0.352497 0.485753 0.963145
O O16 0.000000 0.500000 0.000000
O O17 0.921019 0.441494 0.149621
#
# Coordination Sequence:
#
# PCOD9085667 Si02
#       8
#     2   2   2   2   2   2   2   2
#     4  10  20  36  56  93 124 154 197 258 307 364
#     4  10  22  38  63  90 115 157 219 262 296 354
#     4  11  21  34  60  96 130 155 197 250 313 367
#     4  10  19  35  62  87 122 163 197 252 312 365
#     4  11  20  33  59  90 126 162 200 235 303 380
#     4  10  19  37  56  85 132 163 191 241 309 382
#     4   9  20  39  60  81 115 163 208 249 306 354
#     4   9  21  37  59  84 121 167 200 251 309 361
#
# _framework density 23.605782000000001
#
# number of rings (size 3 to 8) (size 9 to 14) (size 15 to 20)
#    0.000    2.000    2.500    1.500    3.500    2.000 
#    0.000    0.000    0.000   15.000    0.000    0.000 
#    0.000    0.000    0.000    0.000    0.000    0.000 
#
# Total GULP energy -89154.460659 kJ/mol
# GULP energy per Si atom -5572.153791 kJ/mol
# Density = 2.355205 g / cm^3
# Si number density = 23.605782 Si / 1000 Ang^3
#
#
#
# Elastic Constant Matrix: (Units=GPa)
#
#
# Indices 1 2 3 4 5 6 
#
# 1 84.7266 57.8068 40.8910 5.1439 22.6586 10.2751
# 2 57.8068 160.2720 51.1155 3.5699 3.7038 38.2130
# 3 40.8910 51.1155 91.2269 -8.2838 9.9811 6.8550
# 4 5.1439 3.5699 -8.2838 39.2359 5.6368 13.9713
# 5 22.6586 3.7038 9.9811 5.6368 33.7878 -10.1444
# 6 10.2751 38.2130 6.8550 13.9713 -10.1444 49.5106
#
#
#
# Elastic Compliance Matrix: (Units=1/GPa)
#
#
# Indices 1 2 3 4 5 6 
#
# 1 0.021757 -0.005365 -0.005262 -0.000894 -0.012911 -0.002039
# 2 -0.005365 0.010762 -0.003085 0.001405 0.001006 -0.006956
# 3 -0.005262 -0.003085 0.015675 0.004637 -0.001640 -0.000342
# 4 -0.000894 0.001405 0.004637 0.032473 -0.010182 -0.012791
# 5 -0.012911 0.001006 -0.001640 -0.010182 0.044572 0.014136
# 6 -0.002039 -0.006956 -0.000342 -0.012791 0.014136 0.032543
#
#
# Mechanical properties :
#
#
# Convention : Reuss Voigt Hill
#
# Bulk Modulus (GPa) = 48.14438 70.65023 59.39730
# Shear Modulus (GPa) = 26.02429 36.93433 31.47931
#
# Velocity S-wave (km/s) = 3.32392 3.95983 3.65573
# Velocity P-wave (km/s) = 5.93049 7.13451 6.56018
#
# Compressibility (1/GPa) = 0.02077086
#
# Stress axis : x y z
#
# Youngs Moduli (GPa) = 45.96310 92.91659 63.79550
#
# Poissons Ratio (x) = 0.49846 0.33566
# Poissons Ratio (y) = 0.24657 0.19684
# Poissons Ratio (z) = 0.24184 0.28669
#
# Static dielectric constant tensor:
#      x y z
#    x 2.020500 0.016270 0.010260 
#    y 0.016270 1.975670 -0.003790 
#    z 0.010260 -0.003790 1.904910 
# 
# From -- ./inp_files/311714.got.cif
#   From: 2010.05.17/outbox.cif.g08.bks.cpg/sg2_156_cif.got.tgz:311714.got - 2010.06.03 11:33:40.
