data_PCOD9085584
_publ_section_title
;
Structure prediction by ZEFSAII (Michael W. Deem and Ramdas Pophale) SiO2 
 PCOD9085584
Probable space group: P -1
;
_chemical_formula_sum "Si O2"
_cell_formula_units_Z 16
_cell_length_a 14.397334
_cell_length_b 11.973643
_cell_length_c 9.190195
_cell_angle_alpha 109.527203
_cell_angle_beta 48.040593
_cell_angle_gamma 136.949621
_cell_volume 766.153358
_symmetry_space_group_name_H-M "P -1"
_symmetry_group_IT_number 2
_symmetry_cell_setting 'triclinic'
loop_
_space_group_symop_operation_xyz
x,y,z
-x,-y,-z
loop_
_atom_site_type_symbol
_atom_site_label
_atom_site_fract_x
_atom_site_fract_y
_atom_site_fract_z
Si Si1 0.999076 0.666095 0.665635
Si Si2 0.345169 0.083385 0.875720
Si Si3 0.723673 0.817237 0.605682
Si Si4 0.963173 0.145759 0.690321
Si Si5 0.712749 0.944740 0.411568
Si Si6 0.572811 0.427277 0.963306
Si Si7 0.433889 0.905453 0.872071
Si Si8 0.063724 0.612097 0.257341
O O1 0.030044 0.579332 0.709071
O O2 0.103034 0.853916 0.687655
O O3 0.081869 0.671723 0.430579
O O4 0.787907 0.553865 0.810032
O O5 0.349553 0.102881 0.708538
O O6 0.391510 0.985178 0.844224
O O7 0.489548 0.268969 0.878826
O O8 0.143449 0.966069 0.101080
O O9 0.530682 0.663592 0.814497
O O10 0.855343 0.801102 0.504556
O O11 0.819423 0.000809 0.655322
O O12 0.728576 0.833689 0.434553
O O13 0.004038 0.313759 0.716132
O O14 0.570884 0.917346 0.649077
O O15 0.500000 0.500000 0.000000
O O16 0.250314 0.713869 0.024874
O O17 0.500000 0.000000 0.000000
#
# Coordination Sequence:
#
# PCOD9085584 Si02
#       8
#     2   2   2   2   2   2   2   2
#     4  11  22  35  63  97 124 158 208 265 309 366
#     4  10  24  39  64  95 127 163 207 265 316 373
#     4  10  20  37  66  84 123 166 213 250 309 381
#     4   9  18  38  61  90 113 167 219 251 290 385
#     4  12  23  39  64  98 128 161 207 263 323 369
#     4  11  24  42  65  92 124 166 219 258 308 376
#     4  11  19  40  65  89 124 174 216 245 301 391
#     4  10  19  35  61  89 122 156 215 253 302 354
#
# _framework density 20.883545999999999
#
# number of rings (size 3 to 8) (size 9 to 14) (size 15 to 20)
#    0.000    1.500    2.500    4.125    5.250    0.500 
#    0.000    3.125    8.250    0.000    0.000    0.000 
#    0.000    0.000    0.000    0.000    0.000    0.000 
#
# Total GULP energy -89291.218105 kJ/mol
# GULP energy per Si atom -5580.701132 kJ/mol
# Density = 2.083601 g / cm^3
# Si number density = 20.883546 Si / 1000 Ang^3
#
#
#
# Elastic Constant Matrix: (Units=GPa)
#
#
# Indices 1 2 3 4 5 6 
#
# 1 71.9226 21.1570 44.1417 -11.7443 12.5789 -7.2488
# 2 21.1570 43.7369 18.5860 -22.9497 -4.2529 -10.3421
# 3 44.1417 18.5860 94.3223 -12.7783 0.9740 7.6512
# 4 -11.7443 -22.9497 -12.7783 19.5852 -0.7166 5.0069
# 5 12.5789 -4.2529 0.9740 -0.7166 42.4605 -1.3472
# 6 -7.2488 -10.3421 7.6512 5.0069 -1.3472 22.5979
#
#
#
# Elastic Compliance Matrix: (Units=1/GPa)
#
#
# Indices 1 2 3 4 5 6 
#
# 1 0.024623 -0.008533 -0.011106 -0.004905 -0.007711 0.008380
# 2 -0.008533 0.070623 -0.001239 0.073568 0.011328 0.014379
# 3 -0.011106 -0.001239 0.017836 0.006548 0.002504 -0.011470
# 4 -0.004905 0.073568 0.006548 0.139070 0.011009 -0.000278
# 5 -0.007711 0.011328 0.002504 0.011009 0.027132 0.001041
# 6 0.008380 0.014379 -0.011470 -0.000278 0.001041 0.057528
#
#
# Mechanical properties :
#
#
# Convention : Reuss Voigt Hill
#
# Bulk Modulus (GPa) = 14.02064 41.97235 27.99649
# Shear Modulus (GPa) = 12.42721 25.33518 18.88119
#
# Velocity S-wave (km/s) = 2.44206 3.48683 3.01012
# Velocity P-wave (km/s) = 3.83142 6.02931 5.05135
#
# Compressibility (1/GPa) = 0.07132341
#
# Stress axis : x y z
#
# Youngs Moduli (GPa) = 40.61281 14.15978 56.06779
#
# Poissons Ratio (x) = 0.12082 0.62271
# Poissons Ratio (y) = 0.34654 0.06949
# Poissons Ratio (z) = 0.45106 0.01755
#
# Static dielectric constant tensor:
#      x y z
#    x 1.926840 -0.057490 0.008100 
#    y -0.057490 1.750230 -0.020100 
#    z 0.008100 -0.020100 1.755040 
# 
# From -- ./inp_files/202030.got.cif
#   From: 2010.05.17/outbox.cif.g08.bks.cpg/sg2_102_cif.got.tgz:202030.got - 2010.06.03 11:33:40.
