data_PCOD9085861
_publ_section_title
;
Structure prediction by ZEFSAII (Michael W. Deem and Ramdas Pophale) SiO2 
 PCOD9085861
Probable space group: P -1
;
_chemical_formula_sum "Si O2"
_cell_formula_units_Z 14
_cell_length_a 11.529510
_cell_length_b 11.064141
_cell_length_c 5.091605
_cell_angle_alpha 71.801921
_cell_angle_beta 70.606245
_cell_angle_gamma 82.338046
_cell_volume 581.690921
_symmetry_space_group_name_H-M "P -1"
_symmetry_group_IT_number 2
_symmetry_cell_setting 'triclinic'
loop_
_space_group_symop_operation_xyz
x,y,z
-x,-y,-z
loop_
_atom_site_type_symbol
_atom_site_label
_atom_site_fract_x
_atom_site_fract_y
_atom_site_fract_z
Si Si1 0.919988 0.900484 0.961170
Si Si2 0.626861 0.517950 0.545838
Si Si3 0.211326 0.165566 0.396253
Si Si4 0.509166 0.909872 0.807919
Si Si5 0.719883 0.231094 0.700194
Si Si6 0.758096 0.565677 0.923311
Si Si7 0.854242 0.270925 0.064985
O O1 0.811433 0.876853 0.262563
O O2 0.858354 0.920788 0.707301
O O3 0.008880 0.775750 0.939041
O O4 0.000000 0.000000 0.000000
O O5 0.500000 0.500000 0.500000
O O6 0.687708 0.379020 0.599915
O O7 0.643815 0.561330 0.803051
O O8 0.708325 0.596970 0.230388
O O9 0.357192 0.158434 0.243196
O O10 0.166779 0.313655 0.304216
O O11 0.500000 0.000000 0.500000
O O12 0.395335 0.821893 0.018170
O O13 0.500000 0.000000 0.000000
O O14 0.763772 0.202456 0.389567
O O15 0.830987 0.217104 0.828593
O O16 0.824871 0.424452 0.975676
#
# Coordination Sequence:
#
# PCOD9085861 Si02
#       7
#     2   2   2   2   2   2   2
#     4  12  28  46  72  96 137 185 233 285 328 409
#     4  10  19  35  63  97 135 177 213 267 332 409
#     4  12  27  47  69 103 137 179 229 287 344 399
#     4  12  27  43  67  98 137 182 221 279 338 400
#     4  10  22  40  66  97 134 174 220 273 329 406
#     4  10  22  40  66  99 137 169 224 277 339 405
#     4  10  23  43  71 102 132 181 222 271 340 396
#
# _framework density 24.067765000000001
#
# number of rings (size 3 to 8) (size 9 to 14) (size 15 to 20)
#    0.000    1.143    0.000    5.143    6.000    4.571 
#    0.000    0.000    0.000    0.000    0.000    0.000 
#    0.000    0.000    0.000    0.000    0.000    0.000 
#
# Total GULP energy -78133.868397 kJ/mol
# GULP energy per Si atom -5580.990600 kJ/mol
# Density = 2.401299 g / cm^3
# Si number density = 24.067765 Si / 1000 Ang^3
#
#
#
# Elastic Constant Matrix: (Units=GPa)
#
#
# Indices 1 2 3 4 5 6 
#
# 1 43.3626 51.9213 -11.7998 1.4080 39.2083 -7.8629
# 2 51.9213 56.7046 33.5609 6.4844 2.6629 -0.7316
# 3 -11.7998 33.5609 117.2815 19.4929 26.0881 2.5040
# 4 1.4080 6.4844 19.4929 29.4606 3.6852 0.8587
# 5 39.2083 2.6629 26.0881 3.6852 38.3249 3.8735
# 6 -7.8629 -0.7316 2.5040 0.8587 3.8735 32.6200
#
#
#
# Elastic Compliance Matrix: (Units=1/GPa)
#
#
# Indices 1 2 3 4 5 6 
#
# 1 -0.010308 0.013567 -0.008541 0.001301 0.015638 -0.003416
# 2 0.013567 0.003726 0.004473 -0.002393 -0.017474 0.005148
# 3 -0.008541 0.004473 0.006205 -0.005223 0.004998 -0.002891
# 4 0.001301 -0.002393 -0.005223 0.038025 -0.001247 -0.000192
# 5 0.015638 -0.017474 0.004998 -0.001247 0.007815 0.002099
# 6 -0.003416 0.005148 -0.002891 -0.000192 0.002099 0.029926
#
#
# Mechanical properties :
#
#
# Convention : Reuss Voigt Hill
#
# Bulk Modulus (GPa) = 53.70387 40.52370 47.11379
# Shear Modulus (GPa) = 79.87517 29.65886 54.76702
#
# Velocity S-wave (km/s) = 5.76712 3.51423 4.77543
# Velocity P-wave (km/s) = 8.16751 5.77411 7.07278
#
# Compressibility (1/GPa) = 0.01862063
#
# Stress axis : x y z
#
# Youngs Moduli (GPa) = -97.00807 268.38660 161.15465
#
# Poissons Ratio (x) = -3.64113 1.37645
# Poissons Ratio (y) = 1.31608 -0.72090
# Poissons Ratio (z) = -0.82856 -1.20059
#
# Static dielectric constant tensor:
#      x y z
#    x 1.816050 0.010720 0.143320 
#    y 0.010720 1.910100 0.160590 
#    z 0.143320 0.160590 -0.370020 
# 
# From -- ./inp_files/65412.got.cif
#   From: 2010.05.17/outbox.cif.g08.bks.cpg/sg2_33_cif.got.tgz:65412.got - 2010.06.03 11:33:40.
