data_PCOD9085877
_publ_section_title
;
Structure prediction by ZEFSAII (Michael W. Deem and Ramdas Pophale) SiO2 
 PCOD9085877
Probable space group: P -1
;
_chemical_formula_sum "Si O2"
_cell_formula_units_Z 16
_cell_length_a 15.874698
_cell_length_b 9.821308
_cell_length_c 10.024025
_cell_angle_alpha 49.528311
_cell_angle_beta 36.339379
_cell_angle_gamma 42.636921
_cell_volume 621.046949
_symmetry_space_group_name_H-M "P -1"
_symmetry_group_IT_number 2
_symmetry_cell_setting 'triclinic'
loop_
_space_group_symop_operation_xyz
x,y,z
-x,-y,-z
loop_
_atom_site_type_symbol
_atom_site_label
_atom_site_fract_x
_atom_site_fract_y
_atom_site_fract_z
Si Si1 0.374301 0.668000 0.715119
Si Si2 0.652912 0.724596 0.352293
Si Si3 0.836322 0.916095 0.430226
Si Si4 0.688393 0.247307 0.949439
Si Si5 0.086422 0.628512 0.089311
Si Si6 0.957989 0.306659 0.465544
Si Si7 0.940062 0.781144 0.893489
Si Si8 0.402938 0.199816 0.314217
O O1 0.564080 0.594833 0.502673
O O2 0.274206 0.857892 0.624524
O O3 0.345230 0.749074 0.852988
O O4 0.278962 0.538862 0.909472
O O5 0.667708 0.731393 0.489713
O O6 0.528771 0.957952 0.324212
O O7 0.823631 0.674836 0.103061
O O8 0.905336 0.889428 0.507321
O O9 0.731288 0.798370 0.614087
O O10 0.993924 0.802670 0.207223
O O11 0.786160 0.366907 0.712420
O O12 0.816095 0.018799 0.894003
O O13 0.519342 0.295921 0.064353
O O14 0.023353 0.467426 0.296793
O O15 0.023381 0.731429 0.961306
O O16 0.948974 0.274677 0.341229
#
# Coordination Sequence:
#
# PCOD9085877 Si02
#       8
#     2   2   2   2   2   2   2   2
#     4  10  19  35  64  87 101 140 193 234 263 319
#     4   8  15  32  58  84 102 135 188 231 265 314
#     4  11  19  37  59  85 106 142 192 228 270 313
#     4  10  19  37  60  86 109 138 187 232 272 319
#     4  12  22  38  56  80 114 150 187 219 269 329
#     4  12  26  35  51  86 122 145 174 228 278 326
#     4  11  21  40  59  78 111 152 183 218 278 334
#     4   8  15  31  59  84 103 133 186 236 265 312
#
# _framework density 25.762948000000002
#
# number of rings (size 3 to 8) (size 9 to 14) (size 15 to 20)
#    0.000    1.750    3.750    3.750    0.000    0.000 
#    0.000    9.375    0.000    0.000    0.000    0.000 
#    0.000    0.000    0.000    0.000    0.000    0.000 
#
# Total GULP energy -89622.109949 kJ/mol
# GULP energy per Si atom -5601.381872 kJ/mol
# Density = 2.570431 g / cm^3
# Si number density = 25.762948 Si / 1000 Ang^3
#
#
#
# Elastic Constant Matrix: (Units=GPa)
#
#
# Indices 1 2 3 4 5 6 
#
# 1 114.5301 10.3890 65.7289 -6.1645 -42.7509 -24.4618
# 2 10.3890 44.2311 10.4769 -1.9042 7.0890 -5.0496
# 3 65.7289 10.4769 127.1472 -6.5180 -37.2563 -4.0126
# 4 -6.1645 -1.9042 -6.5180 32.5955 -1.6640 -4.1997
# 5 -42.7509 7.0890 -37.2563 -1.6640 69.5240 -6.8367
# 6 -24.4618 -5.0496 -4.0126 -4.1997 -6.8367 30.8868
#
#
#
# Elastic Compliance Matrix: (Units=1/GPa)
#
#
# Indices 1 2 3 4 5 6 
#
# 1 0.021769 -0.003077 -0.006500 0.005762 0.012261 0.019391
# 2 -0.003077 0.024719 -0.002039 0.000194 -0.005485 0.000152
# 3 -0.006500 -0.002039 0.012014 0.000748 0.002342 -0.003300
# 4 0.005762 0.000194 0.000748 0.033581 0.005764 0.010534
# 5 0.012261 -0.005485 0.002342 0.005764 0.025402 0.015525
# 6 0.019391 0.000152 -0.003300 0.010534 0.015525 0.052198
#
#
# Mechanical properties :
#
#
# Convention : Reuss Voigt Hill
#
# Bulk Modulus (GPa) = 28.35238 51.01089 39.68164
# Shear Modulus (GPa) = 24.42932 39.88884 32.15908
#
# Velocity S-wave (km/s) = 3.08268 3.93912 3.53692
# Velocity P-wave (km/s) = 4.86822 6.36647 5.66708
#
# Compressibility (1/GPa) = 0.03527040
#
# Stress axis : x y z
#
# Youngs Moduli (GPa) = 45.93603 40.45470 83.23904
#
# Poissons Ratio (x) = 0.12448 0.54106
# Poissons Ratio (y) = 0.14134 0.16971
# Poissons Ratio (z) = 0.29859 0.08248
#
# Static dielectric constant tensor:
#      x y z
#    x 1.996480 0.029520 -0.089110 
#    y 0.029520 2.077450 -0.082630 
#    z -0.089110 -0.082630 2.041210 
# 
# From -- ./inp_files/177689.got.cif
#   From: 2010.05.17/outbox.cif.g08.bks.cpg/sg2_89_cif.got.tgz:177689.got - 2010.06.03 11:33:40.
