data_PCOD9085007
_publ_section_title
;
Structure prediction by ZEFSAII (Michael W. Deem and Ramdas Pophale) SiO2 
 PCOD9085007
Probable space group: P -1
;
_chemical_formula_sum "Si O2"
_cell_formula_units_Z 14
_cell_length_a 15.395073
_cell_length_b 6.624599
_cell_length_c 10.434733
_cell_angle_alpha 66.299573
_cell_angle_beta 146.587873
_cell_angle_gamma 112.630495
_cell_volume 534.017500
_symmetry_space_group_name_H-M "P -1"
_symmetry_group_IT_number 2
_symmetry_cell_setting 'triclinic'
loop_
_space_group_symop_operation_xyz
x,y,z
-x,-y,-z
loop_
_atom_site_type_symbol
_atom_site_label
_atom_site_fract_x
_atom_site_fract_y
_atom_site_fract_z
Si Si1 0.845028 0.601835 0.131997
Si Si2 0.842115 0.177075 0.051383
Si Si3 0.178993 0.111132 0.209401
Si Si4 0.533270 0.392027 0.903138
Si Si5 0.360685 0.541252 0.421481
Si Si6 0.644451 0.955047 0.070901
Si Si7 0.862294 0.076950 0.553191
O O1 0.862993 0.391174 0.115451
O O2 0.017843 0.700625 0.366473
O O3 0.782340 0.789627 0.910992
O O4 0.710890 0.508773 0.090194
O O5 0.755122 0.978882 0.078709
O O6 0.726981 0.245484 0.779211
O O7 0.012313 0.108421 0.243492
O O8 0.228549 0.337011 0.290587
O O9 0.233420 0.936399 0.426755
O O10 0.000000 0.000000 0.000000
O O11 0.428792 0.536572 0.649116
O O12 0.456420 0.277095 0.965143
O O13 0.542249 0.165646 0.885768
O O14 0.500000 0.500000 0.500000
O O15 0.754728 0.018059 0.313874
#
# Coordination Sequence:
#
# PCOD9085007 Si02
#       7
#     2   2   2   2   2   2   2
#     4   9  20  37  58  82 115 145 191 234 273 336
#     4  10  22  36  58  86 114 147 189 231 280 334
#     4   9  18  32  55  83 111 141 185 230 271 329
#     4  10  19  35  58  84 110 152 189 229 280 335
#     4  11  17  35  59  79 111 151 186 231 281 325
#     4  10  20  35  58  85 114 148 193 226 279 341
#     4  11  21  36  58  85 116 150 182 236 283 327
#
# _framework density 26.216370000000001
#
# number of rings (size 3 to 8) (size 9 to 14) (size 15 to 20)
#    0.000    2.000    5.714    0.429    0.000    4.571 
#    0.000    1.429    0.000    3.429    0.000    0.000 
#    0.000    0.000    0.000    0.000    0.000    0.000 
#
# Total GULP energy -78151.850768 kJ/mol
# GULP energy per Si atom -5582.275055 kJ/mol
# Density = 2.615670 g / cm^3
# Si number density = 26.216370 Si / 1000 Ang^3
#
#
#
# Elastic Constant Matrix: (Units=GPa)
#
#
# Indices 1 2 3 4 5 6 
#
# 1 117.1503 47.0790 23.3794 -11.4973 -3.5601 33.0637
# 2 47.0790 197.3219 42.9040 13.4748 8.4028 43.8064
# 3 23.3794 42.9040 136.9890 -9.4954 -12.4963 8.0864
# 4 -11.4973 13.4748 -9.4954 34.5682 1.0622 3.7695
# 5 -3.5601 8.4028 -12.4963 1.0622 29.2199 -11.6715
# 6 33.0637 43.8064 8.0864 3.7695 -11.6715 60.2736
#
#
#
# Elastic Compliance Matrix: (Units=1/GPa)
#
#
# Indices 1 2 3 4 5 6 
#
# 1 0.011315 -0.001607 -0.000857 0.004768 -0.000851 -0.005387
# 2 -0.001607 0.007611 -0.002539 -0.003472 -0.005396 -0.005137
# 3 -0.000857 -0.002539 0.008778 0.002748 0.005057 0.001945
# 4 0.004768 -0.003472 0.002748 0.032866 0.000602 -0.002399
# 5 -0.000851 -0.005396 0.005057 0.000602 0.042572 0.011916
# 6 -0.005387 -0.005137 0.001945 -0.002399 0.011916 0.025476
#
#
# Mechanical properties :
#
#
# Convention : Reuss Voigt Hill
#
# Bulk Modulus (GPa) = 56.50146 75.35400 65.92773
# Shear Modulus (GPa) = 34.59642 47.35227 40.97434
#
# Velocity S-wave (km/s) = 3.63664 4.25456 3.95768
# Velocity P-wave (km/s) = 6.26357 7.27603 6.78870
#
# Compressibility (1/GPa) = 0.01769866
#
# Stress axis : x y z
#
# Youngs Moduli (GPa) = 88.37552 131.39507 113.91674
#
# Poissons Ratio (x) = 0.21111 0.09764
# Poissons Ratio (y) = 0.14199 0.28924
# Poissons Ratio (z) = 0.07575 0.33362
#
# Static dielectric constant tensor:
#      x y z
#    x 2.136640 -0.016890 -0.020650 
#    y -0.016890 2.087720 -0.060370 
#    z -0.020650 -0.060370 2.066860 
# 
# From -- ./inp_files/205375.got.cif
#   From: 2010.05.17/outbox.cif.g08.bks.cpg/sg2_103_cif.got.tgz:205375.got - 2010.06.03 11:33:40.
