data_PCOD9085968
_publ_section_title
;
Structure prediction by ZEFSAII (Michael W. Deem and Ramdas Pophale) SiO2 
 PCOD9085968
Probable space group: P -1
;
_chemical_formula_sum "Si O2"
_cell_formula_units_Z 16
_cell_length_a 16.747282
_cell_length_b 6.790292
_cell_length_c 8.486801
_cell_angle_alpha 53.238034
_cell_angle_beta 52.447088
_cell_angle_gamma 58.169650
_cell_volume 592.532668
_symmetry_space_group_name_H-M "P -1"
_symmetry_group_IT_number 2
_symmetry_cell_setting 'triclinic'
loop_
_space_group_symop_operation_xyz
x,y,z
-x,-y,-z
loop_
_atom_site_type_symbol
_atom_site_label
_atom_site_fract_x
_atom_site_fract_y
_atom_site_fract_z
Si Si1 0.077031 0.444109 0.100383
Si Si2 0.810447 0.291810 0.709240
Si Si3 0.647409 0.252573 0.159133
Si Si4 0.389399 0.163562 0.995282
Si Si5 0.997161 0.057724 0.192890
Si Si6 0.764462 0.680960 0.331115
Si Si7 0.442997 0.328202 0.541490
Si Si8 0.815289 0.900073 0.612519
O O1 0.163120 0.380868 0.883821
O O2 0.014479 0.737982 0.031103
O O3 0.004126 0.258652 0.231648
O O4 0.130675 0.363918 0.239676
O O5 0.810353 0.557827 0.500880
O O6 0.901225 0.164971 0.784140
O O7 0.824957 0.097527 0.642437
O O8 0.697688 0.291320 0.913607
O O9 0.530647 0.238144 0.346059
O O10 0.721006 0.984905 0.259836
O O11 0.647633 0.528458 0.099317
O O12 0.306489 0.080858 0.248166
O O13 0.406080 0.135520 0.799159
O O14 0.500000 0.000000 0.000000
O O15 0.891880 0.967516 0.361760
O O16 0.666248 0.561774 0.468063
O O17 0.500000 0.500000 0.500000
#
# Coordination Sequence:
#
# PCOD9085968 Si02
#       8
#     2   2   2   2   2   2   2   2
#     4  10  19  35  65  97 133 167 211 271 324 384
#     4  11  23  38  67 104 128 166 217 273 331 387
#     4  11  25  44  64  93 138 168 220 274 338 385
#     4  11  26  46  68  93 128 180 226 272 324 401
#     4  10  21  36  63 102 132 169 215 272 319 392
#     4  12  22  40  67  98 136 168 215 279 329 386
#     4  10  24  45  64  93 130 176 222 265 328 396
#     4  11  21  40  65  99 129 172 225 260 327 390
#
# _framework density 27.00273
#
# number of rings (size 3 to 8) (size 9 to 14) (size 15 to 20)
#    0.000    1.250    5.000    1.875    7.000    0.500 
#    0.000    0.625    0.000    1.500    0.000    0.000 
#    0.000    0.000    0.000    0.000    0.000    0.000 
#
# Total GULP energy -89287.893771 kJ/mol
# GULP energy per Si atom -5580.493361 kJ/mol
# Density = 2.694127 g / cm^3
# Si number density = 27.002730 Si / 1000 Ang^3
#
#
#
# Elastic Constant Matrix: (Units=GPa)
#
#
# Indices 1 2 3 4 5 6 
#
# 1 79.8719 36.2524 35.2221 -5.4353 -19.0102 -19.5100
# 2 36.2524 140.0085 60.3144 -15.8961 -6.6808 8.6882
# 3 35.2221 60.3144 190.8620 17.1630 -29.3285 -1.9636
# 4 -5.4353 -15.8961 17.1630 58.6352 -11.0587 5.1285
# 5 -19.0102 -6.6808 -29.3285 -11.0587 54.1442 -8.3475
# 6 -19.5100 8.6882 -1.9636 5.1285 -8.3475 34.8447
#
#
#
# Elastic Compliance Matrix: (Units=1/GPa)
#
#
# Indices 1 2 3 4 5 6 
#
# 1 0.021331 -0.005621 -0.000715 0.001017 0.008976 0.015305
# 2 -0.005621 0.010640 -0.003127 0.003382 -0.002764 -0.007137
# 3 -0.000715 -0.003127 0.007065 -0.002589 0.002949 0.001865
# 4 0.001017 0.003382 -0.002589 0.019612 0.002978 -0.002593
# 5 0.008976 -0.002764 0.002949 0.002978 0.025257 0.011493
# 6 0.015305 -0.007137 0.001865 -0.002593 0.011493 0.042288
#
#
# Mechanical properties :
#
#
# Convention : Reuss Voigt Hill
#
# Bulk Modulus (GPa) = 49.72963 74.92449 62.32706
# Shear Modulus (GPa) = 32.93341 48.12172 40.52756
#
# Velocity S-wave (km/s) = 3.49611 4.22608 3.87831
# Velocity P-wave (km/s) = 5.89522 7.18472 6.57167
#
# Compressibility (1/GPa) = 0.02010874
#
# Stress axis : x y z
#
# Youngs Moduli (GPa) = 46.88082 93.98457 141.54991
#
# Poissons Ratio (x) = 0.52831 0.10117
# Poissons Ratio (y) = 0.26353 0.44267
# Poissons Ratio (z) = 0.03351 0.29392
#
# Static dielectric constant tensor:
#      x y z
#    x 2.711280 0.976750 0.186700 
#    y 0.976750 3.903540 0.284530 
#    z 0.186700 0.284530 2.244790 
# 
# From -- ./inp_files/469755.got.cif
#   From: 2010.05.17/outbox.cif.g08.bks.cpg/sg2_235_cif.got.tgz:469755.got - 2010.06.03 11:33:40.
