data_PCOD9085837
_publ_section_title
;
Structure prediction by ZEFSAII (Michael W. Deem and Ramdas Pophale) SiO2 
 PCOD9085837
Probable space group: P -1
;
_chemical_formula_sum "Si O2"
_cell_formula_units_Z 16
_cell_length_a 8.201696
_cell_length_b 12.581445
_cell_length_c 9.617084
_cell_angle_alpha 77.129679
_cell_angle_beta 80.163351
_cell_angle_gamma 39.914230
_cell_volume 620.752993
_symmetry_space_group_name_H-M "P -1"
_symmetry_group_IT_number 2
_symmetry_cell_setting 'triclinic'
loop_
_space_group_symop_operation_xyz
x,y,z
-x,-y,-z
loop_
_atom_site_type_symbol
_atom_site_label
_atom_site_fract_x
_atom_site_fract_y
_atom_site_fract_z
Si Si1 0.735428 0.107936 0.420117
Si Si2 0.632319 0.078252 0.879587
Si Si3 0.877930 0.313142 0.008341
Si Si4 0.632323 0.289426 0.620416
Si Si5 0.875622 0.687593 0.255043
Si Si6 0.122073 0.191064 0.508349
Si Si7 0.264570 0.843359 0.920122
Si Si8 0.875616 0.436780 0.244963
O O1 0.555156 0.277190 0.485228
O O2 0.746647 0.126682 0.249997
O O3 0.680175 0.007409 0.468302
O O4 0.000000 0.000000 0.500000
O O5 0.687600 0.156198 0.750000
O O6 0.391276 0.143897 0.825118
O O7 0.868788 0.880030 0.920700
O O8 0.555155 0.167659 0.014772
O O9 0.680182 0.312418 0.031684
O O10 0.855387 0.419548 0.092248
O O11 0.916979 0.342626 0.842734
O O12 0.391284 0.464827 0.674883
O O13 0.868796 0.251173 0.579311
O O14 0.855389 0.725064 0.407754
O O15 0.913477 0.543257 0.250007
O O16 0.083011 0.259596 0.342740
O O17 0.000000 0.000000 0.000000
#
# Coordination Sequence:
#
# PCOD9085837 Si02
#       8
#     2   2   2   2   2   2   2   2
#     4  10  19  35  63  94 115 142 190 248 296 341
#     4  10  21  40  62  90 118 147 194 250 293 344
#     4  11  20  39  63  85 114 156 193 238 296 347
#     4  10  21  40  62  90 118 147 194 250 293 344
#     4  11  24  40  57  85 122 159 196 238 286 348
#     4  11  20  39  63  85 114 156 193 238 296 347
#     4  10  19  35  63  94 115 142 190 248 296 341
#     4  11  24  40  57  85 122 159 196 238 286 348
#
# _framework density 25.775147
#
# number of rings (size 3 to 8) (size 9 to 14) (size 15 to 20)
#    0.000    1.500    0.000    9.000    0.000    0.000 
#    0.000   20.000    0.000    0.000    0.000    0.000 
#    0.000    0.000    0.000    0.000    0.000    0.000 
#
# Total GULP energy -89534.576484 kJ/mol
# GULP energy per Si atom -5595.911030 kJ/mol
# Density = 2.571648 g / cm^3
# Si number density = 25.775147 Si / 1000 Ang^3
#
#
#
# Elastic Constant Matrix: (Units=GPa)
#
#
# Indices 1 2 3 4 5 6 
#
# 1 62.4136 11.5454 16.0083 -0.8372 10.7966 26.6667
# 2 11.5454 75.1979 17.2050 11.3991 -0.0861 26.6457
# 3 16.0083 17.2050 151.1431 18.1116 21.0319 7.0466
# 4 -0.8372 11.3991 18.1116 32.9648 17.8079 8.8317
# 5 10.7966 -0.0861 21.0319 17.8079 29.6735 9.0248
# 6 26.6667 26.6457 7.0466 8.8317 9.0248 29.6826
#
#
#
# Elastic Compliance Matrix: (Units=1/GPa)
#
#
# Indices 1 2 3 4 5 6 
#
# 1 0.032503 0.006540 -0.003200 0.013674 -0.006691 -0.036347
# 2 0.006540 0.023929 -0.003096 -0.004994 0.011598 -0.028662
# 3 -0.003200 -0.003096 0.007995 -0.002342 -0.004915 0.005947
# 4 0.013674 -0.004994 -0.002342 0.054638 -0.031924 -0.013797
# 5 -0.006691 0.011598 -0.004915 -0.031924 0.062703 -0.012799
# 6 -0.036347 -0.028662 0.005947 -0.013797 -0.012799 0.098658
#
#
# Mechanical properties :
#
#
# Convention : Reuss Voigt Hill
#
# Bulk Modulus (GPa) = 15.40452 42.03023 28.71738
# Shear Modulus (GPa) = 16.57958 34.73056 25.65507
#
# Velocity S-wave (km/s) = 2.53897 3.67474 3.15833
# Velocity P-wave (km/s) = 3.81898 5.86062 4.94628
#
# Compressibility (1/GPa) = 0.06491601
#
# Stress axis : x y z
#
# Youngs Moduli (GPa) = 30.76599 41.79063 125.08128
#
# Poissons Ratio (x) = -0.27333 0.40027
# Poissons Ratio (y) = -0.20122 0.38723
# Poissons Ratio (z) = 0.09845 0.12938
#
# Static dielectric constant tensor:
#      x y z
#    x 2.165010 -0.095390 -0.011990 
#    y -0.095390 2.138720 0.000960 
#    z -0.011990 0.000960 1.969700 
# 
# From -- ./inp_files/186645.got.cif
#   From: 2010.05.17/outbox.cif.g08.bks.cpg/sg2_94_cif.got.tgz:186645.got - 2010.06.03 11:33:40.
