data_PCOD9085107
_publ_section_title
;
Structure prediction by ZEFSAII (Michael W. Deem and Ramdas Pophale) SiO2 
 PCOD9085107
Probable space group: P -1
;
_chemical_formula_sum "Si O2"
_cell_formula_units_Z 16
_cell_length_a 11.797070
_cell_length_b 7.088719
_cell_length_c 15.454261
_cell_angle_alpha 129.715936
_cell_angle_beta 79.504039
_cell_angle_gamma 67.652635
_cell_volume 737.261306
_symmetry_space_group_name_H-M "P -1"
_symmetry_group_IT_number 2
_symmetry_cell_setting 'triclinic'
loop_
_space_group_symop_operation_xyz
x,y,z
-x,-y,-z
loop_
_atom_site_type_symbol
_atom_site_label
_atom_site_fract_x
_atom_site_fract_y
_atom_site_fract_z
Si Si1 0.223472 0.491963 0.356142
Si Si2 0.112694 0.100286 0.425734
Si Si3 0.605431 0.447444 0.097852
Si Si4 0.158003 0.311814 0.645463
Si Si5 0.689413 0.420152 0.882491
Si Si6 0.424805 0.565615 0.437420
Si Si7 0.193232 0.260341 0.130358
Si Si8 0.393418 0.339866 0.666826
O O1 0.358882 0.395202 0.369055
O O2 0.264290 0.221290 0.204252
O O3 0.069988 0.650139 0.476431
O O4 0.172990 0.785065 0.383702
O O5 0.161773 0.257869 0.525717
O O6 0.183347 0.950497 0.278738
O O7 0.460444 0.469613 0.114286
O O8 0.576772 0.694889 0.245487
O O9 0.652438 0.471147 0.003519
O O10 0.743945 0.088130 0.008830
O O11 0.223646 0.485282 0.711477
O O12 0.988466 0.491576 0.755698
O O13 0.276131 0.950932 0.564310
O O14 0.748356 0.604144 0.899196
O O15 0.500000 0.500000 0.500000
O O16 0.549014 0.482119 0.325802
O O17 0.500000 0.000000 0.500000
#
# Coordination Sequence:
#
# PCOD9085107 Si02
#       8
#     2   2   2   2   2   2   2   2
#     4   8  15  31  58  87 114 151 192 241 291 343
#     4   8  14  32  62  83 112 151 194 239 292 339
#     4  11  23  38  59  90 119 156 201 241 303 361
#     4   9  19  38  61  83 118 161 196 241 299 343
#     4  10  20  37  60  90 119 154 193 252 295 349
#     4  10  19  35  58  92 114 152 201 244 292 351
#     4  10  20  40  61  87 121 158 196 245 302 351
#     4  10  21  41  59  79 118 156 192 249 296 348
#
# _framework density 21.70194
#
# number of rings (size 3 to 8) (size 9 to 14) (size 15 to 20)
#    0.000    2.500    0.000    5.625    0.000    0.500 
#   20.250    1.875    0.000    0.000    0.000    0.000 
#    0.000    0.000    0.000    0.000    0.000    0.000 
#
# Total GULP energy -89344.189113 kJ/mol
# GULP energy per Si atom -5584.011820 kJ/mol
# Density = 2.165254 g / cm^3
# Si number density = 21.701940 Si / 1000 Ang^3
#
#
#
# Elastic Constant Matrix: (Units=GPa)
#
#
# Indices 1 2 3 4 5 6 
#
# 1 133.8174 29.9638 46.9342 -19.8353 -5.6884 -23.1303
# 2 29.9638 60.3208 32.6503 -14.9450 4.3661 -5.4938
# 3 46.9342 32.6503 115.9815 -22.6606 -1.1079 -6.2760
# 4 -19.8353 -14.9450 -22.6606 30.3372 -0.8701 7.3639
# 5 -5.6884 4.3661 -1.1079 -0.8701 27.6148 -11.1738
# 6 -23.1303 -5.4938 -6.2760 7.3639 -11.1738 17.4967
#
#
#
# Elastic Compliance Matrix: (Units=1/GPa)
#
#
# Indices 1 2 3 4 5 6 
#
# 1 0.014582 -0.004335 -0.003332 -0.001038 0.014111 0.026169
# 2 -0.004335 0.022288 -0.003624 0.007122 -0.007502 -0.007820
# 3 -0.003332 -0.003624 0.011902 0.006019 -0.001331 -0.004657
# 4 -0.001038 0.007122 0.006019 0.045222 -0.008295 -0.021308
# 5 0.014111 -0.007502 -0.001331 -0.008295 0.064463 0.060481
# 6 0.026169 -0.007820 -0.004657 -0.021308 0.060481 0.135216
#
#
# Mechanical properties :
#
#
# Convention : Reuss Voigt Hill
#
# Bulk Modulus (GPa) = 38.18255 58.80182 48.49218
# Shear Modulus (GPa) = 15.38537 28.46115 21.92326
#
# Velocity S-wave (km/s) = 2.66548 3.62533 3.18181
# Velocity P-wave (km/s) = 5.20628 6.68416 5.99097
#
# Compressibility (1/GPa) = 0.02618998
#
# Stress axis : x y z
#
# Youngs Moduli (GPa) = 68.57982 44.86747 84.02043
#
# Poissons Ratio (x) = 0.19449 0.27999
# Poissons Ratio (y) = 0.29727 0.30445
# Poissons Ratio (z) = 0.22854 0.16258
#
# Static dielectric constant tensor:
#      x y z
#    x 1.836810 0.042480 0.020300 
#    y 0.042480 1.840470 0.017040 
#    z 0.020300 0.017040 1.829660 
# 
# From -- ./inp_files/514695.got.cif
#   From: 2010.05.17/outbox.cif.g08.bks.cpg/sg2_258_cif.got.tgz:514695.got - 2010.06.03 11:33:40.
