data_PCOD9085807
_publ_section_title
;
Structure prediction by ZEFSAII (Michael W. Deem and Ramdas Pophale) SiO2 
 PCOD9085807
Probable space group: P -1
;
_chemical_formula_sum "Si O2"
_cell_formula_units_Z 14
_cell_length_a 15.358063
_cell_length_b 8.908095
_cell_length_c 7.922252
_cell_angle_alpha 101.314275
_cell_angle_beta 67.210446
_cell_angle_gamma 143.301825
_cell_volume 584.134317
_symmetry_space_group_name_H-M "P -1"
_symmetry_group_IT_number 2
_symmetry_cell_setting 'triclinic'
loop_
_space_group_symop_operation_xyz
x,y,z
-x,-y,-z
loop_
_atom_site_type_symbol
_atom_site_label
_atom_site_fract_x
_atom_site_fract_y
_atom_site_fract_z
Si Si1 0.757777 0.586563 0.403485
Si Si2 0.331222 0.340759 0.024063
Si Si3 0.232399 0.915324 0.863525
Si Si4 0.504746 0.762194 0.754147
Si Si5 0.457265 0.869838 0.320149
Si Si6 0.961627 0.569085 0.262938
Si Si7 0.181294 0.033271 0.402619
O O1 0.602726 0.409472 0.367430
O O2 0.691067 0.430386 0.595534
O O3 0.864703 0.585802 0.257782
O O4 0.841825 0.857270 0.428128
O O5 0.210754 0.156265 0.226313
O O6 0.500000 0.500000 0.000000
O O7 0.381042 0.565234 0.954171
O O8 0.271808 0.145843 0.879775
O O9 0.153715 0.727478 0.721459
O O10 0.393601 0.039528 0.816072
O O11 0.111120 0.729961 0.066959
O O12 0.656765 0.849317 0.660444
O O13 0.561945 0.011142 0.760080
O O14 0.500000 0.000000 0.500000
O O15 0.035580 0.729174 0.415262
#
# Coordination Sequence:
#
# PCOD9085807 Si02
#       7
#     2   2   2   2   2   2   2
#     4  11  21  40  66  89 120 159 206 251 298 355
#     4   9  19  37  60  89 118 156 199 246 297 350
#     4  10  19  38  63  83 121 164 200 237 304 363
#     4  10  20  37  63  92 118 156 209 249 297 358
#     4  10  19  35  63  90 115 151 207 249 289 350
#     4  10  21  38  63  85 122 167 196 240 312 360
#     4  10  21  38  60  90 125 156 198 252 305 354
#
# _framework density 23.967092000000001
#
# number of rings (size 3 to 8) (size 9 to 14) (size 15 to 20)
#    0.000    2.000    2.857    2.571    0.000    1.143 
#    0.000   15.000    3.143    0.000    0.000    0.000 
#    0.000    0.000    0.000    0.000    0.000    0.000 
#
# Total GULP energy -78172.799088 kJ/mol
# GULP energy per Si atom -5583.771363 kJ/mol
# Density = 2.391254 g / cm^3
# Si number density = 23.967092 Si / 1000 Ang^3
#
#
#
# Elastic Constant Matrix: (Units=GPa)
#
#
# Indices 1 2 3 4 5 6 
#
# 1 74.2016 6.0368 31.3223 -4.4359 -6.5323 1.7159
# 2 6.0368 111.0255 14.9711 31.1014 5.4651 4.8056
# 3 31.3223 14.9711 40.6944 -3.3821 -8.5375 -5.7298
# 4 -4.4359 31.1014 -3.3821 43.5217 0.2869 0.3774
# 5 -6.5323 5.4651 -8.5375 0.2869 37.2894 -9.8535
# 6 1.7159 4.8056 -5.7298 0.3774 -9.8535 30.7276
#
#
#
# Elastic Compliance Matrix: (Units=1/GPa)
#
#
# Indices 1 2 3 4 5 6 
#
# 1 0.020809 0.001759 -0.017924 -0.000468 -0.002157 -0.005465
# 2 0.001759 0.013398 -0.008925 -0.010009 -0.005035 -0.005350
# 3 -0.017924 -0.008925 0.047178 0.008000 0.012936 0.015244
# 4 -0.000468 -0.010009 0.008000 0.030642 0.004038 0.004002
# 5 -0.002157 -0.005035 0.012936 0.004038 0.033840 0.014122
# 6 -0.005465 -0.005350 0.015244 0.004002 0.014122 0.041008
#
#
# Mechanical properties :
#
#
# Convention : Reuss Voigt Hill
#
# Bulk Modulus (GPa) = 32.04582 36.73130 34.38856
# Shear Modulus (GPa) = 20.20562 33.88048 27.04305
#
# Velocity S-wave (km/s) = 2.90669 3.76390 3.36272
# Velocity P-wave (km/s) = 4.96638 5.85220 5.42739
#
# Compressibility (1/GPa) = 0.03120531
#
# Stress axis : x y z
#
# Youngs Moduli (GPa) = 48.05719 74.63833 21.19620
#
# Poissons Ratio (x) = -0.13132 0.37993
# Poissons Ratio (y) = -0.08455 0.18917
# Poissons Ratio (z) = 0.86140 0.66612
#
# Static dielectric constant tensor:
#      x y z
#    x 1.905550 -0.023760 0.032000 
#    y -0.023760 1.966980 0.058690 
#    z 0.032000 0.058690 2.031950 
# 
# From -- ./inp_files/177733.got.cif
#   From: 2010.05.17/outbox.cif.g08.bks.cpg/sg2_89_cif.got.tgz:177733.got - 2010.06.03 11:33:40.
