data_PCOD9085232
_publ_section_title
;
Structure prediction by ZEFSAII (Michael W. Deem and Ramdas Pophale) SiO2 
 PCOD9085232
Probable space group: P -1
;
_chemical_formula_sum "Si O2"
_cell_formula_units_Z 14
_cell_length_a 11.154345
_cell_length_b 11.183631
_cell_length_c 12.147507
_cell_angle_alpha 142.777378
_cell_angle_beta 108.808588
_cell_angle_gamma 100.460778
_cell_volume 558.390373
_symmetry_space_group_name_H-M "P -1"
_symmetry_group_IT_number 2
_symmetry_cell_setting 'triclinic'
loop_
_space_group_symop_operation_xyz
x,y,z
-x,-y,-z
loop_
_atom_site_type_symbol
_atom_site_label
_atom_site_fract_x
_atom_site_fract_y
_atom_site_fract_z
Si Si1 0.125463 0.372858 0.384275
Si Si2 0.280750 0.601349 0.213872
Si Si3 0.692416 0.997498 0.046685
Si Si4 0.543387 0.373218 0.083593
Si Si5 0.617788 0.016484 0.802776
Si Si6 0.625606 0.859244 0.367749
Si Si7 0.056852 0.890780 0.098450
O O1 0.910035 0.169944 0.220208
O O2 0.267809 0.726689 0.705940
O O3 0.089774 0.297927 0.189660
O O4 0.178705 0.234701 0.360355
O O5 0.402289 0.650065 0.186536
O O6 0.438197 0.784829 0.495721
O O7 0.250566 0.796612 0.322060
O O8 0.082334 0.269139 0.954445
O O9 0.589846 0.871840 0.805018
O O10 0.577175 0.758548 0.935997
O O11 0.673239 0.720033 0.347821
O O12 0.645560 0.281255 0.034418
O O13 0.385229 0.188318 0.800303
O O14 0.806152 0.137405 0.892866
#
# Coordination Sequence:
#
# PCOD9085232 Si02
#       7
#     2   2   2   2   2   2   2
#     4   9  19  34  55  85 118 154 189 224 289 359
#     4  10  20  40  61  83 116 153 190 241 284 331
#     4  10  19  35  59  87 119 149 184 239 293 340
#     4  10  19  36  56  83 117 152 191 238 281 335
#     4  10  22  36  59  92 116 145 192 234 291 355
#     4   9  20  36  59  82 110 156 202 228 276 342
#     4  10  20  37  57  83 120 152 186 237 287 340
#
# _framework density 25.072061999999999
#
# number of rings (size 3 to 8) (size 9 to 14) (size 15 to 20)
#    0.000    2.286    0.000    3.000    0.000    1.143 
#    0.000   22.143    0.000    3.429    0.000    0.000 
#    0.000    0.000    0.000    0.000    0.000    0.000 
#
# Total GULP energy -78422.710302 kJ/mol
# GULP energy per Si atom -5601.622164 kJ/mol
# Density = 2.501500 g / cm^3
# Si number density = 25.072062 Si / 1000 Ang^3
#
#
#
# Elastic Constant Matrix: (Units=GPa)
#
#
# Indices 1 2 3 4 5 6 
#
# 1 73.4142 21.4037 9.9180 11.9468 2.1611 -7.3155
# 2 21.4037 169.5149 33.2216 -4.2562 12.3603 -0.8009
# 3 9.9180 33.2216 64.0468 3.3138 6.1879 -1.2840
# 4 11.9468 -4.2562 3.3138 33.4584 -0.9614 -3.4719
# 5 2.1611 12.3603 6.1879 -0.9614 34.2500 5.5674
# 6 -7.3155 -0.8009 -1.2840 -3.4719 5.5674 49.0543
#
#
#
# Elastic Compliance Matrix: (Units=1/GPa)
#
#
# Indices 1 2 3 4 5 6 
#
# 1 0.015389 -0.001819 -0.001063 -0.005439 -0.000587 0.001919
# 2 -0.001819 0.006938 -0.003238 0.001811 -0.001767 0.000086
# 3 -0.001063 -0.003238 0.017760 -0.001814 -0.002083 0.000362
# 4 -0.005439 0.001811 -0.001814 0.032404 0.000702 0.001385
# 5 -0.000587 -0.001767 -0.002083 0.000702 0.030857 -0.003623
# 6 0.001919 0.000086 0.000362 0.001385 -0.003623 0.021192
#
#
# Mechanical properties :
#
#
# Convention : Reuss Voigt Hill
#
# Bulk Modulus (GPa) = 35.91147 48.45142 42.18145
# Shear Modulus (GPa) = 34.23171 39.51471 36.87321
#
# Velocity S-wave (km/s) = 3.69905 3.97425 3.83912
# Velocity P-wave (km/s) = 5.70950 6.35817 6.04255
#
# Compressibility (1/GPa) = 0.02784625
#
# Stress axis : x y z
#
# Youngs Moduli (GPa) = 64.98168 144.12686 56.30544
#
# Poissons Ratio (x) = 0.26224 0.05984
# Poissons Ratio (y) = 0.11823 0.18234
# Poissons Ratio (z) = 0.06906 0.46675
#
# Static dielectric constant tensor:
#      x y z
#    x 1.987620 -0.045670 -0.018080 
#    y -0.045670 1.981630 -0.044640 
#    z -0.018080 -0.044640 1.988300 
# 
# From -- ./inp_files/292482.got.cif
#   From: 2010.05.17/outbox.cif.g08.bks.cpg/sg2_147_cif.got.tgz:292482.got - 2010.06.03 11:33:40.
