data_PCOD9085462
_publ_section_title
;
Structure prediction by ZEFSAII (Michael W. Deem and Ramdas Pophale) SiO2 
 PCOD9085462
Probable space group: P -1
;
_chemical_formula_sum "Si O2"
_cell_formula_units_Z 16
_cell_length_a 9.354571
_cell_length_b 11.224776
_cell_length_c 12.519754
_cell_angle_alpha 144.212413
_cell_angle_beta 108.095178
_cell_angle_gamma 91.579178
_cell_volume 631.634121
_symmetry_space_group_name_H-M "P -1"
_symmetry_group_IT_number 2
_symmetry_cell_setting 'triclinic'
loop_
_space_group_symop_operation_xyz
x,y,z
-x,-y,-z
loop_
_atom_site_type_symbol
_atom_site_label
_atom_site_fract_x
_atom_site_fract_y
_atom_site_fract_z
Si Si1 0.004727 0.135450 0.337493
Si Si2 0.820919 0.848704 0.281864
Si Si3 0.738046 0.479614 0.153585
Si Si4 0.694161 0.116764 0.586466
Si Si5 0.347090 0.593004 0.374163
Si Si6 0.257644 0.727570 0.667349
Si Si7 0.487387 0.279517 0.117884
Si Si8 0.253415 0.970878 0.233490
O O1 0.911716 0.251561 0.335423
O O2 0.121867 0.320409 0.591123
O O3 0.862608 0.917911 0.218990
O O4 0.118032 0.056410 0.237633
O O5 0.751578 0.585675 0.116536
O O6 0.704183 0.949509 0.377296
O O7 0.000000 0.000000 0.500000
O O8 0.554067 0.407573 0.113116
O O9 0.761083 0.253417 0.992208
O O10 0.742275 0.357148 0.711639
O O11 0.790995 0.110174 0.710855
O O12 0.500000 0.000000 0.500000
O O13 0.249855 0.600907 0.462909
O O14 0.369478 0.366731 0.210717
O O15 0.548961 0.812664 0.578047
O O16 0.338993 0.640453 0.713018
O O17 0.401755 0.002662 0.883865
#
# Coordination Sequence:
#
# PCOD9085462 Si02
#       8
#     2   2   2   2   2   2   2   2
#     4  11  23  43  63  95 133 164 210 267 314 377
#     4  10  19  38  60  87 131 164 196 261 307 369
#     4  11  22  40  67  90 133 173 204 253 327 377
#     4  10  19  35  60  92 127 163 206 248 308 384
#     4  11  21  42  66  93 127 170 211 263 319 373
#     4  11  25  43  70  94 124 163 222 271 311 372
#     4  11  24  45  67  94 124 168 219 266 316 375
#     4  11  22  39  64  95 132 171 205 257 318 385
#
# _framework density 25.331121
#
# number of rings (size 3 to 8) (size 9 to 14) (size 15 to 20)
#    0.000    1.250    6.250    1.125    0.000    3.000 
#    0.000    3.125    0.000    0.000    0.000    0.000 
#    0.000    0.000    0.000    0.000    0.000    0.000 
#
# Total GULP energy -89573.207056 kJ/mol
# GULP energy per Si atom -5598.325441 kJ/mol
# Density = 2.527347 g / cm^3
# Si number density = 25.331121 Si / 1000 Ang^3
#
#
#
# Elastic Constant Matrix: (Units=GPa)
#
#
# Indices 1 2 3 4 5 6 
#
# 1 105.3926 6.0141 14.1619 8.2052 -31.0038 -23.9855
# 2 6.0141 81.2324 2.4262 15.8228 0.9667 -12.9768
# 3 14.1619 2.4262 71.3883 14.4816 -23.5000 -1.9000
# 4 8.2052 15.8228 14.4816 26.0695 -2.7265 2.5607
# 5 -31.0038 0.9667 -23.5000 -2.7265 36.0636 12.2915
# 6 -23.9855 -12.9768 -1.9000 2.5607 12.2915 37.8432
#
#
#
# Elastic Compliance Matrix: (Units=1/GPa)
#
#
# Indices 1 2 3 4 5 6 
#
# 1 0.014265 0.000837 0.002085 -0.005611 0.011055 0.006222
# 2 0.000837 0.015651 0.000979 -0.011305 -0.002478 0.007517
# 3 0.002085 0.000979 0.020656 -0.011034 0.014864 -0.001387
# 4 -0.005611 -0.011305 -0.011034 0.053690 -0.004151 -0.010272
# 5 0.011055 -0.002478 0.014864 -0.004151 0.049728 -0.008967
# 6 0.006222 0.007517 -0.001387 -0.010272 -0.008967 0.036484
#
#
# Mechanical properties :
#
#
# Convention : Reuss Voigt Hill
#
# Bulk Modulus (GPa) = 17.13084 33.69085 25.41084
# Shear Modulus (GPa) = 24.73649 35.68932 30.21290
#
# Velocity S-wave (km/s) = 3.12833 3.75762 3.45732
# Velocity P-wave (km/s) = 4.45265 5.67057 5.09811
#
# Compressibility (1/GPa) = 0.05837426
#
# Stress axis : x y z
#
# Youngs Moduli (GPa) = 70.09938 63.89223 48.41325
#
# Poissons Ratio (x) = -0.05347 -0.10092
# Poissons Ratio (y) = -0.05867 -0.04742
# Poissons Ratio (z) = -0.14613 -0.06258
#
# Static dielectric constant tensor:
#      x y z
#    x 2.035640 0.013190 0.175350 
#    y 0.013190 2.140330 0.171090 
#    z 0.175350 0.171090 2.288370 
# 
# From -- ./inp_files/208018.got.cif
#   From: 2010.05.17/outbox.cif.g08.bks.cpg/sg2_105_cif.got.tgz:208018.got - 2010.06.03 11:33:40.
