data_PCOD9085083
_publ_section_title
;
Structure prediction by ZEFSAII (Michael W. Deem and Ramdas Pophale) SiO2 
 PCOD9085083
Probable space group: P -1
;
_chemical_formula_sum "Si O2"
_cell_formula_units_Z 16
_cell_length_a 13.446784
_cell_length_b 15.966382
_cell_length_c 12.051242
_cell_angle_alpha 46.448008
_cell_angle_beta 158.208028
_cell_angle_gamma 122.155795
_cell_volume 638.103002
_symmetry_space_group_name_H-M "P -1"
_symmetry_group_IT_number 2
_symmetry_cell_setting 'triclinic'
loop_
_space_group_symop_operation_xyz
x,y,z
-x,-y,-z
loop_
_atom_site_type_symbol
_atom_site_label
_atom_site_fract_x
_atom_site_fract_y
_atom_site_fract_z
Si Si1 0.740632 0.980131 0.678014
Si Si2 0.545008 0.360194 0.211053
Si Si3 0.264291 0.909348 0.645502
Si Si4 0.280560 0.239471 0.565107
Si Si5 0.862886 0.120159 0.164522
Si Si6 0.211611 0.675384 0.736950
Si Si7 0.857052 0.545985 0.601483
Si Si8 0.887613 0.700006 0.025789
O O1 0.500000 0.000000 0.500000
O O2 0.620881 0.082583 0.363794
O O3 0.760173 0.850146 0.757355
O O4 0.000000 0.000000 0.000000
O O5 0.725846 0.290640 0.353030
O O6 0.777449 0.325010 0.580963
O O7 0.500000 0.500000 0.000000
O O8 0.268339 0.341003 0.993923
O O9 0.142577 0.800506 0.622893
O O10 0.997060 0.044301 0.261870
O O11 0.529581 0.862977 0.050442
O O12 0.012349 0.213488 0.266575
O O13 0.170812 0.376586 0.383856
O O14 0.522114 0.197882 0.755925
O O15 0.000000 0.000000 0.500000
O O16 0.973198 0.618608 0.563384
O O17 0.522214 0.576054 0.196171
O O18 0.072573 0.399921 0.941636
#
# Coordination Sequence:
#
# PCOD9085083 Si02
#       8
#     2   2   2   2   2   2   2   2
#     4  12  28  46  60  86 127 177 213 242 278 363
#     4  12  21  37  57  86 115 149 202 258 306 349
#     4  10  22  39  61  86 122 163 202 242 304 363
#     4  10  21  35  59  91 119 143 191 263 317 360
#     4  10  19  35  58  89 118 149 191 251 316 365
#     4  11  21  32  54  84 113 145 193 247 303 351
#     4  11  20  34  54  86 114 145 182 248 315 349
#     4  12  23  39  59  82 118 159 204 246 299 359
#
# _framework density 25.074321999999999
#
# number of rings (size 3 to 8) (size 9 to 14) (size 15 to 20)
#    0.000    1.000    2.500    7.125    0.000    7.000 
#    0.000    0.000    0.000    1.500    0.000    0.000 
#    0.000    1.000    0.000    0.000    0.000    0.000 
#
# Total GULP energy -89290.865332 kJ/mol
# GULP energy per Si atom -5580.679083 kJ/mol
# Density = 2.501725 g / cm^3
# Si number density = 25.074322 Si / 1000 Ang^3
#
#
#
# Elastic Constant Matrix: (Units=GPa)
#
#
# Indices 1 2 3 4 5 6 
#
# 1 54.8080 12.4790 23.6517 -8.6210 31.9707 6.8970
# 2 12.4790 95.7841 30.1591 -22.7858 19.5224 -5.1113
# 3 23.6517 30.1591 63.1197 -5.9417 21.4122 4.6349
# 4 -8.6210 -22.7858 -5.9417 44.3583 -4.6418 13.0716
# 5 31.9707 19.5224 21.4122 -4.6418 40.6608 -8.6892
# 6 6.8970 -5.1113 4.6349 13.0716 -8.6892 34.2384
#
#
#
# Elastic Compliance Matrix: (Units=1/GPa)
#
#
# Indices 1 2 3 4 5 6 
#
# 1 0.049237 0.005640 -0.003109 0.014988 -0.043506 -0.025419
# 2 0.005640 0.014877 -0.005272 0.008163 -0.008618 -0.003505
# 3 -0.003109 -0.005272 0.022727 0.000500 -0.008108 -0.005486
# 4 0.014988 0.008163 0.000500 0.033561 -0.016149 -0.018780
# 5 -0.043506 -0.008618 -0.008108 -0.016149 0.072444 0.033126
# 6 -0.025419 -0.003505 -0.005486 -0.018780 0.033126 0.050123
#
#
# Mechanical properties :
#
#
# Convention : Reuss Voigt Hill
#
# Bulk Modulus (GPa) = 12.29108 38.47681 25.38395
# Shear Modulus (GPa) = 18.14418 33.67963 25.91191
#
# Velocity S-wave (km/s) = 2.69293 3.66893 3.21815
# Velocity P-wave (km/s) = 3.81859 5.77291 4.89429
#
# Compressibility (1/GPa) = 0.08135980
#
# Stress axis : x y z
#
# Youngs Moduli (GPa) = 20.30998 67.21893 43.99996
#
# Poissons Ratio (x) = -0.37914 0.13678
# Poissons Ratio (y) = -0.11456 0.23198
# Poissons Ratio (z) = 0.06314 0.35440
#
# Static dielectric constant tensor:
#      x y z
#    x 2.169420 -0.161630 0.104620 
#    y -0.161630 2.112950 -0.163590 
#    z 0.104620 -0.163590 2.096210 
# 
# From -- ./inp_files/535083.got.cif
#   From: 2010.05.17/outbox.cif.g08.bks.cpg/sg2_268_cif.got.tgz:535083.got - 2010.06.03 11:33:40.
