data_PCOD9085423
_publ_section_title
;
Structure prediction by ZEFSAII (Michael W. Deem and Ramdas Pophale) SiO2 
 PCOD9085423
Probable space group: P -1
;
_chemical_formula_sum "Si O2"
_cell_formula_units_Z 16
_cell_length_a 13.833270
_cell_length_b 8.325699
_cell_length_c 8.614800
_cell_angle_alpha 92.476417
_cell_angle_beta 132.947651
_cell_angle_gamma 113.253041
_cell_volume 591.007334
_symmetry_space_group_name_H-M "P -1"
_symmetry_group_IT_number 2
_symmetry_cell_setting 'triclinic'
loop_
_space_group_symop_operation_xyz
x,y,z
-x,-y,-z
loop_
_atom_site_type_symbol
_atom_site_label
_atom_site_fract_x
_atom_site_fract_y
_atom_site_fract_z
Si Si1 0.470522 0.906511 0.713581
Si Si2 0.878301 0.266014 0.352810
Si Si3 0.384428 0.673789 0.900970
Si Si4 0.325098 0.144668 0.277467
Si Si5 0.370037 0.495449 0.182071
Si Si6 0.223363 0.992392 0.476219
Si Si7 0.165055 0.519889 0.190988
Si Si8 0.122506 0.276834 0.417065
O O1 0.498294 0.817067 0.893006
O O2 0.605970 0.962932 0.737937
O O3 0.306814 0.718209 0.442250
O O4 0.403676 0.037992 0.683649
O O5 0.705862 0.228608 0.128253
O O6 0.000000 0.500000 0.500000
O O7 0.947857 0.190345 0.299541
O O8 0.872717 0.187100 0.515958
O O9 0.244498 0.482269 0.644231
O O10 0.418337 0.564781 0.062823
O O11 0.299761 0.268397 0.129865
O O12 0.470230 0.336996 0.540527
O O13 0.199050 0.998691 0.264427
O O14 0.231666 0.515890 0.096568
O O15 0.186765 0.143665 0.504151
O O16 0.134877 0.339855 0.254478
O O17 0.000000 0.500000 0.000000
#
# Coordination Sequence:
#
# PCOD9085423 Si02
#       8
#     2   2   2   2   2   2   2   2
#     4   9  21  38  60  85 117 162 198 239 298 345
#     4   9  19  36  60  85 114 154 192 242 301 356
#     4   9  19  36  61  89 114 157 201 236 294 355
#     4  10  21  38  59  86 120 159 200 245 290 349
#     4  10  20  36  61  89 119 156 203 242 290 349
#     4  11  20  37  61  87 117 155 201 249 295 346
#     4  10  19  36  62  89 118 157 198 241 293 361
#     4  10  19  35  60  89 118 154 197 243 297 346
#
# _framework density 27.072424000000002
#
# number of rings (size 3 to 8) (size 9 to 14) (size 15 to 20)
#    0.000    2.250    1.250    2.250    1.750    2.500 
#    0.000    3.125   19.250    0.000    0.000    0.000 
#    0.000    0.000    0.000    0.000    0.000    0.000 
#
# Total GULP energy -89533.525878 kJ/mol
# GULP energy per Si atom -5595.845367 kJ/mol
# Density = 2.701081 g / cm^3
# Si number density = 27.072424 Si / 1000 Ang^3
#
#
#
# Elastic Constant Matrix: (Units=GPa)
#
#
# Indices 1 2 3 4 5 6 
#
# 1 147.8514 53.0666 10.2138 -17.0941 -6.3394 -1.8397
# 2 53.0666 158.8174 25.9593 -54.4917 -10.4429 15.0334
# 3 10.2138 25.9593 60.7899 -19.8305 -2.2087 8.5851
# 4 -17.0941 -54.4917 -19.8305 41.9544 10.4683 -1.6662
# 5 -6.3394 -10.4429 -2.2087 10.4683 38.3426 -12.5217
# 6 -1.8397 15.0334 8.5851 -1.6662 -12.5217 45.4537
#
#
#
# Elastic Compliance Matrix: (Units=1/GPa)
#
#
# Indices 1 2 3 4 5 6 
#
# 1 0.007829 -0.003052 -0.000656 -0.001358 0.001377 0.001780
# 2 -0.003052 0.013256 0.000985 0.017015 -0.003090 -0.004922
# 3 -0.000656 0.000985 0.020357 0.011266 -0.003274 -0.004686
# 4 -0.001358 0.017015 0.011266 0.053477 -0.012584 -0.009317
# 5 0.001377 -0.003090 -0.003274 -0.012584 0.031996 0.010049
# 6 0.001780 -0.004922 -0.004686 -0.009317 0.010049 0.027012
#
#
# Mechanical properties :
#
#
# Convention : Reuss Voigt Hill
#
# Bulk Modulus (GPa) = 27.78102 60.65979 44.22040
# Shear Modulus (GPa) = 29.17628 43.69806 36.43717
#
# Velocity S-wave (km/s) = 3.28641 4.02197 3.67265
# Velocity P-wave (km/s) = 4.96837 6.63501 5.86123
#
# Compressibility (1/GPa) = 0.03599580
#
# Stress axis : x y z
#
# Youngs Moduli (GPa) = 127.73588 75.43659 49.12214
#
# Poissons Ratio (x) = 0.23027 0.03223
# Poissons Ratio (y) = 0.38991 -0.04841
# Poissons Ratio (z) = 0.08382 -0.07434
#
# Static dielectric constant tensor:
#      x y z
#    x 2.089300 -0.022930 0.008930 
#    y -0.022930 2.138700 0.099050 
#    z 0.008930 0.099050 2.236620 
# 
# From -- ./inp_files/298398.got.cif
#   From: 2010.05.17/outbox.cif.g08.bks.cpg/sg2_150_cif.got.tgz:298398.got - 2010.06.03 11:33:40.
