data_PCOD9085739
_publ_section_title
;
Structure prediction by ZEFSAII (Michael W. Deem and Ramdas Pophale) SiO2 
 PCOD9085739
Probable space group: P -1
;
_chemical_formula_sum "Si O2"
_cell_formula_units_Z 16
_cell_length_a 16.824591
_cell_length_b 9.072315
_cell_length_c 12.624589
_cell_angle_alpha 146.352509
_cell_angle_beta 132.674006
_cell_angle_gamma 69.476168
_cell_volume 668.360700
_symmetry_space_group_name_H-M "P -1"
_symmetry_group_IT_number 2
_symmetry_cell_setting 'triclinic'
loop_
_space_group_symop_operation_xyz
x,y,z
-x,-y,-z
loop_
_atom_site_type_symbol
_atom_site_label
_atom_site_fract_x
_atom_site_fract_y
_atom_site_fract_z
Si Si1 0.574680 0.001802 0.315162
Si Si2 0.936479 0.521911 0.638156
Si Si3 0.827426 0.493185 0.741756
Si Si4 0.311075 0.786828 0.876351
Si Si5 0.436384 0.207388 0.591741
Si Si6 0.908896 0.890386 0.252033
Si Si7 0.784695 0.986025 0.884984
Si Si8 0.375452 0.387613 0.157522
O O1 0.704876 0.158655 0.460140
O O2 0.570835 0.307859 0.536380
O O3 0.585057 0.833169 0.327225
O O4 0.436735 0.782535 0.008575
O O5 0.914108 0.491157 0.725572
O O6 0.811181 0.497338 0.461372
O O7 0.931708 0.208296 0.409532
O O8 0.068613 0.811687 0.895208
O O9 0.769143 0.692708 0.760853
O O10 0.906748 0.671917 0.025412
O O11 0.256659 0.834208 0.964592
O O12 0.357764 0.090582 0.025910
O O13 0.305925 0.089118 0.341775
O O14 0.537730 0.524065 0.813350
O O15 0.500000 0.000000 0.500000
O O16 0.765357 0.699317 0.051138
O O17 0.000000 0.000000 0.500000
#
# Coordination Sequence:
#
# PCOD9085739 Si02
#       8
#     2   2   2   2   2   2   2   2
#     4  10  19  35  62  94 124 163 211 265 319 365
#     4  11  26  40  64  98 128 169 217 258 311 385
#     4  11  24  44  65  93 130 169 216 257 319 377
#     4  11  19  37  65  92 121 168 215 259 313 375
#     4  10  20  32  62  98 120 163 216 262 317 377
#     4  10  23  40  66  94 124 170 206 261 320 375
#     4  12  21  40  64  91 133 170 213 263 312 376
#     4   9  17  34  56  91 119 153 211 253 309 376
#
# _framework density 23.939170000000001
#
# number of rings (size 3 to 8) (size 9 to 14) (size 15 to 20)
#    0.000    1.500    6.250    1.875    5.250    1.000 
#    0.000    0.000    0.000    3.750    0.000    0.000 
#    0.000    0.000    0.000    0.000    0.000    0.000 
#
# Total GULP energy -89531.952435 kJ/mol
# GULP energy per Si atom -5595.747027 kJ/mol
# Density = 2.388468 g / cm^3
# Si number density = 23.939170 Si / 1000 Ang^3
#
#
#
# Elastic Constant Matrix: (Units=GPa)
#
#
# Indices 1 2 3 4 5 6 
#
# 1 131.5207 44.1113 54.9676 5.9162 13.9940 36.3265
# 2 44.1113 104.0916 63.7426 -20.8189 20.0432 21.8362
# 3 54.9676 63.7426 155.6811 -27.1561 28.2411 16.3777
# 4 5.9162 -20.8189 -27.1561 43.9486 1.7760 3.9934
# 5 13.9940 20.0432 28.2411 1.7760 35.8110 16.2863
# 6 36.3265 21.8362 16.3777 3.9934 16.2863 42.6791
#
#
#
# Elastic Compliance Matrix: (Units=1/GPa)
#
#
# Indices 1 2 3 4 5 6 
#
# 1 0.012319 -0.002745 -0.003849 -0.004708 0.003931 -0.008664
# 2 -0.002745 0.015425 -0.003231 0.006146 -0.003742 -0.003463
# 3 -0.003849 -0.003231 0.011109 0.005882 -0.007009 0.002790
# 4 -0.004708 0.006146 0.005882 0.030358 -0.007040 -0.001548
# 5 0.003931 -0.003742 -0.007009 -0.007040 0.040520 -0.013545
# 6 -0.008664 -0.003463 0.002790 -0.001548 -0.013545 0.036819
#
#
# Mechanical properties :
#
#
# Convention : Reuss Voigt Hill
#
# Bulk Modulus (GPa) = 52.07400 79.65961 65.86680
# Shear Modulus (GPa) = 28.96851 39.71922 34.34387
#
# Velocity S-wave (km/s) = 3.48241 4.07771 3.79176
# Velocity P-wave (km/s) = 6.16193 7.45107 6.83695
#
# Compressibility (1/GPa) = 0.01920344
#
# Stress axis : x y z
#
# Youngs Moduli (GPa) = 81.17596 64.82948 90.01550
#
# Poissons Ratio (x) = 0.17794 0.34644
# Poissons Ratio (y) = 0.22281 0.29087
# Poissons Ratio (z) = 0.31242 0.20949
#
# Static dielectric constant tensor:
#      x y z
#    x 1.925720 -0.036630 -0.081250 
#    y -0.036630 1.897580 0.021810 
#    z -0.081250 0.021810 1.997700 
# 
# From -- ./inp_files/462575.got.cif
#   From: 2010.05.17/outbox.cif.g08.bks.cpg/sg2_232_cif.got.tgz:462575.got - 2010.06.03 11:33:40.
