data_PCOD9085850
_publ_section_title
;
Structure prediction by ZEFSAII (Michael W. Deem and Ramdas Pophale) SiO2 
 PCOD9085850
Probable space group: P -1
;
_chemical_formula_sum "Si O2"
_cell_formula_units_Z 14
_cell_length_a 19.908427
_cell_length_b 4.688370
_cell_length_c 5.597646
_cell_angle_alpha 81.829758
_cell_angle_beta 98.912784
_cell_angle_gamma 88.920681
_cell_volume 510.479726
_symmetry_space_group_name_H-M "P -1"
_symmetry_group_IT_number 2
_symmetry_cell_setting 'triclinic'
loop_
_space_group_symop_operation_xyz
x,y,z
-x,-y,-z
loop_
_atom_site_type_symbol
_atom_site_label
_atom_site_fract_x
_atom_site_fract_y
_atom_site_fract_z
Si Si1 0.336222 0.982316 0.234353
Si Si2 0.186757 0.253094 0.676983
Si Si3 0.068182 0.688934 0.002482
Si Si4 0.062368 0.708772 0.498446
Si Si5 0.322003 0.618331 0.757624
Si Si6 0.192594 0.210358 0.176330
Si Si7 0.551848 0.749345 0.981743
O O1 0.330996 0.799099 0.496584
O O2 0.274731 0.225607 0.201396
O O3 0.327693 0.803936 0.993127
O O4 0.408245 0.132953 0.240576
O O5 0.125209 0.482233 0.588219
O O6 0.252390 0.448378 0.712346
O O7 0.186846 0.080067 0.451282
O O8 0.181820 0.060414 0.933679
O O9 0.066447 0.863222 0.228429
O O10 0.136884 0.477608 0.090763
O O11 0.061163 0.867764 0.731804
O O12 0.000000 0.500000 0.000000
O O13 0.000000 0.500000 0.500000
O O14 0.383026 0.376295 0.821487
O O15 0.500000 0.500000 0.000000
O O16 0.500000 0.000000 0.000000
#
# Coordination Sequence:
#
# PCOD9085850 Si02
#       7
#     2   2   2   2   2   2   2
#     4  12  27  47  74 108 150 192 245 306 372 444
#     4  10  19  35  63  95 133 180 239 296 357 428
#     4   8  14  25  46  84 123 166 228 287 350 419
#     4   8  14  25  46  84 123 166 228 287 350 419
#     4  12  27  47  74 108 150 192 245 306 372 444
#     4  10  19  35  63  95 133 180 239 296 357 428
#     4  12  28  54  80 114 154 198 246 308 374 454
#
# _framework density 27.425186
#
# number of rings (size 3 to 8) (size 9 to 14) (size 15 to 20)
#    0.000    1.714    2.857    1.714    0.000    1.143 
#    0.000    0.000    0.000    0.000    0.000   96.000 
#    0.000    0.000    0.000    0.000    0.000    0.000 
#
# Total GULP energy -78136.492988 kJ/mol
# GULP energy per Si atom -5581.178071 kJ/mol
# Density = 2.736276 g / cm^3
# Si number density = 27.425186 Si / 1000 Ang^3
#
#
#
# Elastic Constant Matrix: (Units=GPa)
#
#
# Indices 1 2 3 4 5 6 
#
# 1 226.8847 72.1649 1.5672 2.0602 9.7308 -35.1870
# 2 72.1649 126.5833 35.9905 -16.1117 0.7542 -1.8140
# 3 1.5672 35.9905 310.5195 6.7088 -32.6247 2.0805
# 4 2.0602 -16.1117 6.7088 35.1282 -2.2195 5.4894
# 5 9.7308 0.7542 -32.6247 -2.2195 26.6035 2.3002
# 6 -35.1870 -1.8140 2.0805 5.4894 2.3002 63.0550
#
#
#
# Elastic Compliance Matrix: (Units=1/GPa)
#
#
# Indices 1 2 3 4 5 6 
#
# 1 0.006418 -0.004032 0.000205 -0.003023 -0.002563 0.003815
# 2 -0.004032 0.011333 -0.001391 0.006088 0.000164 -0.002414
# 3 0.000205 -0.001391 0.003895 -0.001079 0.004662 -0.000130
# 4 -0.003023 0.006088 -0.001079 0.032502 0.002702 -0.004404
# 5 -0.002563 0.000164 0.004662 0.002702 0.044762 -0.003448
# 6 0.003815 -0.002414 -0.000130 -0.004404 -0.003448 0.018432
#
#
# Mechanical properties :
#
#
# Convention : Reuss Voigt Hill
#
# Bulk Modulus (GPa) = 89.20775 98.15921 93.68348
# Shear Modulus (GPa) = 38.01877 61.90835 49.96356
#
# Velocity S-wave (km/s) = 3.72731 4.75632 4.27290
# Velocity P-wave (km/s) = 7.14997 8.12605 7.65359
#
# Compressibility (1/GPa) = 0.01120979
#
# Stress axis : x y z
#
# Youngs Moduli (GPa) = 155.82183 88.23479 256.76580
#
# Poissons Ratio (x) = 0.35575 -0.05273
# Poissons Ratio (y) = 0.62825 0.35726
# Poissons Ratio (z) = -0.03200 0.12277
#
# Static dielectric constant tensor:
#      x y z
#    x 2.156990 0.023180 -0.060720 
#    y 0.023180 2.052690 0.078100 
#    z -0.060720 0.078100 2.241230 
# 
# From -- ./inp_files/102798.got.cif
#   From: 2010.05.17/outbox.cif.g08.bks.cpg/sg2_52_cif.got.tgz:102798.got - 2010.06.03 11:33:40.
