data_PCOD9085001
_publ_section_title
;
Structure prediction by ZEFSAII (Michael W. Deem and Ramdas Pophale) SiO2 
 PCOD9085001
Probable space group: P -1
;
_chemical_formula_sum "Si O2"
_cell_formula_units_Z 14
_cell_length_a 8.993210
_cell_length_b 14.436880
_cell_length_c 8.387799
_cell_angle_alpha 123.127525
_cell_angle_beta 47.329624
_cell_angle_gamma 124.751009
_cell_volume 634.358154
_symmetry_space_group_name_H-M "P -1"
_symmetry_group_IT_number 2
_symmetry_cell_setting 'triclinic'
loop_
_space_group_symop_operation_xyz
x,y,z
-x,-y,-z
loop_
_atom_site_type_symbol
_atom_site_label
_atom_site_fract_x
_atom_site_fract_y
_atom_site_fract_z
Si Si1 0.705977 0.570076 0.067759
Si Si2 0.333662 0.527399 0.522146
Si Si3 0.595740 0.298104 0.919700
Si Si4 0.141223 0.713014 0.995170
Si Si5 0.077537 0.893681 0.970621
Si Si6 0.156837 0.310766 0.264922
Si Si7 0.640912 0.921419 0.273949
O O1 0.482244 0.573207 0.302138
O O2 0.691523 0.435152 0.945450
O O3 0.771266 0.628481 0.903626
O O4 0.891216 0.640120 0.119102
O O5 0.500000 0.500000 0.500000
O O6 0.243043 0.623796 0.750269
O O7 0.144222 0.411735 0.489373
O O8 0.522984 0.208911 0.744453
O O9 0.746797 0.258546 0.890519
O O10 0.364720 0.283475 0.153722
O O11 0.160078 0.824996 0.979413
O O12 0.022351 0.808033 0.772045
O O13 0.246989 0.015847 0.911958
O O14 0.851972 0.911318 0.200111
O O15 0.500000 0.000000 0.500000
#
# Coordination Sequence:
#
# PCOD9085001 Si02
#       7
#     2   2   2   2   2   2   2
#     4  10  21  37  56  86 125 152 193 231 280 348
#     4  11  20  33  57  88 122 155 188 218 289 356
#     4  10  19  35  58  83 114 154 184 239 295 323
#     4  11  22  36  58  88 122 150 184 241 291 341
#     4   9  22  40  58  84 113 145 198 241 287 330
#     4   9  19  37  59  84 120 157 189 235 279 343
#     4  10  22  42  62  79 106 152 201 243 284 343
#
# _framework density 22.06955
#
# number of rings (size 3 to 8) (size 9 to 14) (size 15 to 20)
#    0.000    2.000    2.857    2.143    0.000    8.571 
#    0.000    0.714    0.000    0.000    0.000    0.000 
#    0.000    0.000    0.000    0.000    0.000    0.000 
#
# Total GULP energy -78103.608960 kJ/mol
# GULP energy per Si atom -5578.829211 kJ/mol
# Density = 2.201932 g / cm^3
# Si number density = 22.069550 Si / 1000 Ang^3
#
#
#
# Elastic Constant Matrix: (Units=GPa)
#
#
# Indices 1 2 3 4 5 6 
#
# 1 89.4897 12.5471 -6.0330 -6.4293 -8.7560 -9.0788
# 2 12.5471 87.2504 -6.1000 8.9486 0.7663 -9.0006
# 3 -6.0330 -6.1000 64.6480 5.2067 -18.9147 -6.0948
# 4 -6.4293 8.9486 5.2067 21.8082 -2.0780 -10.4068
# 5 -8.7560 0.7663 -18.9147 -2.0780 28.6908 6.6410
# 6 -9.0788 -9.0006 -6.0948 -10.4068 6.6410 29.7833
#
#
#
# Elastic Compliance Matrix: (Units=1/GPa)
#
#
# Indices 1 2 3 4 5 6 
#
# 1 0.013140 -0.001946 0.002417 0.007089 0.004945 0.005286
# 2 -0.001946 0.012572 0.001355 -0.005261 -0.000842 0.001833
# 3 0.002417 0.001355 0.020101 -0.002739 0.013454 0.001303
# 4 0.007089 -0.005261 -0.002739 0.060920 -0.000020 0.021301
# 5 0.004945 -0.000842 0.013454 -0.000020 0.046741 -0.006423
# 6 0.005286 0.001833 0.001303 0.021301 -0.006423 0.044883
#
#
# Mechanical properties :
#
#
# Convention : Reuss Voigt Hill
#
# Bulk Modulus (GPa) = 20.21623 26.91295 23.56459
# Shear Modulus (GPa) = 23.67500 32.12137 27.89818
#
# Velocity S-wave (km/s) = 3.27883 3.81919 3.55928
# Velocity P-wave (km/s) = 4.84917 5.62755 5.25280
#
# Compressibility (1/GPa) = 0.04946521
#
# Stress axis : x y z
#
# Youngs Moduli (GPa) = 76.10546 79.54265 49.74765
#
# Poissons Ratio (x) = 0.15477 -0.12024
# Poissons Ratio (y) = 0.14808 -0.06741
# Poissons Ratio (z) = -0.18394 -0.10778
#
# Static dielectric constant tensor:
#      x y z
#    x 1.861730 0.020570 0.002910 
#    y 0.020570 1.831670 0.025280 
#    z 0.002910 0.025280 1.900080 
# 
# From -- ./inp_files/203978.got.cif
#   From: 2010.05.17/outbox.cif.g08.bks.cpg/sg2_102_cif.got.tgz:203978.got - 2010.06.03 11:33:40.
