data_PCOD9085731
_publ_section_title
;
Structure prediction by ZEFSAII (Michael W. Deem and Ramdas Pophale) SiO2 
 PCOD9085731
Probable space group: P -1
;
_chemical_formula_sum "Si O2"
_cell_formula_units_Z 16
_cell_length_a 9.579255
_cell_length_b 16.942922
_cell_length_c 13.470645
_cell_angle_alpha 146.703745
_cell_angle_beta 118.084681
_cell_angle_gamma 86.291252
_cell_volume 777.466613
_symmetry_space_group_name_H-M "P -1"
_symmetry_group_IT_number 2
_symmetry_cell_setting 'triclinic'
loop_
_space_group_symop_operation_xyz
x,y,z
-x,-y,-z
loop_
_atom_site_type_symbol
_atom_site_label
_atom_site_fract_x
_atom_site_fract_y
_atom_site_fract_z
Si Si1 0.673819 0.257757 0.421317
Si Si2 0.308874 0.796743 0.859060
Si Si3 0.898114 0.884702 0.683006
Si Si4 0.635013 0.806098 0.101668
Si Si5 0.967133 0.780411 0.797477
Si Si6 0.555952 0.516778 0.922347
Si Si7 0.016484 0.772972 0.406909
Si Si8 0.469559 0.508048 0.383015
O O1 0.726376 0.284657 0.349254
O O2 0.864827 0.295661 0.584485
O O3 0.612696 0.384048 0.555664
O O4 0.465979 0.030953 0.138312
O O5 0.095631 0.713147 0.757450
O O6 0.444309 0.773150 0.948208
O O7 0.017993 0.886596 0.819514
O O8 0.641338 0.699594 0.411407
O O9 0.972733 0.849676 0.570401
O O10 0.952241 0.083391 0.935095
O O11 0.829452 0.038120 0.414074
O O12 0.566461 0.679253 0.044045
O O13 0.689459 0.706715 0.942731
O O14 0.710380 0.622424 0.546133
O O15 0.500000 0.500000 0.000000
O O16 0.796855 0.603882 0.097617
O O17 0.500000 0.500000 0.500000
#
# Coordination Sequence:
#
# PCOD9085731 Si02
#       8
#     2   2   2   2   2   2   2   2
#     4  10  20  37  59  94 124 163 201 249 312 370
#     4  10  21  36  61  91 127 158 203 253 309 377
#     4  10  19  35  62  93 117 162 207 248 302 370
#     4  11  22  39  62  93 124 160 209 255 311 365
#     4  11  21  35  61  89 129 161 195 249 321 364
#     4  10  22  41  63  88 118 165 219 255 294 365
#     4  10  21  40  66  84 125 168 208 249 304 366
#     4  12  23  37  58  97 133 159 195 259 315 376
#
# _framework density 20.579661999999999
#
# number of rings (size 3 to 8) (size 9 to 14) (size 15 to 20)
#    0.000    1.500    3.750    2.625    1.750    0.500 
#    4.500    0.625    2.750    1.500    0.000    0.000 
#    0.000    0.000    0.000    0.000    0.000    0.000 
#
# Total GULP energy -89235.579366 kJ/mol
# GULP energy per Si atom -5577.223710 kJ/mol
# Density = 2.053282 g / cm^3
# Si number density = 20.579662 Si / 1000 Ang^3
#
#
#
# Elastic Constant Matrix: (Units=GPa)
#
#
# Indices 1 2 3 4 5 6 
#
# 1 89.6832 25.9941 20.7751 6.2779 8.0581 -26.0954
# 2 25.9941 99.2147 14.7889 -1.9320 12.8852 -6.6418
# 3 20.7751 14.7889 78.7358 -6.6075 14.9390 -26.1872
# 4 6.2779 -1.9320 -6.6075 22.8925 -2.1628 -2.2907
# 5 8.0581 12.8852 14.9390 -2.1628 24.9547 -6.2261
# 6 -26.0954 -6.6418 -26.1872 -2.2907 -6.2261 42.3529
#
#
#
# Elastic Compliance Matrix: (Units=1/GPa)
#
#
# Indices 1 2 3 4 5 6 
#
# 1 0.014912 -0.003197 -0.000881 -0.003933 -0.001038 0.007777
# 2 -0.003197 0.011579 -0.000769 0.001060 -0.004709 -0.001265
# 3 -0.000881 -0.000769 0.018209 0.005730 -0.007268 0.009837
# 4 -0.003933 0.001060 0.005730 0.047153 0.002425 0.004192
# 5 -0.001038 -0.004709 -0.007268 0.002425 0.047719 0.001274
# 6 0.007777 -0.001265 0.009837 0.004192 0.001274 0.034701
#
#
# Mechanical properties :
#
#
# Convention : Reuss Voigt Hill
#
# Bulk Modulus (GPa) = 28.56626 43.41665 35.99145
# Shear Modulus (GPa) = 25.55757 31.77840 28.66798
#
# Velocity S-wave (km/s) = 3.52786 3.93385 3.73637
# Velocity P-wave (km/s) = 5.52317 6.46345 6.01172
#
# Compressibility (1/GPa) = 0.03500633
#
# Stress axis : x y z
#
# Youngs Moduli (GPa) = 67.05786 86.36285 54.91696
#
# Poissons Ratio (x) = 0.27610 0.04838
# Poissons Ratio (y) = 0.21438 0.04225
# Poissons Ratio (z) = 0.05907 0.06645
#
# Static dielectric constant tensor:
#      x y z
#    x 1.780770 0.008850 0.006390 
#    y 0.008850 1.760320 0.025250 
#    z 0.006390 0.025250 1.751780 
# 
# From -- ./inp_files/507109.got.cif
#   From: 2010.05.17/outbox.cif.g08.bks.cpg/sg2_254_cif.got.tgz:507109.got - 2010.06.03 11:33:40.
