data_PCOD9085132
_publ_section_title
;
Structure prediction by ZEFSAII (Michael W. Deem and Ramdas Pophale) SiO2 
 PCOD9085132
Probable space group: P -1
;
_chemical_formula_sum "Si O2"
_cell_formula_units_Z 12
_cell_length_a 9.390803
_cell_length_b 16.369483
_cell_length_c 18.041025
_cell_angle_alpha 148.401086
_cell_angle_beta 140.180313
_cell_angle_gamma 24.142146
_cell_volume 593.788778
_symmetry_space_group_name_H-M "P -1"
_symmetry_group_IT_number 2
_symmetry_cell_setting 'triclinic'
loop_
_space_group_symop_operation_xyz
x,y,z
-x,-y,-z
loop_
_atom_site_type_symbol
_atom_site_label
_atom_site_fract_x
_atom_site_fract_y
_atom_site_fract_z
Si Si1 0.139159 0.579309 0.815830
Si Si2 0.278446 0.531951 0.094194
Si Si3 0.275008 0.024182 0.158962
Si Si4 0.435921 0.585613 0.727053
Si Si5 0.756754 0.626177 0.572236
Si Si6 0.753903 0.731383 0.922816
O O1 0.524122 0.437204 0.847547
O O2 0.901904 0.849835 0.895505
O O3 0.008300 0.513695 0.657126
O O4 0.063154 0.569262 0.860626
O O5 0.306386 0.567652 0.218002
O O6 0.089532 0.305987 0.964208
O O7 0.491451 0.253661 0.957944
O O8 0.452573 0.097059 0.300511
O O9 0.946688 0.191129 0.214088
O O10 0.562326 0.568132 0.442484
O O11 0.557599 0.673932 0.802271
O O12 0.000000 0.500000 0.500000
O O13 0.500000 0.000000 0.000000
#
# Coordination Sequence:
#
# PCOD9085132 Si02
#       6
#     2   2   2   2   2   2
#     4   9  19  34  59  80 111 134 182 216 272 315
#     4  11  19  35  59  80 103 147 187 216 259 322
#     4   8  17  34  60  81  98 140 189 212 258 321
#     4  10  19  35  59  81 110 138 178 220 271 321
#     4   8  16  34  62  80 104 139 180 217 265 321
#     4  12  24  34  51  82 118 140 175 231 272 305
#
# _framework density 20.209205999999998
#
# number of rings (size 3 to 8) (size 9 to 14) (size 15 to 20)
#    1.000    1.333    1.667    5.000    0.000    0.667 
#    0.000    0.833    3.667    3.000    0.000    0.000 
#    0.000    0.000    0.000    0.000    0.000    0.000 
#
# Total GULP energy -66836.528048 kJ/mol
# GULP energy per Si atom -5569.710671 kJ/mol
# Density = 2.016321 g / cm^3
# Si number density = 20.209206 Si / 1000 Ang^3
#
#
#
# Elastic Constant Matrix: (Units=GPa)
#
#
# Indices 1 2 3 4 5 6 
#
# 1 138.2415 14.9501 33.4605 -14.2476 24.1920 -28.4315
# 2 14.9501 72.4112 25.1340 -15.3391 26.2904 -7.5050
# 3 33.4605 25.1340 85.5860 -32.1034 28.9054 -12.7516
# 4 -14.2476 -15.3391 -32.1034 25.8932 -13.9655 3.9622
# 5 24.1920 26.2904 28.9054 -13.9655 43.1921 -11.9688
# 6 -28.4315 -7.5050 -12.7516 3.9622 -11.9688 20.3325
#
#
#
# Elastic Compliance Matrix: (Units=1/GPa)
#
#
# Indices 1 2 3 4 5 6 
#
# 1 0.010581 0.000409 -0.001173 0.002006 -0.001090 0.013179
# 2 0.000409 0.018460 -0.000139 0.005877 -0.009281 0.000690
# 3 -0.001173 -0.000139 0.024671 0.025844 -0.005962 0.005235
# 4 0.002006 0.005877 0.025844 0.076732 0.005425 0.009423
# 5 -0.001090 -0.009281 -0.005962 0.005425 0.038781 0.013082
# 6 0.013179 0.000690 0.005235 0.009423 0.013082 0.077014
#
#
# Mechanical properties :
#
#
# Convention : Reuss Voigt Hill
#
# Bulk Modulus (GPa) = 19.26551 49.25866 34.26209
# Shear Modulus (GPa) = 18.84318 32.72982 25.78650
#
# Velocity S-wave (km/s) = 3.05684 4.02873 3.57596
# Velocity P-wave (km/s) = 4.69178 6.78735 5.83442
#
# Compressibility (1/GPa) = 0.05190623
#
# Stress axis : x y z
#
# Youngs Moduli (GPa) = 94.50590 54.17141 40.53293
#
# Poissons Ratio (x) = -0.02216 0.04754
# Poissons Ratio (y) = -0.03866 0.00565
# Poissons Ratio (z) = 0.11084 0.00756
#
# Static dielectric constant tensor:
#      x y z
#    x 1.751850 -0.046690 -0.026110 
#    y -0.046690 1.761070 0.011200 
#    z -0.026110 0.011200 1.770490 
# 
# From -- ./inp_files/561591.got.cif
#   From: 2010.05.17/outbox.cif.g08.bks.cpg/sg2_281_cif.got.tgz:561591.got - 2010.06.03 11:33:40.
