data_PCOD9085373
_publ_section_title
;
Structure prediction by ZEFSAII (Michael W. Deem and Ramdas Pophale) SiO2 
 PCOD9085373
Probable space group: P -1
;
_chemical_formula_sum "Si O2"
_cell_formula_units_Z 16
_cell_length_a 12.913026
_cell_length_b 9.543103
_cell_length_c 11.805902
_cell_angle_alpha 40.807091
_cell_angle_beta 54.775085
_cell_angle_gamma 72.839203
_cell_volume 748.883386
_symmetry_space_group_name_H-M "P -1"
_symmetry_group_IT_number 2
_symmetry_cell_setting 'triclinic'
loop_
_space_group_symop_operation_xyz
x,y,z
-x,-y,-z
loop_
_atom_site_type_symbol
_atom_site_label
_atom_site_fract_x
_atom_site_fract_y
_atom_site_fract_z
Si Si1 0.597722 0.952810 0.276421
Si Si2 0.247569 0.392895 0.581779
Si Si3 0.501038 0.221873 0.797819
Si Si4 0.880347 0.751978 0.478236
Si Si5 0.388183 0.166158 0.329988
Si Si6 0.400188 0.425596 0.940460
Si Si7 0.185521 0.608758 0.069595
Si Si8 0.976398 0.858019 0.984957
O O1 0.674822 0.792192 0.381762
O O2 0.559449 0.845564 0.244467
O O3 0.465568 0.976785 0.406903
O O4 0.701609 0.196544 0.058653
O O5 0.351440 0.623918 0.395505
O O6 0.160142 0.387273 0.527794
O O7 0.163030 0.310620 0.798063
O O8 0.423309 0.356602 0.842100
O O9 0.500000 0.000000 0.000000
O O10 0.760625 0.858038 0.524487
O O11 0.886248 0.578189 0.679951
O O12 0.001347 0.961222 0.239866
O O13 0.477839 0.379455 0.209031
O O14 0.395523 0.227260 0.154270
O O15 0.268292 0.500260 0.997825
O O16 0.085875 0.722282 0.000792
O O17 0.000000 0.000000 0.000000
#
# Coordination Sequence:
#
# PCOD9085373 Si02
#       8
#     2   2   2   2   2   2   2   2
#     4  11  21  35  59  88 126 151 189 242 303 351
#     4  11  23  38  53  88 125 151 199 245 285 358
#     4  12  22  38  59  86 119 163 188 237 307 353
#     4  10  19  35  60  86 120 151 192 240 300 336
#     4   9  17  33  57  89 118 146 191 247 290 355
#     4   9  18  33  57  89 119 145 198 242 291 351
#     4  10  20  38  64  94 114 153 196 249 292 345
#     4  10  21  39  57  89 122 149 203 249 284 340
#
# _framework density 21.365143
#
# number of rings (size 3 to 8) (size 9 to 14) (size 15 to 20)
#    0.000    1.750    5.000    1.875    0.000    3.500 
#    2.250    0.000    0.000    3.750    0.000    0.000 
#    0.000    0.000    0.000    0.000    0.000    0.000 
#
# Total GULP energy -89358.616768 kJ/mol
# GULP energy per Si atom -5584.913548 kJ/mol
# Density = 2.131651 g / cm^3
# Si number density = 21.365143 Si / 1000 Ang^3
#
#
#
# Elastic Constant Matrix: (Units=GPa)
#
#
# Indices 1 2 3 4 5 6 
#
# 1 23.9777 10.6275 11.0770 -6.4143 2.9883 0.1917
# 2 10.6275 74.9667 12.8519 -0.9076 -6.6201 7.5723
# 3 11.0770 12.8519 145.0457 -3.0397 -13.4825 7.2362
# 4 -6.4143 -0.9076 -3.0397 25.6542 -2.3837 8.8897
# 5 2.9883 -6.6201 -13.4825 -2.3837 24.1428 5.2445
# 6 0.1917 7.5723 7.2362 8.8897 5.2445 32.2092
#
#
#
# Elastic Compliance Matrix: (Units=1/GPa)
#
#
# Indices 1 2 3 4 5 6 
#
# 1 0.050865 -0.007347 -0.003950 0.010779 -0.009649 0.000908
# 2 -0.007347 0.015440 0.000048 0.001003 0.006334 -0.004905
# 3 -0.003950 0.000048 0.007917 0.001575 0.005760 -0.003139
# 4 0.010779 0.001003 0.001575 0.047872 0.007837 -0.015143
# 5 -0.009649 0.006334 0.005760 0.007837 0.051216 -0.013228
# 6 0.000908 -0.004905 -0.003139 -0.015143 -0.013228 0.039233
#
#
# Mechanical properties :
#
#
# Convention : Reuss Voigt Hill
#
# Bulk Modulus (GPa) = 19.33375 34.78920 27.06147
# Shear Modulus (GPa) = 19.81906 30.36349 25.09128
#
# Velocity S-wave (km/s) = 3.04901 3.77393 3.43067
# Velocity P-wave (km/s) = 4.63294 5.94210 5.32789
#
# Compressibility (1/GPa) = 0.05172303
#
# Stress axis : x y z
#
# Youngs Moduli (GPa) = 19.65979 64.76861 126.31232
#
# Poissons Ratio (x) = 0.47585 0.49892
# Poissons Ratio (y) = 0.14444 -0.00601
# Poissons Ratio (z) = 0.07765 -0.00308
#
# Static dielectric constant tensor:
#      x y z
#    x 1.829130 -0.031430 0.023560 
#    y -0.031430 1.774850 0.026320 
#    z 0.023560 0.026320 1.841380 
# 
# From -- ./inp_files/272749.got.cif
#   From: 2010.05.17/outbox.cif.g08.bks.cpg/sg2_137_cif.got.tgz:272749.got - 2010.06.03 11:33:40.
