data_PCOD9085737
_publ_section_title
;
Structure prediction by ZEFSAII (Michael W. Deem and Ramdas Pophale) SiO2 
 PCOD9085737
Probable space group: P -1
;
_chemical_formula_sum "Si O2"
_cell_formula_units_Z 16
_cell_length_a 13.888919
_cell_length_b 8.534398
_cell_length_c 11.828735
_cell_angle_alpha 83.642498
_cell_angle_beta 149.326546
_cell_angle_gamma 84.199308
_cell_volume 655.427969
_symmetry_space_group_name_H-M "P -1"
_symmetry_group_IT_number 2
_symmetry_cell_setting 'triclinic'
loop_
_space_group_symop_operation_xyz
x,y,z
-x,-y,-z
loop_
_atom_site_type_symbol
_atom_site_label
_atom_site_fract_x
_atom_site_fract_y
_atom_site_fract_z
Si Si1 0.882739 0.170897 0.792187
Si Si2 0.327092 0.844410 0.047102
Si Si3 0.447096 0.160117 0.068815
Si Si4 0.076492 0.313455 0.540153
Si Si5 0.525963 0.165815 0.554667
Si Si6 0.733051 0.495598 0.744698
Si Si7 0.250325 0.526144 0.973447
Si Si8 0.909629 0.112603 0.561283
O O1 0.646000 0.199126 0.566476
O O2 0.886217 0.340114 0.840799
O O3 0.923583 0.168747 0.700791
O O4 0.000000 0.000000 0.000000
O O5 0.387136 0.644847 0.087171
O O6 0.342054 0.846903 0.198466
O O7 0.095458 0.931047 0.762438
O O8 0.416640 0.989104 0.093584
O O9 0.687315 0.116549 0.309713
O O10 0.317606 0.216158 0.816612
O O11 0.348290 0.335782 0.031411
O O12 0.000000 0.500000 0.500000
O O13 0.974777 0.363941 0.312074
O O14 0.966741 0.220679 0.516178
O O15 0.309536 0.314087 0.353408
O O16 0.500000 0.000000 0.500000
O O17 0.500000 0.500000 0.500000
O O18 0.779336 0.484383 0.923314
#
# Coordination Sequence:
#
# PCOD9085737 Si02
#       8
#     2   2   2   2   2   2   2   2
#     4  11  20  37  61  93 133 164 209 270 334 393
#     4  11  22  41  66  95 133 176 219 267 337 394
#     4  10  23  42  67  98 129 172 228 273 330 401
#     4   9  23  43  69  95 130 175 227 279 335 390
#     4  11  21  37  63  90 129 176 218 265 323 403
#     4  10  19  35  62  94 122 169 221 258 332 407
#     4  11  20  42  68  93 132 178 220 279 333 392
#     4  11  22  41  68  98 133 174 219 280 334 391
#
# _framework density 24.411531
#
# number of rings (size 3 to 8) (size 9 to 14) (size 15 to 20)
#    0.000    1.500    3.750    3.000    0.000    4.000 
#    0.000    6.875    8.250    0.000    0.000    0.875 
#    0.000    0.000    0.000    0.000    0.000    0.000 
#
# Total GULP energy -89253.522728 kJ/mol
# GULP energy per Si atom -5578.345170 kJ/mol
# Density = 2.435597 g / cm^3
# Si number density = 24.411531 Si / 1000 Ang^3
#
#
#
# Elastic Constant Matrix: (Units=GPa)
#
#
# Indices 1 2 3 4 5 6 
#
# 1 59.5437 27.7560 49.1870 -4.6229 -14.1634 -14.9071
# 2 27.7560 168.4984 19.8794 -2.4057 2.8210 -16.9428
# 3 49.1870 19.8794 155.9701 2.9477 -14.3598 8.0356
# 4 -4.6229 -2.4057 2.9477 30.7170 3.9617 -7.0395
# 5 -14.1634 2.8210 -14.3598 3.9617 45.4493 5.9901
# 6 -14.9071 -16.9428 8.0356 -7.0395 5.9901 18.4395
#
#
#
# Elastic Compliance Matrix: (Units=1/GPa)
#
#
# Indices 1 2 3 4 5 6 
#
# 1 0.046461 0.000124 -0.017821 0.020967 -0.000033 0.053457
# 2 0.000124 0.007159 -0.001729 0.003237 -0.002483 0.009474
# 3 -0.017821 -0.001729 0.014213 -0.010965 0.003632 -0.027556
# 4 0.020967 0.003237 -0.010965 0.048410 -0.007358 0.045574
# 5 -0.000033 -0.002483 0.003632 -0.007358 0.025928 -0.015122
# 6 0.053457 0.009474 -0.027556 0.045574 -0.015122 0.140472
#
#
# Mechanical properties :
#
#
# Convention : Reuss Voigt Hill
#
# Bulk Modulus (GPa) = 34.50607 64.18410 49.34509
# Shear Modulus (GPa) = 15.09856 38.06715 26.58286
#
# Velocity S-wave (km/s) = 2.48967 3.95320 3.30350
# Velocity P-wave (km/s) = 4.73608 6.86925 5.89988
#
# Compressibility (1/GPa) = 0.02898041
#
# Stress axis : x y z
#
# Youngs Moduli (GPa) = 21.52327 139.68890 70.35601
#
# Poissons Ratio (x) = -0.01736 1.25384
# Poissons Ratio (y) = -0.00267 0.12168
# Poissons Ratio (z) = 0.38357 0.24159
#
# Static dielectric constant tensor:
#      x y z
#    x 1.971480 0.254890 0.122600 
#    y 0.254890 3.159490 0.355590 
#    z 0.122600 0.355590 2.072580 
# 
# From -- ./inp_files/447569.got.cif
#   From: 2010.05.17/outbox.cif.g08.bks.cpg/sg2_224_cif.got.tgz:447569.got - 2010.06.03 11:33:40.
