data_PCOD9085152
_publ_section_title
;
Structure prediction by ZEFSAII (Michael W. Deem and Ramdas Pophale) SiO2 
 PCOD9085152
Probable space group: P -1
;
_chemical_formula_sum "Si O2"
_cell_formula_units_Z 10
_cell_length_a 8.622934
_cell_length_b 9.755903
_cell_length_c 6.899766
_cell_angle_alpha 133.496506
_cell_angle_beta 73.544113
_cell_angle_gamma 109.345517
_cell_volume 395.989246
_symmetry_space_group_name_H-M "P -1"
_symmetry_group_IT_number 2
_symmetry_cell_setting 'triclinic'
loop_
_space_group_symop_operation_xyz
x,y,z
-x,-y,-z
loop_
_atom_site_type_symbol
_atom_site_label
_atom_site_fract_x
_atom_site_fract_y
_atom_site_fract_z
Si Si1 0.861732 0.731783 0.440989
Si Si2 0.903218 0.185546 0.856747
Si Si3 0.220209 0.223689 0.049017
Si Si4 0.487388 0.456611 0.693034
Si Si5 0.353367 0.868397 0.802043
O O1 0.842994 0.709159 0.656107
O O2 0.706977 0.599894 0.262652
O O3 0.038144 0.717381 0.274334
O O4 0.845375 0.955002 0.627218
O O5 0.768176 0.245899 0.102791
O O6 0.072986 0.216863 0.946978
O O7 0.394826 0.362824 0.075234
O O8 0.256335 0.011025 0.864770
O O9 0.500000 0.500000 0.500000
O O10 0.571470 0.270699 0.499892
O O11 0.500000 0.000000 0.000000
#
# Coordination Sequence:
#
# PCOD9085152 Si02
#       5
#     2   2   2   2   2
#     4   9  18  35  58  81 113 147 184 223 280 329
#     4  10  20  35  59  84 112 146 185 232 274 323
#     4  10  21  37  61  81 114 146 184 230 278 321
#     4  10  19  35  59  83 111 149 184 225 278 331
#     4  11  18  35  62  81 108 154 185 219 283 334
#
# _framework density 25.253214
#
# number of rings (size 3 to 8) (size 9 to 14) (size 15 to 20)
#    0.000    2.000    6.000    2.400    0.000    1.600 
#    0.000    5.000    4.400    0.000    0.000    0.000 
#    0.000    0.000    0.000    0.000    0.000    0.000 
#
# Total GULP energy -55950.928736 kJ/mol
# GULP energy per Si atom -5595.092874 kJ/mol
# Density = 2.519574 g / cm^3
# Si number density = 25.253214 Si / 1000 Ang^3
#
#
#
# Elastic Constant Matrix: (Units=GPa)
#
#
# Indices 1 2 3 4 5 6 
#
# 1 88.0571 40.6614 17.9825 -1.8573 11.0044 23.2454
# 2 40.6614 94.9926 35.1730 -1.2748 2.4912 41.7586
# 3 17.9825 35.1730 72.5380 8.0849 -10.1170 0.1841
# 4 -1.8573 -1.2748 8.0849 34.7676 -0.2143 -3.7757
# 5 11.0044 2.4912 -10.1170 -0.2143 39.3051 -2.5633
# 6 23.2454 41.7586 0.1841 -3.7757 -2.5633 45.1967
#
#
#
# Elastic Compliance Matrix: (Units=1/GPa)
#
#
# Indices 1 2 3 4 5 6 
#
# 1 0.015492 -0.002774 -0.003327 0.000855 -0.005380 -0.005624
# 2 -0.002774 0.027594 -0.013627 0.001362 -0.006053 -0.024242
# 3 -0.003327 -0.013627 0.022869 -0.004386 0.008592 0.014329
# 4 0.000855 0.001362 -0.004386 0.029952 -0.001243 0.000751
# 5 -0.005380 -0.006053 0.008592 -0.001243 0.030184 0.009933
# 6 -0.005624 -0.024242 0.014329 0.000751 0.009933 0.047984
#
#
# Mechanical properties :
#
#
# Convention : Reuss Voigt Hill
#
# Bulk Modulus (GPa) = 37.73723 49.24682 43.49203
# Shear Modulus (GPa) = 22.48558 34.63861 28.56209
#
# Velocity S-wave (km/s) = 2.98720 3.70760 3.36672
# Velocity P-wave (km/s) = 5.18400 6.15402 5.68972
#
# Compressibility (1/GPa) = 0.02649903
#
# Stress axis : x y z
#
# Youngs Moduli (GPa) = 64.55012 36.23939 43.72721
#
# Poissons Ratio (x) = 0.10054 0.14546
# Poissons Ratio (y) = 0.17909 0.59587
# Poissons Ratio (z) = 0.21473 0.49383
#
# Static dielectric constant tensor:
#      x y z
#    x 1.940750 -0.014120 -0.046090 
#    y -0.014120 2.082250 -0.019380 
#    z -0.046090 -0.019380 2.078570 
# 
# From -- ./inp_files/144339.got.cif
#   From: 2010.05.17/outbox.cif.g08.bks.cpg/sg2_73_cif.got.tgz:144339.got - 2010.06.03 11:33:40.
