data_PCOD9085362
_publ_section_title
;
Structure prediction by ZEFSAII (Michael W. Deem and Ramdas Pophale) SiO2 
 PCOD9085362
Probable space group: P -1
;
_chemical_formula_sum "Si O2"
_cell_formula_units_Z 14
_cell_length_a 9.098733
_cell_length_b 18.290643
_cell_length_c 5.328490
_cell_angle_alpha 77.274223
_cell_angle_beta 101.529274
_cell_angle_gamma 52.080892
_cell_volume 614.211884
_symmetry_space_group_name_H-M "P -1"
_symmetry_group_IT_number 2
_symmetry_cell_setting 'triclinic'
loop_
_space_group_symop_operation_xyz
x,y,z
-x,-y,-z
loop_
_atom_site_type_symbol
_atom_site_label
_atom_site_fract_x
_atom_site_fract_y
_atom_site_fract_z
Si Si1 0.003395 0.949670 0.288407
Si Si2 0.064608 0.587284 0.166908
Si Si3 0.641385 0.779507 0.158440
Si Si4 0.397049 0.751739 0.796629
Si Si5 0.754123 0.619063 0.680535
Si Si6 0.881713 0.270439 0.034512
Si Si7 0.851548 0.850041 0.283171
O O1 0.217333 0.829795 0.476396
O O2 0.825778 0.947609 0.235654
O O3 0.000000 0.000000 0.500000
O O4 0.000000 0.000000 0.000000
O O5 0.189675 0.472553 0.396504
O O6 0.867639 0.679598 0.195589
O O7 0.188213 0.620070 0.122802
O O8 0.958487 0.589155 0.879633
O O9 0.627591 0.729163 0.426377
O O10 0.660002 0.859638 0.174580
O O11 0.469652 0.806295 0.894132
O O12 0.602136 0.645016 0.830044
O O13 0.294500 0.730069 0.975350
O O14 0.024083 0.221192 0.372750
O O15 0.017986 0.201385 0.892090
#
# Coordination Sequence:
#
# PCOD9085362 Si02
#       7
#     2   2   2   2   2   2   2
#     4  11  24  44  68  90 118 156 203 255 316 382
#     4   9  19  35  56  91 121 176 210 241 288 360
#     4  10  20  37  61  90 124 169 203 248 299 366
#     4  10  24  37  61  92 121 159 204 262 314 351
#     4  10  19  35  60  85 131 161 211 250 297 350
#     4  10  20  38  60  90 125 167 209 245 296 364
#     4  10  21  40  66  88 120 165 202 244 311 376
#
# _framework density 22.793436
#
# number of rings (size 3 to 8) (size 9 to 14) (size 15 to 20)
#    0.000    2.000    1.429    2.143    6.000    0.571 
#    0.000    2.143    0.000    0.000    0.000    0.000 
#    0.000    0.000    0.000    0.000    0.000    0.000 
#
# Total GULP energy -78127.124467 kJ/mol
# GULP energy per Si atom -5580.508890 kJ/mol
# Density = 2.274156 g / cm^3
# Si number density = 22.793436 Si / 1000 Ang^3
#
#
#
# Elastic Constant Matrix: (Units=GPa)
#
#
# Indices 1 2 3 4 5 6 
#
# 1 146.9270 53.5135 34.7905 1.3849 -1.7850 30.6825
# 2 53.5135 77.2591 14.0966 7.7639 -4.1445 22.0993
# 3 34.7905 14.0966 71.1508 19.4626 -10.2302 0.2012
# 4 1.3849 7.7639 19.4626 25.4547 1.8120 1.1720
# 5 -1.7850 -4.1445 -10.2302 1.8120 37.0855 -2.5344
# 6 30.6825 22.0993 0.2012 1.1720 -2.5344 36.0547
#
#
#
# Elastic Compliance Matrix: (Units=1/GPa)
#
#
# Indices 1 2 3 4 5 6 
#
# 1 0.011949 -0.005867 -0.006981 0.006998 -0.002824 -0.006960
# 2 -0.005867 0.019437 0.001036 -0.006243 0.002031 -0.006581
# 3 -0.006981 0.001036 0.023452 -0.018699 0.007594 0.006317
# 4 0.006998 -0.006243 -0.018699 0.055920 -0.008555 -0.004444
# 5 -0.002824 0.002031 0.007594 -0.008555 0.029807 0.003489
# 6 -0.006960 -0.006581 0.006317 -0.004444 0.003489 0.038047
#
#
# Mechanical properties :
#
#
# Convention : Reuss Voigt Hill
#
# Bulk Modulus (GPa) = 32.03667 55.57091 43.80379
# Shear Modulus (GPa) = 23.51403 32.58141 28.04772
#
# Velocity S-wave (km/s) = 3.21536 3.78487 3.51168
# Velocity P-wave (km/s) = 5.27925 6.59799 5.97511
#
# Compressibility (1/GPa) = 0.03121423
#
# Stress axis : x y z
#
# Youngs Moduli (GPa) = 83.68892 51.44887 42.64058
#
# Poissons Ratio (x) = 0.30184 0.29768
# Poissons Ratio (y) = 0.49098 -0.04418
# Poissons Ratio (z) = 0.58424 -0.05331
#
# Static dielectric constant tensor:
#      x y z
#    x 1.850700 0.000860 -0.009190 
#    y 0.000860 1.876190 -0.030880 
#    z -0.009190 -0.030880 1.890570 
# 
# From -- ./inp_files/34280.got.cif
#   From: 2010.05.17/outbox.cif.g08.bks.cpg/sg2_18_cif.got.tgz:34280.got - 2010.06.03 11:33:40.
