data_PCOD9085706
_publ_section_title
;
Structure prediction by ZEFSAII (Michael W. Deem and Ramdas Pophale) SiO2 
 PCOD9085706
Probable space group: P -1
;
_chemical_formula_sum "Si O2"
_cell_formula_units_Z 16
_cell_length_a 7.339342
_cell_length_b 24.325470
_cell_length_c 9.744577
_cell_angle_alpha 31.391977
_cell_angle_beta 125.942483
_cell_angle_gamma 129.665650
_cell_volume 693.726688
_symmetry_space_group_name_H-M "P -1"
_symmetry_group_IT_number 2
_symmetry_cell_setting 'triclinic'
loop_
_space_group_symop_operation_xyz
x,y,z
-x,-y,-z
loop_
_atom_site_type_symbol
_atom_site_label
_atom_site_fract_x
_atom_site_fract_y
_atom_site_fract_z
Si Si1 0.802914 0.029000 0.695688
Si Si2 0.681313 0.127590 0.164542
Si Si3 0.834286 0.034984 0.186878
Si Si4 0.437271 0.815603 0.399608
Si Si5 0.987580 0.351062 0.901047
Si Si6 0.189008 0.246409 0.463853
Si Si7 0.226181 0.462069 0.504193
Si Si8 0.003413 0.622934 0.693551
O O1 0.692714 0.095757 0.396700
O O2 0.998404 0.122496 0.669729
O O3 0.580827 0.941332 0.857958
O O4 0.936506 0.965192 0.795613
O O5 0.860955 0.084565 0.245554
O O6 0.771681 0.259668 0.922738
O O7 0.652541 0.907915 0.375939
O O8 0.716004 0.113698 0.884047
O O9 0.560664 0.764813 0.444038
O O10 0.264559 0.715224 0.625866
O O11 0.180559 0.407138 0.751036
O O12 0.881052 0.436879 0.744716
O O13 0.100328 0.292132 0.189461
O O14 0.173697 0.330718 0.395570
O O15 0.500000 0.500000 0.500000
O O16 0.074302 0.382966 0.486612
O O17 0.000000 0.500000 0.000000
#
# Coordination Sequence:
#
# PCOD9085706 Si02
#       8
#     2   2   2   2   2   2   2   2
#     4   9  20  36  61  96 128 162 207 258 317 383
#     4  10  19  35  62  90 125 168 205 255 319 384
#     4  10  20  39  59  92 128 167 208 259 317 385
#     4  10  24  39  63  91 129 167 212 266 322 378
#     4  10  23  42  63  91 129 167 215 264 320 379
#     4  10  22  42  67  95 128 170 212 265 319 382
#     4  11  26  45  64  92 126 167 216 273 322 372
#     4  12  25  43  67  98 124 169 223 265 321 388
#
# _framework density 23.063836999999999
#
# number of rings (size 3 to 8) (size 9 to 14) (size 15 to 20)
#    0.000    1.750    1.250    1.875    1.750    6.500 
#    0.000    3.750    0.000    0.000    0.000    0.000 
#    0.000    0.000    0.000    0.000    0.000    0.000 
#
# Total GULP energy -89504.543587 kJ/mol
# GULP energy per Si atom -5594.033974 kJ/mol
# Density = 2.301134 g / cm^3
# Si number density = 23.063837 Si / 1000 Ang^3
#
#
#
# Elastic Constant Matrix: (Units=GPa)
#
#
# Indices 1 2 3 4 5 6 
#
# 1 119.5725 16.7108 43.7442 -15.9217 9.1358 2.8933
# 2 16.7108 42.2255 17.9656 -6.8739 8.3931 -13.3027
# 3 43.7442 17.9656 76.7596 -12.6063 -2.5943 2.3276
# 4 -15.9217 -6.8739 -12.6063 36.4440 -6.3701 4.8012
# 5 9.1358 8.3931 -2.5943 -6.3701 31.9452 -9.2131
# 6 2.8933 -13.3027 2.3276 4.8012 -9.2131 36.7775
#
#
#
# Elastic Compliance Matrix: (Units=1/GPa)
#
#
# Indices 1 2 3 4 5 6 
#
# 1 0.011326 -0.001713 -0.005714 0.002351 -0.003454 -0.002321
# 2 -0.001713 0.031778 -0.006872 0.000547 -0.005227 0.010683
# 3 -0.005714 -0.006872 0.018779 0.003909 0.005030 -0.002475
# 4 0.002351 0.000547 0.003909 0.031173 0.004825 -0.003095
# 5 -0.003454 -0.005227 0.005030 0.004825 0.036966 0.006693
# 6 -0.002321 0.010683 -0.002475 -0.003095 0.006693 0.033475
#
#
# Mechanical properties :
#
#
# Convention : Reuss Voigt Hill
#
# Bulk Modulus (GPa) = 30.04363 43.93320 36.98842
# Shear Modulus (GPa) = 24.60763 31.70914 28.15838
#
# Velocity S-wave (km/s) = 3.26994 3.71191 3.49791
# Velocity P-wave (km/s) = 5.22602 6.12053 5.69088
#
# Compressibility (1/GPa) = 0.03328492
#
# Stress axis : x y z
#
# Youngs Moduli (GPa) = 88.29305 31.46842 53.25026
#
# Poissons Ratio (x) = 0.05392 0.30426
# Poissons Ratio (y) = 0.15128 0.36593
# Poissons Ratio (z) = 0.50449 0.21625
#
# Static dielectric constant tensor:
#      x y z
#    x 1.843610 0.004410 -0.032170 
#    y 0.004410 1.909450 0.021690 
#    z -0.032170 0.021690 1.898110 
# 
# From -- ./inp_files/371033.got.cif
#   From: 2010.05.17/outbox.cif.g08.bks.cpg/sg2_186_cif.got.tgz:371033.got - 2010.06.03 11:33:40.
