data_PCOD9085457
_publ_section_title
;
Structure prediction by ZEFSAII (Michael W. Deem and Ramdas Pophale) SiO2 
 PCOD9085457
Probable space group: P -1
;
_chemical_formula_sum "Si O2"
_cell_formula_units_Z 16
_cell_length_a 14.611203
_cell_length_b 9.842469
_cell_length_c 15.269778
_cell_angle_alpha 39.596617
_cell_angle_beta 29.683886
_cell_angle_gamma 32.066515
_cell_volume 572.397791
_symmetry_space_group_name_H-M "P -1"
_symmetry_group_IT_number 2
_symmetry_cell_setting 'triclinic'
loop_
_space_group_symop_operation_xyz
x,y,z
-x,-y,-z
loop_
_atom_site_type_symbol
_atom_site_label
_atom_site_fract_x
_atom_site_fract_y
_atom_site_fract_z
Si Si1 0.164782 0.187645 0.519855
Si Si2 0.368278 0.196901 0.597694
Si Si3 0.229810 0.681488 0.579221
Si Si4 0.646197 0.874541 0.781662
Si Si5 0.380085 0.609416 0.819983
Si Si6 0.234961 0.447144 0.854689
Si Si7 0.741911 0.077807 0.750184
Si Si8 0.925896 0.279432 0.834860
O O1 0.217959 0.080093 0.429668
O O2 0.000000 0.500000 0.500000
O O3 0.028928 0.130880 0.731185
O O4 0.418495 0.063333 0.406079
O O5 0.269218 0.412962 0.647048
O O6 0.498279 0.266849 0.385593
O O7 0.854548 0.754018 0.286862
O O8 0.316553 0.588544 0.653241
O O9 0.268924 0.776507 0.404631
O O10 0.968520 0.898799 0.700116
O O11 0.736568 0.584798 0.824482
O O12 0.403051 0.137572 0.854915
O O13 0.710380 0.872381 0.830547
O O14 0.250469 0.550992 0.884406
O O15 0.576493 0.317790 0.829159
O O16 0.212372 0.775348 0.955374
O O17 0.000000 0.500000 0.000000
#
# Coordination Sequence:
#
# PCOD9085457 Si02
#       8
#     2   2   2   2   2   2   2   2
#     4  10  23  41  66  91 118 169 217 262 318 366
#     4  11  21  42  68  89 123 169 208 262 316 370
#     4  10  19  35  60  92 124 163 201 248 310 382
#     4  10  21  37  63  88 124 170 206 256 314 372
#     4  10  25  38  63 101 125 166 208 254 314 381
#     4  11  23  36  59  96 135 165 202 254 320 378
#     4   9  20  35  60  93 125 159 202 247 311 376
#     4  11  23  43  64  89 127 165 217 263 309 368
#
# _framework density 27.952587000000001
#
# number of rings (size 3 to 8) (size 9 to 14) (size 15 to 20)
#    0.000    1.750    2.500    1.125    3.500    3.000 
#    0.000    0.000    0.000    4.500    0.000    0.000 
#    0.000    0.000    0.000    0.000    0.000    0.000 
#
# Total GULP energy -89266.125527 kJ/mol
# GULP energy per Si atom -5579.132845 kJ/mol
# Density = 2.788897 g / cm^3
# Si number density = 27.952587 Si / 1000 Ang^3
#
#
#
# Elastic Constant Matrix: (Units=GPa)
#
#
# Indices 1 2 3 4 5 6 
#
# 1 63.5939 3.3977 25.8208 5.1414 10.9155 -6.4103
# 2 3.3977 150.8268 22.4024 16.7199 -16.4671 -15.9225
# 3 25.8208 22.4024 174.5968 11.9486 16.0856 -0.5504
# 4 5.1414 16.7199 11.9486 64.2195 7.4211 9.9424
# 5 10.9155 -16.4671 16.0856 7.4211 46.4388 10.7521
# 6 -6.4103 -15.9225 -0.5504 9.9424 10.7521 15.4369
#
#
#
# Elastic Compliance Matrix: (Units=1/GPa)
#
#
# Indices 1 2 3 4 5 6 
#
# 1 0.019531 0.001192 -0.002167 -0.003170 -0.006591 0.015895
# 2 0.001192 0.008480 -0.001072 -0.003930 0.001203 0.010896
# 3 -0.002167 -0.001072 0.006403 -0.000498 -0.001993 -0.000068
# 4 -0.003170 -0.003930 -0.000498 0.019738 0.000668 -0.018566
# 5 -0.006591 0.001203 -0.001993 0.000668 0.029277 -0.022389
# 6 0.015895 0.010896 -0.000068 -0.018566 -0.022389 0.110169
#
#
# Mechanical properties :
#
#
# Convention : Reuss Voigt Hill
#
# Bulk Modulus (GPa) = 32.98258 54.69550 43.83904
# Shear Modulus (GPa) = 24.06177 47.71213 35.88695
#
# Velocity S-wave (km/s) = 2.93713 4.13594 3.58697
# Velocity P-wave (km/s) = 4.82985 6.51289 5.73346
#
# Compressibility (1/GPa) = 0.03031904
#
# Stress axis : x y z
#
# Youngs Moduli (GPa) = 51.20133 117.92809 156.17729
#
# Poissons Ratio (x) = -0.14053 0.33844
# Poissons Ratio (y) = -0.06101 0.16740
# Poissons Ratio (z) = 0.11095 0.12640
#
# Static dielectric constant tensor:
#      x y z
#    x 2.192930 0.042500 -0.065400 
#    y 0.042500 2.332870 -0.193300 
#    z -0.065400 -0.193300 2.384210 
# 
# From -- ./inp_files/333458.got.cif
#   From: 2010.05.17/outbox.cif.g08.bks.cpg/sg2_167_cif.got.tgz:333458.got - 2010.06.03 11:33:40.
