data_PCOD9085443
_publ_section_title
;
Structure prediction by ZEFSAII (Michael W. Deem and Ramdas Pophale) SiO2 
 PCOD9085443
Probable space group: P -1
;
_chemical_formula_sum "Si O2"
_cell_formula_units_Z 16
_cell_length_a 17.289005
_cell_length_b 8.768969
_cell_length_c 7.169191
_cell_angle_alpha 125.947995
_cell_angle_beta 57.262570
_cell_angle_gamma 103.573746
_cell_volume 734.644804
_symmetry_space_group_name_H-M "P -1"
_symmetry_group_IT_number 2
_symmetry_cell_setting 'triclinic'
loop_
_space_group_symop_operation_xyz
x,y,z
-x,-y,-z
loop_
_atom_site_type_symbol
_atom_site_label
_atom_site_fract_x
_atom_site_fract_y
_atom_site_fract_z
Si Si1 0.781480 0.758505 0.008368
Si Si2 0.648655 0.154844 0.827713
Si Si3 0.185364 0.646636 0.243429
Si Si4 0.734642 0.748532 0.508111
Si Si5 0.101828 0.909739 0.858506
Si Si6 0.897516 0.439372 0.108853
Si Si7 0.543055 0.681490 0.644471
Si Si8 0.597616 0.932402 0.411581
O O1 0.763260 0.748661 0.250198
O O2 0.845516 0.921267 0.007526
O O3 0.679350 0.820666 0.102733
O O4 0.823464 0.543798 0.764534
O O5 0.706589 0.329156 0.911642
O O6 0.644340 0.099244 0.574841
O O7 0.700192 0.972924 0.742743
O O8 0.541502 0.198931 0.053247
O O9 0.148539 0.825787 0.545901
O O10 0.134625 0.632760 0.103206
O O11 0.823495 0.623478 0.390152
O O12 0.642243 0.647033 0.592544
O O13 0.102122 0.735114 0.874685
O O14 0.000000 0.000000 0.000000
O O15 0.000000 0.500000 0.000000
O O16 0.500000 0.500000 0.500000
O O17 0.570694 0.797545 0.514304
O O18 0.500000 0.000000 0.500000
#
# Coordination Sequence:
#
# PCOD9085443 Si02
#       8
#     2   2   2   2   2   2   2   2
#     4   9  20  41  63  94 133 171 215 275 326 385
#     4  10  19  40  67  91 129 179 218 261 336 382
#     4  11  23  47  71  92 136 179 213 274 338 386
#     4   9  18  39  62  89 135 169 217 275 313 392
#     4  12  25  46  70  98 134 169 220 280 333 395
#     4  11  26  44  71 102 130 173 226 270 332 403
#     4  10  19  35  60  90 127 177 215 261 323 382
#     4  10  20  36  60  92 132 166 212 271 316 380
#
# _framework density 21.779230999999999
#
# number of rings (size 3 to 8) (size 9 to 14) (size 15 to 20)
#    0.000    2.000    2.500    5.250    0.000    4.500 
#    6.750    1.250    0.000    0.000    0.000    0.000 
#    0.000    0.000    0.000    0.000    0.000    0.000 
#
# Total GULP energy -89262.294017 kJ/mol
# GULP energy per Si atom -5578.893376 kJ/mol
# Density = 2.172966 g / cm^3
# Si number density = 21.779231 Si / 1000 Ang^3
#
#
#
# Elastic Constant Matrix: (Units=GPa)
#
#
# Indices 1 2 3 4 5 6 
#
# 1 132.8941 45.5566 28.0160 1.1564 -28.4473 7.4606
# 2 45.5566 91.6356 17.2223 6.2781 -9.7329 14.5306
# 3 28.0160 17.2223 68.6611 14.6217 -28.6601 2.4768
# 4 1.1564 6.2781 14.6217 31.3495 1.5410 -2.9971
# 5 -28.4473 -9.7329 -28.6601 1.5410 48.0834 2.6615
# 6 7.4606 14.5306 2.4768 -2.9971 2.6615 42.4898
#
#
#
# Elastic Compliance Matrix: (Units=1/GPa)
#
#
# Indices 1 2 3 4 5 6 
#
# 1 0.010271 -0.004367 -0.001484 0.000935 0.004302 -0.000427
# 2 -0.004367 0.014119 -0.001092 -0.002553 -0.000064 -0.004174
# 3 -0.001484 -0.001092 0.023648 -0.011651 0.013504 -0.002412
# 4 0.000935 -0.002553 -0.011651 0.038666 -0.008404 0.004642
# 5 0.004302 -0.000064 0.013504 -0.008404 0.031875 -0.004110
# 6 -0.000427 -0.004174 -0.002412 0.004642 -0.004110 0.025763
#
#
# Mechanical properties :
#
#
# Convention : Reuss Voigt Hill
#
# Bulk Modulus (GPa) = 29.27951 52.75339 41.01645
# Shear Modulus (GPa) = 29.47892 37.87761 33.67826
#
# Velocity S-wave (km/s) = 3.68303 4.17485 3.93663
# Velocity P-wave (km/s) = 5.61776 6.89301 6.28780
#
# Compressibility (1/GPa) = 0.03415358
#
# Stress axis : x y z
#
# Youngs Moduli (GPa) = 97.35838 70.82611 42.28634
#
# Poissons Ratio (x) = 0.30929 0.06274
# Poissons Ratio (y) = 0.42516 0.04617
# Poissons Ratio (z) = 0.14445 0.07734
#
# Static dielectric constant tensor:
#      x y z
#    x 1.903710 0.021440 0.022850 
#    y 0.021440 1.802980 0.030460 
#    z 0.022850 0.030460 1.896120 
# 
# From -- ./inp_files/329517.got.cif
#   From: 2010.05.17/outbox.cif.g08.bks.cpg/sg2_165_cif.got.tgz:329517.got - 2010.06.03 11:33:40.
