data_PCOD9085188
_publ_section_title
;
Structure prediction by ZEFSAII (Michael W. Deem and Ramdas Pophale) SiO2 
 PCOD9085188
Probable space group: P -1
;
_chemical_formula_sum "Si O2"
_cell_formula_units_Z 16
_cell_length_a 9.643852
_cell_length_b 18.556159
_cell_length_c 5.529290
_cell_angle_alpha 79.671356
_cell_angle_beta 131.854403
_cell_angle_gamma 86.213813
_cell_volume 701.405812
_symmetry_space_group_name_H-M "P -1"
_symmetry_group_IT_number 2
_symmetry_cell_setting 'triclinic'
loop_
_space_group_symop_operation_xyz
x,y,z
-x,-y,-z
loop_
_atom_site_type_symbol
_atom_site_label
_atom_site_fract_x
_atom_site_fract_y
_atom_site_fract_z
Si Si1 0.348276 0.187058 0.682091
Si Si2 0.893301 0.033098 0.601054
Si Si3 0.969816 0.420529 0.094854
Si Si4 0.105654 0.306743 0.952617
Si Si5 0.366842 0.331294 0.847825
Si Si6 0.378374 0.056319 0.516305
Si Si7 0.422064 0.546085 0.128472
Si Si8 0.058873 0.163915 0.745164
O O1 0.433310 0.241649 0.920939
O O2 0.474760 0.115222 0.730620
O O3 0.193042 0.155640 0.670554
O O4 0.225228 0.246487 0.315952
O O5 0.888561 0.122198 0.545600
O O6 0.706034 0.001364 0.391845
O O7 0.000000 0.000000 0.500000
O O8 0.000000 0.000000 0.000000
O O9 0.170611 0.372484 0.458715
O O10 0.805155 0.433222 0.096190
O O11 0.000000 0.500000 0.000000
O O12 0.944782 0.371183 0.860377
O O13 0.274908 0.338525 0.005841
O O14 0.015944 0.252985 0.706405
O O15 0.513877 0.376751 0.894240
O O16 0.500000 0.000000 0.500000
O O17 0.201077 0.114010 0.138838
O O18 0.500000 0.500000 0.500000
O O19 0.500000 0.500000 0.000000
#
# Coordination Sequence:
#
# PCOD9085188 Si02
#       8
#     2   2   2   2   2   2   2   2
#     4   9  18  37  61  81 120 162 209 249 319 373
#     4  10  19  35  59  85 114 156 200 248 300 366
#     4  11  22  40  67  95 126 168 214 264 318 387
#     4   9  20  37  64  86 118 165 215 254 317 376
#     4  10  22  41  66  92 125 173 210 266 323 378
#     4  10  20  34  57  90 120 158 205 256 315 373
#     4  12  27  43  67 101 134 167 212 268 322 385
#     4   9  18  36  60  83 117 164 202 258 309 375
#
# _framework density 22.811330999999999
#
# number of rings (size 3 to 8) (size 9 to 14) (size 15 to 20)
#    0.000    2.000    2.500    0.750    3.500    1.500 
#    2.250    0.000   22.000    0.000    0.000    0.000 
#    0.000    0.000    0.000    0.000    0.000    0.000 
#
# Total GULP energy -89136.672156 kJ/mol
# GULP energy per Si atom -5571.042010 kJ/mol
# Density = 2.275941 g / cm^3
# Si number density = 22.811331 Si / 1000 Ang^3
#
#
#
# Elastic Constant Matrix: (Units=GPa)
#
#
# Indices 1 2 3 4 5 6 
#
# 1 155.7285 88.2712 5.4183 9.4687 -16.3675 6.7419
# 2 88.2712 153.5014 14.0702 0.5365 -4.6725 -6.9599
# 3 5.4183 14.0702 45.8237 -10.6179 -16.0040 -1.4038
# 4 9.4687 0.5365 -10.6179 21.3551 0.7909 -11.0440
# 5 -16.3675 -4.6725 -16.0040 0.7909 34.2438 -1.7939
# 6 6.7419 -6.9599 -1.4038 -11.0440 -1.7939 56.8664
#
#
#
# Elastic Compliance Matrix: (Units=1/GPa)
#
#
# Indices 1 2 3 4 5 6 
#
# 1 0.011017 -0.006384 0.000807 -0.006104 0.004750 -0.003103
# 2 -0.006384 0.010454 -0.002806 0.002501 -0.002870 0.002362
# 3 0.000807 -0.002806 0.031815 0.017126 0.014693 0.004136
# 4 -0.006104 0.002501 0.017126 0.065188 0.004669 0.014260
# 5 0.004750 -0.002870 0.014693 0.004669 0.037922 0.001551
# 6 -0.003103 0.002362 0.004136 0.014260 0.001551 0.021162
#
#
# Mechanical properties :
#
#
# Convention : Reuss Voigt Hill
#
# Bulk Modulus (GPa) = 27.38114 63.39702 45.38908
# Shear Modulus (GPa) = 24.21358 38.97933 31.59646
#
# Velocity S-wave (km/s) = 3.26156 4.13821 3.72576
# Velocity P-wave (km/s) = 5.11987 7.11936 6.20074
#
# Compressibility (1/GPa) = 0.03652149
#
# Stress axis : x y z
#
# Youngs Moduli (GPa) = 90.77190 95.65880 31.43129
#
# Poissons Ratio (x) = 0.61068 -0.02537
# Poissons Ratio (y) = 0.57948 0.08818
# Poissons Ratio (z) = -0.07327 0.26837
#
# Static dielectric constant tensor:
#      x y z
#    x 1.750630 -0.064130 -0.012280 
#    y -0.064130 1.957020 0.144010 
#    z -0.012280 0.144010 1.988320 
# 
# From -- ./inp_files/43620.got.cif
#   From: 2010.05.17/outbox.cif.g08.bks.cpg/sg2_22_cif.got.tgz:43620.got - 2010.06.03 11:33:40.
