data_PCOD9085695
_publ_section_title
;
Structure prediction by ZEFSAII (Michael W. Deem and Ramdas Pophale) SiO2 
 PCOD9085695
Probable space group: P -1
;
_chemical_formula_sum "Si O2"
_cell_formula_units_Z 14
_cell_length_a 7.836490
_cell_length_b 9.012593
_cell_length_c 12.514927
_cell_angle_alpha 50.267550
_cell_angle_beta 92.629353
_cell_angle_gamma 65.911595
_cell_volume 558.180408
_symmetry_space_group_name_H-M "P -1"
_symmetry_group_IT_number 2
_symmetry_cell_setting 'triclinic'
loop_
_space_group_symop_operation_xyz
x,y,z
-x,-y,-z
loop_
_atom_site_type_symbol
_atom_site_label
_atom_site_fract_x
_atom_site_fract_y
_atom_site_fract_z
Si Si1 0.945454 0.930815 0.272907
Si Si2 0.674546 0.162329 0.765590
Si Si3 0.719230 0.463353 0.043296
Si Si4 0.336012 0.145504 0.276768
Si Si5 0.257327 0.122512 0.906022
Si Si6 0.226297 0.002095 0.542835
Si Si7 0.268629 0.524231 0.718096
O O1 0.914844 0.861660 0.420739
O O2 0.782490 0.965953 0.163672
O O3 0.895906 0.188993 0.167404
O O4 0.177292 0.768816 0.310318
O O5 0.472624 0.382573 0.714331
O O6 0.619083 0.047678 0.722056
O O7 0.805788 0.965050 0.953041
O O8 0.762990 0.609888 0.898302
O O9 0.500000 0.500000 0.000000
O O10 0.692570 0.550558 0.122068
O O11 0.545171 0.097242 0.358145
O O12 0.203401 0.141572 0.371364
O O13 0.153554 0.395329 0.749343
O O14 0.500000 0.000000 0.000000
O O15 0.210722 0.787590 0.606632
#
# Coordination Sequence:
#
# PCOD9085695 Si02
#       7
#     2   2   2   2   2   2   2
#     4  11  23  39  62  92 126 151 199 244 311 345
#     4  11  23  36  61  95 126 153 187 259 304 353
#     4  11  19  37  66  90 113 157 202 253 278 359
#     4  11  22  40  65  87 121 158 208 237 297 348
#     4  10  19  35  62  90 116 156 195 250 288 352
#     4  10  23  41  64  88 113 167 206 244 275 367
#     4  10  20  37  64  89 119 153 208 241 296 344
#
# _framework density 25.081495
#
# number of rings (size 3 to 8) (size 9 to 14) (size 15 to 20)
#    0.000    1.429    4.286    3.857    0.000    1.714 
#    0.000    0.000    0.000    4.286    0.000    0.000 
#    0.000    0.000    0.000    0.000    0.000    0.000 
#
# Total GULP energy -78275.035136 kJ/mol
# GULP energy per Si atom -5591.073938 kJ/mol
# Density = 2.502441 g / cm^3
# Si number density = 25.081495 Si / 1000 Ang^3
#
#
#
# Elastic Constant Matrix: (Units=GPa)
#
#
# Indices 1 2 3 4 5 6 
#
# 1 74.4298 27.4182 40.0730 15.0639 -1.1612 15.0714
# 2 27.4182 140.0156 62.7060 18.5852 -4.9787 5.4296
# 3 40.0730 62.7060 159.9092 21.7272 -33.9443 3.5182
# 4 15.0639 18.5852 21.7272 47.5614 -0.4780 -0.8554
# 5 -1.1612 -4.9787 -33.9443 -0.4780 51.7927 14.2487
# 6 15.0714 5.4296 3.5182 -0.8554 14.2487 39.5043
#
#
#
# Elastic Compliance Matrix: (Units=1/GPa)
#
#
# Indices 1 2 3 4 5 6 
#
# 1 0.017722 -0.001236 -0.003363 -0.003709 -0.000229 -0.006289
# 2 -0.001236 0.009029 -0.003286 -0.001650 -0.001318 -0.000037
# 3 -0.003363 -0.003286 0.010145 -0.002248 0.006685 -0.001629
# 4 -0.003709 -0.001650 -0.002248 0.023906 -0.002379 0.003218
# 5 -0.000229 -0.001318 0.006685 -0.002379 0.026243 -0.009844
# 6 -0.006289 -0.000037 -0.001629 0.003218 -0.009844 0.031484
#
#
# Mechanical properties :
#
#
# Convention : Reuss Voigt Hill
#
# Bulk Modulus (GPa) = 47.33324 70.52765 58.93045
# Shear Modulus (GPa) = 35.37563 44.04884 39.71223
#
# Velocity S-wave (km/s) = 3.75964 4.19528 3.98342
# Velocity P-wave (km/s) = 6.14486 7.18663 6.68606
#
# Compressibility (1/GPa) = 0.02112680
#
# Stress axis : x y z
#
# Youngs Moduli (GPa) = 56.42695 110.75181 98.57144
#
# Poissons Ratio (x) = 0.13693 0.33146
# Poissons Ratio (y) = 0.06976 0.32388
# Poissons Ratio (z) = 0.18974 0.36390
#
# Static dielectric constant tensor:
#      x y z
#    x 2.112450 0.502270 -0.193290 
#    y 0.502270 6.783690 -1.926600 
#    z -0.193290 -1.926600 2.817030 
# 
# From -- ./inp_files/377914.got.cif
#   From: 2010.05.17/outbox.cif.g08.bks.cpg/sg2_189_cif.got.tgz:377914.got - 2010.06.03 11:33:40.
