data_PCOD9085958
_publ_section_title
;
Structure prediction by ZEFSAII (Michael W. Deem and Ramdas Pophale) SiO2 
 PCOD9085958
Probable space group: P -1
;
_chemical_formula_sum "Si O2"
_cell_formula_units_Z 13
_cell_length_a 11.573606
_cell_length_b 14.815325
_cell_length_c 5.497339
_cell_angle_alpha 90.056964
_cell_angle_beta 84.495253
_cell_angle_gamma 31.256175
_cell_volume 480.505048
_symmetry_space_group_name_H-M "P -1"
_symmetry_group_IT_number 2
_symmetry_cell_setting 'triclinic'
loop_
_space_group_symop_operation_xyz
x,y,z
-x,-y,-z
loop_
_atom_site_type_symbol
_atom_site_label
_atom_site_fract_x
_atom_site_fract_y
_atom_site_fract_z
Si Si1 0.361489 0.896834 0.130078
Si Si2 0.190872 0.194909 0.951164
Si Si3 0.649215 0.553418 0.029817
Si Si4 0.000000 0.000000 0.000000
Si Si5 0.896476 0.668509 0.532060
Si Si6 0.995776 0.896994 0.432615
Si Si7 0.689603 0.466464 0.517251
O O1 0.609398 0.688129 0.060330
O O2 0.309994 0.020816 0.991425
O O3 0.246139 0.980577 0.423746
O O4 0.227057 0.900051 0.049069
O O5 0.920463 0.356612 0.986926
O O6 0.225889 0.230869 0.187125
O O7 0.241192 0.210881 0.684184
O O8 0.554875 0.576740 0.301097
O O9 0.567128 0.561339 0.798508
O O10 0.945746 0.131223 0.858980
O O11 0.113660 0.589737 0.501147
O O12 0.000000 0.500000 0.500000
O O13 0.179099 0.715075 0.531041
O O14 0.000000 0.000000 0.500000
#
# Coordination Sequence:
#
# PCOD9085958 Si02
#       7
#     2   2   2   1   2   2   2
#     4  11  22  39  64  87 119 168 203 253 306 361
#     4  10  21  39  62  88 126 157 206 247 301 365
#     4  10  22  37  65  88 119 164 202 248 306 358
#     4  10  22  36  56  90 116 150 210 250 292 360
#     4  10  19  35  65  93 120 162 201 246 309 364
#     4  10  21  38  61  84 119 158 202 254 297 358
#     4  10  21  41  59  88 126 157 203 255 300 364
#
# _framework density 27.054867000000002
#
# number of rings (size 3 to 8) (size 9 to 14) (size 15 to 20)
#    0.000    1.846    3.077    2.308    4.308    0.000 
#    0.000   10.000    0.000   22.154    0.000    0.000 
#    0.000    0.000    0.000    0.000    0.000    0.000 
#
# Total GULP energy -72401.904316 kJ/mol
# GULP energy per Si atom -5569.377255 kJ/mol
# Density = 2.699329 g / cm^3
# Si number density = 27.054867 Si / 1000 Ang^3
#
#
#
# Elastic Constant Matrix: (Units=GPa)
#
#
# Indices 1 2 3 4 5 6 
#
# 1 94.8316 41.7411 33.5137 4.1154 -18.7824 18.3284
# 2 41.7411 192.6452 73.1084 -21.0310 -7.9818 52.6757
# 3 33.5137 73.1084 207.0888 -27.9741 16.6173 22.5063
# 4 4.1154 -21.0310 -27.9741 44.2166 9.2429 -11.8824
# 5 -18.7824 -7.9818 16.6173 9.2429 21.9156 2.0976
# 6 18.3284 52.6757 22.5063 -11.8824 2.0976 40.0624
#
#
#
# Elastic Compliance Matrix: (Units=1/GPa)
#
#
# Indices 1 2 3 4 5 6 
#
# 1 0.023806 0.001867 -0.008199 -0.018517 0.036654 -0.016151
# 2 0.001867 0.009934 -0.003716 -0.003703 0.010889 -0.013496
# 3 -0.008199 -0.003716 0.009983 0.011920 -0.021714 0.007701
# 4 -0.018517 -0.003703 0.011920 0.046298 -0.047974 0.022888
# 5 0.036654 0.010889 -0.021714 -0.047974 0.121486 -0.039478
# 6 -0.016151 -0.013496 0.007701 0.022888 -0.039478 0.054625
#
#
# Mechanical properties :
#
#
# Convention : Reuss Voigt Hill
#
# Bulk Modulus (GPa) = 42.32600 87.92134 65.12367
# Shear Modulus (GPa) = 17.00079 44.31908 30.65993
#
# Velocity S-wave (km/s) = 2.50947 4.05176 3.37003
# Velocity P-wave (km/s) = 4.90664 7.37950 6.26626
#
# Compressibility (1/GPa) = 0.02362614
#
# Stress axis : x y z
#
# Youngs Moduli (GPa) = 42.00666 100.66412 100.16719
#
# Poissons Ratio (x) = -0.18791 0.82126
# Poissons Ratio (y) = -0.07841 0.37225
# Poissons Ratio (z) = 0.34441 0.37410
#
# Static dielectric constant tensor:
#      x y z
#    x 2.124840 -0.077860 0.032080 
#    y -0.077860 2.240260 0.051670 
#    z 0.032080 0.051670 2.385180 
# 
# From -- ./inp_files/96375.got.cif
#   From: 2010.05.17/outbox.cif.g08.bks.cpg/sg2_49_cif.got.tgz:96375.got - 2010.06.03 11:33:40.
