data_PCOD9085810
_publ_section_title
;
Structure prediction by ZEFSAII (Michael W. Deem and Ramdas Pophale) SiO2 
 PCOD9085810
Probable space group: P -1
;
_chemical_formula_sum "Si O2"
_cell_formula_units_Z 16
_cell_length_a 12.511988
_cell_length_b 8.391063
_cell_length_c 11.384709
_cell_angle_alpha 101.864407
_cell_angle_beta 107.896224
_cell_angle_gamma 131.726100
_cell_volume 693.066973
_symmetry_space_group_name_H-M "P -1"
_symmetry_group_IT_number 2
_symmetry_cell_setting 'triclinic'
loop_
_space_group_symop_operation_xyz
x,y,z
-x,-y,-z
loop_
_atom_site_type_symbol
_atom_site_label
_atom_site_fract_x
_atom_site_fract_y
_atom_site_fract_z
Si Si1 0.641278 0.299477 0.433833
Si Si2 0.587173 0.855515 0.280899
Si Si3 0.671469 0.480594 0.079689
Si Si4 0.406675 0.169993 0.158707
Si Si5 0.886162 0.013216 0.120697
Si Si6 0.030758 0.716635 0.588431
Si Si7 0.728560 0.520879 0.746164
Si Si8 0.832648 0.409397 0.983439
O O1 0.490660 0.252850 0.329031
O O2 0.669098 0.346879 0.588704
O O3 0.834785 0.572557 0.486163
O O4 0.602638 0.066407 0.351707
O O5 0.456235 0.611114 0.288791
O O6 0.789730 0.018729 0.374404
O O7 0.491205 0.731366 0.102442
O O8 0.570320 0.369987 0.152062
O O9 0.773287 0.760473 0.122203
O O10 0.824777 0.518059 0.110859
O O11 0.318252 0.891167 0.078543
O O12 0.240032 0.091252 0.048454
O O13 0.921734 0.210990 0.245593
O O14 0.086154 0.179249 0.179755
O O15 0.000000 0.500000 0.500000
O O16 0.782773 0.470293 0.867291
O O17 0.000000 0.500000 0.000000
#
# Coordination Sequence:
#
# PCOD9085810 Si02
#       8
#     2   2   2   2   2   2   2   2
#     4  10  21  37  61  92 125 171 209 275 312 378
#     4  10  19  35  63  90 121 166 216 259 316 379
#     4  11  24  40  65  96 131 170 215 267 335 374
#     4  12  22  39  65  97 129 165 225 267 314 383
#     4  11  23  41  66  94 134 172 210 269 326 391
#     4   9  20  38  59  93 124 168 217 254 321 376
#     4  10  21  40  62  91 133 168 215 256 339 376
#     4  11  23  40  65  99 128 167 219 279 314 381
#
# _framework density 23.085792999999999
#
# number of rings (size 3 to 8) (size 9 to 14) (size 15 to 20)
#    0.000    1.500    5.000    1.125    0.000    2.000 
#    2.250    2.500    0.000    3.000    0.000    0.000 
#    0.000    0.000    0.000    0.000    0.000    0.000 
#
# Total GULP energy -89176.584918 kJ/mol
# GULP energy per Si atom -5573.536557 kJ/mol
# Density = 2.303325 g / cm^3
# Si number density = 23.085793 Si / 1000 Ang^3
#
#
#
# Elastic Constant Matrix: (Units=GPa)
#
#
# Indices 1 2 3 4 5 6 
#
# 1 64.9409 4.3443 13.5990 13.7051 0.4376 22.4808
# 2 4.3443 107.7323 12.8185 16.8778 2.1485 21.3035
# 3 13.5990 12.8185 69.2859 22.6494 -5.7924 10.3158
# 4 13.7051 16.8778 22.6494 26.6601 5.5936 3.2193
# 5 0.4376 2.1485 -5.7924 5.5936 27.9184 5.5189
# 6 22.4808 21.3035 10.3158 3.2193 5.5189 31.2430
#
#
#
# Elastic Compliance Matrix: (Units=1/GPa)
#
#
# Indices 1 2 3 4 5 6 
#
# 1 0.026838 0.006300 0.004803 -0.020804 0.009134 -0.024663
# 2 0.006300 0.013574 0.003454 -0.014129 0.005251 -0.014401
# 3 0.004803 0.003454 0.024627 -0.026631 0.012764 -0.013453
# 4 -0.020804 -0.014129 -0.026631 0.081723 -0.026342 0.029629
# 5 0.009134 0.005251 0.012764 -0.026342 0.047147 -0.019981
# 6 -0.024663 -0.014401 -0.013453 0.029629 -0.019981 0.064491
#
#
# Mechanical properties :
#
#
# Convention : Reuss Voigt Hill
#
# Bulk Modulus (GPa) = 10.62097 33.72030 22.17064
# Shear Modulus (GPa) = 19.18144 31.24413 25.21279
#
# Velocity S-wave (km/s) = 2.88562 3.68284 3.30833
# Velocity P-wave (km/s) = 3.96397 5.72037 4.92116
#
# Compressibility (1/GPa) = 0.09415332
#
# Stress axis : x y z
#
# Youngs Moduli (GPa) = 37.26093 73.67187 40.60591
#
# Poissons Ratio (x) = -0.46415 -0.19504
# Poissons Ratio (y) = -0.23475 -0.14025
# Poissons Ratio (z) = -0.17897 -0.25446
#
# Static dielectric constant tensor:
#      x y z
#    x 2.016560 0.025370 -0.017110 
#    y 0.025370 1.868990 0.032760 
#    z -0.017110 0.032760 1.863220 
# 
# From -- ./inp_files/447535.got.cif
#   From: 2010.05.17/outbox.cif.g08.bks.cpg/sg2_224_cif.got.tgz:447535.got - 2010.06.03 11:33:40.
