data_PCOD9085689
_publ_section_title
;
Structure prediction by ZEFSAII (Michael W. Deem and Ramdas Pophale) SiO2 
 PCOD9085689
Probable space group: P -1
;
_chemical_formula_sum "Si O2"
_cell_formula_units_Z 12
_cell_length_a 11.379781
_cell_length_b 8.072339
_cell_length_c 6.538828
_cell_angle_alpha 101.130666
_cell_angle_beta 109.912219
_cell_angle_gamma 112.450605
_cell_volume 484.527281
_symmetry_space_group_name_H-M "P -1"
_symmetry_group_IT_number 2
_symmetry_cell_setting 'triclinic'
loop_
_space_group_symop_operation_xyz
x,y,z
-x,-y,-z
loop_
_atom_site_type_symbol
_atom_site_label
_atom_site_fract_x
_atom_site_fract_y
_atom_site_fract_z
Si Si1 0.682970 0.640218 0.956627
Si Si2 0.357635 0.008057 0.866110
Si Si3 0.901002 0.883322 0.722228
Si Si4 0.001609 0.718058 0.197071
Si Si5 0.392468 0.300412 0.637339
Si Si6 0.928012 0.327490 0.224283
O O1 0.554633 0.456202 0.728136
O O2 0.669681 0.836197 0.983969
O O3 0.653651 0.606461 0.179040
O O4 0.837973 0.658648 0.025118
O O5 0.380098 0.103967 0.677046
O O6 0.222483 0.801901 0.786099
O O7 0.500000 0.000000 0.000000
O O8 0.731572 0.758361 0.615864
O O9 0.962521 0.746039 0.661056
O O10 0.928282 0.061166 0.633739
O O11 0.000000 0.000000 0.000000
O O12 0.994055 0.556824 0.307216
O O13 0.087555 0.718523 0.043987
#
# Coordination Sequence:
#
# PCOD9085689 Si02
#       6
#     2   2   2   2   2   2
#     4   9  19  37  62  84 127 156 192 259 302 349
#     4  10  19  35  62  89 123 160 200 248 307 363
#     4  10  20  40  61  84 124 164 199 249 304 356
#     4  10  20  38  60  86 122 161 205 251 292 363
#     4   9  20  37  58  92 121 157 203 248 303 363
#     4  10  21  35  61  87 119 164 205 242 299 367
#
# _framework density 24.766404000000001
#
# number of rings (size 3 to 8) (size 9 to 14) (size 15 to 20)
#    1.000    1.333    1.667    1.000    0.000    2.667 
#    3.000    5.000    0.000    9.000    0.000    0.000 
#    0.000    0.000    0.000    0.000    0.000    0.000 
#
# Total GULP energy -66991.608403 kJ/mol
# GULP energy per Si atom -5582.634034 kJ/mol
# Density = 2.471003 g / cm^3
# Si number density = 24.766404 Si / 1000 Ang^3
#
#
#
# Elastic Constant Matrix: (Units=GPa)
#
#
# Indices 1 2 3 4 5 6 
#
# 1 87.4254 46.7217 34.4238 15.0312 23.0674 5.8244
# 2 46.7217 214.9073 40.3289 5.0542 32.2806 7.9601
# 3 34.4238 40.3289 108.8161 14.5718 43.5743 0.8665
# 4 15.0312 5.0542 14.5718 37.8557 3.3357 10.3125
# 5 23.0674 32.2806 43.5743 3.3357 56.3808 9.9205
# 6 5.8244 7.9601 0.8665 10.3125 9.9205 52.1567
#
#
#
# Elastic Compliance Matrix: (Units=1/GPa)
#
#
# Indices 1 2 3 4 5 6 
#
# 1 0.015085 -0.002338 -0.002091 -0.004664 -0.002976 0.000195
# 2 -0.002338 0.005543 -0.000774 0.000739 -0.001590 -0.000416
# 3 -0.002091 -0.000774 0.014958 -0.004725 -0.010517 0.003038
# 4 -0.004664 0.000739 -0.004725 0.031385 0.004434 -0.006562
# 5 -0.002976 -0.001590 -0.010517 0.004434 0.028713 -0.005588
# 6 0.000195 -0.000416 0.003038 -0.006562 -0.005588 0.021525
#
#
# Mechanical properties :
#
#
# Convention : Reuss Voigt Hill
#
# Bulk Modulus (GPa) = 39.71331 72.67752 56.19542
# Shear Modulus (GPa) = 36.76237 48.59026 42.67632
#
# Velocity S-wave (km/s) = 3.85693 4.43419 4.15559
# Velocity P-wave (km/s) = 5.99203 7.45821 6.76496
#
# Compressibility (1/GPa) = 0.02518047
#
# Stress axis : x y z
#
# Youngs Moduli (GPa) = 66.29108 180.39264 66.85356
#
# Poissons Ratio (x) = 0.42170 0.13981
# Poissons Ratio (y) = 0.15497 0.05175
# Poissons Ratio (z) = 0.13863 0.13964
#
# Static dielectric constant tensor:
#      x y z
#    x 1.978400 0.057390 -0.137230 
#    y 0.057390 2.042760 -0.080440 
#    z -0.137230 -0.080440 2.056490 
# 
# From -- ./inp_files/234943.got.cif
#   From: 2010.05.17/outbox.cif.g08.bks.cpg/sg2_118_cif.got.tgz:234943.got - 2010.06.03 11:33:40.
