data_PCOD9085126
_publ_section_title
;
Structure prediction by ZEFSAII (Michael W. Deem and Ramdas Pophale) SiO2 
 PCOD9085126
Probable space group: P -1
;
_chemical_formula_sum "Si O2"
_cell_formula_units_Z 16
_cell_length_a 7.393890
_cell_length_b 17.775974
_cell_length_c 7.836865
_cell_angle_alpha 130.130765
_cell_angle_beta 94.708688
_cell_angle_gamma 66.044067
_cell_volume 695.508390
_symmetry_space_group_name_H-M "P -1"
_symmetry_group_IT_number 2
_symmetry_cell_setting 'triclinic'
loop_
_space_group_symop_operation_xyz
x,y,z
-x,-y,-z
loop_
_atom_site_type_symbol
_atom_site_label
_atom_site_fract_x
_atom_site_fract_y
_atom_site_fract_z
Si Si1 0.274809 0.889554 0.533277
Si Si2 0.894815 0.647539 0.313172
Si Si3 0.019057 0.670339 0.710948
Si Si4 0.314530 0.504918 0.259261
Si Si5 0.682198 0.838236 0.326214
Si Si6 0.474104 0.674852 0.451432
Si Si7 0.388599 0.300580 0.136751
Si Si8 0.990856 0.878711 0.212034
O O1 0.494809 0.886750 0.514437
O O2 0.316558 0.785774 0.504748
O O3 0.179662 0.871469 0.323830
O O4 0.109286 0.012669 0.756012
O O5 0.927208 0.712498 0.575267
O O6 0.847287 0.721576 0.250621
O O7 0.695469 0.636261 0.329304
O O8 0.109528 0.537328 0.180999
O O9 0.853716 0.641212 0.745707
O O10 0.229113 0.561979 0.522951
O O11 0.039714 0.765377 0.954135
O O12 0.421985 0.573145 0.291841
O O13 0.429896 0.375163 0.110849
O O14 0.809965 0.899428 0.365948
O O15 0.588921 0.811031 0.110062
O O16 0.488131 0.707676 0.695764
#
# Coordination Sequence:
#
# PCOD9085126 Si02
#       8
#     2   2   2   2   2   2   2   2
#     4  10  22  38  58  79 113 137 179 232 269 318
#     4   8  19  35  53  78 113 139 179 222 264 308
#     4   8  19  35  57  78 109 140 184 220 262 318
#     4  10  19  35  59  76 112 151 174 222 267 313
#     4  10  20  37  57  82 113 139 178 228 268 317
#     4  10  20  36  53  80 111 143 180 225 263 318
#     4  10  20  35  57  83 108 146 186 212 268 328
#     4  10  20  39  59  82 101 147 182 217 280 325
#
# _framework density 23.004753000000001
#
# number of rings (size 3 to 8) (size 9 to 14) (size 15 to 20)
#    0.750    1.750    0.000    1.875    1.750    0.500 
#    0.000   14.375    0.000    0.000    0.000    0.000 
#    0.000    0.000    0.000    0.000    0.000    0.000 
#
# Total GULP energy -89314.033780 kJ/mol
# GULP energy per Si atom -5582.127111 kJ/mol
# Density = 2.295239 g / cm^3
# Si number density = 23.004753 Si / 1000 Ang^3
#
#
#
# Elastic Constant Matrix: (Units=GPa)
#
#
# Indices 1 2 3 4 5 6 
#
# 1 75.5311 29.6234 7.9522 5.8580 20.4261 6.0723
# 2 29.6234 101.6973 15.4007 -2.3603 4.3528 -6.5980
# 3 7.9522 15.4007 57.1531 -0.2673 13.5719 -1.6633
# 4 5.8580 -2.3603 -0.2673 26.5250 0.0855 3.1961
# 5 20.4261 4.3528 13.5719 0.0855 16.5509 2.5155
# 6 6.0723 -6.5980 -1.6633 3.1961 2.5155 29.1698
#
#
#
# Elastic Compliance Matrix: (Units=1/GPa)
#
#
# Indices 1 2 3 4 5 6 
#
# 1 0.025287 -0.007201 0.006403 -0.005694 -0.034085 -0.002965
# 2 -0.007201 0.012465 -0.004315 0.002257 0.008668 0.003078
# 3 0.006403 -0.004315 0.024175 -0.001656 -0.026821 0.001564
# 4 -0.005694 0.002257 -0.001656 0.039529 0.008109 -0.003429
# 5 -0.034085 0.008668 -0.026821 0.008109 0.122757 -0.003948
# 6 -0.002965 0.003078 0.001564 -0.003429 -0.003948 0.036401
#
#
# Mechanical properties :
#
#
# Convention : Reuss Voigt Hill
#
# Bulk Modulus (GPa) = 19.34181 37.81490 28.57836
# Shear Modulus (GPa) = 17.35657 26.54282 21.94970
#
# Velocity S-wave (km/s) = 2.74976 3.40044 3.09226
# Velocity P-wave (km/s) = 4.30204 5.64720 5.01988
#
# Compressibility (1/GPa) = 0.05170147
#
# Stress axis : x y z
#
# Youngs Moduli (GPa) = 39.54537 80.22273 41.36421
#
# Poissons Ratio (x) = 0.57770 -0.26486
# Poissons Ratio (y) = 0.28477 0.17850
# Poissons Ratio (z) = -0.25321 0.34618
#
# Static dielectric constant tensor:
#      x y z
#    x 1.900980 -0.021000 -0.052060 
#    y -0.021000 1.858040 0.020400 
#    z -0.052060 0.020400 1.906890 
# 
# From -- ./inp_files/215939.got.cif
#   From: 2010.05.17/outbox.cif.g08.bks.cpg/sg2_108_cif.got.tgz:215939.got - 2010.06.03 11:33:40.
