data_PCOD9085906
_publ_section_title
;
Structure prediction by ZEFSAII (Michael W. Deem and Ramdas Pophale) SiO2 
 PCOD9085906
Probable space group: P -1
;
_chemical_formula_sum "Si O2"
_cell_formula_units_Z 16
_cell_length_a 5.891464
_cell_length_b 18.695743
_cell_length_c 9.993176
_cell_angle_alpha 73.632206
_cell_angle_beta 140.618528
_cell_angle_gamma 105.293985
_cell_volume 668.158304
_symmetry_space_group_name_H-M "P -1"
_symmetry_group_IT_number 2
_symmetry_cell_setting 'triclinic'
loop_
_space_group_symop_operation_xyz
x,y,z
-x,-y,-z
loop_
_atom_site_type_symbol
_atom_site_label
_atom_site_fract_x
_atom_site_fract_y
_atom_site_fract_z
Si Si1 0.171740 0.987924 0.248679
Si Si2 0.725805 0.041687 0.255506
Si Si3 0.982350 0.794013 0.738460
Si Si4 0.153335 0.815171 0.323123
Si Si5 0.076612 0.285558 0.496073
Si Si6 0.064321 0.712131 0.095662
Si Si7 0.941528 0.457731 0.855462
Si Si8 0.082324 0.446013 0.448612
O O1 0.071637 0.900128 0.230916
O O2 0.500000 0.000000 0.500000
O O3 0.352276 0.018586 0.175155
O O4 0.854819 0.021840 0.173188
O O5 0.774786 0.131645 0.225445
O O6 0.000000 0.000000 0.500000
O O7 0.581893 0.814365 0.508431
O O8 0.055363 0.726314 0.708668
O O9 0.991664 0.764066 0.908692
O O10 0.968450 0.756788 0.162547
O O11 0.053890 0.785106 0.439721
O O12 0.505599 0.290844 0.696308
O O13 0.938004 0.361021 0.451344
O O14 0.919891 0.625373 0.054250
O O15 0.513191 0.446020 0.639334
O O16 0.075041 0.517543 0.773200
O O17 0.000000 0.500000 0.000000
O O18 0.000000 0.500000 0.500000
#
# Coordination Sequence:
#
# PCOD9085906 Si02
#       8
#     2   2   2   2   2   2   2   2
#     4  10  19  35  64  92 123 170 219 267 323 382
#     4  10  19  36  63  93 123 167 224 267 318 387
#     4  11  22  39  65  86 124 166 210 258 320 384
#     4  11  22  39  65  86 126 165 205 265 318 377
#     4  10  22  39  61  89 123 163 205 258 319 379
#     4  10  24  40  57  95 124 158 207 261 318 383
#     4  10  21  40  63  86 125 160 203 258 314 378
#     4  10  21  38  62  90 119 160 208 254 311 381
#
# _framework density 23.946418000000001
#
# number of rings (size 3 to 8) (size 9 to 14) (size 15 to 20)
#    0.000    1.750    2.500    3.000    1.750    4.500 
#    0.000    1.250    0.000    0.000    0.000    0.000 
#    0.000    0.000    0.000    0.000    0.000    0.000 
#
# Total GULP energy -89415.431743 kJ/mol
# GULP energy per Si atom -5588.464484 kJ/mol
# Density = 2.389192 g / cm^3
# Si number density = 23.946418 Si / 1000 Ang^3
#
#
#
# Elastic Constant Matrix: (Units=GPa)
#
#
# Indices 1 2 3 4 5 6 
#
# 1 74.4457 7.0875 27.8708 9.5091 -12.8088 -3.9246
# 2 7.0875 131.8147 36.5111 -6.6304 -3.0902 -13.2915
# 3 27.8708 36.5111 83.6994 -0.4392 -22.1019 3.3725
# 4 9.5091 -6.6304 -0.4392 26.6642 2.2726 -13.1867
# 5 -12.8088 -3.0902 -22.1019 2.2726 53.0569 9.6911
# 6 -3.9246 -13.2915 3.3725 -13.1867 9.6911 38.1719
#
#
#
# Elastic Compliance Matrix: (Units=1/GPa)
#
#
# Indices 1 2 3 4 5 6 
#
# 1 0.016453 0.000154 -0.004945 -0.006414 0.002309 -0.000620
# 2 0.000154 0.010028 -0.005515 0.006026 -0.003192 0.006887
# 3 -0.004945 -0.005515 0.018264 -0.003495 0.007552 -0.007167
# 4 -0.006414 0.006026 -0.003495 0.053061 -0.009011 0.022366
# 5 0.002309 -0.003192 0.007552 -0.009011 0.024749 -0.010938
# 6 -0.000620 0.006887 -0.007167 0.022366 -0.010938 0.039668
#
#
# Mechanical properties :
#
#
# Convention : Reuss Voigt Hill
#
# Bulk Modulus (GPa) = 41.43358 48.09986 44.76672
# Shear Modulus (GPa) = 26.19461 38.14463 32.16962
#
# Velocity S-wave (km/s) = 3.31098 3.99546 3.66922
# Velocity P-wave (km/s) = 5.65305 6.43545 6.05690
#
# Compressibility (1/GPa) = 0.02413501
#
# Stress axis : x y z
#
# Youngs Moduli (GPa) = 60.77900 99.71760 54.75169
#
# Poissons Ratio (x) = -0.01535 0.27073
# Poissons Ratio (y) = -0.00936 0.30193
# Poissons Ratio (z) = 0.30053 0.54990
#
# Static dielectric constant tensor:
#      x y z
#    x 1.935130 0.000240 0.042210 
#    y 0.000240 1.900410 0.025650 
#    z 0.042210 0.025650 1.991780 
# 
# From -- ./inp_files/112393.got.cif
#   From: 2010.05.17/outbox.cif.g08.bks.cpg/sg2_57_cif.got.tgz:112393.got - 2010.06.03 11:33:40.
