data_PCOD9085072
_publ_section_title
;
Structure prediction by ZEFSAII (Michael W. Deem and Ramdas Pophale) SiO2 
 PCOD9085072
Probable space group: P -1
;
_chemical_formula_sum "Si O2"
_cell_formula_units_Z 16
_cell_length_a 8.486281
_cell_length_b 12.716189
_cell_length_c 15.294375
_cell_angle_alpha 44.543791
_cell_angle_beta 79.610592
_cell_angle_gamma 53.681481
_cell_volume 843.154777
_symmetry_space_group_name_H-M "P -1"
_symmetry_group_IT_number 2
_symmetry_cell_setting 'triclinic'
loop_
_space_group_symop_operation_xyz
x,y,z
-x,-y,-z
loop_
_atom_site_type_symbol
_atom_site_label
_atom_site_fract_x
_atom_site_fract_y
_atom_site_fract_z
Si Si1 0.582172 0.288760 0.086312
Si Si2 0.850782 0.981431 0.396996
Si Si3 0.856312 0.917768 0.631622
Si Si4 0.992451 0.996236 0.900391
Si Si5 0.151676 0.456524 0.932355
Si Si6 0.348320 0.054100 0.064099
Si Si7 0.526904 0.217762 0.631686
Si Si8 0.175602 0.677271 0.407535
O O1 0.786596 0.182550 0.065140
O O2 0.665793 0.146951 0.248249
O O3 0.500000 0.500000 0.000000
O O4 0.384073 0.347079 0.016567
O O5 0.786568 0.963510 0.509816
O O6 0.006777 0.775435 0.446437
O O7 0.995381 0.035459 0.378349
O O8 0.017679 0.676664 0.772959
O O9 0.645606 0.066745 0.626456
O O10 0.813963 0.981843 0.911062
O O11 0.931501 0.193261 0.746543
O O12 0.000000 0.000000 0.000000
O O13 0.203198 0.288708 0.962028
O O14 0.000000 0.500000 0.000000
O O15 0.482734 0.906465 0.221000
O O16 0.500000 0.000000 0.000000
O O17 0.299031 0.446097 0.512529
O O18 0.673387 0.272779 0.611109
#
# Coordination Sequence:
#
# PCOD9085072 Si02
#       8
#     2   2   2   2   2   2   2   2
#     4  11  21  38  63  89 120 160 202 249 297 346
#     4   9  19  35  58  88 115 150 207 251 284 349
#     4  10  19  35  58  88 119 154 201 245 294 352
#     4  10  21  40  61  89 118 152 203 251 291 355
#     4  12  23  39  61  89 125 163 194 249 308 361
#     4  11  23  37  59  89 123 157 198 240 306 363
#     4   9  17  34  53  82 114 151 194 240 283 347
#     4   8  17  32  57  80 112 148 194 248 286 326
#
# _framework density 18.97635
#
# number of rings (size 3 to 8) (size 9 to 14) (size 15 to 20)
#    0.000    2.000    2.500    2.250    1.750    1.000 
#    4.500    0.625    2.750    2.250    0.000    0.000 
#    0.000    0.000    0.000    0.000    0.000    0.000 
#
# Total GULP energy -89118.222376 kJ/mol
# GULP energy per Si atom -5569.888898 kJ/mol
# Density = 1.893316 g / cm^3
# Si number density = 18.976350 Si / 1000 Ang^3
#
#
#
# Elastic Constant Matrix: (Units=GPa)
#
#
# Indices 1 2 3 4 5 6 
#
# 1 25.3060 22.1288 22.7573 3.4039 -2.4292 -12.5056
# 2 22.1288 176.9179 125.4154 1.6034 -5.4583 -19.8024
# 3 22.7573 125.4154 143.2879 0.0671 2.8505 -10.9057
# 4 3.4039 1.6034 0.0671 43.1992 -0.0974 -2.8828
# 5 -2.4292 -5.4583 2.8505 -0.0974 18.7771 3.2556
# 6 -12.5056 -19.8024 -10.9057 -2.8828 3.2556 28.5739
#
#
#
# Elastic Compliance Matrix: (Units=1/GPa)
#
#
# Indices 1 2 3 4 5 6 
#
# 1 0.058259 0.002260 -0.009638 -0.003151 0.005755 0.022411
# 2 0.002260 0.016504 -0.014459 -0.000343 0.006214 0.006166
# 3 -0.009638 -0.014459 0.020916 0.000893 -0.007704 -0.005288
# 4 -0.003151 -0.000343 0.000893 0.023485 -0.000725 0.001176
# 5 0.005755 0.006214 -0.007704 -0.000725 0.057447 -0.002733
# 6 0.022411 0.006166 -0.005288 0.001176 -0.002733 0.047491
#
#
# Mechanical properties :
#
#
# Convention : Reuss Voigt Hill
#
# Bulk Modulus (GPa) = 19.22905 76.23497 47.73201
# Shear Modulus (GPa) = 17.53708 29.79074 23.66391
#
# Velocity S-wave (km/s) = 3.04329 3.96648 3.53515
# Velocity P-wave (km/s) = 4.74384 7.82548 6.47079
#
# Compressibility (1/GPa) = 0.05200464
#
# Stress axis : x y z
#
# Youngs Moduli (GPa) = 17.16478 60.58981 47.81134
#
# Poissons Ratio (x) = -0.13694 0.46082
# Poissons Ratio (y) = -0.03880 0.69130
# Poissons Ratio (z) = 0.16544 0.87606
#
# Static dielectric constant tensor:
#      x y z
#    x 1.743120 0.000020 0.068560 
#    y 0.000020 1.639640 0.001080 
#    z 0.068560 0.001080 1.717460 
# 
# From -- ./inp_files/469566.got.cif
#   From: 2010.05.17/outbox.cif.g08.bks.cpg/sg2_235_cif.got.tgz:469566.got - 2010.06.03 11:33:40.
