data_PCOD9085587
_publ_section_title
;
Structure prediction by ZEFSAII (Michael W. Deem and Ramdas Pophale) SiO2 
 PCOD9085587
Probable space group: P -1
;
_chemical_formula_sum "Si O2"
_cell_formula_units_Z 16
_cell_length_a 11.138304
_cell_length_b 9.320573
_cell_length_c 15.438246
_cell_angle_alpha 109.656168
_cell_angle_beta 132.498307
_cell_angle_gamma 109.118245
_cell_volume 669.197906
_symmetry_space_group_name_H-M "P -1"
_symmetry_group_IT_number 2
_symmetry_cell_setting 'triclinic'
loop_
_space_group_symop_operation_xyz
x,y,z
-x,-y,-z
loop_
_atom_site_type_symbol
_atom_site_label
_atom_site_fract_x
_atom_site_fract_y
_atom_site_fract_z
Si Si1 0.579977 0.365516 0.729739
Si Si2 0.997822 0.552444 0.321994
Si Si3 0.718832 0.690003 0.568224
Si Si4 0.999775 0.887559 0.098109
Si Si5 0.481603 0.760560 0.690886
Si Si6 0.812659 0.265077 0.733906
Si Si7 0.740858 0.213485 0.274972
Si Si8 0.153378 0.954934 0.574392
O O1 0.375352 0.244977 0.527037
O O2 0.798595 0.409167 0.811372
O O3 0.425886 0.181532 0.698367
O O4 0.710858 0.626201 0.867889
O O5 0.307965 0.738599 0.536755
O O6 0.000707 0.565453 0.223920
O O7 0.966383 0.693102 0.379509
O O8 0.787921 0.280138 0.210027
O O9 0.500000 0.500000 0.500000
O O10 0.705310 0.530386 0.470031
O O11 0.976968 0.944705 0.797798
O O12 0.079300 0.799468 0.175779
O O13 0.225241 0.058373 0.167277
O O14 0.491290 0.861168 0.805465
O O15 0.500000 0.000000 0.500000
O O16 0.767422 0.064985 0.299307
O O17 0.000000 0.500000 0.500000
O O18 0.000000 0.000000 0.500000
#
# Coordination Sequence:
#
# PCOD9085587 Si02
#       8
#     2   2   2   2   2   2   2   2
#     4  12  24  36  63  95 121 163 207 260 324 364
#     4  10  19  35  61  90 118 163 216 245 306 379
#     4  10  21  36  58  89 126 164 200 248 317 371
#     4  11  22  37  60  94 127 155 206 267 315 370
#     4   9  17  34  59  85 125 161 202 255 304 375
#     4  12  18  38  59  90 123 159 206 252 316 375
#     4   8  18  33  55  91 115 161 218 243 301 377
#     4  10  20  35  59  93 123 159 213 254 304 377
#
# _framework density 23.909220000000001
#
# number of rings (size 3 to 8) (size 9 to 14) (size 15 to 20)
#    0.000    2.000    3.750    1.875    5.250    2.000 
#    0.000    0.000    0.000    6.000    9.750    0.875 
#    0.000    0.000    0.000    0.000    0.000    0.000 
#
# Total GULP energy -89336.830794 kJ/mol
# GULP energy per Si atom -5583.551925 kJ/mol
# Density = 2.385480 g / cm^3
# Si number density = 23.909220 Si / 1000 Ang^3
#
#
#
# Elastic Constant Matrix: (Units=GPa)
#
#
# Indices 1 2 3 4 5 6 
#
# 1 106.8973 76.1890 13.2594 -3.4969 -3.5842 9.2710
# 2 76.1890 153.7260 13.1488 6.0089 -0.5535 13.7280
# 3 13.2594 13.1488 55.2014 12.7308 -13.8325 -2.7177
# 4 -3.4969 6.0089 12.7308 28.6907 -8.5491 2.9780
# 5 -3.5842 -0.5535 -13.8325 -8.5491 16.7317 6.4070
# 6 9.2710 13.7280 -2.7177 2.9780 6.4070 59.8102
#
#
#
# Elastic Compliance Matrix: (Units=1/GPa)
#
#
# Indices 1 2 3 4 5 6 
#
# 1 0.015544 -0.007597 -0.002149 0.006107 0.005037 -0.001607
# 2 -0.007597 0.010531 -0.000735 -0.003792 -0.003554 -0.000703
# 3 -0.002149 -0.000735 0.024336 -0.005999 0.016516 0.000137
# 4 0.006107 -0.003792 -0.005999 0.046016 0.021633 -0.004957
# 5 0.005037 -0.003554 0.016516 0.021633 0.089207 -0.009848
# 6 -0.001607 -0.000703 0.000137 -0.004957 -0.009848 0.018438
#
#
# Mechanical properties :
#
#
# Convention : Reuss Voigt Hill
#
# Bulk Modulus (GPa) = 33.95678 57.89100 45.92389
# Shear Modulus (GPa) = 21.29010 35.26170 28.27590
#
# Velocity S-wave (km/s) = 2.98729 3.84450 3.44268
# Velocity P-wave (km/s) = 5.11192 6.63116 5.92047
#
# Compressibility (1/GPa) = 0.02944920
#
# Stress axis : x y z
#
# Youngs Moduli (GPa) = 64.33271 94.95388 41.09176
#
# Poissons Ratio (x) = 0.72138 0.08832
# Poissons Ratio (y) = 0.48875 0.03018
# Poissons Ratio (z) = 0.13828 0.06974
#
# Static dielectric constant tensor:
#      x y z
#    x 1.988560 0.007060 0.004230 
#    y 0.007060 1.930070 -0.017760 
#    z 0.004230 -0.017760 1.923630 
# 
# From -- ./inp_files/566082.got.cif
#   From: 2010.05.17/outbox.cif.g08.bks.cpg/sg2_284_cif.got.tgz:566082.got - 2010.06.03 11:33:40.
