data_PCOD9085231
_publ_section_title
;
Structure prediction by ZEFSAII (Michael W. Deem and Ramdas Pophale) SiO2 
 PCOD9085231
Probable space group: P -1
;
_chemical_formula_sum "Si O2"
_cell_formula_units_Z 16
_cell_length_a 9.831805
_cell_length_b 19.427722
_cell_length_c 11.434715
_cell_angle_alpha 155.008039
_cell_angle_beta 134.876417
_cell_angle_gamma 56.908909
_cell_volume 621.172370
_symmetry_space_group_name_H-M "P -1"
_symmetry_group_IT_number 2
_symmetry_cell_setting 'triclinic'
loop_
_space_group_symop_operation_xyz
x,y,z
-x,-y,-z
loop_
_atom_site_type_symbol
_atom_site_label
_atom_site_fract_x
_atom_site_fract_y
_atom_site_fract_z
Si Si1 0.789321 0.801560 0.826115
Si Si2 0.321074 0.324946 0.795727
Si Si3 0.642130 0.290258 0.644695
Si Si4 0.615692 0.129868 0.615123
Si Si5 0.626009 0.507870 0.470742
Si Si6 0.080317 0.647048 0.677075
Si Si7 0.019250 0.695426 0.289448
Si Si8 0.875342 0.917786 0.410569
O O1 0.588350 0.822462 0.685026
O O2 0.720331 0.685085 0.724061
O O3 0.967044 0.971024 0.226294
O O4 0.886436 0.709796 0.644872
O O5 0.348103 0.510001 0.036473
O O6 0.466296 0.394892 0.104377
O O7 0.409084 0.177997 0.573929
O O8 0.088979 0.254363 0.586611
O O9 0.722892 0.242677 0.742196
O O10 0.756820 0.241396 0.529398
O O11 0.659872 0.950696 0.341625
O O12 0.744466 0.202551 0.920811
O O13 0.500000 0.500000 0.500000
O O14 0.808554 0.425396 0.466309
O O15 0.000000 0.500000 0.500000
O O16 0.885940 0.730519 0.154670
O O17 0.000000 0.500000 0.000000
O O18 0.000000 0.000000 0.500000
#
# Coordination Sequence:
#
# PCOD9085231 Si02
#       8
#     2   2   2   2   2   2   2   2
#     4   9  20  35  55  84 118 152 202 243 292 352
#     4   9  20  34  55  88 122 155 196 242 294 354
#     4  10  19  37  58  88 117 160 199 240 298 353
#     4  10  19  35  59  87 116 155 204 247 289 353
#     4   9  17  30  53  83 119 158 191 241 297 346
#     4   8  16  31  50  81 118 153 197 245 287 346
#     4  10  22  39  59  84 123 154 197 247 303 355
#     4  11  22  38  62  91 114 156 206 249 297 356
#
# _framework density 25.757743999999999
#
# number of rings (size 3 to 8) (size 9 to 14) (size 15 to 20)
#    0.000    2.500    1.250    1.125    1.750    2.000 
#    0.000    3.750    0.000    0.750    0.000    0.000 
#    0.000    0.000    0.000    0.000    0.000    0.000 
#
# Total GULP energy -89220.395383 kJ/mol
# GULP energy per Si atom -5576.274711 kJ/mol
# Density = 2.569912 g / cm^3
# Si number density = 25.757744 Si / 1000 Ang^3
#
#
#
# Elastic Constant Matrix: (Units=GPa)
#
#
# Indices 1 2 3 4 5 6 
#
# 1 172.4435 34.9532 40.7204 18.4400 -27.9482 -36.4062
# 2 34.9532 75.6454 35.1028 33.0392 -10.4143 -17.6895
# 3 40.7204 35.1028 57.3716 15.2497 -13.3594 -6.3030
# 4 18.4400 33.0392 15.2497 44.6768 -6.4626 -3.2258
# 5 -27.9482 -10.4143 -13.3594 -6.4626 31.2037 13.3213
# 6 -36.4062 -17.6895 -6.3030 -3.2258 13.3213 54.9489
#
#
#
# Elastic Compliance Matrix: (Units=1/GPa)
#
#
# Indices 1 2 3 4 5 6 
#
# 1 0.008419 0.000220 -0.004458 -0.001285 0.003656 0.004175
# 2 0.000220 0.027000 -0.012266 -0.015695 -0.002312 0.007070
# 3 -0.004458 -0.012266 0.028640 0.001737 0.006732 -0.005147
# 4 -0.001285 -0.015695 0.001737 0.034084 0.003341 -0.004514
# 5 0.003656 -0.002312 0.006732 0.003341 0.041266 -0.007358
# 6 0.004175 0.007070 -0.005147 -0.004514 -0.007358 0.024169
#
#
# Mechanical properties :
#
#
# Convention : Reuss Voigt Hill
#
# Bulk Modulus (GPa) = 32.20601 58.55704 45.38152
# Shear Modulus (GPa) = 24.16214 39.14480 31.65347
#
# Velocity S-wave (km/s) = 3.06609 3.90260 3.50936
# Velocity P-wave (km/s) = 5.00651 6.56431 5.83760
#
# Compressibility (1/GPa) = 0.03105011
#
# Stress axis : x y z
#
# Youngs Moduli (GPa) = 118.78362 37.03753 34.91673
#
# Poissons Ratio (x) = -0.00814 0.15566
# Poissons Ratio (y) = -0.02612 0.42828
# Poissons Ratio (z) = 0.52954 0.45429
#
# Static dielectric constant tensor:
#      x y z
#    x 2.045110 0.004100 -0.033640 
#    y 0.004100 2.094310 0.030870 
#    z -0.033640 0.030870 2.165880 
# 
# From -- ./inp_files/469337.got.cif
#   From: 2010.05.17/outbox.cif.g08.bks.cpg/sg2_235_cif.got.tgz:469337.got - 2010.06.03 11:33:40.
