data_PCOD9085632
_publ_section_title
;
Structure prediction by ZEFSAII (Michael W. Deem and Ramdas Pophale) SiO2 
 PCOD9085632
Probable space group: P -1
;
_chemical_formula_sum "Si O2"
_cell_formula_units_Z 14
_cell_length_a 11.749255
_cell_length_b 9.442806
_cell_length_c 8.441189
_cell_angle_alpha 114.069573
_cell_angle_beta 48.789835
_cell_angle_gamma 89.930855
_cell_volume 591.537155
_symmetry_space_group_name_H-M "P -1"
_symmetry_group_IT_number 2
_symmetry_cell_setting 'triclinic'
loop_
_space_group_symop_operation_xyz
x,y,z
-x,-y,-z
loop_
_atom_site_type_symbol
_atom_site_label
_atom_site_fract_x
_atom_site_fract_y
_atom_site_fract_z
Si Si1 0.922675 0.930354 0.179528
Si Si2 0.453384 0.394120 0.749476
Si Si3 0.213452 0.714063 0.957696
Si Si4 0.635399 0.060513 0.283080
Si Si5 0.962918 0.189103 0.500605
Si Si6 0.722903 0.495138 0.697318
Si Si7 0.335053 0.134353 0.132817
O O1 0.747083 0.966332 0.286407
O O2 0.921340 0.048717 0.381383
O O3 0.048486 0.742770 0.021973
O O4 0.000000 0.000000 0.000000
O O5 0.484954 0.213134 0.566364
O O6 0.627903 0.405584 0.638105
O O7 0.351892 0.531502 0.775331
O O8 0.362258 0.444522 0.025016
O O9 0.145504 0.768405 0.222481
O O10 0.286848 0.835409 0.857049
O O11 0.627676 0.919843 0.108901
O O12 0.900577 0.353752 0.517083
O O13 0.156320 0.131022 0.331385
O O14 0.696868 0.671116 0.719099
O O15 0.500000 0.000000 0.000000
#
# Coordination Sequence:
#
# PCOD9085632 Si02
#       7
#     2   2   2   2   2   2   2
#     4  10  19  35  61  96 118 159 212 254 305 356
#     4  10  21  41  66  93 122 165 214 258 301 370
#     4  10  21  35  64  98 121 161 211 261 297 367
#     4  11  22  40  66  95 125 162 211 259 312 365
#     4  11  21  41  64  91 126 169 210 251 311 374
#     4  10  23  40  64  92 127 167 207 254 317 371
#     4  12  26  41  61  94 131 166 203 260 323 369
#
# _framework density 23.667152999999999
#
# number of rings (size 3 to 8) (size 9 to 14) (size 15 to 20)
#    0.000    1.429    4.286    2.143    0.000    1.714 
#    0.000    0.000    0.000    4.286    0.000    0.000 
#    0.000    0.000    0.000    0.000    0.000    0.000 
#
# Total GULP energy -78155.620052 kJ/mol
# GULP energy per Si atom -5582.544289 kJ/mol
# Density = 2.361329 g / cm^3
# Si number density = 23.667153 Si / 1000 Ang^3
#
#
#
# Elastic Constant Matrix: (Units=GPa)
#
#
# Indices 1 2 3 4 5 6 
#
# 1 101.3560 46.8506 33.5480 15.7993 -24.0890 -19.2078
# 2 46.8506 85.7646 17.2286 6.7645 -25.9388 -17.2944
# 3 33.5480 17.2286 95.2340 -2.8650 -10.0164 -2.8180
# 4 15.7993 6.7645 -2.8650 34.9465 -13.0096 -6.1417
# 5 -24.0890 -25.9388 -10.0164 -13.0096 32.4375 17.2239
# 6 -19.2078 -17.2944 -2.8180 -6.1417 17.2239 41.4035
#
#
#
# Elastic Compliance Matrix: (Units=1/GPa)
#
#
# Indices 1 2 3 4 5 6 
#
# 1 0.016048 -0.006317 -0.004383 -0.005178 0.001862 0.002966
# 2 -0.006317 0.018264 0.000212 0.003572 0.011074 0.000636
# 3 -0.004383 0.000212 0.012413 0.003854 0.003304 -0.001902
# 4 -0.005178 0.003572 0.003854 0.036082 0.015626 -0.001796
# 5 0.001862 0.011074 0.003304 0.015626 0.056589 -0.015509
# 6 0.002966 0.000636 -0.001902 -0.001796 -0.015509 0.031850
#
#
# Mechanical properties :
#
#
# Convention : Reuss Voigt Hill
#
# Bulk Modulus (GPa) = 38.83431 53.06770 45.95100
# Shear Modulus (GPa) = 24.89992 34.07266 29.48629
#
# Velocity S-wave (km/s) = 3.24711 3.79840 3.53352
# Velocity P-wave (km/s) = 5.52290 6.45820 6.00878
#
# Compressibility (1/GPa) = 0.02575043
#
# Stress axis : x y z
#
# Youngs Moduli (GPa) = 62.31154 54.75369 80.56024
#
# Poissons Ratio (x) = 0.34587 0.35308
# Poissons Ratio (y) = 0.39361 -0.01709
# Poissons Ratio (z) = 0.27310 -0.01162
#
# Static dielectric constant tensor:
#      x y z
#    x 1.941540 0.005740 -0.058650 
#    y 0.005740 1.959980 -0.017790 
#    z -0.058650 -0.017790 1.926490 
# 
# From -- ./inp_files/254768.got.cif
#   From: 2010.05.17/outbox.cif.g08.bks.cpg/sg2_128_cif.got.tgz:254768.got - 2010.06.03 11:33:40.
