data_PCOD9085014
_publ_section_title
;
Structure prediction by ZEFSAII (Michael W. Deem and Ramdas Pophale) SiO2 
 PCOD9085014
Probable space group: P -1
;
_chemical_formula_sum "Si O2"
_cell_formula_units_Z 16
_cell_length_a 9.474654
_cell_length_b 10.844705
_cell_length_c 10.604782
_cell_angle_alpha 78.119660
_cell_angle_beta 136.191433
_cell_angle_gamma 90.774591
_cell_volume 723.330150
_symmetry_space_group_name_H-M "P -1"
_symmetry_group_IT_number 2
_symmetry_cell_setting 'triclinic'
loop_
_space_group_symop_operation_xyz
x,y,z
-x,-y,-z
loop_
_atom_site_type_symbol
_atom_site_label
_atom_site_fract_x
_atom_site_fract_y
_atom_site_fract_z
Si Si1 0.795446 0.620390 0.927354
Si Si2 0.583568 0.222827 0.724548
Si Si3 0.376427 0.603897 0.051252
Si Si4 0.174402 0.563161 0.540433
Si Si5 0.633348 0.254626 0.254834
Si Si6 0.005318 0.142735 0.910569
Si Si7 0.713893 0.550287 0.614239
Si Si8 0.436795 0.034319 0.094291
O O1 0.783288 0.494156 0.032784
O O2 0.560393 0.697169 0.786754
O O3 0.809268 0.562208 0.808336
O O4 0.924902 0.733862 0.001385
O O5 0.667178 0.296522 0.881279
O O6 0.365742 0.308425 0.522851
O O7 0.755971 0.196620 0.730188
O O8 0.549442 0.090420 0.786021
O O9 0.604681 0.520726 0.251019
O O10 0.385346 0.672834 0.908578
O O11 0.172178 0.706239 0.557831
O O12 0.161421 0.545009 0.387067
O O13 0.000000 0.500000 0.500000
O O14 0.605402 0.113132 0.236555
O O15 0.194454 0.109965 0.937590
O O16 0.000000 0.000000 0.000000
O O17 0.500000 0.500000 0.500000
O O18 0.500000 0.000000 0.000000
#
# Coordination Sequence:
#
# PCOD9085014 Si02
#       8
#     2   2   2   2   2   2   2   2
#     4  10  19  36  59  83 118 152 186 225 290 341
#     4  10  20  37  59  85 116 145 192 235 280 330
#     4  10  19  35  58  84 115 149 188 233 288 337
#     4  10  21  36  55  83 117 147 186 236 282 329
#     4  10  19  36  58  84 112 147 194 231 285 339
#     4   9  21  38  56  89 114 141 197 239 270 329
#     4  11  20  40  57  80 120 154 179 226 290 350
#     4  10  19  37  61  81 111 154 185 235 285 332
#
# _framework density 22.119911999999999
#
# number of rings (size 3 to 8) (size 9 to 14) (size 15 to 20)
#    0.000    2.000    5.000    1.500    0.000    1.500 
#    6.750    5.625    0.000    3.000    0.000    0.000 
#    0.000    0.000    0.000    0.000    0.000    0.000 
#
# Total GULP energy -89144.583470 kJ/mol
# GULP energy per Si atom -5571.536467 kJ/mol
# Density = 2.206957 g / cm^3
# Si number density = 22.119912 Si / 1000 Ang^3
#
#
#
# Elastic Constant Matrix: (Units=GPa)
#
#
# Indices 1 2 3 4 5 6 
#
# 1 133.7154 51.2386 29.0728 23.0246 -5.2346 4.8298
# 2 51.2386 171.0268 40.7708 27.4648 -1.7108 26.7680
# 3 29.0728 40.7708 66.1592 9.0285 -7.3675 5.8805
# 4 23.0246 27.4648 9.0285 28.0088 7.5943 1.9927
# 5 -5.2346 -1.7108 -7.3675 7.5943 24.1897 8.2607
# 6 4.8298 26.7680 5.8805 1.9927 8.2607 41.8736
#
#
#
# Elastic Compliance Matrix: (Units=1/GPa)
#
#
# Indices 1 2 3 4 5 6 
#
# 1 0.009799 -0.001143 -0.002139 -0.007249 0.003838 -0.000511
# 2 -0.001143 0.009063 -0.003142 -0.007543 0.003715 -0.005594
# 3 -0.002139 -0.003142 0.019307 -0.003091 0.006724 -0.001635
# 4 -0.007249 -0.007543 -0.003091 0.055803 -0.023306 0.008035
# 5 0.003838 0.003715 0.006724 -0.023306 0.056511 -0.013801
# 6 -0.000511 -0.005594 -0.001635 0.008035 -0.013801 0.030086
#
#
# Mechanical properties :
#
#
# Convention : Reuss Voigt Hill
#
# Bulk Modulus (GPa) = 39.49524 68.11843 53.80684
# Shear Modulus (GPa) = 24.76984 35.46905 30.11944
#
# Velocity S-wave (km/s) = 3.34997 4.00870 3.69405
# Velocity P-wave (km/s) = 5.73209 7.23106 6.52476
#
# Compressibility (1/GPa) = 0.02531951
#
# Stress axis : x y z
#
# Youngs Moduli (GPa) = 102.05490 110.34260 51.79337
#
# Poissons Ratio (x) = 0.12614 0.11080
# Poissons Ratio (y) = 0.11666 0.16274
# Poissons Ratio (z) = 0.21833 0.34672
#
# Static dielectric constant tensor:
#      x y z
#    x 1.831650 -0.024040 0.011420 
#    y -0.024040 1.912270 -0.036510 
#    z 0.011420 -0.036510 1.941480 
# 
# From -- ./inp_files/387438.got.cif
#   From: 2010.05.17/outbox.cif.g08.bks.cpg/sg2_194_cif.got.tgz:387438.got - 2010.06.03 11:33:40.
