data_PCOD9085095
_publ_section_title
;
Structure prediction by ZEFSAII (Michael W. Deem and Ramdas Pophale) SiO2 
 PCOD9085095
Probable space group: P -1
;
_chemical_formula_sum "Si O2"
_cell_formula_units_Z 16
_cell_length_a 9.666149
_cell_length_b 26.875350
_cell_length_c 15.787595
_cell_angle_alpha 16.681772
_cell_angle_beta 145.926914
_cell_angle_gamma 144.479229
_cell_volume 654.236265
_symmetry_space_group_name_H-M "P -1"
_symmetry_group_IT_number 2
_symmetry_cell_setting 'triclinic'
loop_
_space_group_symop_operation_xyz
x,y,z
-x,-y,-z
loop_
_atom_site_type_symbol
_atom_site_label
_atom_site_fract_x
_atom_site_fract_y
_atom_site_fract_z
Si Si1 0.217443 0.406784 0.015336
Si Si2 0.832460 0.598847 0.409436
Si Si3 0.654850 0.875722 0.566271
Si Si4 0.728021 0.437171 0.041593
Si Si5 0.247696 0.091338 0.024217
Si Si6 0.965866 0.126574 0.084082
Si Si7 0.998692 0.844127 0.430595
Si Si8 0.512258 0.316432 0.605832
O O1 0.057761 0.495981 0.720102
O O2 0.128818 0.453161 0.988291
O O3 0.500000 0.500000 0.000000
O O4 0.221290 0.205365 0.319969
O O5 0.385732 0.546595 0.494464
O O6 0.916461 0.725913 0.165036
O O7 0.767471 0.713974 0.268938
O O8 0.440850 0.721659 0.738219
O O9 0.845886 0.893970 0.710613
O O10 0.510878 0.042003 0.205008
O O11 0.881310 0.335198 0.218279
O O12 0.558214 0.563927 0.703438
O O13 0.208237 0.984799 0.267225
O O14 0.000000 0.000000 0.000000
O O15 0.914808 0.941730 0.311064
O O16 0.719834 0.198388 0.876361
O O17 0.750808 0.798464 0.322121
#
# Coordination Sequence:
#
# PCOD9085095 Si02
#       8
#     2   2   2   2   2   2   2   2
#     4  10  19  35  58  90 116 148 191 252 288 338
#     4  11  21  35  64  90 115 153 204 243 285 342
#     4  10  19  35  61  88 115 148 201 248 286 341
#     4  10  21  37  59  86 120 153 198 239 296 342
#     4  10  22  40  61  89 117 155 197 241 297 347
#     4  11  21  37  60  90 117 153 199 248 289 340
#     4  10  24  38  60  84 123 157 189 241 303 349
#     4  12  22  38  59  91 119 155 198 240 294 350
#
# _framework density 24.455995999999999
#
# number of rings (size 3 to 8) (size 9 to 14) (size 15 to 20)
#    0.000    1.500    2.500    4.875    1.750    2.500 
#    0.000    2.500    0.000    1.500    0.000    0.000 
#    0.000    0.000    0.000    0.000    0.000    0.000 
#
# Total GULP energy -89456.049601 kJ/mol
# GULP energy per Si atom -5591.003100 kJ/mol
# Density = 2.440033 g / cm^3
# Si number density = 24.455996 Si / 1000 Ang^3
#
#
#
# Elastic Constant Matrix: (Units=GPa)
#
#
# Indices 1 2 3 4 5 6 
#
# 1 88.3791 24.1086 29.5563 -17.6046 12.2451 -2.7214
# 2 24.1086 152.1819 49.1841 -16.4292 30.6477 -23.7527
# 3 29.5563 49.1841 141.2523 -12.7585 44.7864 -14.7030
# 4 -17.6046 -16.4292 -12.7585 47.9346 -8.5854 -1.0034
# 5 12.2451 30.6477 44.7864 -8.5854 32.4986 -7.6066
# 6 -2.7214 -23.7527 -14.7030 -1.0034 -7.6066 27.4186
#
#
#
# Elastic Compliance Matrix: (Units=1/GPa)
#
#
# Indices 1 2 3 4 5 6 
#
# 1 0.013053 -0.001043 -0.001979 0.003836 -0.000341 -0.000623
# 2 -0.001043 0.009172 -0.000291 0.001741 -0.005968 0.006093
# 3 -0.001979 -0.000291 0.013014 -0.000284 -0.016537 0.001932
# 4 0.003836 0.001741 -0.000284 0.023670 0.004456 0.003839
# 5 -0.000341 -0.005968 -0.016537 0.004456 0.061213 0.003073
# 6 -0.000623 0.006093 0.001932 0.003839 0.003073 0.043717
#
#
# Mechanical properties :
#
#
# Convention : Reuss Voigt Hill
#
# Bulk Modulus (GPa) = 34.94967 65.27903 50.11435
# Shear Modulus (GPa) = 27.77741 40.16798 33.97269
#
# Velocity S-wave (km/s) = 3.37384 4.05712 3.73115
# Velocity P-wave (km/s) = 5.43129 6.97835 6.25285
#
# Compressibility (1/GPa) = 0.02861257
#
# Stress axis : x y z
#
# Youngs Moduli (GPa) = 76.60988 109.03326 76.84235
#
# Poissons Ratio (x) = 0.11372 0.15204
# Poissons Ratio (y) = 0.07990 0.02239
# Poissons Ratio (z) = 0.15158 0.03177
#
# Static dielectric constant tensor:
#      x y z
#    x 2.085270 -0.059850 -0.052440 
#    y -0.059850 1.934230 0.019230 
#    z -0.052440 0.019230 1.989000 
# 
# From -- ./inp_files/571193.got.cif
#   From: 2010.05.17/outbox.cif.g08.bks.cpg/sg2_286_cif.got.tgz:571193.got - 2010.06.03 11:33:40.
