data_PCOD9085836
_publ_section_title
;
Structure prediction by ZEFSAII (Michael W. Deem and Ramdas Pophale) SiO2 
 PCOD9085836
Probable space group: P -1
;
_chemical_formula_sum "Si O2"
_cell_formula_units_Z 16
_cell_length_a 18.766124
_cell_length_b 9.615578
_cell_length_c 5.174172
_cell_angle_alpha 111.465161
_cell_angle_beta 87.966886
_cell_angle_gamma 58.265509
_cell_volume 707.688599
_symmetry_space_group_name_H-M "P -1"
_symmetry_group_IT_number 2
_symmetry_cell_setting 'triclinic'
loop_
_space_group_symop_operation_xyz
x,y,z
-x,-y,-z
loop_
_atom_site_type_symbol
_atom_site_label
_atom_site_fract_x
_atom_site_fract_y
_atom_site_fract_z
Si Si1 0.440467 0.607193 0.330617
Si Si2 0.494990 0.182343 0.661023
Si Si3 0.906429 0.925304 0.344016
Si Si4 0.979248 0.398824 0.222068
Si Si5 0.392383 0.368622 0.297709
Si Si6 0.241383 0.327958 0.135860
Si Si7 0.092185 0.734330 0.485948
Si Si8 0.185059 0.235023 0.605069
O O1 0.500000 0.500000 0.500000
O O2 0.426655 0.801492 0.429393
O O3 0.366672 0.569797 0.353008
O O4 0.500000 0.500000 0.000000
O O5 0.418506 0.325611 0.565984
O O6 0.500000 0.000000 0.500000
O O7 0.473017 0.236905 0.001764
O O8 0.833010 0.919741 0.496498
O O9 0.998748 0.823501 0.418066
O O10 0.884838 0.120331 0.408607
O O11 0.932997 0.788755 0.007290
O O12 0.923653 0.324010 0.276909
O O13 0.910352 0.575054 0.179995
O O14 0.000000 0.500000 0.500000
O O15 0.324388 0.323152 0.205968
O O16 0.168911 0.542514 0.228039
O O17 0.211595 0.265765 0.343609
O O18 0.249020 0.216521 0.806459
#
# Coordination Sequence:
#
# PCOD9085836 Si02
#       8
#     2   2   2   2   2   2   2   2
#     4   8  16  31  55  84 109 142 179 218 260 320
#     4  10  19  35  63  94 114 140 187 238 273 316
#     4  11  20  36  54  82 106 142 195 268 290 320
#     4  11  19  34  55  80 104 141 190 251 300 338
#     4  10  20  37  58  82 123 151 185 222 280 344
#     4  11  23  40  55  81 112 164 187 225 284 369
#     4  10  22  34  55  80 110 141 194 248 302 335
#     4  11  22  36  58  79 111 148 204 234 290 345
#
# _framework density 22.608813999999999
#
# number of rings (size 3 to 8) (size 9 to 14) (size 15 to 20)
#    0.000    1.750    2.500    3.375    0.000    0.000 
#    0.000    2.500    0.000    0.000    0.000    0.000 
#    0.000    0.000    0.000    0.000    0.000    0.000 
#
# Total GULP energy -89168.142328 kJ/mol
# GULP energy per Si atom -5573.008895 kJ/mol
# Density = 2.255736 g / cm^3
# Si number density = 22.608814 Si / 1000 Ang^3
#
#
#
# Elastic Constant Matrix: (Units=GPa)
#
#
# Indices 1 2 3 4 5 6 
#
# 1 91.3527 44.3974 6.7208 2.9593 21.6575 42.8085
# 2 44.3974 117.9197 29.6188 9.0941 3.7456 61.9391
# 3 6.7208 29.6188 81.1132 -8.7218 21.2283 6.8851
# 4 2.9593 9.0941 -8.7218 22.7940 1.0062 12.2842
# 5 21.6575 3.7456 21.2283 1.0062 25.5643 4.8940
# 6 42.8085 61.9391 6.8851 12.2842 4.8940 50.8654
#
#
#
# Elastic Compliance Matrix: (Units=1/GPa)
#
#
# Indices 1 2 3 4 5 6 
#
# 1 0.028455 0.002034 0.007730 0.015010 -0.025938 -0.028600
# 2 0.002034 0.029857 -0.009693 0.004593 0.009188 -0.038751
# 3 0.007730 -0.009693 0.022863 0.011764 -0.024913 0.001759
# 4 0.015010 0.004593 0.011764 0.063371 -0.019283 -0.033267
# 5 -0.025938 0.009188 -0.024913 -0.019283 0.079074 0.011062
# 6 -0.028600 -0.038751 0.001759 -0.033267 0.011062 0.097648
#
#
# Mechanical properties :
#
#
# Convention : Reuss Voigt Hill
#
# Bulk Modulus (GPa) = 12.29760 50.20663 31.25211
# Shear Modulus (GPa) = 14.35829 33.82132 24.08981
#
# Velocity S-wave (km/s) = 2.52280 3.87193 3.26775
# Velocity P-wave (km/s) = 3.73325 6.49954 5.30005
#
# Compressibility (1/GPa) = 0.08131671
#
# Stress axis : x y z
#
# Youngs Moduli (GPa) = 35.14369 33.49265 43.73888
#
# Poissons Ratio (x) = -0.06813 -0.33808
# Poissons Ratio (y) = -0.07148 0.42395
# Poissons Ratio (z) = -0.27165 0.32463
#
# Static dielectric constant tensor:
#      x y z
#    x 1.923610 0.020510 0.001020 
#    y 0.020510 1.869040 0.000450 
#    z 0.001020 0.000450 1.898520 
# 
# From -- ./inp_files/44279.got.cif
#   From: 2010.05.17/outbox.cif.g08.bks.cpg/sg2_23_cif.got.tgz:44279.got - 2010.06.03 11:33:40.
