data_PCOD9085474
_publ_section_title
;
Structure prediction by ZEFSAII (Michael W. Deem and Ramdas Pophale) SiO2 
 PCOD9085474
Probable space group: P -1
;
_chemical_formula_sum "Si O2"
_cell_formula_units_Z 14
_cell_length_a 15.339431
_cell_length_b 21.238467
_cell_length_c 9.067081
_cell_angle_alpha 149.612128
_cell_angle_beta 32.563533
_cell_angle_gamma 157.151608
_cell_volume 562.720564
_symmetry_space_group_name_H-M "P -1"
_symmetry_group_IT_number 2
_symmetry_cell_setting 'triclinic'
loop_
_space_group_symop_operation_xyz
x,y,z
-x,-y,-z
loop_
_atom_site_type_symbol
_atom_site_label
_atom_site_fract_x
_atom_site_fract_y
_atom_site_fract_z
Si Si1 0.510571 0.259417 0.287018
Si Si2 0.765306 0.413419 0.795647
Si Si3 0.682677 0.088105 0.282268
Si Si4 0.306776 0.250390 0.284498
Si Si5 0.997247 0.858310 0.845501
Si Si6 0.897468 0.612085 0.267285
Si Si7 0.511264 0.379871 0.831666
O O1 0.331949 0.245407 0.415019
O O2 0.756363 0.447037 0.250900
O O3 0.496652 0.271005 0.503599
O O4 0.437361 0.079262 0.988885
O O5 0.747263 0.258268 0.471836
O O6 0.719602 0.466604 0.821110
O O7 0.537101 0.313362 0.018506
O O8 0.963392 0.565382 0.935924
O O9 0.917115 0.161191 0.166318
O O10 0.500000 0.000000 0.500000
O O11 0.257853 0.364251 0.540002
O O12 0.110988 0.054997 0.100267
O O13 0.062825 0.792320 0.492883
O O14 0.725861 0.736293 0.974572
O O15 0.500000 0.500000 0.000000
#
# Coordination Sequence:
#
# PCOD9085474 Si02
#       7
#     2   2   2   2   2   2   2
#     4  10  21  38  62  85 128 167 195 247 314 363
#     4  11  22  39  66  87 127 165 200 255 309 357
#     4  11  22  43  61  92 127 162 201 256 309 360
#     4  10  19  35  60  94 117 152 210 259 294 350
#     4  11  23  35  67  92 126 152 210 255 306 361
#     4  11  19  36  63  95 116 161 208 256 300 353
#     4  12  23  40  64  94 123 163 204 255 305 364
#
# _framework density 24.879132999999999
#
# number of rings (size 3 to 8) (size 9 to 14) (size 15 to 20)
#    0.000    1.143    7.143    3.000    0.000    3.429 
#    0.000    0.714    0.000    0.000    0.000    0.000 
#    0.000    0.000    0.000    0.000    0.000    0.000 
#
# Total GULP energy -78164.366382 kJ/mol
# GULP energy per Si atom -5583.169027 kJ/mol
# Density = 2.482251 g / cm^3
# Si number density = 24.879133 Si / 1000 Ang^3
#
#
#
# Elastic Constant Matrix: (Units=GPa)
#
#
# Indices 1 2 3 4 5 6 
#
# 1 111.2154 18.6367 51.9633 5.8631 10.0889 -11.1734
# 2 18.6367 39.7533 22.1847 11.9894 -7.9194 0.1400
# 3 51.9633 22.1847 167.5222 40.2777 18.1275 -7.2007
# 4 5.8631 11.9894 40.2777 38.6629 -3.6804 -1.2957
# 5 10.0889 -7.9194 18.1275 -3.6804 54.8085 5.1261
# 6 -11.1734 0.1400 -7.2007 -1.2957 5.1261 27.4874
#
#
#
# Elastic Compliance Matrix: (Units=1/GPa)
#
#
# Indices 1 2 3 4 5 6 
#
# 1 0.011888 -0.005081 -0.003389 0.003264 -0.002003 0.004498
# 2 -0.005081 0.031830 -0.001861 -0.006721 0.006089 -0.004167
# 3 -0.003389 -0.001861 0.010076 -0.009714 -0.003772 0.001517
# 4 0.003264 -0.006721 -0.009714 0.037968 0.004207 -0.000179
# 5 -0.002003 0.006089 -0.003772 0.004207 0.021553 -0.005654
# 6 0.004498 -0.004167 0.001517 -0.000179 -0.005654 0.039673
#
#
# Mechanical properties :
#
#
# Convention : Reuss Voigt Hill
#
# Bulk Modulus (GPa) = 30.18256 56.00670 43.09463
# Shear Modulus (GPa) = 27.07159 39.23883 33.15521
#
# Velocity S-wave (km/s) = 3.30225 3.97568 3.65451
# Velocity P-wave (km/s) = 5.16699 6.60569 5.93013
#
# Compressibility (1/GPa) = 0.03313172
#
# Stress axis : x y z
#
# Youngs Moduli (GPa) = 84.11764 31.41644 99.24543
#
# Poissons Ratio (x) = 0.15963 0.33637
# Poissons Ratio (y) = 0.42740 0.18471
# Poissons Ratio (z) = 0.28510 0.05847
#
# Static dielectric constant tensor:
#      x y z
#    x 2.076770 -0.014730 0.033440 
#    y -0.014730 2.056750 0.003650 
#    z 0.033440 0.003650 2.034620 
# 
# From -- ./inp_files/319149.got.cif
#   From: 2010.05.17/outbox.cif.g08.bks.cpg/sg2_160_cif.got.tgz:319149.got - 2010.06.03 11:33:40.
