data_PCOD9085140
_publ_section_title
;
Structure prediction by ZEFSAII (Michael W. Deem and Ramdas Pophale) SiO2 
 PCOD9085140
Probable space group: P -1
;
_chemical_formula_sum "Si O2"
_cell_formula_units_Z 14
_cell_length_a 6.524895
_cell_length_b 14.652822
_cell_length_c 7.776235
_cell_angle_alpha 84.012504
_cell_angle_beta 114.514657
_cell_angle_gamma 118.052454
_cell_volume 593.149068
_symmetry_space_group_name_H-M "P -1"
_symmetry_group_IT_number 2
_symmetry_cell_setting 'triclinic'
loop_
_space_group_symop_operation_xyz
x,y,z
-x,-y,-z
loop_
_atom_site_type_symbol
_atom_site_label
_atom_site_fract_x
_atom_site_fract_y
_atom_site_fract_z
Si Si1 0.331215 0.338464 0.403291
Si Si2 0.349796 0.086227 0.753306
Si Si3 0.107132 0.194696 0.850887
Si Si4 0.855051 0.136683 0.124633
Si Si5 0.544521 0.404743 0.083207
Si Si6 0.036076 0.594686 0.614728
Si Si7 0.341094 0.761088 0.426759
O O1 0.455641 0.384969 0.255161
O O2 0.526556 0.308606 0.575690
O O3 0.066446 0.235804 0.279485
O O4 0.230814 0.406709 0.454853
O O5 0.150478 0.124554 0.739729
O O6 0.444382 0.125264 0.584290
O O7 0.238429 0.964448 0.769967
O O8 0.601282 0.137787 0.958124
O O9 0.910782 0.239178 0.733075
O O10 0.369632 0.298401 0.947735
O O11 0.004580 0.131693 0.005795
O O12 0.833630 0.423807 0.169082
O O13 0.500000 0.500000 0.000000
O O14 0.239356 0.708629 0.587553
O O15 0.000000 0.500000 0.500000
#
# Coordination Sequence:
#
# PCOD9085140 Si02
#       7
#     2   2   2   2   2   2   2
#     4  10  22  40  56  78 116 144 177 230 271 325
#     4  10  19  35  59  82 112 145 183 230 267 318
#     4  10  19  36  58  83 113 143 184 227 268 324
#     4   9  20  36  56  84 110 146 185 221 278 322
#     4  10  22  37  58  85 107 140 184 224 274 326
#     4  11  23  39  58  80 109 146 183 223 276 327
#     4  10  22  36  55  84 110 146 186 220 272 324
#
# _framework density 23.602837000000001
#
# number of rings (size 3 to 8) (size 9 to 14) (size 15 to 20)
#    0.000    2.000    0.000    3.000    0.000    4.571 
#    0.000    1.429    0.000    0.000    0.000    0.000 
#    0.000    0.000    0.000    0.000    0.000    0.000 
#
# Total GULP energy -78077.054659 kJ/mol
# GULP energy per Si atom -5576.932476 kJ/mol
# Density = 2.354912 g / cm^3
# Si number density = 23.602837 Si / 1000 Ang^3
#
#
#
# Elastic Constant Matrix: (Units=GPa)
#
#
# Indices 1 2 3 4 5 6 
#
# 1 108.6611 23.8017 26.6441 -6.4092 21.1254 -8.5154
# 2 23.8017 75.1989 35.0432 -19.4015 6.5468 13.0956
# 3 26.6441 35.0432 57.3678 -23.3142 17.2259 2.1711
# 4 -6.4092 -19.4015 -23.3142 42.5854 6.7623 -1.3349
# 5 21.1254 6.5468 17.2259 6.7623 44.9401 -9.4876
# 6 -8.5154 13.0956 2.1711 -1.3349 -9.4876 31.0684
#
#
#
# Elastic Compliance Matrix: (Units=1/GPa)
#
#
# Indices 1 2 3 4 5 6 
#
# 1 0.011367 -0.002645 -0.003214 -0.000686 -0.002874 0.003548
# 2 -0.002645 0.021255 -0.009683 0.003800 -0.000621 -0.009034
# 3 -0.003214 -0.009683 0.036088 0.017007 -0.014081 -0.002891
# 4 -0.000686 0.003800 0.017007 0.036374 -0.013385 -0.005503
# 5 -0.002874 -0.000621 -0.014081 -0.013385 0.033222 0.010028
# 6 0.003548 -0.009034 -0.002891 -0.005503 0.010028 0.039995
#
#
# Mechanical properties :
#
#
# Convention : Reuss Voigt Hill
#
# Bulk Modulus (GPa) = 26.57672 45.80065 36.18868
# Shear Modulus (GPa) = 22.53010 34.10137 28.31574
#
# Velocity S-wave (km/s) = 3.09293 3.80518 3.46739
# Velocity P-wave (km/s) = 4.90300 6.22516 5.60322
#
# Compressibility (1/GPa) = 0.03762692
#
# Stress axis : x y z
#
# Youngs Moduli (GPa) = 87.97761 47.04777 27.71003
#
# Poissons Ratio (x) = 0.12443 0.08905
# Poissons Ratio (y) = 0.23267 0.26831
# Poissons Ratio (z) = 0.28274 0.45556
#
# Static dielectric constant tensor:
#      x y z
#    x 1.953550 0.023600 0.040960 
#    y 0.023600 1.872690 -0.015730 
#    z 0.040960 -0.015730 1.957990 
# 
# From -- ./inp_files/26873.got.cif
#   From: 2010.05.17/outbox.cif.g08.bks.cpg/sg2_14_cif.got.tgz:26873.got - 2010.06.03 11:33:40.
