data_PCOD9085144
_publ_section_title
;
Structure prediction by ZEFSAII (Michael W. Deem and Ramdas Pophale) SiO2 
 PCOD9085144
Probable space group: P -1
;
_chemical_formula_sum "Si O2"
_cell_formula_units_Z 14
_cell_length_a 8.558069
_cell_length_b 5.170030
_cell_length_c 22.190828
_cell_angle_alpha 69.576881
_cell_angle_beta 35.544309
_cell_angle_gamma 68.133409
_cell_volume 527.791315
_symmetry_space_group_name_H-M "P -1"
_symmetry_group_IT_number 2
_symmetry_cell_setting 'triclinic'
loop_
_space_group_symop_operation_xyz
x,y,z
-x,-y,-z
loop_
_atom_site_type_symbol
_atom_site_label
_atom_site_fract_x
_atom_site_fract_y
_atom_site_fract_z
Si Si1 0.519984 0.025472 0.563939
Si Si2 0.217607 0.702962 0.904907
Si Si3 0.225858 0.241217 0.132180
Si Si4 0.204580 0.619538 0.224930
Si Si5 0.567079 0.427428 0.616669
Si Si6 0.844405 0.203563 0.948015
Si Si7 0.957755 0.291365 0.600027
O O1 0.430776 0.269359 0.620066
O O2 0.500000 0.000000 0.500000
O O3 0.420436 0.746206 0.642651
O O4 0.851346 0.976897 0.466045
O O5 0.507189 0.508842 0.823501
O O6 0.235064 0.838722 0.954245
O O7 0.091881 0.952307 0.879308
O O8 0.000000 0.500000 0.000000
O O9 0.172366 0.389312 0.203025
O O10 0.181156 0.922328 0.176160
O O11 0.545079 0.208866 0.014110
O O12 0.080551 0.491994 0.114273
O O13 0.025005 0.690817 0.334910
O O14 0.660262 0.303289 0.662736
O O15 0.865947 0.470750 0.494303
#
# Coordination Sequence:
#
# PCOD9085144 Si02
#       7
#     2   2   2   2   2   2   2
#     4  10  19  35  61  86 114 150 197 238 293 359
#     4  10  19  35  59  82 113 154 197 241 293 342
#     4  10  22  36  57  84 113 155 193 237 301 344
#     4  11  23  36  58  88 117 153 195 249 295 347
#     4   9  20  36  61  87 110 162 195 236 295 361
#     4   9  20  36  57  80 112 153 200 237 283 366
#     4   9  22  36  62  83 122 149 206 239 298 359
#
# _framework density 26.525635000000001
#
# number of rings (size 3 to 8) (size 9 to 14) (size 15 to 20)
#    0.857    1.429    1.429    0.857    4.000    1.714 
#    0.000    1.429    3.143    0.000    0.000    0.000 
#    0.000    0.000    0.000    0.000    0.000    0.000 
#
# Total GULP energy -77984.426653 kJ/mol
# GULP energy per Si atom -5570.316190 kJ/mol
# Density = 2.646526 g / cm^3
# Si number density = 26.525635 Si / 1000 Ang^3
#
#
#
# Elastic Constant Matrix: (Units=GPa)
#
#
# Indices 1 2 3 4 5 6 
#
# 1 78.4490 54.6650 12.5587 -3.9718 10.1503 -3.1109
# 2 54.6650 155.1846 13.9131 8.9534 1.2126 4.6120
# 3 12.5587 13.9131 62.9943 19.6010 14.2989 -0.2977
# 4 -3.9718 8.9534 19.6010 34.5706 -3.2442 8.8455
# 5 10.1503 1.2126 14.2989 -3.2442 34.3838 6.2341
# 6 -3.1109 4.6120 -0.2977 8.8455 6.2341 63.4312
#
#
#
# Elastic Compliance Matrix: (Units=1/GPa)
#
#
# Indices 1 2 3 4 5 6 
#
# 1 0.018558 -0.006559 -0.002895 0.004844 -0.003780 0.001069
# 2 -0.006559 0.008935 -0.000230 -0.002589 0.001612 -0.000770
# 3 -0.002895 -0.000230 0.023954 -0.015743 -0.011179 0.003281
# 4 0.004844 -0.002589 -0.015743 0.041705 0.010318 -0.006478
# 5 -0.003780 0.001612 -0.011179 0.010318 0.036745 -0.005405
# 6 0.001069 -0.000770 0.003281 -0.006478 -0.005405 0.017324
#
#
# Mechanical properties :
#
#
# Convention : Reuss Voigt Hill
#
# Bulk Modulus (GPa) = 31.17360 50.98904 41.08132
# Shear Modulus (GPa) = 28.20365 40.84319 34.52342
#
# Velocity S-wave (km/s) = 3.26430 3.92824 3.61156
# Velocity P-wave (km/s) = 5.09758 6.31182 5.73691
#
# Compressibility (1/GPa) = 0.03207842
#
# Stress axis : x y z
#
# Youngs Moduli (GPa) = 53.88480 111.92213 41.74669
#
# Poissons Ratio (x) = 0.73414 0.12087
# Poissons Ratio (y) = 0.35345 0.00958
# Poissons Ratio (z) = 0.15601 0.02569
#
# Static dielectric constant tensor:
#      x y z
#    x 2.362800 -0.110110 0.001940 
#    y -0.110110 2.186290 0.025990 
#    z 0.001940 0.025990 2.084380 
# 
# From -- ./inp_files/585142.got.cif
#   From: 2010.05.17/outbox.cif.g08.bks.cpg/sg2_293_cif.got.tgz:585142.got - 2010.06.03 11:33:40.
