data_PCOD9085028
_publ_section_title
;
Structure prediction by ZEFSAII (Michael W. Deem and Ramdas Pophale) SiO2 
 PCOD9085028
Probable space group: P -1
;
_chemical_formula_sum "Si O2"
_cell_formula_units_Z 15
_cell_length_a 7.667964
_cell_length_b 17.729184
_cell_length_c 9.632798
_cell_angle_alpha 33.564743
_cell_angle_beta 67.153132
_cell_angle_gamma 77.060438
_cell_volume 654.344126
_symmetry_space_group_name_H-M "P -1"
_symmetry_group_IT_number 2
_symmetry_cell_setting 'triclinic'
loop_
_space_group_symop_operation_xyz
x,y,z
-x,-y,-z
loop_
_atom_site_type_symbol
_atom_site_label
_atom_site_fract_x
_atom_site_fract_y
_atom_site_fract_z
Si Si1 0.455412 0.211154 0.133621
Si Si2 0.245517 0.903652 0.598039
Si Si3 0.198733 0.932444 0.249399
Si Si4 0.949223 0.804444 0.059714
Si Si5 0.000000 0.500000 0.500000
Si Si6 0.048666 0.499619 0.186811
Si Si7 0.272638 0.765186 0.233075
Si Si8 0.140337 0.310863 0.239208
O O1 0.613924 0.183307 0.237235
O O2 0.323366 0.305678 0.097989
O O3 0.322351 0.061900 0.376290
O O4 0.555783 0.258508 0.883282
O O5 0.260846 0.899120 0.435431
O O6 0.034180 0.858649 0.800169
O O7 0.313258 0.870224 0.188011
O O8 0.979414 0.839934 0.446841
O O9 0.190196 0.095227 0.999175
O O10 0.892272 0.638288 0.326034
O O11 0.128941 0.825722 0.080144
O O12 0.897854 0.445935 0.761008
O O13 0.850220 0.384482 0.452448
O O14 0.184343 0.409665 0.207755
O O15 0.004388 0.617019 0.918486
#
# Coordination Sequence:
#
# PCOD9085028 Si02
#       8
#     2   2   2   2   1   2   2   2
#     4  10  21  38  55  84 120 157 178 235 293 340
#     4  10  21  35  57  85 114 149 192 230 285 333
#     4  11  20  35  62  88 108 147 200 241 271 337
#     4  10  19  35  58  85 111 152 185 243 279 336
#     4  10  20  34  54  86 118 134 186 240 290 318
#     4   9  20  37  58  87 113 151 189 241 267 346
#     4   9  21  37  55  84 121 148 185 233 295 332
#     4  10  20  37  64  84 111 150 199 226 285 334
#
# _framework density 22.923718000000001
#
# number of rings (size 3 to 8) (size 9 to 14) (size 15 to 20)
#    0.000    2.133    1.333    1.600    1.867    1.067 
#    0.000    1.333    0.000   20.800    0.000    0.000 
#    0.000    0.000    0.000    0.000    0.000    0.000 
#
# Total GULP energy -83525.972310 kJ/mol
# GULP energy per Si atom -5568.398154 kJ/mol
# Density = 2.287154 g / cm^3
# Si number density = 22.923718 Si / 1000 Ang^3
#
#
#
# Elastic Constant Matrix: (Units=GPa)
#
#
# Indices 1 2 3 4 5 6 
#
# 1 29.0124 29.9947 0.7896 -6.3852 4.4478 -4.9519
# 2 29.9947 154.8301 37.7114 14.8086 0.3003 -28.7912
# 3 0.7896 37.7114 81.0957 -19.3194 -2.9037 -3.1683
# 4 -6.3852 14.8086 -19.3194 40.3641 4.3446 6.7146
# 5 4.4478 0.3003 -2.9037 4.3446 17.2225 12.4519
# 6 -4.9519 -28.7912 -3.1683 6.7146 12.4519 30.9782
#
#
#
# Elastic Compliance Matrix: (Units=1/GPa)
#
#
# Indices 1 2 3 4 5 6 
#
# 1 0.059647 -0.017933 0.012887 0.024676 -0.015609 -0.004889
# 2 -0.017933 0.018248 -0.012042 -0.017770 -0.007497 0.019727
# 3 0.012887 -0.012042 0.021903 0.018537 0.005337 -0.013056
# 4 0.024676 -0.017770 0.018537 0.047546 0.000335 -0.021115
# 5 -0.015609 -0.007497 0.005337 0.000335 0.098029 -0.048393
# 6 -0.004889 0.019727 -0.013056 -0.021115 -0.048393 0.072527
#
#
# Mechanical properties :
#
#
# Convention : Reuss Voigt Hill
#
# Bulk Modulus (GPa) = 15.23890 44.65884 29.94887
# Shear Modulus (GPa) = 13.37076 30.80914 22.08995
#
# Velocity S-wave (km/s) = 2.41772 3.67002 3.10760
# Velocity P-wave (km/s) = 3.80210 6.12230 5.09600
#
# Compressibility (1/GPa) = 0.06562154
#
# Stress axis : x y z
#
# Youngs Moduli (GPa) = 16.76535 54.79935 45.65624
#
# Poissons Ratio (x) = 0.98272 -0.58838
# Poissons Ratio (y) = 0.30065 0.54981
# Poissons Ratio (z) = -0.21606 0.65992
#
# Static dielectric constant tensor:
#      x y z
#    x 1.911960 0.054170 -0.020650 
#    y 0.054170 1.905780 0.006600 
#    z -0.020650 0.006600 1.837420 
# 
# From -- ./inp_files/198954.got.cif
#   From: 2010.05.17/outbox.cif.g08.bks.cpg/sg2_100_cif.got.tgz:198954.got - 2010.06.03 11:33:40.
