data_PCOD9085264
_publ_section_title
;
Structure prediction by ZEFSAII (Michael W. Deem and Ramdas Pophale) SiO2 
 PCOD9085264
Probable space group: P -1
;
_chemical_formula_sum "Si O2"
_cell_formula_units_Z 16
_cell_length_a 20.644955
_cell_length_b 15.666724
_cell_length_c 7.061299
_cell_angle_alpha 122.028501
_cell_angle_beta 73.332583
_cell_angle_gamma 153.127082
_cell_volume 764.880693
_symmetry_space_group_name_H-M "P -1"
_symmetry_group_IT_number 2
_symmetry_cell_setting 'triclinic'
loop_
_space_group_symop_operation_xyz
x,y,z
-x,-y,-z
loop_
_atom_site_type_symbol
_atom_site_label
_atom_site_fract_x
_atom_site_fract_y
_atom_site_fract_z
Si Si1 0.556452 0.610136 0.797796
Si Si2 0.775910 0.138772 0.684113
Si Si3 0.093042 0.835010 0.715280
Si Si4 0.416816 0.571701 0.364402
Si Si5 0.088598 0.224284 0.147582
Si Si6 0.025359 0.189318 0.734868
Si Si7 0.277083 0.360037 0.656030
Si Si8 0.970045 0.579928 0.902030
O O1 0.500000 0.500000 0.500000
O O2 0.542093 0.489020 0.791060
O O3 0.437570 0.544553 0.854959
O O4 0.742391 0.898529 0.007642
O O5 0.846361 0.151866 0.492360
O O6 0.875517 0.265534 0.946934
O O7 0.587665 0.860957 0.557223
O O8 0.815974 0.300244 0.745614
O O9 0.976726 0.770403 0.666771
O O10 0.000507 0.644795 0.731745
O O11 0.278561 0.452327 0.240754
O O12 0.333746 0.441733 0.486924
O O13 0.021870 0.167854 0.936956
O O14 0.000000 0.000000 0.000000
O O15 0.181776 0.335707 0.720616
O O16 0.041523 0.329855 0.871268
O O17 0.857192 0.906447 0.481877
#
# Coordination Sequence:
#
# PCOD9085264 Si02
#       8
#     2   2   2   2   2   2   2   2
#     4  10  19  35  59  89 125 155 192 254 307 354
#     4  11  25  40  68  88 116 167 210 257 302 357
#     4  11  23  40  66  90 121 165 206 247 308 371
#     4  11  21  37  56  93 125 147 201 251 300 367
#     4  11  20  37  57  89 128 158 188 249 309 368
#     4  10  21  37  61  86 121 164 197 243 314 366
#     4  10  20  34  61  89 119 158 194 247 312 370
#     4  10  22  46  63  86 122 159 214 258 300 353
#
# _framework density 20.918295000000001
#
# number of rings (size 3 to 8) (size 9 to 14) (size 15 to 20)
#    0.000    1.500    2.500    4.875    3.500    1.500 
#    0.000    3.125    2.750    0.000    0.000    0.000 
#    0.000    0.000    0.000    0.000    0.000    0.000 
#
# Total GULP energy -89225.871414 kJ/mol
# GULP energy per Si atom -5576.616963 kJ/mol
# Density = 2.087068 g / cm^3
# Si number density = 20.918295 Si / 1000 Ang^3
#
#
#
# Elastic Constant Matrix: (Units=GPa)
#
#
# Indices 1 2 3 4 5 6 
#
# 1 117.5422 39.5431 20.3370 25.0911 3.8347 8.0279
# 2 39.5431 74.6181 23.8061 18.0469 -5.3548 6.8921
# 3 20.3370 23.8061 31.0184 10.5175 -3.6332 -2.1603
# 4 25.0911 18.0469 10.5175 38.5144 -1.8889 -1.0855
# 5 3.8347 -5.3548 -3.6332 -1.8889 29.2020 6.9879
# 6 8.0279 6.8921 -2.1603 -1.0855 6.9879 39.1946
#
#
#
# Elastic Compliance Matrix: (Units=1/GPa)
#
#
# Indices 1 2 3 4 5 6 
#
# 1 0.011678 -0.003957 -0.003335 -0.005016 -0.002627 -0.001550
# 2 -0.003957 0.020933 -0.012025 -0.003889 0.003637 -0.004289
# 3 -0.003335 -0.012025 0.045784 -0.004439 0.002505 0.004752
# 4 -0.005016 -0.003889 -0.004439 0.032375 0.000963 0.002192
# 5 -0.002627 0.003637 0.002505 0.000963 0.037202 -0.006569
# 6 -0.001550 -0.004289 0.004752 0.002192 -0.006569 0.028079
#
#
# Mechanical properties :
#
#
# Convention : Reuss Voigt Hill
#
# Bulk Modulus (GPa) = 25.15037 43.39457 34.27247
# Shear Modulus (GPa) = 21.93563 30.68169 26.30866
#
# Velocity S-wave (km/s) = 3.24177 3.83396 3.55024
# Velocity P-wave (km/s) = 5.10504 6.35522 5.76412
#
# Compressibility (1/GPa) = 0.03976085
#
# Stress axis : x y z
#
# Youngs Moduli (GPa) = 85.63081 47.77154 21.84173
#
# Poissons Ratio (x) = 0.18903 0.07284
# Poissons Ratio (y) = 0.33884 0.26265
# Poissons Ratio (z) = 0.28555 0.57447
#
# Static dielectric constant tensor:
#      x y z
#    x 1.862980 0.054180 -0.071830 
#    y 0.054180 1.833050 -0.129320 
#    z -0.071830 -0.129320 1.859450 
# 
# From -- ./inp_files/347329.got.cif
#   From: 2010.05.17/outbox.cif.g08.bks.cpg/sg2_174_cif.got.tgz:347329.got - 2010.06.03 11:33:40.
