data_PCOD9085434
_publ_section_title
;
Structure prediction by ZEFSAII (Michael W. Deem and Ramdas Pophale) SiO2 
 PCOD9085434
Probable space group: P -1
;
_chemical_formula_sum "Si O2"
_cell_formula_units_Z 16
_cell_length_a 9.913137
_cell_length_b 13.573251
_cell_length_c 18.707289
_cell_angle_alpha 150.589500
_cell_angle_beta 57.299444
_cell_angle_gamma 133.678164
_cell_volume 880.522630
_symmetry_space_group_name_H-M "P -1"
_symmetry_group_IT_number 2
_symmetry_cell_setting 'triclinic'
loop_
_space_group_symop_operation_xyz
x,y,z
-x,-y,-z
loop_
_atom_site_type_symbol
_atom_site_label
_atom_site_fract_x
_atom_site_fract_y
_atom_site_fract_z
Si Si1 0.132649 0.261249 0.352643
Si Si2 0.279989 0.303647 0.634749
Si Si3 0.203447 0.786957 0.677544
Si Si4 0.408341 0.160082 0.119588
Si Si5 0.910642 0.147636 0.097748
Si Si6 0.537433 0.082207 0.433671
Si Si7 0.973586 0.899715 0.557097
Si Si8 0.773912 0.323105 0.648996
O O1 0.188227 0.533183 0.518856
O O2 0.297132 0.225494 0.251780
O O3 0.959025 0.186893 0.299381
O O4 0.076089 0.129707 0.363103
O O5 0.416675 0.579581 0.787830
O O6 0.405750 0.187110 0.529933
O O7 0.198741 0.252919 0.545003
O O8 0.102479 0.161790 0.650695
O O9 0.196895 0.834220 0.791798
O O10 0.391710 0.953656 0.684107
O O11 0.500000 0.000000 0.000000
O O12 0.239256 0.998191 0.011812
O O13 0.090708 0.409374 0.196719
O O14 0.000000 0.000000 0.000000
O O15 0.717047 0.278833 0.553513
O O16 0.423873 0.836123 0.353826
O O17 0.104911 0.792900 0.445476
#
# Coordination Sequence:
#
# PCOD9085434 Si02
#       8
#     2   2   2   2   2   2   2   2
#     4  11  21  39  65  93 119 158 211 256 294 354
#     4  10  22  39  59  94 122 157 199 253 308 355
#     4  11  20  38  64  95 119 154 216 254 291 352
#     4  12  26  41  59  91 131 164 197 245 312 376
#     4  12  23  39  59  88 130 165 194 244 316 371
#     4  10  19  35  63  92 117 146 213 265 285 344
#     4  10  20  38  66  88 119 155 208 257 299 350
#     4  10  19  35  60  90 118 160 199 251 309 348
#
# _framework density 18.171028
#
# number of rings (size 3 to 8) (size 9 to 14) (size 15 to 20)
#    0.000    1.250    5.000    2.250    0.000    1.500 
#    0.000    2.500    0.000    0.000    0.000    0.000 
#    0.000    0.000    0.000    0.000    0.000    0.000 
#
# Total GULP energy -89069.750791 kJ/mol
# GULP energy per Si atom -5566.859424 kJ/mol
# Density = 1.812967 g / cm^3
# Si number density = 18.171028 Si / 1000 Ang^3
#
#
#
# Elastic Constant Matrix: (Units=GPa)
#
#
# Indices 1 2 3 4 5 6 
#
# 1 108.3639 11.6256 16.7507 -14.5880 3.0666 0.4230
# 2 11.6256 102.6579 36.9895 -7.2752 5.9041 8.0448
# 3 16.7507 36.9895 171.7723 104.2563 -8.5753 -7.3502
# 4 -14.5880 -7.2752 104.2563 144.9794 -3.6609 -20.2425
# 5 3.0666 5.9041 -8.5753 -3.6609 39.2948 2.8296
# 6 0.4230 8.0448 -7.3502 -20.2425 2.8296 26.4155
#
#
#
# Elastic Compliance Matrix: (Units=1/GPa)
#
#
# Indices 1 2 3 4 5 6 
#
# 1 0.010201 0.000169 -0.003154 0.003513 -0.001308 0.001740
# 2 0.000169 0.012254 -0.005418 0.004222 -0.002518 -0.001737
# 3 -0.003154 -0.005418 0.014024 -0.011039 0.003324 -0.003212
# 4 0.003513 0.004222 -0.011039 0.016529 -0.002390 0.008509
# 5 -0.001308 -0.002518 0.003324 -0.002390 0.026646 -0.002973
# 6 0.001740 -0.001737 -0.003212 0.008509 -0.002973 0.044303
#
#
# Mechanical properties :
#
#
# Convention : Reuss Voigt Hill
#
# Bulk Modulus (GPa) = 50.82910 57.05839 53.94375
# Shear Modulus (GPa) = 33.93969 63.29983 48.61976
#
# Velocity S-wave (km/s) = 4.32648 5.90857 5.17830
# Velocity P-wave (km/s) = 7.27951 8.83273 8.09347
#
# Compressibility (1/GPa) = 0.01967377
#
# Stress axis : x y z
#
# Youngs Moduli (GPa) = 98.03218 81.60455 71.30414
#
# Poissons Ratio (x) = -0.01381 0.22491
# Poissons Ratio (y) = -0.01659 0.38631
# Poissons Ratio (z) = 0.30922 0.44211
#
# Static dielectric constant tensor:
#      x y z
#    x 1.657910 0.017730 0.028770 
#    y 0.017730 1.799850 0.058240 
#    z 0.028770 0.058240 1.627340 
# 
# From -- ./inp_files/559395.got.cif
#   From: 2010.05.17/outbox.cif.g08.bks.cpg/sg2_280_cif.got.tgz:559395.got - 2010.06.03 11:33:40.
