data_PCOD9085051
_publ_section_title
;
Structure prediction by ZEFSAII (Michael W. Deem and Ramdas Pophale) SiO2 
 PCOD9085051
Probable space group: P -1
;
_chemical_formula_sum "Si O2"
_cell_formula_units_Z 14
_cell_length_a 13.595496
_cell_length_b 8.823514
_cell_length_c 7.774042
_cell_angle_alpha 92.684439
_cell_angle_beta 103.018060
_cell_angle_gamma 40.484151
_cell_volume 578.363969
_symmetry_space_group_name_H-M "P -1"
_symmetry_group_IT_number 2
_symmetry_cell_setting 'triclinic'
loop_
_space_group_symop_operation_xyz
x,y,z
-x,-y,-z
loop_
_atom_site_type_symbol
_atom_site_label
_atom_site_fract_x
_atom_site_fract_y
_atom_site_fract_z
Si Si1 0.980493 0.174925 0.111546
Si Si2 0.460641 0.352220 0.271262
Si Si3 0.681884 0.762571 0.485720
Si Si4 0.801949 0.615417 0.861298
Si Si5 0.697185 0.194009 0.595183
Si Si6 0.173670 0.726700 0.605253
Si Si7 0.639333 0.952167 0.109511
O O1 0.841889 0.298009 0.201957
O O2 0.943230 0.353931 0.977690
O O3 0.132046 0.042988 0.278319
O O4 0.000000 0.000000 0.000000
O O5 0.334005 0.361078 0.209234
O O6 0.571842 0.217603 0.479824
O O7 0.371812 0.612602 0.277606
O O8 0.567757 0.198811 0.137429
O O9 0.800306 0.685443 0.675444
O O10 0.753483 0.509487 0.465781
O O11 0.697323 0.823933 0.309748
O O12 0.500000 0.000000 0.500000
O O13 0.759320 0.790873 0.994024
O O14 0.717768 0.268140 0.431480
O O15 0.000000 0.000000 0.500000
O O16 0.500000 0.000000 0.000000
#
# Coordination Sequence:
#
# PCOD9085051 Si02
#       7
#     2   2   2   2   2   2   2
#     4  11  20  36  60  84 115 156 203 241 288 358
#     4  10  19  35  58  86 120 151 192 241 305 346
#     4  12  19  33  59  92 116 146 202 253 287 340
#     4  11  20  35  59  87 112 154 199 241 284 346
#     4  10  20  36  59  84 120 156 189 243 303 352
#     4  10  20  35  57  87 114 154 198 242 294 350
#     4  10  20  34  57  85 112 150 198 237 284 344
#
# _framework density 24.206211
#
# number of rings (size 3 to 8) (size 9 to 14) (size 15 to 20)
#    0.000    1.429    7.143    0.857    0.000    0.000 
#    0.000    1.429    9.429    0.857    0.000    0.000 
#    0.000    0.000    0.000    0.000    0.000    0.000 
#
# Total GULP energy -78031.409767 kJ/mol
# GULP energy per Si atom -5573.672126 kJ/mol
# Density = 2.415112 g / cm^3
# Si number density = 24.206211 Si / 1000 Ang^3
#
#
#
# Elastic Constant Matrix: (Units=GPa)
#
#
# Indices 1 2 3 4 5 6 
#
# 1 75.1417 33.6861 32.2089 6.6187 7.5686 1.5560
# 2 33.6861 124.7377 48.7053 31.9597 2.9609 -1.8299
# 3 32.2089 48.7053 155.5166 8.2135 -13.4721 -6.4049
# 4 6.6187 31.9597 8.2135 66.1392 0.7748 4.1435
# 5 7.5686 2.9609 -13.4721 0.7748 34.2938 3.0907
# 6 1.5560 -1.8299 -6.4049 4.1435 3.0907 17.4269
#
#
#
# Elastic Compliance Matrix: (Units=1/GPa)
#
#
# Indices 1 2 3 4 5 6 
#
# 1 0.016483 -0.003415 -0.002835 0.000544 -0.004266 -0.002245
# 2 -0.003415 0.011263 -0.002596 -0.004884 -0.001302 0.001926
# 3 -0.002835 -0.002596 0.008241 0.000329 0.003878 0.002244
# 4 0.000544 -0.004884 0.000329 0.017675 0.000457 -0.004724
# 5 -0.004266 -0.001302 0.003878 0.000457 0.032099 -0.004132
# 6 -0.002245 0.001926 0.002244 -0.004724 -0.004132 0.060466
#
#
# Mechanical properties :
#
#
# Convention : Reuss Voigt Hill
#
# Bulk Modulus (GPa) = 54.65816 64.95517 59.80666
# Shear Modulus (GPa) = 29.40884 39.62504 34.51694
#
# Velocity S-wave (km/s) = 3.48937 4.05035 3.78028
# Velocity P-wave (km/s) = 6.23406 6.98327 6.61927
#
# Compressibility (1/GPa) = 0.01829553
#
# Stress axis : x y z
#
# Youngs Moduli (GPa) = 60.66946 88.78582 121.34195
#
# Poissons Ratio (x) = 0.30323 0.34399
# Poissons Ratio (y) = 0.20720 0.31495
# Poissons Ratio (z) = 0.17199 0.23045
#
# Static dielectric constant tensor:
#      x y z
#    x 2.030960 -0.013450 -0.026090 
#    y -0.013450 2.003180 -0.051210 
#    z -0.026090 -0.051210 1.933470 
# 
# From -- ./inp_files/295825.got.cif
#   From: 2010.05.17/outbox.cif.g08.bks.cpg/sg2_148_cif.got.tgz:295825.got - 2010.06.03 11:33:40.
