data_PCOD9085182
_publ_section_title
;
Structure prediction by ZEFSAII (Michael W. Deem and Ramdas Pophale) SiO2 
 PCOD9085182
Probable space group: P -1
;
_chemical_formula_sum "Si O2"
_cell_formula_units_Z 12
_cell_length_a 9.141334
_cell_length_b 12.464773
_cell_length_c 6.192449
_cell_angle_alpha 61.405965
_cell_angle_beta 79.460112
_cell_angle_gamma 72.461466
_cell_volume 590.106058
_symmetry_space_group_name_H-M "P -1"
_symmetry_group_IT_number 2
_symmetry_cell_setting 'triclinic'
loop_
_space_group_symop_operation_xyz
x,y,z
-x,-y,-z
loop_
_atom_site_type_symbol
_atom_site_label
_atom_site_fract_x
_atom_site_fract_y
_atom_site_fract_z
Si Si1 0.881424 0.136733 0.415485
Si Si2 0.682737 0.822003 0.107491
Si Si3 0.803606 0.620678 0.935094
Si Si4 0.975880 0.732122 0.402450
Si Si5 0.428485 0.935073 0.387767
Si Si6 0.106702 0.614691 0.089641
O O1 0.710765 0.121025 0.447441
O O2 0.896175 0.248662 0.140443
O O3 0.923901 0.185261 0.589391
O O4 0.000000 0.000000 0.500000
O O5 0.848701 0.799303 0.198011
O O6 0.558254 0.834665 0.318848
O O7 0.682677 0.717059 0.023958
O O8 0.645419 0.954046 0.866425
O O9 0.872593 0.689935 0.656482
O O10 0.947285 0.581681 0.097285
O O11 0.769258 0.497515 0.952626
O O12 0.096517 0.625035 0.339504
O O13 0.500000 0.000000 0.500000
#
# Coordination Sequence:
#
# PCOD9085182 Si02
#       6
#     2   2   2   2   2   2
#     4  11  22  36  56  85 114 141 184 234 278 326
#     4  10  21  36  59  82 109 150 186 225 275 330
#     4   9  17  34  55  83 114 145 184 222 273 330
#     4  10  19  35  59  85 111 143 183 232 276 321
#     4  11  23  39  57  81 112 149 188 226 276 334
#     4   9  19  32  55  85 114 145 180 227 275 325
#
# _framework density 20.335328000000001
#
# number of rings (size 3 to 8) (size 9 to 14) (size 15 to 20)
#    0.000    2.000    0.000    5.500    0.000    6.667 
#    0.000    0.833    0.000    5.000    0.000    0.000 
#    0.000    0.000    0.000    0.000    0.000    0.000 
#
# Total GULP energy -66854.355430 kJ/mol
# GULP energy per Si atom -5571.196286 kJ/mol
# Density = 2.028904 g / cm^3
# Si number density = 20.335328 Si / 1000 Ang^3
#
#
#
# Elastic Constant Matrix: (Units=GPa)
#
#
# Indices 1 2 3 4 5 6 
#
# 1 84.2411 42.7769 36.5823 8.5768 -11.6999 9.6947
# 2 42.7769 167.3736 52.6584 41.1361 -21.6032 1.2920
# 3 36.5823 52.6584 73.5293 21.3753 -5.8518 12.0839
# 4 8.5768 41.1361 21.3753 42.8039 -1.5918 -1.9733
# 5 -11.6999 -21.6032 -5.8518 -1.5918 29.9240 7.4829
# 6 9.6947 1.2920 12.0839 -1.9733 7.4829 26.4608
#
#
#
# Elastic Compliance Matrix: (Units=1/GPa)
#
#
# Indices 1 2 3 4 5 6 
#
# 1 0.016626 -0.002041 -0.006166 0.001690 0.005029 -0.004472
# 2 -0.002041 0.010158 -0.003667 -0.007326 0.005470 -0.000167
# 3 -0.006166 -0.003667 0.022906 -0.007043 0.001274 -0.008908
# 4 0.001690 -0.007326 -0.007043 0.033689 -0.006005 0.007165
# 5 0.005029 0.005470 0.001274 -0.006005 0.043096 -0.015327
# 6 -0.004472 -0.000167 -0.008908 0.007165 -0.015327 0.048375
#
#
# Mechanical properties :
#
#
# Convention : Reuss Voigt Hill
#
# Bulk Modulus (GPa) = 38.54630 65.46435 52.00532
# Shear Modulus (GPa) = 24.12602 32.71284 28.41943
#
# Velocity S-wave (km/s) = 3.44817 4.01517 3.74242
# Velocity P-wave (km/s) = 5.90336 7.33197 6.65610
#
# Compressibility (1/GPa) = 0.02594283
#
# Stress axis : x y z
#
# Youngs Moduli (GPa) = 60.14719 98.44634 43.65575
#
# Poissons Ratio (x) = 0.20092 0.26919
# Poissons Ratio (y) = 0.12276 0.16007
# Poissons Ratio (z) = 0.37088 0.36096
#
# Static dielectric constant tensor:
#      x y z
#    x 1.721920 -0.064910 -0.010220 
#    y -0.064910 1.833450 0.024440 
#    z -0.010220 0.024440 1.763350 
# 
# From -- ./inp_files/20121.got.cif
#   From: 2010.05.17/outbox.cif.g08.bks.cpg/sg2_11_cif.got.tgz:20121.got - 2010.06.03 11:33:40.
