data_PCOD9085933
_publ_section_title
;
Structure prediction by ZEFSAII (Michael W. Deem and Ramdas Pophale) SiO2 
 PCOD9085933
Probable space group: P -1
;
_chemical_formula_sum "Si O2"
_cell_formula_units_Z 16
_cell_length_a 10.307533
_cell_length_b 24.804617
_cell_length_c 10.407505
_cell_angle_alpha 135.810143
_cell_angle_beta 137.734221
_cell_angle_gamma 27.872178
_cell_volume 819.784512
_symmetry_space_group_name_H-M "P -1"
_symmetry_group_IT_number 2
_symmetry_cell_setting 'triclinic'
loop_
_space_group_symop_operation_xyz
x,y,z
-x,-y,-z
loop_
_atom_site_type_symbol
_atom_site_label
_atom_site_fract_x
_atom_site_fract_y
_atom_site_fract_z
Si Si1 0.770344 0.138791 0.595587
Si Si2 0.804286 0.861958 0.995494
Si Si3 0.825646 0.755018 0.571534
Si Si4 0.281518 0.228800 0.984384
Si Si5 0.214094 0.531613 0.853797
Si Si6 0.634468 0.250948 0.410103
Si Si7 0.076976 0.534091 0.472857
Si Si8 0.763734 0.859958 0.440392
O O1 0.495765 0.185853 0.548521
O O2 0.663060 0.208484 0.501875
O O3 0.937288 0.155344 0.822166
O O4 0.000000 0.000000 0.500000
O O5 0.858673 0.797213 0.795487
O O6 0.771158 0.817834 0.021078
O O7 0.500000 0.000000 0.000000
O O8 0.838709 0.800882 0.531612
O O9 0.051378 0.614980 0.499990
O O10 0.539166 0.208149 0.179017
O O11 0.986502 0.368836 0.015255
O O12 0.329363 0.175977 0.793021
O O13 0.061552 0.575942 0.676374
O O14 0.189235 0.446549 0.715435
O O15 0.500000 0.500000 0.000000
O O16 0.379484 0.393501 0.454279
O O17 0.945723 0.189583 0.490808
O O18 0.500000 0.000000 0.500000
#
# Coordination Sequence:
#
# PCOD9085933 Si02
#       8
#     2   2   2   2   2   2   2   2
#     4  12  22  39  68  97 127 171 220 279 326 383
#     4  12  22  39  65  96 126 167 223 269 322 384
#     4  12  25  41  63 103 134 166 224 282 323 389
#     4  11  22  41  65  94 124 176 218 258 329 396
#     4  10  19  35  64  96 127 166 215 267 321 386
#     4  11  23  44  68  93 134 177 217 270 336 398
#     4  10  22  38  62  97 132 168 218 276 325 390
#     4  12  27  44  65  93 134 178 221 272 340 395
#
# _framework density 19.517323999999999
#
# number of rings (size 3 to 8) (size 9 to 14) (size 15 to 20)
#    0.000    0.750    5.000    3.750    1.750    2.000 
#    0.000    2.500    0.000    0.000    0.000    0.000 
#    0.000    0.000    0.000    0.000    0.000    0.000 
#
# Total GULP energy -89369.384215 kJ/mol
# GULP energy per Si atom -5585.586513 kJ/mol
# Density = 1.947290 g / cm^3
# Si number density = 19.517324 Si / 1000 Ang^3
#
#
#
# Elastic Constant Matrix: (Units=GPa)
#
#
# Indices 1 2 3 4 5 6 
#
# 1 44.2954 15.6646 1.8219 5.0848 -1.2761 13.1167
# 2 15.6646 94.7881 33.0075 15.4942 6.7829 4.0021
# 3 1.8219 33.0075 135.9535 7.9226 14.5500 3.5426
# 4 5.0848 15.4942 7.9226 29.8035 -8.1709 8.4128
# 5 -1.2761 6.7829 14.5500 -8.1709 36.4635 -7.6618
# 6 13.1167 4.0021 3.5426 8.4128 -7.6618 35.9512
#
#
#
# Elastic Compliance Matrix: (Units=1/GPa)
#
#
# Indices 1 2 3 4 5 6 
#
# 1 0.026884 -0.004329 0.001019 -0.000100 -0.000690 -0.009551
# 2 -0.004329 0.013392 -0.002530 -0.006702 -0.002862 0.001296
# 3 0.001019 -0.002530 0.008466 -0.001716 -0.003524 -0.001274
# 4 -0.000100 -0.006702 -0.001716 0.042155 0.009947 -0.006793
# 5 -0.000690 -0.002862 -0.003524 0.009947 0.032738 0.005567
# 6 -0.009551 0.001296 -0.001274 -0.006793 0.005567 0.034057
#
#
# Mechanical properties :
#
#
# Convention : Reuss Voigt Hill
#
# Bulk Modulus (GPa) = 26.98093 41.78056 34.38074
# Shear Modulus (GPa) = 27.51384 35.41318 31.46351
#
# Velocity S-wave (km/s) = 3.75869 4.26426 4.01943
# Velocity P-wave (km/s) = 5.71761 6.76007 6.26058
#
# Compressibility (1/GPa) = 0.03706322
#
# Stress axis : x y z
#
# Youngs Moduli (GPa) = 37.19622 74.67214 118.11340
#
# Poissons Ratio (x) = 0.32324 -0.12039
# Poissons Ratio (y) = 0.16101 0.29886
# Poissons Ratio (z) = -0.03791 0.18894
#
# Static dielectric constant tensor:
#      x y z
#    x 1.670640 0.025940 0.036780 
#    y 0.025940 1.718640 0.017420 
#    z 0.036780 0.017420 1.682540 
# 
# From -- ./inp_files/226561.got.cif
#   From: 2010.05.17/outbox.cif.g08.bks.cpg/sg2_114_cif.got.tgz:226561.got - 2010.06.03 11:33:40.
