data_PCOD9085625
_publ_section_title
;
Structure prediction by ZEFSAII (Michael W. Deem and Ramdas Pophale) SiO2 
 PCOD9085625
Probable space group: P -1
;
_chemical_formula_sum "Si O2"
_cell_formula_units_Z 13
_cell_length_a 9.454183
_cell_length_b 9.384426
_cell_length_c 9.716826
_cell_angle_alpha 80.569640
_cell_angle_beta 61.734447
_cell_angle_gamma 123.894960
_cell_volume 511.010328
_symmetry_space_group_name_H-M "P -1"
_symmetry_group_IT_number 2
_symmetry_cell_setting 'triclinic'
loop_
_space_group_symop_operation_xyz
x,y,z
-x,-y,-z
loop_
_atom_site_type_symbol
_atom_site_label
_atom_site_fract_x
_atom_site_fract_y
_atom_site_fract_z
Si Si1 0.500000 0.000000 0.500000
Si Si2 0.851243 0.809020 0.401485
Si Si3 0.853016 0.234290 0.064981
Si Si4 0.863775 0.205190 0.544916
Si Si5 0.731980 0.855711 0.029148
Si Si6 0.665101 0.520637 0.279215
Si Si7 0.263585 0.676491 0.166260
O O1 0.744812 0.174136 0.272919
O O2 0.647714 0.058389 0.564644
O O3 0.764936 0.617830 0.371959
O O4 0.597469 0.715660 0.557928
O O5 0.989044 0.837176 0.464350
O O6 0.040743 0.020945 0.191089
O O7 0.762014 0.276899 0.979654
O O8 0.135888 0.435585 0.897816
O O9 0.797360 0.033897 0.067998
O O10 0.761569 0.209072 0.731314
O O11 0.057422 0.435354 0.349205
O O12 0.658285 0.670681 0.182920
O O13 0.509830 0.757557 0.058217
#
# Coordination Sequence:
#
# PCOD9085625 Si02
#       7
#     1   2   2   2   2   2   2
#     4  12  26  40  62  92 140 172 208 258 338 384
#     4  10  19  35  61  94 122 163 208 274 310 372
#     4  11  22  40  61  96 130 170 209 272 315 385
#     4  11  22  39  64  98 127 171 213 270 318 383
#     4  11  19  37  66  97 125 159 219 272 315 363
#     4  10  21  37  63  99 128 160 219 272 315 367
#     4  11  21  39  70  94 122 166 231 269 307 367
#
# _framework density 25.439800000000002
#
# number of rings (size 3 to 8) (size 9 to 14) (size 15 to 20)
#    0.000    1.231    6.154    3.231    0.000    0.615 
#    2.769    0.769    0.000    4.615    0.000    0.000 
#    0.000    0.000    0.000    0.000    0.000    0.000 
#
# Total GULP energy -72638.205705 kJ/mol
# GULP energy per Si atom -5587.554285 kJ/mol
# Density = 2.538190 g / cm^3
# Si number density = 25.439800 Si / 1000 Ang^3
#
#
#
# Elastic Constant Matrix: (Units=GPa)
#
#
# Indices 1 2 3 4 5 6 
#
# 1 117.8625 44.7126 35.5681 12.2862 4.9065 42.5144
# 2 44.7126 77.4118 25.5514 0.5291 -2.3725 12.4265
# 3 35.5681 25.5514 182.6706 2.5565 -7.8917 13.8964
# 4 12.2862 0.5291 2.5565 33.1468 23.1996 2.9189
# 5 4.9065 -2.3725 -7.8917 23.1996 51.0228 -17.0790
# 6 42.5144 12.4265 13.8964 2.9189 -17.0790 44.6236
#
#
#
# Elastic Compliance Matrix: (Units=1/GPa)
#
#
# Indices 1 2 3 4 5 6 
#
# 1 0.019115 -0.007706 -0.001611 0.001642 -0.009677 -0.019375
# 2 -0.007706 0.017200 -0.001100 0.000747 0.002275 0.003717
# 3 -0.001611 -0.001100 0.005980 -0.001187 0.001821 0.000754
# 4 0.001642 0.000747 -0.001187 0.051272 -0.028916 -0.015823
# 5 -0.009677 0.002275 0.001821 -0.028916 0.042875 0.026321
# 6 -0.019375 0.003717 0.000754 -0.015823 0.026321 0.050708
#
#
# Mechanical properties :
#
#
# Convention : Reuss Voigt Hill
#
# Bulk Modulus (GPa) = 46.60017 65.51212 56.05615
# Shear Modulus (GPa) = 23.24085 43.89949 33.57017
#
# Velocity S-wave (km/s) = 3.02580 4.15857 3.63656
# Velocity P-wave (km/s) = 5.52855 6.99042 6.30202
#
# Compressibility (1/GPa) = 0.02145915
#
# Stress axis : x y z
#
# Youngs Moduli (GPa) = 52.31619 58.13866 167.22751
#
# Poissons Ratio (x) = 0.44804 0.26941
# Poissons Ratio (y) = 0.40317 0.18400
# Poissons Ratio (z) = 0.08428 0.06397
#
# Static dielectric constant tensor:
#      x y z
#    x 2.007050 -0.042660 -0.081030 
#    y -0.042660 2.023780 0.024690 
#    z -0.081030 0.024690 1.949230 
# 
# From -- ./inp_files/174104.got.cif
#   From: 2010.05.17/outbox.cif.g08.bks.cpg/sg2_88_cif.got.tgz:174104.got - 2010.06.03 11:33:40.
