data_PCOD9085876
_publ_section_title
;
Structure prediction by ZEFSAII (Michael W. Deem and Ramdas Pophale) SiO2 
 PCOD9085876
Probable space group: P -1
;
_chemical_formula_sum "Si O2"
_cell_formula_units_Z 12
_cell_length_a 9.434420
_cell_length_b 14.360325
_cell_length_c 9.162560
_cell_angle_alpha 139.282772
_cell_angle_beta 65.398412
_cell_angle_gamma 93.251396
_cell_volume 662.463750
_symmetry_space_group_name_H-M "P -1"
_symmetry_group_IT_number 2
_symmetry_cell_setting 'triclinic'
loop_
_space_group_symop_operation_xyz
x,y,z
-x,-y,-z
loop_
_atom_site_type_symbol
_atom_site_label
_atom_site_fract_x
_atom_site_fract_y
_atom_site_fract_z
Si Si1 0.267265 0.776906 0.634635
Si Si2 0.581639 0.839640 0.680980
Si Si3 0.756466 0.534667 0.775909
Si Si4 0.840238 0.661301 0.603403
Si Si5 0.340353 0.142379 0.658714
Si Si6 0.900552 0.901714 0.072500
O O1 0.433134 0.784482 0.642407
O O2 0.303957 0.603740 0.355677
O O3 0.190886 0.911983 0.702750
O O4 0.106683 0.830946 0.882045
O O5 0.733826 0.712510 0.562182
O O6 0.647078 0.872878 0.537614
O O7 0.500000 0.000000 0.000000
O O8 0.758333 0.586605 0.668351
O O9 0.958795 0.457794 0.644757
O O10 0.657557 0.692283 0.099085
O O11 0.841319 0.814760 0.867137
O O12 0.169309 0.139445 0.798456
O O13 0.500000 0.000000 0.500000
#
# Coordination Sequence:
#
# PCOD9085876 Si02
#       6
#     2   2   2   2   2   2
#     4  10  19  35  64  86 114 148 193 234 279 340
#     4  12  22  36  60  88 117 150 191 238 286 334
#     4   9  20  37  60  83 112 155 193 229 283 344
#     4   9  18  37  60  83 116 154 187 228 289 346
#     4  11  21  39  60  84 114 154 194 232 284 347
#     4   9  18  38  62  83 112 157 192 221 284 350
#
# _framework density 18.1142
#
# number of rings (size 3 to 8) (size 9 to 14) (size 15 to 20)
#    0.000    2.000    3.333    2.000    0.000    2.000 
#    0.000    0.833    0.000    0.000    0.000    0.000 
#    0.000    0.000    0.000    0.000    0.000    0.000 
#
# Total GULP energy -66972.749418 kJ/mol
# GULP energy per Si atom -5581.062452 kJ/mol
# Density = 1.807297 g / cm^3
# Si number density = 18.114200 Si / 1000 Ang^3
#
#
#
# Elastic Constant Matrix: (Units=GPa)
#
#
# Indices 1 2 3 4 5 6 
#
# 1 61.9635 51.4916 23.4459 -19.5117 -3.3634 -4.1225
# 2 51.4916 115.6883 56.4241 -4.4736 5.1641 -7.0838
# 3 23.4459 56.4241 109.7030 9.5487 14.8110 -1.6132
# 4 -19.5117 -4.4736 9.5487 41.1429 6.8215 3.6860
# 5 -3.3634 5.1641 14.8110 6.8215 16.5634 7.2075
# 6 -4.1225 -7.0838 -1.6132 3.6860 7.2075 40.9597
#
#
#
# Elastic Compliance Matrix: (Units=1/GPa)
#
#
# Indices 1 2 3 4 5 6 
#
# 1 0.032671 -0.013308 -0.002439 0.013410 0.008208 -0.001760
# 2 -0.013308 0.017358 -0.005383 -0.002862 -0.003103 0.002254
# 3 -0.002439 -0.005383 0.014180 -0.003386 -0.010793 0.001586
# 4 0.013410 -0.002862 -0.003386 0.032260 -0.006166 -0.001097
# 5 0.008208 -0.003103 -0.010793 -0.006166 0.081237 -0.013876
# 6 -0.001760 0.002254 0.001586 -0.001097 -0.013876 0.027230
#
#
# Mechanical properties :
#
#
# Convention : Reuss Voigt Hill
#
# Bulk Modulus (GPa) = 45.55577 61.11980 53.33778
# Shear Modulus (GPa) = 19.64542 30.13275 24.88908
#
# Velocity S-wave (km/s) = 3.29680 4.08301 3.71078
# Velocity P-wave (km/s) = 6.30045 7.48616 6.91875
#
# Compressibility (1/GPa) = 0.02195112
#
# Stress axis : x y z
#
# Youngs Moduli (GPa) = 30.60804 57.61020 70.51971
#
# Poissons Ratio (x) = 0.76665 0.17201
# Poissons Ratio (y) = 0.40732 0.37957
# Poissons Ratio (z) = 0.07466 0.31009
#
# Static dielectric constant tensor:
#      x y z
#    x 1.605460 0.027580 -0.027170 
#    y 0.027580 1.634650 0.012530 
#    z -0.027170 0.012530 1.644850 
# 
# From -- ./inp_files/145462.got.cif
#   From: 2010.05.17/outbox.cif.g08.bks.cpg/sg2_73_cif.got.tgz:145462.got - 2010.06.03 11:33:40.
