data_PCOD9085857
_publ_section_title
;
Structure prediction by ZEFSAII (Michael W. Deem and Ramdas Pophale) SiO2 
 PCOD9085857
Probable space group: P -1
;
_chemical_formula_sum "Si O2"
_cell_formula_units_Z 15
_cell_length_a 20.180380
_cell_length_b 12.719634
_cell_length_c 9.698315
_cell_angle_alpha 42.820086
_cell_angle_beta 42.074905
_cell_angle_gamma 27.047902
_cell_volume 736.850071
_symmetry_space_group_name_H-M "P -1"
_symmetry_group_IT_number 2
_symmetry_cell_setting 'triclinic'
loop_
_space_group_symop_operation_xyz
x,y,z
-x,-y,-z
loop_
_atom_site_type_symbol
_atom_site_label
_atom_site_fract_x
_atom_site_fract_y
_atom_site_fract_z
Si Si1 0.915483 0.710217 0.104843
Si Si2 0.500000 0.000000 0.500000
Si Si3 0.306803 0.987977 0.404586
Si Si4 0.231345 0.179886 0.052486
Si Si5 0.035044 0.098560 0.749840
Si Si6 0.386345 0.316344 0.628187
Si Si7 0.219485 0.334608 0.408012
Si Si8 0.072500 0.847226 0.671630
O O1 0.848915 0.721642 0.336772
O O2 0.057216 0.429058 0.120611
O O3 0.784903 0.852533 0.050847
O O4 0.983365 0.800802 0.908478
O O5 0.569966 0.775276 0.508787
O O6 0.624044 0.812450 0.613576
O O7 0.296147 0.993390 0.250408
O O8 0.192154 0.999403 0.633026
O O9 0.247321 0.227461 0.318081
O O10 0.472795 0.782654 0.410076
O O11 0.332549 0.213059 0.867255
O O12 0.899053 0.384870 0.684777
O O13 0.058231 0.995268 0.664754
O O14 0.000000 0.000000 0.000000
O O15 0.241487 0.595611 0.610473
O O16 0.000000 0.000000 0.500000
#
# Coordination Sequence:
#
# PCOD9085857 Si02
#       8
#     2   1   2   2   2   2   2   2
#     4  10  20  37  66  90 119 161 218 259 300 373
#     4  10  20  40  64  96 120 160 208 284 302 360
#     4  11  23  39  66  92 126 168 211 268 308 370
#     4  10  19  35  63  97 117 153 209 269 304 354
#     4  12  26  42  62  93 135 172 205 259 327 386
#     4  10  22  38  64  96 129 158 217 259 321 371
#     4  11  22  41  66  92 123 165 220 265 309 373
#     4  11  24  41  64  93 131 170 205 258 322 388
#
# _framework density 20.356922999999998
#
# number of rings (size 3 to 8) (size 9 to 14) (size 15 to 20)
#    0.000    1.333    2.667    3.200    5.600    0.533 
#    0.000    1.333    0.000    4.800    0.000    0.000 
#    0.000    0.000    0.000    0.000    0.000    0.000 
#
# Total GULP energy -83526.381196 kJ/mol
# GULP energy per Si atom -5568.425413 kJ/mol
# Density = 2.031059 g / cm^3
# Si number density = 20.356923 Si / 1000 Ang^3
#
#
#
# Elastic Constant Matrix: (Units=GPa)
#
#
# Indices 1 2 3 4 5 6 
#
# 1 104.8885 45.9935 39.6130 -6.1609 6.0780 -17.3982
# 2 45.9935 118.4531 43.9281 -5.1537 -8.7685 -8.9737
# 3 39.6130 43.9281 64.6761 -11.5088 9.3105 -10.9749
# 4 -6.1609 -5.1537 -11.5088 12.7208 6.2689 -2.1185
# 5 6.0780 -8.7685 9.3105 6.2689 26.2043 7.2284
# 6 -17.3982 -8.9737 -10.9749 -2.1185 7.2284 34.5979
#
#
#
# Elastic Compliance Matrix: (Units=1/GPa)
#
#
# Indices 1 2 3 4 5 6 
#
# 1 0.014597 -0.004904 -0.001043 0.010146 -0.009378 0.008318
# 2 -0.004904 0.016292 -0.016439 -0.022111 0.020211 -0.009031
# 3 -0.001043 -0.016439 0.048817 0.062723 -0.044165 0.023765
# 4 0.010146 -0.022111 0.062723 0.183639 -0.089546 0.049217
# 5 -0.009378 0.020211 -0.044165 -0.089546 0.094916 -0.038797
# 6 0.008318 -0.009031 0.023765 0.049217 -0.038797 0.049402
#
#
# Mechanical properties :
#
#
# Convention : Reuss Voigt Hill
#
# Bulk Modulus (GPa) = 28.62355 60.78744 44.70549
# Shear Modulus (GPa) = 10.77398 25.27015 18.02207
#
# Velocity S-wave (km/s) = 2.30305 3.52711 2.97863
# Velocity P-wave (km/s) = 4.60037 6.82004 5.81706
#
# Compressibility (1/GPa) = 0.03493627
#
# Stress axis : x y z
#
# Youngs Moduli (GPa) = 68.50576 61.37831 20.48447
#
# Poissons Ratio (x) = 0.30098 0.02136
# Poissons Ratio (y) = 0.33593 0.33674
# Poissons Ratio (z) = 0.07145 1.00899
#
# Static dielectric constant tensor:
#      x y z
#    x 1.725780 -0.017310 -0.013560 
#    y -0.017310 1.713820 0.037070 
#    z -0.013560 0.037070 1.732420 
# 
# From -- ./inp_files/332842.got.cif
#   From: 2010.05.17/outbox.cif.g08.bks.cpg/sg2_167_cif.got.tgz:332842.got - 2010.06.03 11:33:40.
