data_PCOD9085298
_publ_section_title
;
Structure prediction by ZEFSAII (Michael W. Deem and Ramdas Pophale) SiO2 
 PCOD9085298
Probable space group: P -1
;
_chemical_formula_sum "Si O2"
_cell_formula_units_Z 16
_cell_length_a 19.049148
_cell_length_b 12.227489
_cell_length_c 5.345185
_cell_angle_alpha 60.112845
_cell_angle_beta 54.895093
_cell_angle_gamma 39.215645
_cell_volume 640.612231
_symmetry_space_group_name_H-M "P -1"
_symmetry_group_IT_number 2
_symmetry_cell_setting 'triclinic'
loop_
_space_group_symop_operation_xyz
x,y,z
-x,-y,-z
loop_
_atom_site_type_symbol
_atom_site_label
_atom_site_fract_x
_atom_site_fract_y
_atom_site_fract_z
Si Si1 0.831055 0.358244 0.683274
Si Si2 0.902888 0.327167 0.075796
Si Si3 0.096220 0.977899 0.575748
Si Si4 0.420046 0.226074 0.637817
Si Si5 0.935329 0.618804 0.248743
Si Si6 0.766261 0.148717 0.068619
Si Si7 0.491733 0.593847 0.660545
Si Si8 0.660382 0.827252 0.633868
O O1 0.820606 0.438459 0.353147
O O2 0.794017 0.743240 0.405871
O O3 0.749737 0.319039 0.923296
O O4 0.965419 0.164832 0.609492
O O5 0.912009 0.165958 0.226638
O O6 0.841316 0.429043 0.828429
O O7 0.023292 0.278008 0.935584
O O8 0.155937 0.962593 0.724149
O O9 0.175951 0.928405 0.231281
O O10 0.422353 0.372929 0.534158
O O11 0.374102 0.239336 0.436805
O O12 0.556383 0.036644 0.579118
O O13 0.356363 0.211958 0.007056
O O14 0.000000 0.500000 0.500000
O O15 0.000000 0.500000 0.000000
O O16 0.639929 0.217212 0.279899
O O17 0.500000 0.500000 0.500000
O O18 0.500000 0.500000 0.000000
#
# Coordination Sequence:
#
# PCOD9085298 Si02
#       8
#     2   2   2   2   2   2   2   2
#     4  10  19  35  59  92 128 160 203 248 315 404
#     4  10  20  36  55  85 129 166 205 252 313 387
#     4  10  19  35  59  92 128 160 203 248 315 404
#     4  10  23  47  74 103 136 184 241 295 352 411
#     4  12  26  46  65 102 137 172 233 285 348 410
#     4  10  20  36  55  85 129 166 205 252 313 387
#     4  12  26  46  65 102 137 172 233 285 348 410
#     4  10  23  47  74 103 136 184 241 295 352 411
#
# _framework density 24.976108
#
# number of rings (size 3 to 8) (size 9 to 14) (size 15 to 20)
#    0.000    1.500    0.000    6.750    0.000    3.000 
#   27.000    2.500    0.000    0.000    0.000    0.000 
#    0.000    0.000    0.000    0.000    0.000    0.000 
#
# Total GULP energy -89565.707860 kJ/mol
# GULP energy per Si atom -5597.856741 kJ/mol
# Density = 2.491926 g / cm^3
# Si number density = 24.976108 Si / 1000 Ang^3
#
#
#
# Elastic Constant Matrix: (Units=GPa)
#
#
# Indices 1 2 3 4 5 6 
#
# 1 158.2526 26.4215 88.8113 17.2857 12.8835 0.4035
# 2 26.4215 91.0047 25.5554 27.1617 -2.5222 9.1553
# 3 88.8113 25.5554 145.3658 29.4736 24.2229 6.5506
# 4 17.2857 27.1617 29.4736 42.6753 -0.4316 -9.1573
# 5 12.8835 -2.5222 24.2229 -0.4316 67.2818 10.2342
# 6 0.4035 9.1553 6.5506 -9.1573 10.2342 44.5353
#
#
#
# Elastic Compliance Matrix: (Units=1/GPa)
#
#
# Indices 1 2 3 4 5 6 
#
# 1 0.009870 -0.001809 -0.006134 0.001719 0.000029 0.001532
# 2 -0.001809 0.015088 0.000582 -0.010474 0.001497 -0.005669
# 3 -0.006134 0.000582 0.012603 -0.007203 -0.002974 -0.002716
# 4 0.001719 -0.010474 -0.007203 0.036662 0.000491 0.010623
# 5 0.000029 0.001497 -0.002974 0.000491 0.016530 -0.003568
# 6 0.001532 -0.005669 -0.002716 0.010623 -0.003568 0.027009
#
#
# Mechanical properties :
#
#
# Convention : Reuss Voigt Hill
#
# Bulk Modulus (GPa) = 43.78600 75.13328 59.45964
# Shear Modulus (GPa) = 35.68973 47.82081 41.75527
#
# Velocity S-wave (km/s) = 3.78425 4.38043 4.09321
# Velocity P-wave (km/s) = 6.05502 7.46536 6.79687
#
# Compressibility (1/GPa) = 0.02283835
#
# Stress axis : x y z
#
# Youngs Moduli (GPa) = 101.32207 66.27759 79.34720
#
# Poissons Ratio (x) = 0.11992 0.48673
# Poissons Ratio (y) = 0.18333 -0.04622
# Poissons Ratio (z) = 0.62152 -0.03861
#
# Static dielectric constant tensor:
#      x y z
#    x 1.983080 -0.032620 -0.004770 
#    y -0.032620 2.073460 -0.016020 
#    z -0.004770 -0.016020 1.950060 
# 
# From -- ./inp_files/118489.got.cif
#   From: 2010.05.17/outbox.cif.g08.bks.cpg/sg2_60_cif.got.tgz:118489.got - 2010.06.03 11:33:40.
