data_PCOD9085175
_publ_section_title
;
Structure prediction by ZEFSAII (Michael W. Deem and Ramdas Pophale) SiO2 
 PCOD9085175
Probable space group: P -1
;
_chemical_formula_sum "Si O2"
_cell_formula_units_Z 16
_cell_length_a 8.574176
_cell_length_b 15.213875
_cell_length_c 12.129327
_cell_angle_alpha 38.683518
_cell_angle_beta 76.020489
_cell_angle_gamma 58.391958
_cell_volume 799.408561
_symmetry_space_group_name_H-M "P -1"
_symmetry_group_IT_number 2
_symmetry_cell_setting 'triclinic'
loop_
_space_group_symop_operation_xyz
x,y,z
-x,-y,-z
loop_
_atom_site_type_symbol
_atom_site_label
_atom_site_fract_x
_atom_site_fract_y
_atom_site_fract_z
Si Si1 0.796750 0.056781 0.027720
Si Si2 0.728116 0.413281 0.072609
Si Si3 0.220282 0.879686 0.779080
Si Si4 0.640399 0.761153 0.727625
Si Si5 0.624786 0.017383 0.626829
Si Si6 0.559913 0.320425 0.619689
Si Si7 0.582684 0.894538 0.201403
Si Si8 0.172857 0.797243 0.526471
O O1 0.770897 0.130912 0.080815
O O2 0.765417 0.903555 0.188074
O O3 0.650608 0.196404 0.829701
O O4 0.000000 0.000000 0.000000
O O5 0.828986 0.248235 0.140077
O O6 0.775704 0.350530 0.252022
O O7 0.500000 0.500000 0.000000
O O8 0.762902 0.560096 0.899242
O O9 0.430297 0.824470 0.754516
O O10 0.051632 0.069470 0.589503
O O11 0.575685 0.848877 0.533491
O O12 0.718922 0.845778 0.709749
O O13 0.569959 0.004517 0.772939
O O14 0.749797 0.097864 0.530345
O O15 0.500000 0.500000 0.500000
O O16 0.403465 0.281299 0.640042
O O17 0.710719 0.268254 0.544291
O O18 0.500000 0.000000 0.000000
#
# Coordination Sequence:
#
# PCOD9085175 Si02
#       8
#     2   2   2   2   2   2   2   2
#     4  11  21  40  61  86 114 154 203 238 297 351
#     4  10  21  35  57  87 114 151 195 239 284 342
#     4  11  21  36  61  83 117 155 189 242 293 347
#     4  10  21  36  60  86 113 153 195 236 288 345
#     4  10  19  35  59  84 114 150 196 234 285 355
#     4  10  23  37  61  88 116 153 200 246 290 343
#     4   9  20  36  58  85 113 154 194 238 283 351
#     4  11  21  37  59  84 117 150 198 239 293 352
#
# _framework density 20.014797999999999
#
# number of rings (size 3 to 8) (size 9 to 14) (size 15 to 20)
#    0.000    1.750    5.000    0.375    3.500    0.000 
#    0.000    1.250    0.000    0.000    0.000    0.000 
#    0.000    0.000    0.000    0.000    0.000    0.000 
#
# Total GULP energy -89260.873605 kJ/mol
# GULP energy per Si atom -5578.804600 kJ/mol
# Density = 1.996924 g / cm^3
# Si number density = 20.014798 Si / 1000 Ang^3
#
#
#
# Elastic Constant Matrix: (Units=GPa)
#
#
# Indices 1 2 3 4 5 6 
#
# 1 47.9161 23.1974 7.4503 -11.4119 -17.1365 7.7340
# 2 23.1974 107.9566 47.4140 8.7642 -8.1636 21.4611
# 3 7.4503 47.4140 103.2366 4.8974 -4.3007 15.7713
# 4 -11.4119 8.7642 4.8974 44.9175 11.8104 -3.4429
# 5 -17.1365 -8.1636 -4.3007 11.8104 31.2122 -2.5837
# 6 7.7340 21.4611 15.7713 -3.4429 -2.5837 29.4673
#
#
#
# Elastic Compliance Matrix: (Units=1/GPa)
#
#
# Indices 1 2 3 4 5 6 
#
# 1 0.029700 -0.005862 0.001225 0.004988 0.012850 -0.002472
# 2 -0.005862 0.014497 -0.004931 -0.004583 0.001063 -0.006823
# 3 0.001225 -0.004931 0.012452 -0.000620 0.001054 -0.003375
# 4 0.004988 -0.004583 -0.000620 0.027065 -0.008391 0.004787
# 5 0.012850 0.001063 0.001054 -0.008391 0.042530 -0.001962
# 6 -0.002472 -0.006823 -0.003375 0.004787 -0.001962 0.041747
#
#
# Mechanical properties :
#
#
# Convention : Reuss Voigt Hill
#
# Bulk Modulus (GPa) = 26.65736 46.13697 36.39717
# Shear Modulus (GPa) = 25.04640 33.18921 29.11780
#
# Velocity S-wave (km/s) = 3.54134 4.07656 3.81834
# Velocity P-wave (km/s) = 5.48354 6.72750 6.13712
#
# Compressibility (1/GPa) = 0.03751309
#
# Stress axis : x y z
#
# Youngs Moduli (GPa) = 33.67058 68.97982 80.31070
#
# Poissons Ratio (x) = 0.40433 -0.09839
# Poissons Ratio (y) = 0.19736 0.39602
# Poissons Ratio (z) = -0.04125 0.34015
#
# Static dielectric constant tensor:
#      x y z
#    x 1.773820 0.041740 -0.013460 
#    y 0.041740 1.700040 0.002470 
#    z -0.013460 0.002470 1.717100 
# 
# From -- ./inp_files/186114.got.cif
#   From: 2010.05.17/outbox.cif.g08.bks.cpg/sg2_94_cif.got.tgz:186114.got - 2010.06.03 11:33:40.
