data_PCOD9085290
_publ_section_title
;
Structure prediction by ZEFSAII (Michael W. Deem and Ramdas Pophale) SiO2 
 PCOD9085290
Probable space group: P -1
;
_chemical_formula_sum "Si O2"
_cell_formula_units_Z 14
_cell_length_a 10.955961
_cell_length_b 13.846252
_cell_length_c 13.498313
_cell_angle_alpha 135.640946
_cell_angle_beta 112.463772
_cell_angle_gamma 33.421538
_cell_volume 654.684524
_symmetry_space_group_name_H-M "P -1"
_symmetry_group_IT_number 2
_symmetry_cell_setting 'triclinic'
loop_
_space_group_symop_operation_xyz
x,y,z
-x,-y,-z
loop_
_atom_site_type_symbol
_atom_site_label
_atom_site_fract_x
_atom_site_fract_y
_atom_site_fract_z
Si Si1 0.815652 0.728522 0.198934
Si Si2 0.907546 0.721890 0.913106
Si Si3 0.888983 0.253602 0.680289
Si Si4 0.747017 0.212532 0.774947
Si Si5 0.423612 0.154529 0.239998
Si Si6 0.303277 0.562100 0.443198
Si Si7 0.167883 0.766353 0.965658
O O1 0.854362 0.587550 0.196350
O O2 0.921888 0.785767 0.297433
O O3 0.525327 0.007197 0.267674
O O4 0.000000 0.500000 0.000000
O O5 0.795048 0.746141 0.800695
O O6 0.990596 0.800481 0.972418
O O7 0.672005 0.930980 0.075248
O O8 0.815740 0.297146 0.804678
O O9 0.656124 0.493952 0.704140
O O10 0.000000 0.000000 0.500000
O O11 0.467263 0.432864 0.794517
O O12 0.754775 0.215434 0.898671
O O13 0.995339 0.886627 0.592906
O O14 0.339184 0.389695 0.387461
O O15 0.500000 0.500000 0.500000
O O16 0.000000 0.000000 0.000000
#
# Coordination Sequence:
#
# PCOD9085290 Si02
#       7
#     2   2   2   2   2   2   2
#     4  10  19  35  59  91 129 160 200 265 324 378
#     4  10  21  37  57  91 122 162 211 256 319 371
#     4  10  20  37  63  96 130 159 200 271 330 380
#     4  10  24  41  61  95 128 165 217 259 322 378
#     4  10  20  34  62  93 124 155 203 267 322 377
#     4  11  21  37  65  99 129 160 207 269 328 384
#     4  11  25  43  65  86 127 176 220 260 305 388
#
# _framework density 21.384343999999999
#
# number of rings (size 3 to 8) (size 9 to 14) (size 15 to 20)
#    0.000    1.714    1.429    4.286    4.000    2.286 
#    0.000    0.714    0.000    1.714    0.000    0.000 
#    0.000    0.000    0.000    0.000    0.000    0.000 
#
# Total GULP energy -78025.660748 kJ/mol
# GULP energy per Si atom -5573.261482 kJ/mol
# Density = 2.133567 g / cm^3
# Si number density = 21.384344 Si / 1000 Ang^3
#
#
#
# Elastic Constant Matrix: (Units=GPa)
#
#
# Indices 1 2 3 4 5 6 
#
# 1 44.0324 41.4941 3.4605 3.9156 12.0298 9.7058
# 2 41.4941 204.8417 33.7610 16.8851 12.6434 18.4195
# 3 3.4605 33.7610 47.1220 11.7101 11.2136 -3.9687
# 4 3.9156 16.8851 11.7101 33.7083 -0.1936 7.1247
# 5 12.0298 12.6434 11.2136 -0.1936 21.4629 -1.5448
# 6 9.7058 18.4195 -3.9687 7.1247 -1.5448 33.3907
#
#
#
# Elastic Compliance Matrix: (Units=1/GPa)
#
#
# Indices 1 2 3 4 5 6 
#
# 1 0.035104 -0.006215 0.006564 -0.001987 -0.019929 -0.006493
# 2 -0.006215 0.007158 -0.005187 -0.000509 0.001788 -0.002567
# 3 0.006564 -0.005187 0.031589 -0.010541 -0.016778 0.006181
# 4 -0.001987 -0.000509 -0.010541 0.035470 0.006690 -0.007653
# 5 -0.019929 0.001788 -0.016778 0.006690 0.065854 0.004432
# 6 -0.006493 -0.002567 0.006181 -0.007653 0.004432 0.035825
#
#
# Mechanical properties :
#
#
# Convention : Reuss Voigt Hill
#
# Bulk Modulus (GPa) = 15.58243 50.38083 32.98163
# Shear Modulus (GPa) = 20.65539 32.19774 26.42656
#
# Velocity S-wave (km/s) = 3.11128 3.88450 3.51919
# Velocity P-wave (km/s) = 4.49549 6.61287 5.65418
#
# Compressibility (1/GPa) = 0.06417484
#
# Stress axis : x y z
#
# Youngs Moduli (GPa) = 28.48665 139.69959 31.65706
#
# Poissons Ratio (x) = 0.86825 -0.20781
# Poissons Ratio (y) = 0.17705 0.16422
# Poissons Ratio (z) = -0.18700 0.72467
#
# Static dielectric constant tensor:
#      x y z
#    x 1.795840 0.048820 -0.100830 
#    y 0.048820 1.713030 0.020580 
#    z -0.100830 0.020580 1.952080 
# 
# From -- ./inp_files/423537.got.cif
#   From: 2010.05.17/outbox.cif.g08.bks.cpg/sg2_212_cif.got.tgz:423537.got - 2010.06.03 11:33:40.
