data_PCOD9085034
_publ_section_title
;
Structure prediction by ZEFSAII (Michael W. Deem and Ramdas Pophale) SiO2 
 PCOD9085034
Probable space group: P -1
;
_chemical_formula_sum "Si O2"
_cell_formula_units_Z 16
_cell_length_a 19.371405
_cell_length_b 22.696235
_cell_length_c 5.698340
_cell_angle_alpha 85.624802
_cell_angle_beta 99.318645
_cell_angle_gamma 162.751540
_cell_volume 706.290829
_symmetry_space_group_name_H-M "P -1"
_symmetry_group_IT_number 2
_symmetry_cell_setting 'triclinic'
loop_
_space_group_symop_operation_xyz
x,y,z
-x,-y,-z
loop_
_atom_site_type_symbol
_atom_site_label
_atom_site_fract_x
_atom_site_fract_y
_atom_site_fract_z
Si Si1 0.853166 0.382374 0.200885
Si Si2 0.391698 0.309329 0.563448
Si Si3 0.695060 0.137301 0.374045
Si Si4 0.975438 0.033007 0.161867
Si Si5 0.325495 0.522607 0.698566
Si Si6 0.167906 0.505797 0.853666
Si Si7 0.099736 0.262471 0.041821
Si Si8 0.915492 0.224910 0.189074
O O1 0.711598 0.206402 0.189982
O O2 0.720640 0.338632 0.128681
O O3 0.000000 0.500000 0.500000
O O4 0.000000 0.500000 0.000000
O O5 0.208195 0.211820 0.409578
O O6 0.439359 0.304807 0.371274
O O7 0.661080 0.546728 0.716745
O O8 0.261746 0.170412 0.747689
O O9 0.687086 0.069121 0.247231
O O10 0.946040 0.332807 0.599283
O O11 0.500000 0.000000 0.500000
O O12 0.986619 0.106358 0.031830
O O13 0.000000 0.000000 0.000000
O O14 0.346385 0.597692 0.847141
O O15 0.115325 0.369031 0.446522
O O16 0.219246 0.382011 0.830405
O O17 0.036519 0.375327 0.055184
O O18 0.912712 0.163396 0.048086
#
# Coordination Sequence:
#
# PCOD9085034 Si02
#       8
#     2   2   2   2   2   2   2   2
#     4  10  19  35  58  85 115 159 205 251 308 374
#     4  10  22  40  62  91 120 159 202 251 308 373
#     4  10  20  34  56  86 120 153 201 255 308 368
#     4  11  24  39  61  92 128 154 199 258 309 374
#     4   9  19  36  63  83 112 156 206 245 302 371
#     4   9  18  35  59  80 114 158 199 247 305 367
#     4  10  21  40  64  87 118 166 203 249 315 371
#     4   9  18  36  59  79 114 158 200 246 304 373
#
# _framework density 22.653558
#
# number of rings (size 3 to 8) (size 9 to 14) (size 15 to 20)
#    0.000    2.250    1.250    1.125    0.000    6.500 
#    2.250    0.000   22.000    0.000    0.000    0.000 
#    0.000    0.000    0.000    0.000    0.000    0.000 
#
# Total GULP energy -89243.146960 kJ/mol
# GULP energy per Si atom -5577.696685 kJ/mol
# Density = 2.260200 g / cm^3
# Si number density = 22.653558 Si / 1000 Ang^3
#
#
#
# Elastic Constant Matrix: (Units=GPa)
#
#
# Indices 1 2 3 4 5 6 
#
# 1 174.3690 79.3071 50.8059 -47.2191 -3.1152 -12.3100
# 2 79.3071 74.3041 31.6717 -20.2996 -8.6700 1.9359
# 3 50.8059 31.6717 99.5570 -25.2184 6.4649 -7.3256
# 4 -47.2191 -20.2996 -25.2184 49.2837 11.6491 3.1263
# 5 -3.1152 -8.6700 6.4649 11.6491 46.0681 -13.8408
# 6 -12.3100 1.9359 -7.3256 3.1263 -13.8408 40.4324
#
#
#
# Elastic Compliance Matrix: (Units=1/GPa)
#
#
# Indices 1 2 3 4 5 6 
#
# 1 0.014374 -0.013169 -0.000598 0.008428 -0.002539 0.003378
# 2 -0.013169 0.028898 -0.004010 -0.003625 0.004763 -0.004209
# 3 -0.000598 -0.004010 0.013304 0.005446 -0.003833 0.000687
# 4 0.008428 -0.003625 0.005446 0.032055 -0.009594 -0.002037
# 5 -0.002539 0.004763 -0.003833 -0.009594 0.027988 0.008627
# 6 0.003378 -0.004209 0.000687 -0.002037 0.008627 0.029198
#
#
# Mechanical properties :
#
#
# Convention : Reuss Voigt Hill
#
# Bulk Modulus (GPa) = 47.56793 74.64438 61.10615
# Shear Modulus (GPa) = 26.54235 39.58652 33.06443
#
# Velocity S-wave (km/s) = 3.42667 4.18482 3.82458
# Velocity P-wave (km/s) = 6.05803 7.50814 6.82172
#
# Compressibility (1/GPa) = 0.02102257
#
# Stress axis : x y z
#
# Youngs Moduli (GPa) = 69.57050 34.60440 75.16442
#
# Poissons Ratio (x) = 0.45570 0.04493
# Poissons Ratio (y) = 0.91616 0.30143
# Poissons Ratio (z) = 0.04159 0.13877
#
# Static dielectric constant tensor:
#      x y z
#    x 1.901180 -0.002040 -0.125740 
#    y -0.002040 1.857150 0.072160 
#    z -0.125740 0.072160 2.110750 
# 
# From -- ./inp_files/112413.got.cif
#   From: 2010.05.17/outbox.cif.g08.bks.cpg/sg2_57_cif.got.tgz:112413.got - 2010.06.03 11:33:40.
