data_PCOD9085079
_publ_section_title
;
Structure prediction by ZEFSAII (Michael W. Deem and Ramdas Pophale) SiO2 
 PCOD9085079
Probable space group: P -1
;
_chemical_formula_sum "Si O2"
_cell_formula_units_Z 16
_cell_length_a 14.670093
_cell_length_b 7.556055
_cell_length_c 14.637931
_cell_angle_alpha 64.539410
_cell_angle_beta 26.655663
_cell_angle_gamma 63.415680
_cell_volume 649.161859
_symmetry_space_group_name_H-M "P -1"
_symmetry_group_IT_number 2
_symmetry_cell_setting 'triclinic'
loop_
_space_group_symop_operation_xyz
x,y,z
-x,-y,-z
loop_
_atom_site_type_symbol
_atom_site_label
_atom_site_fract_x
_atom_site_fract_y
_atom_site_fract_z
Si Si1 0.208136 0.552156 0.973427
Si Si2 0.914274 0.930894 0.188144
Si Si3 0.559860 0.234329 0.421492
Si Si4 0.843375 0.080023 0.846376
Si Si5 0.879261 0.224053 0.455226
Si Si6 0.181998 0.454958 0.216855
Si Si7 0.426525 0.067012 0.151885
Si Si8 0.178207 0.536587 0.727272
O O1 0.374566 0.674865 0.754547
O O2 0.278211 0.442718 0.029134
O O3 0.007177 0.700875 0.156552
O O4 0.072775 0.445715 0.045999
O O5 0.026715 0.994085 0.163673
O O6 0.670205 0.006761 0.390681
O O7 0.000000 0.000000 0.000000
O O8 0.331596 0.324386 0.638380
O O9 0.716340 0.338721 0.321538
O O10 0.848145 0.315639 0.776781
O O11 0.607166 0.053857 0.067120
O O12 0.936897 0.939648 0.711858
O O13 0.971054 0.363851 0.413873
O O14 0.789525 0.361149 0.421373
O O15 0.279323 0.911790 0.341347
O O16 0.321599 0.296794 0.189746
O O17 0.500000 0.000000 0.000000
#
# Coordination Sequence:
#
# PCOD9085079 Si02
#       8
#     2   2   2   2   2   2   2   2
#     4   9  20  37  60  86 123 167 203 265 322 381
#     4   9  19  40  62  92 129 169 216 265 327 390
#     4  10  19  35  58  88 125 160 211 260 319 388
#     4  11  23  46  70  97 138 175 223 279 332 403
#     4  11  24  45  66  97 139 176 223 278 336 395
#     4  10  23  45  68  98 134 175 225 272 336 397
#     4  12  26  44  70 102 133 177 226 282 338 398
#     4  10  21  35  57  91 120 163 214 259 320 391
#
# _framework density 24.647165999999999
#
# number of rings (size 3 to 8) (size 9 to 14) (size 15 to 20)
#    0.000    1.750    2.500    1.125    1.750    1.000 
#   11.250    6.250    0.000    0.000    0.000    0.000 
#    0.000    0.000    0.000    0.000    0.000    0.000 
#
# Total GULP energy -89289.904618 kJ/mol
# GULP energy per Si atom -5580.619039 kJ/mol
# Density = 2.459107 g / cm^3
# Si number density = 24.647166 Si / 1000 Ang^3
#
#
#
# Elastic Constant Matrix: (Units=GPa)
#
#
# Indices 1 2 3 4 5 6 
#
# 1 43.2030 -13.6005 9.8464 2.0041 -20.5683 -18.9703
# 2 -13.6005 99.1511 -6.3568 20.4451 18.1790 -4.3862
# 3 9.8464 -6.3568 54.0408 2.0728 -5.7613 -26.0554
# 4 2.0041 20.4451 2.0728 30.0311 -11.7183 3.8026
# 5 -20.5683 18.1790 -5.7613 -11.7183 19.5771 3.4801
# 6 -18.9703 -4.3862 -26.0554 3.8026 3.4801 37.8074
#
#
#
# Elastic Compliance Matrix: (Units=1/GPa)
#
#
# Indices 1 2 3 4 5 6 
#
# 1 0.154801 -0.064003 0.006510 0.148774 0.307443 0.031471
# 2 -0.064003 0.059817 0.006732 -0.111747 -0.189138 0.008115
# 3 0.006510 0.006732 0.031350 -0.011264 -0.001718 0.026943
# 4 0.148774 -0.111747 -0.011264 0.264310 0.416929 -0.011040
# 5 0.307443 -0.189138 -0.001718 0.416929 0.795943 0.015936
# 6 0.031471 0.008115 0.026943 -0.011040 0.015936 0.061394
#
#
# Mechanical properties :
#
#
# Convention : Reuss Voigt Hill
#
# Bulk Modulus (GPa) = 6.92295 19.57481 13.24888
# Shear Modulus (GPa) = 3.29536 31.25018 17.27277
#
# Velocity S-wave (km/s) = 1.15755 3.56462 2.65014
# Velocity P-wave (km/s) = 2.14510 4.99012 3.84075
#
# Compressibility (1/GPa) = 0.14444711
#
# Stress axis : x y z
#
# Youngs Moduli (GPa) = 6.45990 16.71760 31.89812
#
# Poissons Ratio (x) = 1.06997 -0.20765
# Poissons Ratio (y) = 0.41345 -0.21475
# Poissons Ratio (z) = -0.04205 -0.11255
#
# Static dielectric constant tensor:
#      x y z
#    x 2.075590 0.098000 -0.044590 
#    y 0.098000 2.101900 -0.037410 
#    z -0.044590 -0.037410 2.063510 
# 
# From -- ./inp_files/227111.got.cif
#   From: 2010.05.17/outbox.cif.g08.bks.cpg/sg2_114_cif.got.tgz:227111.got - 2010.06.03 11:33:40.
