data_PCOD9085679
_publ_section_title
;
Structure prediction by ZEFSAII (Michael W. Deem and Ramdas Pophale) SiO2 
 PCOD9085679
Probable space group: P -1
;
_chemical_formula_sum "Si O2"
_cell_formula_units_Z 14
_cell_length_a 9.802754
_cell_length_b 12.556199
_cell_length_c 9.595387
_cell_angle_alpha 102.974593
_cell_angle_beta 30.137051
_cell_angle_gamma 115.926744
_cell_volume 501.486080
_symmetry_space_group_name_H-M "P -1"
_symmetry_group_IT_number 2
_symmetry_cell_setting 'triclinic'
loop_
_space_group_symop_operation_xyz
x,y,z
-x,-y,-z
loop_
_atom_site_type_symbol
_atom_site_label
_atom_site_fract_x
_atom_site_fract_y
_atom_site_fract_z
Si Si1 0.847011 0.486040 0.804718
Si Si2 0.632138 0.910022 0.321142
Si Si3 0.765634 0.706168 0.877342
Si Si4 0.530906 0.288677 0.345487
Si Si5 0.858735 0.186686 0.833620
Si Si6 0.396820 0.104098 0.961208
Si Si7 0.513288 0.562536 0.322572
O O1 0.081504 0.383516 0.295951
O O2 0.165001 0.484633 0.543708
O O3 0.563799 0.377827 0.938051
O O4 0.712338 0.496246 0.079153
O O5 0.553373 0.815184 0.488937
O O6 0.500000 0.000000 0.500000
O O7 0.476192 0.853216 0.293427
O O8 0.000000 0.000000 0.000000
O O9 0.853869 0.845751 0.791026
O O10 0.700089 0.689040 0.098105
O O11 0.792314 0.274601 0.023377
O O12 0.544138 0.399669 0.463438
O O13 0.226126 0.243879 0.505591
O O14 0.657178 0.165334 0.867573
O O15 0.741868 0.045499 0.952297
#
# Coordination Sequence:
#
# PCOD9085679 Si02
#       7
#     2   2   2   2   2   2   2
#     4   9  19  36  57  97 120 143 199 267 308 346
#     4  12  22  38  61  90 116 153 209 254 284 348
#     4   9  20  35  62  92 119 155 199 257 304 360
#     4  12  22  43  62  87 125 165 205 250 305 355
#     4  11  27  42  58  89 132 168 198 244 299 377
#     4  11  23  44  61  92 125 168 201 247 305 361
#     4  10  19  35  62  88 118 154 192 259 305 348
#
# _framework density 27.917027999999998
#
# number of rings (size 3 to 8) (size 9 to 14) (size 15 to 20)
#    0.857    0.571    4.286    1.286    0.000    4.571 
#    5.143    0.000    0.000    5.143    0.000    0.000 
#    0.000    0.000    0.000    0.000    0.000    0.000 
#
# Total GULP energy -78355.065274 kJ/mol
# GULP energy per Si atom -5596.790377 kJ/mol
# Density = 2.785349 g / cm^3
# Si number density = 27.917028 Si / 1000 Ang^3
#
#
#
# Elastic Constant Matrix: (Units=GPa)
#
#
# Indices 1 2 3 4 5 6 
#
# 1 104.9479 18.6388 19.0493 5.1538 17.7529 3.3042
# 2 18.6388 126.4198 16.8455 26.3249 -2.7348 -24.6461
# 3 19.0493 16.8455 124.3468 20.5931 -1.1920 -6.6889
# 4 5.1538 26.3249 20.5931 41.1615 4.1646 -6.1314
# 5 17.7529 -2.7348 -1.1920 4.1646 53.0464 13.8437
# 6 3.3042 -24.6461 -6.6889 -6.1314 13.8437 53.9391
#
#
#
# Elastic Compliance Matrix: (Units=1/GPa)
#
#
# Indices 1 2 3 4 5 6 
#
# 1 0.010721 -0.001744 -0.001616 0.000854 -0.003617 -0.000629
# 2 -0.001744 0.010142 0.000066 -0.005765 0.000528 0.003958
# 3 -0.001616 0.000066 0.009043 -0.004386 0.000960 0.000506
# 4 0.000854 -0.005765 -0.004386 0.030575 -0.003372 0.001111
# 5 -0.003617 0.000528 0.000960 -0.003372 0.021783 -0.005392
# 6 -0.000629 0.003958 0.000506 0.001111 -0.005392 0.021960
#
#
# Mechanical properties :
#
#
# Convention : Reuss Voigt Hill
#
# Bulk Modulus (GPa) = 42.88440 51.64243 47.26341
# Shear Modulus (GPa) = 42.16359 49.70811 45.93585
#
# Velocity S-wave (km/s) = 3.89050 4.22425 4.06081
# Velocity P-wave (km/s) = 5.96456 6.50624 6.24128
#
# Compressibility (1/GPa) = 0.02331850
#
# Stress axis : x y z
#
# Youngs Moduli (GPa) = 93.27174 98.59955 110.57732
#
# Poissons Ratio (x) = 0.17195 0.17870
# Poissons Ratio (y) = 0.16266 -0.00729
# Poissons Ratio (z) = 0.15074 -0.00650
#
# Static dielectric constant tensor:
#      x y z
#    x 2.203340 -0.021550 0.027260 
#    y -0.021550 2.265570 0.011080 
#    z 0.027260 0.011080 2.188780 
# 
# From -- ./inp_files/434174.got.cif
#   From: 2010.05.17/outbox.cif.g08.bks.cpg/sg2_218_cif.got.tgz:434174.got - 2010.06.03 11:33:40.
