data_PCOD9085629
_publ_section_title
;
Structure prediction by ZEFSAII (Michael W. Deem and Ramdas Pophale) SiO2 
 PCOD9085629
Probable space group: P -1
;
_chemical_formula_sum "Si O2"
_cell_formula_units_Z 16
_cell_length_a 17.056678
_cell_length_b 9.846148
_cell_length_c 8.668944
_cell_angle_alpha 67.167338
_cell_angle_beta 128.413851
_cell_angle_gamma 138.977060
_cell_volume 739.461908
_symmetry_space_group_name_H-M "P -1"
_symmetry_group_IT_number 2
_symmetry_cell_setting 'triclinic'
loop_
_space_group_symop_operation_xyz
x,y,z
-x,-y,-z
loop_
_atom_site_type_symbol
_atom_site_label
_atom_site_fract_x
_atom_site_fract_y
_atom_site_fract_z
Si Si1 0.164837 0.890530 0.997105
Si Si2 0.359208 0.917491 0.449424
Si Si3 0.280496 0.528574 0.617787
Si Si4 0.048491 0.298256 0.671420
Si Si5 0.933999 0.882926 0.637656
Si Si6 0.399770 0.021109 0.801074
Si Si7 0.560727 0.722784 0.007109
Si Si8 0.101454 0.629803 0.764162
O O1 0.260496 0.933620 0.235803
O O2 0.280209 0.094412 0.940068
O O3 0.031531 0.862101 0.850316
O O4 0.120414 0.698534 0.931686
O O5 0.259462 0.671519 0.468287
O O6 0.500000 0.000000 0.500000
O O7 0.405269 0.029828 0.621213
O O8 0.201914 0.414673 0.736147
O O9 0.448072 0.699872 0.781856
O O10 0.215839 0.346455 0.494805
O O11 0.055526 0.414055 0.774413
O O12 0.995005 0.349566 0.446771
O O13 0.947685 0.050924 0.672568
O O14 0.000000 0.000000 0.500000
O O15 0.246873 0.807540 0.769136
O O16 0.437450 0.213373 0.845880
O O17 0.500000 0.000000 0.000000
O O18 0.500000 0.500000 0.000000
#
# Coordination Sequence:
#
# PCOD9085629 Si02
#       8
#     2   2   2   2   2   2   2   2
#     4  11  22  38  63  94 122 169 205 260 323 362
#     4  12  23  41  62  92 135 162 213 266 310 380
#     4  11  20  37  60  92 123 166 200 256 320 364
#     4  10  19  35  63  90 124 153 210 264 303 365
#     4  10  20  37  60  92 127 158 206 256 310 378
#     4  11  21  39  63  92 119 164 214 259 308 371
#     4  11  22  37  67  95 120 161 218 260 312 377
#     4  10  19  35  61  95 115 156 213 256 311 361
#
# _framework density 21.637356
#
# number of rings (size 3 to 8) (size 9 to 14) (size 15 to 20)
#    0.000    1.250    6.250    2.250    1.750    0.500 
#    0.000    0.625    2.750    1.500    0.000    0.000 
#    0.000    0.000    0.000    0.000    0.000    0.000 
#
# Total GULP energy -89287.679559 kJ/mol
# GULP energy per Si atom -5580.479972 kJ/mol
# Density = 2.158811 g / cm^3
# Si number density = 21.637356 Si / 1000 Ang^3
#
#
#
# Elastic Constant Matrix: (Units=GPa)
#
#
# Indices 1 2 3 4 5 6 
#
# 1 57.6897 36.2546 35.4064 9.7869 -2.2473 -16.9747
# 2 36.2546 126.7586 21.6411 26.1548 -23.7083 -44.2853
# 3 35.4064 21.6411 117.9485 9.8613 -8.5977 -20.3657
# 4 9.7869 26.1548 9.8613 33.4903 -1.5573 -2.8999
# 5 -2.2473 -23.7083 -8.5977 -1.5573 27.1513 15.9249
# 6 -16.9747 -44.2853 -20.3657 -2.8999 15.9249 45.6117
#
#
#
# Elastic Compliance Matrix: (Units=1/GPa)
#
#
# Indices 1 2 3 4 5 6 
#
# 1 0.026255 -0.006605 -0.006649 -0.000648 -0.007471 0.002956
# 2 -0.006605 0.017204 0.002347 -0.010809 0.007585 0.011959
# 3 -0.006649 0.002347 0.011097 -0.002716 0.002725 0.003635
# 4 -0.000648 -0.010809 -0.002716 0.038414 -0.003236 -0.008376
# 5 -0.007471 0.007585 0.002725 -0.003236 0.050591 -0.012068
# 6 0.002956 0.011959 0.003635 -0.008376 -0.012068 0.039939
#
#
# Mechanical properties :
#
#
# Convention : Reuss Voigt Hill
#
# Bulk Modulus (GPa) = 30.54123 54.33342 42.43733
# Shear Modulus (GPa) = 23.12382 35.19031 29.15706
#
# Velocity S-wave (km/s) = 3.27264 4.03720 3.67486
# Velocity P-wave (km/s) = 5.33160 6.84817 6.13691
#
# Compressibility (1/GPa) = 0.03274263
#
# Stress axis : x y z
#
# Youngs Moduli (GPa) = 38.08870 58.12561 90.11415
#
# Poissons Ratio (x) = 0.38390 0.59920
# Poissons Ratio (y) = 0.25156 -0.21154
# Poissons Ratio (z) = 0.25326 -0.13645
#
# Static dielectric constant tensor:
#      x y z
#    x 19.038130 4.486440 5.022320 
#    y 4.486440 3.020330 1.296120 
#    z 5.022320 1.296120 3.306140 
# 
# From -- ./inp_files/327458.got.cif
#   From: 2010.05.17/outbox.cif.g08.bks.cpg/sg2_164_cif.got.tgz:327458.got - 2010.06.03 11:33:40.
