data_PCOD9085745
_publ_section_title
;
Structure prediction by ZEFSAII (Michael W. Deem and Ramdas Pophale) SiO2 
 PCOD9085745
Probable space group: P -1
;
_chemical_formula_sum "Si O2"
_cell_formula_units_Z 16
_cell_length_a 7.259557
_cell_length_b 11.332706
_cell_length_c 13.329065
_cell_angle_alpha 43.881765
_cell_angle_beta 79.809575
_cell_angle_gamma 100.415773
_cell_volume 667.383362
_symmetry_space_group_name_H-M "P -1"
_symmetry_group_IT_number 2
_symmetry_cell_setting 'triclinic'
loop_
_space_group_symop_operation_xyz
x,y,z
-x,-y,-z
loop_
_atom_site_type_symbol
_atom_site_label
_atom_site_fract_x
_atom_site_fract_y
_atom_site_fract_z
Si Si1 0.818683 0.460331 0.847983
Si Si2 0.260289 0.653340 0.763646
Si Si3 0.356442 0.334344 0.983622
Si Si4 0.536848 0.112245 0.213780
Si Si5 0.176477 0.315181 0.633653
Si Si6 0.774368 0.272267 0.765113
Si Si7 0.697482 0.864146 0.100075
Si Si8 0.540301 0.307927 0.496955
O O1 0.605832 0.481974 0.861206
O O2 0.026807 0.616362 0.782071
O O3 0.864165 0.429048 0.748039
O O4 0.733884 0.253690 0.039082
O O5 0.389964 0.827540 0.716904
O O6 0.377856 0.665208 0.640776
O O7 0.243176 0.463272 0.938521
O O8 0.282923 0.232837 0.945555
O O9 0.360349 0.176770 0.156301
O O10 0.311185 0.299810 0.538311
O O11 0.164699 0.154758 0.812805
O O12 0.307309 0.509528 0.564394
O O13 0.947042 0.297579 0.650202
O O14 0.547394 0.252948 0.772765
O O15 0.526392 0.107694 0.658660
O O16 0.729792 0.073247 0.944110
#
# Coordination Sequence:
#
# PCOD9085745 Si02
#       8
#     2   2   2   2   2   2   2   2
#     4   9  20  37  63  94 119 153 212 255 300 367
#     4  12  20  43  68  84 121 171 204 253 311 351
#     4   9  21  37  63  93 117 153 207 253 300 366
#     4  10  23  40  64  91 125 157 207 264 300 358
#     4  11  22  40  61  85 131 167 197 246 309 380
#     4  10  19  35  62  95 120 158 202 259 306 359
#     4  10  19  35  65  92 122 153 207 257 305 363
#     4  11  24  39  62  93 126 168 205 244 314 371
#
# _framework density 23.974228
#
# number of rings (size 3 to 8) (size 9 to 14) (size 15 to 20)
#    0.750    1.000    2.500    2.250    1.750    1.000 
#    0.000    3.750    5.500    1.500    0.000    0.000 
#    0.000    0.000    0.000    0.000    0.000    0.000 
#
# Total GULP energy -89455.137235 kJ/mol
# GULP energy per Si atom -5590.946077 kJ/mol
# Density = 2.391966 g / cm^3
# Si number density = 23.974228 Si / 1000 Ang^3
#
#
#
# Elastic Constant Matrix: (Units=GPa)
#
#
# Indices 1 2 3 4 5 6 
#
# 1 93.1755 -6.2094 -3.9331 11.9392 -1.6513 1.4401
# 2 -6.2094 82.1634 3.2006 6.8304 5.9445 2.9101
# 3 -3.9331 3.2006 78.5382 -1.6421 4.6412 -1.2564
# 4 11.9392 6.8304 -1.6421 37.1494 -16.3805 3.1988
# 5 -1.6513 5.9445 4.6412 -16.3805 27.1244 3.7588
# 6 1.4401 2.9101 -1.2564 3.1988 3.7588 16.2380
#
#
#
# Elastic Compliance Matrix: (Units=1/GPa)
#
#
# Indices 1 2 3 4 5 6 
#
# 1 0.011474 0.001484 0.000588 -0.005299 -0.002996 0.000499
# 2 0.001484 0.013206 -0.000216 -0.005640 -0.006177 0.000026
# 3 0.000588 -0.000216 0.012959 -0.001089 -0.003057 0.001911
# 4 -0.005299 -0.005640 -0.001089 0.043841 0.029526 -0.014075
# 5 -0.002996 -0.006177 -0.003057 0.029526 0.058931 -0.018322
# 6 0.000499 0.000026 0.001911 -0.014075 -0.018322 0.068697
#
#
# Mechanical properties :
#
#
# Convention : Reuss Voigt Hill
#
# Bulk Modulus (GPa) = 24.18284 26.66595 25.42440
# Shear Modulus (GPa) = 22.81217 33.49030 28.15124
#
# Velocity S-wave (km/s) = 3.08803 3.74161 3.43042
# Velocity P-wave (km/s) = 4.77740 5.46013 5.13013
#
# Compressibility (1/GPa) = 0.04135164
#
# Stress axis : x y z
#
# Youngs Moduli (GPa) = 87.15139 75.72153 77.16417
#
# Poissons Ratio (x) = -0.11236 -0.04540
# Poissons Ratio (y) = -0.12932 0.01670
# Poissons Ratio (z) = -0.05128 0.01639
#
# Static dielectric constant tensor:
#      x y z
#    x 1.932260 0.009420 -0.002970 
#    y 0.009420 1.872970 0.014180 
#    z -0.002970 0.014180 1.997050 
# 
# From -- ./inp_files/389086.got.cif
#   From: 2010.05.17/outbox.cif.g08.bks.cpg/sg2_195_cif.got.tgz:389086.got - 2010.06.03 11:33:40.
