data_PCOD9085827
_publ_section_title
;
Structure prediction by ZEFSAII (Michael W. Deem and Ramdas Pophale) SiO2 
 PCOD9085827
Probable space group: P -1
;
_chemical_formula_sum "Si O2"
_cell_formula_units_Z 14
_cell_length_a 7.158300
_cell_length_b 12.022991
_cell_length_c 13.338881
_cell_angle_alpha 42.338661
_cell_angle_beta 43.325498
_cell_angle_gamma 54.429063
_cell_volume 528.110610
_symmetry_space_group_name_H-M "P -1"
_symmetry_group_IT_number 2
_symmetry_cell_setting 'triclinic'
loop_
_space_group_symop_operation_xyz
x,y,z
-x,-y,-z
loop_
_atom_site_type_symbol
_atom_site_label
_atom_site_fract_x
_atom_site_fract_y
_atom_site_fract_z
Si Si1 0.584333 0.991767 0.165959
Si Si2 0.216131 0.727610 0.228625
Si Si3 0.694636 0.644614 0.602007
Si Si4 0.863789 0.340052 0.302670
Si Si5 0.021779 0.139913 0.198934
Si Si6 0.703272 0.888367 0.601706
Si Si7 0.232994 0.298991 0.833401
O O1 0.302206 0.029573 0.187969
O O2 0.499315 0.042499 0.277863
O O3 0.694942 0.801736 0.228552
O O4 0.770552 0.119605 0.953835
O O5 0.228577 0.551371 0.284308
O O6 0.486316 0.715386 0.201287
O O7 0.952891 0.729308 0.401193
O O8 0.448162 0.663635 0.606328
O O9 0.610889 0.733868 0.678932
O O10 0.876632 0.508746 0.246827
O O11 0.019151 0.306810 0.157361
O O12 0.009990 0.187634 0.409169
O O13 0.028948 0.195942 0.045270
O O14 0.784541 0.032955 0.400547
#
# Coordination Sequence:
#
# PCOD9085827 Si02
#       7
#     2   2   2   2   2   2   2
#     4  10  19  35  63  92 125 167 207 255 319 375
#     4   9  19  37  61  91 127 169 207 255 319 373
#     4  10  21  40  64  91 128 168 211 258 311 377
#     4  10  22  39  67  97 122 163 215 262 311 370
#     4  10  20  39  64  92 124 166 211 255 314 376
#     4  11  23  41  66  94 128 165 208 262 316 372
#     4  10  19  37  67  93 123 168 212 255 314 378
#
# _framework density 26.509595000000001
#
# number of rings (size 3 to 8) (size 9 to 14) (size 15 to 20)
#    0.000    2.000    0.000    5.571    0.000    2.286 
#    0.000   17.857    0.000   28.286    0.000    0.000 
#    0.000    0.000    0.000    0.000    0.000    0.000 
#
# Total GULP energy -78478.856484 kJ/mol
# GULP energy per Si atom -5605.632606 kJ/mol
# Density = 2.644926 g / cm^3
# Si number density = 26.509595 Si / 1000 Ang^3
#
#
#
# Elastic Constant Matrix: (Units=GPa)
#
#
# Indices 1 2 3 4 5 6 
#
# 1 71.8764 23.5595 4.1236 -5.5976 -13.6394 2.1110
# 2 23.5595 264.8384 67.2365 -10.7804 14.4048 33.1346
# 3 4.1236 67.2365 97.3663 -0.7251 -2.3465 21.0287
# 4 -5.5976 -10.7804 -0.7251 32.2434 -2.4725 3.1674
# 5 -13.6394 14.4048 -2.3465 -2.4725 28.0837 4.1245
# 6 2.1110 33.1346 21.0287 3.1674 4.1245 47.0729
#
#
#
# Elastic Compliance Matrix: (Units=1/GPa)
#
#
# Indices 1 2 3 4 5 6 
#
# 1 0.016610 -0.002064 0.001162 0.003041 0.009617 -0.000858
# 2 -0.002064 0.005261 -0.003201 0.001247 -0.003572 -0.001952
# 3 0.001162 -0.003201 0.013425 0.000144 0.003950 -0.004152
# 4 0.003041 0.001247 0.000144 0.032647 0.004260 -0.003648
# 5 0.009617 -0.003572 0.003950 0.004260 0.043369 -0.003768
# 6 -0.000858 -0.001952 -0.004152 -0.003648 -0.003768 0.025086
#
#
# Mechanical properties :
#
#
# Convention : Reuss Voigt Hill
#
# Bulk Modulus (GPa) = 36.91608 69.32446 53.12027
# Shear Modulus (GPa) = 32.54456 44.09078 38.31767
#
# Velocity S-wave (km/s) = 3.50759 4.08266 3.80600
# Velocity P-wave (km/s) = 5.50999 6.95928 6.27661
#
# Compressibility (1/GPa) = 0.02708847
#
# Stress axis : x y z
#
# Youngs Moduli (GPa) = 60.20592 190.06027 74.48883
#
# Poissons Ratio (x) = 0.39237 -0.08655
# Poissons Ratio (y) = 0.12429 0.23845
# Poissons Ratio (z) = -0.06995 0.60842
#
# Static dielectric constant tensor:
#      x y z
#    x 2.108070 0.002070 -0.029830 
#    y 0.002070 2.058930 -0.007610 
#    z -0.029830 -0.007610 2.026680 
# 
# From -- ./inp_files/497371.got.cif
#   From: 2010.05.17/outbox.cif.g08.bks.cpg/sg2_249_cif.got.tgz:497371.got - 2010.06.03 11:33:40.
