data_PCOD9085377
_publ_section_title
;
Structure prediction by ZEFSAII (Michael W. Deem and Ramdas Pophale) SiO2 
 PCOD9085377
Probable space group: P -1
;
_chemical_formula_sum "Si O2"
_cell_formula_units_Z 12
_cell_length_a 14.424712
_cell_length_b 5.371060
_cell_length_c 7.518929
_cell_angle_alpha 118.016235
_cell_angle_beta 119.184960
_cell_angle_gamma 86.503079
_cell_volume 438.181866
_symmetry_space_group_name_H-M "P -1"
_symmetry_group_IT_number 2
_symmetry_cell_setting 'triclinic'
loop_
_space_group_symop_operation_xyz
x,y,z
-x,-y,-z
loop_
_atom_site_type_symbol
_atom_site_label
_atom_site_fract_x
_atom_site_fract_y
_atom_site_fract_z
Si Si1 0.593429 0.049531 0.460050
Si Si2 0.334636 0.218112 0.892295
Si Si3 0.293964 0.395122 0.437730
Si Si4 0.901805 0.151932 0.403304
Si Si5 0.717396 0.251191 0.082736
Si Si6 0.945007 0.668176 0.861904
O O1 0.620064 0.368119 0.509355
O O2 0.500000 0.000000 0.500000
O O3 0.584673 0.841669 0.205696
O O4 0.686486 0.920725 0.607497
O O5 0.325028 0.543747 0.024110
O O6 0.208687 0.041715 0.671357
O O7 0.357481 0.055619 0.037668
O O8 0.286244 0.552119 0.674518
O O9 0.181005 0.364618 0.220093
O O10 0.839905 0.198122 0.175348
O O11 0.939875 0.475712 0.617358
O O12 0.000000 0.000000 0.500000
O O13 0.000000 0.500000 0.000000
O O14 0.000000 0.000000 0.000000
#
# Coordination Sequence:
#
# PCOD9085377 Si02
#       6
#     2   2   2   2   2   2
#     4  10  16  26  46  68  95 128 158 200 263 297
#     4   8  15  27  40  62  93 121 144 198 244 281
#     4   9  17  30  42  64  99 126 157 207 239 297
#     4   9  19  32  50  69  97 134 167 206 247 288
#     4   7  14  25  41  57  86 122 140 186 240 269
#     4  11  22  34  51  71 103 145 169 196 253 303
#
# _framework density 27.385885999999999
#
# number of rings (size 3 to 8) (size 9 to 14) (size 15 to 20)
#    1.000    2.000    1.667    1.500    4.667    0.667 
#    0.000    0.000    0.000    0.000    0.000    0.000 
#    0.000    8.000    0.000    0.000    0.000    0.000 
#
# Total GULP energy -67005.852671 kJ/mol
# GULP energy per Si atom -5583.821056 kJ/mol
# Density = 2.732355 g / cm^3
# Si number density = 27.385886 Si / 1000 Ang^3
#
#
#
# Elastic Constant Matrix: (Units=GPa)
#
#
# Indices 1 2 3 4 5 6 
#
# 1 107.9855 4.9531 17.7391 16.1421 6.4959 0.3383
# 2 4.9531 165.3422 25.0430 42.6137 -1.0026 -11.6813
# 3 17.7391 25.0430 93.5324 28.2845 -3.6283 -2.8658
# 4 16.1421 42.6137 28.2845 59.9151 0.8197 -1.4565
# 5 6.4959 -1.0026 -3.6283 0.8197 39.0329 1.9313
# 6 0.3383 -11.6813 -2.8658 -1.4565 1.9313 48.2806
#
#
#
# Elastic Compliance Matrix: (Units=1/GPa)
#
#
# Indices 1 2 3 4 5 6 
#
# 1 0.009919 0.000507 -0.001370 -0.002364 -0.001714 -0.000031
# 2 0.000507 0.007578 -0.000480 -0.005261 0.000095 0.001639
# 3 -0.001370 -0.000480 0.012761 -0.005323 0.001492 0.000431
# 4 -0.002364 -0.005261 -0.005323 0.023571 -0.000690 -0.000834
# 5 -0.001714 0.000095 0.001492 -0.000690 0.026107 -0.000942
# 6 -0.000031 0.001639 0.000431 -0.000834 -0.000942 0.021147
#
#
# Mechanical properties :
#
#
# Convention : Reuss Voigt Hill
#
# Bulk Modulus (GPa) = 36.26935 51.37004 43.81970
# Shear Modulus (GPa) = 44.26396 50.72071 47.49233
#
# Velocity S-wave (km/s) = 4.02469 4.30824 4.16888
# Velocity P-wave (km/s) = 5.90509 6.59898 6.26165
#
# Compressibility (1/GPa) = 0.02757149
#
# Stress axis : x y z
#
# Youngs Moduli (GPa) = 100.81924 131.96284 78.36556
#
# Poissons Ratio (x) = -0.06689 0.10733
# Poissons Ratio (y) = -0.05110 0.03764
# Poissons Ratio (z) = 0.13808 0.06338
#
# Static dielectric constant tensor:
#      x y z
#    x 2.243140 0.010870 -0.057010 
#    y 0.010870 2.218750 -0.019960 
#    z -0.057010 -0.019960 2.213580 
# 
# From -- ./inp_files/441528.got.cif
#   From: 2010.05.17/outbox.cif.g08.bks.cpg/sg2_221_cif.got.tgz:441528.got - 2010.06.03 11:33:40.
