data_PCOD9085406
_publ_section_title
;
Structure prediction by ZEFSAII (Michael W. Deem and Ramdas Pophale) SiO2 
 PCOD9085406
Probable space group: P -1
;
_chemical_formula_sum "Si O2"
_cell_formula_units_Z 12
_cell_length_a 8.161289
_cell_length_b 11.454707
_cell_length_c 5.910782
_cell_angle_alpha 118.875695
_cell_angle_beta 92.798199
_cell_angle_gamma 67.334975
_cell_volume 440.011822
_symmetry_space_group_name_H-M "P -1"
_symmetry_group_IT_number 2
_symmetry_cell_setting 'triclinic'
loop_
_space_group_symop_operation_xyz
x,y,z
-x,-y,-z
loop_
_atom_site_type_symbol
_atom_site_label
_atom_site_fract_x
_atom_site_fract_y
_atom_site_fract_z
Si Si1 0.977093 0.645136 0.864628
Si Si2 0.449655 0.657973 0.755008
Si Si3 0.266940 0.501346 0.074139
Si Si4 0.902126 0.224552 0.381980
Si Si5 0.803483 0.924801 0.434869
Si Si6 0.487498 0.115160 0.304181
O O1 0.904674 0.792086 0.146941
O O2 0.179830 0.537718 0.855869
O O3 0.853177 0.564726 0.855483
O O4 0.981143 0.699412 0.663946
O O5 0.500000 0.500000 0.500000
O O6 0.531324 0.616199 0.973117
O O7 0.241239 0.768760 0.813324
O O8 0.549791 0.737431 0.692647
O O9 0.219576 0.658418 0.332532
O O10 0.044026 0.080643 0.380217
O O11 0.661274 0.883729 0.528877
O O12 0.676184 0.062348 0.406042
O O13 0.500000 0.000000 0.000000
#
# Coordination Sequence:
#
# PCOD9085406 Si02
#       6
#     2   2   2   2   2   2
#     4  10  19  35  60  88 119 157 203 247 291 354
#     4  10  22  39  61  91 125 158 194 246 305 354
#     4   9  19  34  56  87 120 163 203 237 292 354
#     4  10  20  36  57  87 124 157 193 247 303 354
#     4  10  22  39  63  88 114 159 207 247 294 352
#     4  11  23  43  66  87 117 158 207 250 291 356
#
# _framework density 27.271993999999999
#
# number of rings (size 3 to 8) (size 9 to 14) (size 15 to 20)
#    0.000    2.000    0.000    3.500    0.000    8.000 
#    0.000   16.667    0.000    0.000    0.000    0.000 
#    0.000    0.000    0.000    0.000    0.000    0.000 
#
# Total GULP energy -67177.129116 kJ/mol
# GULP energy per Si atom -5598.094093 kJ/mol
# Density = 2.720992 g / cm^3
# Si number density = 27.271994 Si / 1000 Ang^3
#
#
#
# Elastic Constant Matrix: (Units=GPa)
#
#
# Indices 1 2 3 4 5 6 
#
# 1 91.6860 47.4026 20.5522 -10.4371 -0.1694 -38.4737
# 2 47.4026 199.1516 42.6963 -39.1090 12.5506 -34.3712
# 3 20.5522 42.6963 83.1758 8.2784 -18.7019 -0.2787
# 4 -10.4371 -39.1090 8.2784 45.4143 -1.1775 16.0132
# 5 -0.1694 12.5506 -18.7019 -1.1775 33.3625 -17.7671
# 6 -38.4737 -34.3712 -0.2787 16.0132 -17.7671 81.5275
#
#
#
# Elastic Compliance Matrix: (Units=1/GPa)
#
#
# Indices 1 2 3 4 5 6 
#
# 1 0.015531 -0.002514 -0.001541 -0.000782 0.004017 0.007293
# 2 -0.002514 0.008961 -0.006379 0.008328 -0.006978 -0.000587
# 3 -0.001541 -0.006379 0.019791 -0.009655 0.013996 0.001598
# 4 -0.000782 0.008328 -0.009655 0.032449 -0.010343 -0.005519
# 5 0.004017 -0.006978 0.013996 -0.010343 0.045987 0.011055
# 6 0.007293 -0.000587 0.001598 -0.005519 0.011055 0.018959
#
#
# Mechanical properties :
#
#
# Convention : Reuss Voigt Hill
#
# Bulk Modulus (GPa) = 42.70829 66.14619 54.42724
# Shear Modulus (GPa) = 29.35101 49.61834 39.48468
#
# Velocity S-wave (km/s) = 3.28416 4.27006 3.80914
# Velocity P-wave (km/s) = 5.48407 6.97267 6.27268
#
# Compressibility (1/GPa) = 0.02341466
#
# Stress axis : x y z
#
# Youngs Moduli (GPa) = 64.38761 111.59264 50.52749
#
# Poissons Ratio (x) = 0.28058 0.07788
# Poissons Ratio (y) = 0.16189 0.32229
# Poissons Ratio (z) = 0.09925 0.71180
#
# Static dielectric constant tensor:
#      x y z
#    x 2.274570 -0.055340 0.077020 
#    y -0.055340 2.067090 -0.052540 
#    z 0.077020 -0.052540 2.058170 
# 
# From -- ./inp_files/24101.got.cif
#   From: 2010.05.17/outbox.cif.g08.bks.cpg/sg2_13_cif.got.tgz:24101.got - 2010.06.03 11:33:40.
