data_PCOD9085041
_publ_section_title
;
Structure prediction by ZEFSAII (Michael W. Deem and Ramdas Pophale) SiO2 
 PCOD9085041
Probable space group: P -1
;
_chemical_formula_sum "Si O2"
_cell_formula_units_Z 16
_cell_length_a 7.993728
_cell_length_b 12.531294
_cell_length_c 8.720290
_cell_angle_alpha 108.263496
_cell_angle_beta 69.587215
_cell_angle_gamma 106.319271
_cell_volume 762.830078
_symmetry_space_group_name_H-M "P -1"
_symmetry_group_IT_number 2
_symmetry_cell_setting 'triclinic'
loop_
_space_group_symop_operation_xyz
x,y,z
-x,-y,-z
loop_
_atom_site_type_symbol
_atom_site_label
_atom_site_fract_x
_atom_site_fract_y
_atom_site_fract_z
Si Si1 0.974849 0.370076 0.512551
Si Si2 0.055344 0.622228 0.110293
Si Si3 0.911709 0.976915 0.785574
Si Si4 0.620233 0.938439 0.133518
Si Si5 0.631235 0.228272 0.073851
Si Si6 0.293221 0.234376 0.396257
Si Si7 0.804823 0.796607 0.246422
Si Si8 0.777738 0.163353 0.295267
O O1 0.156391 0.314457 0.415349
O O2 0.000000 0.500000 0.500000
O O3 0.949141 0.375812 0.704539
O O4 0.813310 0.275365 0.443159
O O5 0.907399 0.694264 0.128901
O O6 0.261339 0.674231 0.021816
O O7 0.000000 0.500000 0.000000
O O8 0.791826 0.899347 0.663976
O O9 0.062214 0.902824 0.747480
O O10 0.783736 0.974751 0.974191
O O11 0.022596 0.096836 0.743312
O O12 0.679591 0.842989 0.181639
O O13 0.608028 0.053036 0.287070
O O14 0.450195 0.879383 0.057672
O O15 0.471375 0.258301 0.244609
O O16 0.778884 0.208780 0.143240
O O17 0.305700 0.241502 0.579028
#
# Coordination Sequence:
#
# PCOD9085041 Si02
#       8
#     2   2   2   2   2   2   2   2
#     4  10  22  42  64  84 113 157 203 238 283 352
#     4  11  24  42  63  86 112 154 201 242 292 355
#     4   9  17  33  58  86 117 159 198 232 282 350
#     4  10  20  34  57  91 123 155 194 241 293 342
#     4  11  22  38  59  89 122 151 189 246 298 343
#     4   9  21  37  58  89 119 150 192 243 295 339
#     4  10  19  37  60  84 117 158 197 234 283 352
#     4  10  19  35  58  85 120 158 192 234 287 345
#
# _framework density 20.974526999999998
#
# number of rings (size 3 to 8) (size 9 to 14) (size 15 to 20)
#    0.000    2.000    0.000    4.500    0.000    5.000 
#    0.000   11.250    0.000    0.000    0.000    0.000 
#    0.000    0.000    0.000    0.000    0.000    0.000 
#
# Total GULP energy -89196.566195 kJ/mol
# GULP energy per Si atom -5574.785387 kJ/mol
# Density = 2.092679 g / cm^3
# Si number density = 20.974527 Si / 1000 Ang^3
#
#
#
# Elastic Constant Matrix: (Units=GPa)
#
#
# Indices 1 2 3 4 5 6 
#
# 1 53.6557 37.3691 38.6567 5.8074 8.1424 -2.2045
# 2 37.3691 132.1498 56.6178 25.3114 -2.8010 -4.9977
# 3 38.6567 56.6178 92.3312 17.8267 6.6009 3.0495
# 4 5.8074 25.3114 17.8267 37.1281 7.0628 7.1010
# 5 8.1424 -2.8010 6.6009 7.0628 28.5566 -0.3016
# 6 -2.2045 -4.9977 3.0495 7.1010 -0.3016 35.7661
#
#
#
# Elastic Compliance Matrix: (Units=1/GPa)
#
#
# Indices 1 2 3 4 5 6 
#
# 1 0.030160 -0.005490 -0.009684 0.005063 -0.008143 0.000844
# 2 -0.005490 0.012757 -0.004626 -0.007349 0.005739 0.003346
# 3 -0.009684 -0.004626 0.018573 -0.003633 -0.001109 -0.002115
# 4 0.005063 -0.007349 -0.003633 0.036348 -0.010396 -0.007709
# 5 -0.008143 0.005739 -0.001109 -0.010396 0.040760 0.002802
# 6 0.000844 0.003346 -0.002115 -0.007709 0.002802 0.030214
#
#
# Mechanical properties :
#
#
# Convention : Reuss Voigt Hill
#
# Bulk Modulus (GPa) = 45.68377 60.38043 53.03210
# Shear Modulus (GPa) = 23.17930 29.98968 26.58449
#
# Velocity S-wave (km/s) = 3.32794 3.78539 3.56401
# Velocity P-wave (km/s) = 6.04936 6.92500 6.50194
#
# Compressibility (1/GPa) = 0.02188961
#
# Stress axis : x y z
#
# Youngs Moduli (GPa) = 33.15619 78.38544 53.84291
#
# Poissons Ratio (x) = 0.43034 0.52141
# Poissons Ratio (y) = 0.18203 0.24909
# Poissons Ratio (z) = 0.32108 0.36264
#
# Static dielectric constant tensor:
#      x y z
#    x 1.818100 0.007830 0.014700 
#    y 0.007830 1.762130 0.021640 
#    z 0.014700 0.021640 1.805220 
# 
# From -- ./inp_files/181350.got.cif
#   From: 2010.05.17/outbox.cif.g08.bks.cpg/sg2_91_cif.got.tgz:181350.got - 2010.06.03 11:33:40.
