data_PCOD9085872
_publ_section_title
;
Structure prediction by ZEFSAII (Michael W. Deem and Ramdas Pophale) SiO2 
 PCOD9085872
Probable space group: P -1
;
_chemical_formula_sum "Si O2"
_cell_formula_units_Z 16
_cell_length_a 6.775844
_cell_length_b 11.125141
_cell_length_c 10.997762
_cell_angle_alpha 99.735760
_cell_angle_beta 89.140756
_cell_angle_gamma 48.290855
_cell_volume 600.758807
_symmetry_space_group_name_H-M "P -1"
_symmetry_group_IT_number 2
_symmetry_cell_setting 'triclinic'
loop_
_space_group_symop_operation_xyz
x,y,z
-x,-y,-z
loop_
_atom_site_type_symbol
_atom_site_label
_atom_site_fract_x
_atom_site_fract_y
_atom_site_fract_z
Si Si1 0.447303 0.683012 0.258734
Si Si2 0.600015 0.185950 0.160553
Si Si3 0.753477 0.397408 0.568343
Si Si4 0.974437 0.181794 0.316995
Si Si5 0.535261 0.999602 0.292086
Si Si6 0.007675 0.375800 0.149568
Si Si7 0.762634 0.297487 0.969939
Si Si8 0.283953 0.254256 0.559060
O O1 0.503609 0.738771 0.387970
O O2 0.368265 0.584849 0.299030
O O3 0.742085 0.568590 0.176319
O O4 0.229138 0.776034 0.170616
O O5 0.738326 0.196940 0.273698
O O6 0.624004 0.035079 0.177955
O O7 0.735525 0.198836 0.049558
O O8 0.284827 0.327726 0.156817
O O9 0.500000 0.500000 0.500000
O O10 0.936712 0.219762 0.466981
O O11 0.967464 0.417748 0.574500
O O12 0.961893 0.311713 0.259761
O O13 0.284337 0.015858 0.264709
O O14 0.407159 0.150095 0.415593
O O15 0.729871 0.840293 0.347387
O O16 0.990539 0.291477 0.020574
O O17 0.500000 0.500000 0.000000
#
# Coordination Sequence:
#
# PCOD9085872 Si02
#       8
#     2   2   2   2   2   2   2   2
#     4  11  22  35  54  84 119 153 184 233 295 340
#     4  10  19  35  64  81 108 161 192 231 289 335
#     4  11  22  35  55  86 123 147 180 235 297 349
#     4   9  18  35  57  86 112 147 188 238 278 343
#     4   9  20  41  58  84 114 149 205 234 272 334
#     4   9  19  34  56  84 115 146 189 235 282 346
#     4   9  21  37  53  84 120 149 192 240 281 340
#     4  10  23  38  59  85 117 154 190 240 278 341
#
# _framework density 26.632982999999999
#
# number of rings (size 3 to 8) (size 9 to 14) (size 15 to 20)
#    0.000    2.250    1.250    0.750    1.750    4.500 
#    0.000    4.375    0.000    7.500    0.000    0.000 
#    0.000    0.000    0.000    0.000    0.000    0.000 
#
# Total GULP energy -89220.454025 kJ/mol
# GULP energy per Si atom -5576.278377 kJ/mol
# Density = 2.657236 g / cm^3
# Si number density = 26.632983 Si / 1000 Ang^3
#
#
#
# Elastic Constant Matrix: (Units=GPa)
#
#
# Indices 1 2 3 4 5 6 
#
# 1 154.2716 29.6344 35.9078 -10.1341 32.3377 -17.5568
# 2 29.6344 47.6195 19.3357 -10.2694 0.8863 -10.1085
# 3 35.9078 19.3357 93.9916 -17.5704 34.6021 5.8247
# 4 -10.1341 -10.2694 -17.5704 38.1899 5.5878 1.6019
# 5 32.3377 0.8863 34.6021 5.5878 38.4087 -13.2534
# 6 -17.5568 -10.1085 5.8247 1.6019 -13.2534 39.1952
#
#
#
# Elastic Compliance Matrix: (Units=1/GPa)
#
#
# Indices 1 2 3 4 5 6 
#
# 1 0.009538 -0.006416 0.002786 0.003864 -0.011603 -0.001877
# 2 -0.006416 0.033374 -0.015296 -0.004074 0.024708 0.016527
# 3 0.002786 -0.015296 0.033609 0.019352 -0.043035 -0.023034
# 4 0.003864 -0.004074 0.019352 0.040225 -0.031439 -0.014470
# 5 -0.011603 0.024708 -0.043035 -0.031439 0.092416 0.040105
# 6 -0.001877 0.016527 -0.023034 -0.014470 0.040105 0.046510
#
#
# Mechanical properties :
#
#
# Convention : Reuss Voigt Hill
#
# Bulk Modulus (GPa) = 25.86087 51.73761 38.79924
# Shear Modulus (GPa) = 16.31771 37.22574 26.77173
#
# Velocity S-wave (km/s) = 2.47794 3.74268 3.17394
# Velocity P-wave (km/s) = 4.23298 6.17618 5.29449
#
# Compressibility (1/GPa) = 0.03866846
#
# Stress axis : x y z
#
# Youngs Moduli (GPa) = 104.83947 29.96375 29.75357
#
# Poissons Ratio (x) = 0.19226 -0.08289
# Poissons Ratio (y) = 0.67270 0.45511
# Poissons Ratio (z) = -0.29208 0.45833
#
# Static dielectric constant tensor:
#      x y z
#    x 2.082590 0.000220 0.015120 
#    y 0.000220 2.229620 0.073350 
#    z 0.015120 0.073350 2.093610 
# 
# From -- ./inp_files/364771.got.cif
#   From: 2010.05.17/outbox.cif.g08.bks.cpg/sg2_183_cif.got.tgz:364771.got - 2010.06.03 11:33:40.
