data_PCOD9085215
_publ_section_title
;
Structure prediction by ZEFSAII (Michael W. Deem and Ramdas Pophale) SiO2 
 PCOD9085215
Probable space group: P -1
;
_chemical_formula_sum "Si O2"
_cell_formula_units_Z 16
_cell_length_a 19.231597
_cell_length_b 9.249602
_cell_length_c 8.173648
_cell_angle_alpha 79.866649
_cell_angle_beta 136.137735
_cell_angle_gamma 126.944268
_cell_volume 712.939800
_symmetry_space_group_name_H-M "P -1"
_symmetry_group_IT_number 2
_symmetry_cell_setting 'triclinic'
loop_
_space_group_symop_operation_xyz
x,y,z
-x,-y,-z
loop_
_atom_site_type_symbol
_atom_site_label
_atom_site_fract_x
_atom_site_fract_y
_atom_site_fract_z
Si Si1 0.489230 0.778137 0.187775
Si Si2 0.348690 0.403000 0.214233
Si Si3 0.246599 0.021261 0.595139
Si Si4 0.713619 0.989176 0.818673
Si Si5 0.053475 0.023988 0.405885
Si Si6 0.152523 0.427912 0.001681
Si Si7 0.278634 0.803327 0.910289
Si Si8 0.963269 0.209913 0.009166
O O1 0.376521 0.535523 0.080221
O O2 0.594155 0.897599 0.499013
O O3 0.401432 0.837873 0.023469
O O4 0.592436 0.838116 0.205903
O O5 0.500000 0.500000 0.500000
O O6 0.268242 0.168752 0.101763
O O7 0.283826 0.448380 0.229079
O O8 0.158531 0.960658 0.292553
O O9 0.199544 0.819604 0.637823
O O10 0.208237 0.116016 0.629208
O O11 0.670812 0.025573 0.905005
O O12 0.867532 0.198933 0.979081
O O13 0.958194 0.792503 0.227925
O O14 0.031356 0.140933 0.229122
O O15 0.000000 0.000000 0.500000
O O16 0.084507 0.402640 0.064365
O O17 0.193155 0.599718 0.914515
#
# Coordination Sequence:
#
# PCOD9085215 Si02
#       8
#     2   2   2   2   2   2   2   2
#     4   9  20  37  58  83 116 159 200 235 287 350
#     4   9  18  32  60  85 111 151 201 238 284 338
#     4  10  21  36  61  82 117 162 192 235 296 349
#     4  10  19  35  59  86 117 152 199 240 295 336
#     4  11  22  38  63  89 116 147 194 255 292 339
#     4  10  21  37  59  85 121 154 195 235 291 350
#     4  11  22  37  57  86 124 158 192 239 292 347
#     4  10  21  37  62  86 116 149 198 244 287 350
#
# _framework density 22.442285999999999
#
# number of rings (size 3 to 8) (size 9 to 14) (size 15 to 20)
#    0.000    2.000    1.250    3.000    3.500    2.500 
#    0.000    3.125    2.750    0.000    0.000    0.000 
#    0.000    0.000    0.000    0.000    0.000    0.000 
#
# Total GULP energy -89219.074569 kJ/mol
# GULP energy per Si atom -5576.192161 kJ/mol
# Density = 2.239121 g / cm^3
# Si number density = 22.442286 Si / 1000 Ang^3
#
#
#
# Elastic Constant Matrix: (Units=GPa)
#
#
# Indices 1 2 3 4 5 6 
#
# 1 147.8815 37.4142 32.9255 -13.2595 28.3083 21.9795
# 2 37.4142 95.8538 20.7936 -26.8084 7.7852 10.8827
# 3 32.9255 20.7936 64.8921 -29.6867 13.3215 2.1332
# 4 -13.2595 -26.8084 -29.6867 30.8510 2.6848 4.7790
# 5 28.3083 7.7852 13.3215 2.6848 30.3561 3.2771
# 6 21.9795 10.8827 2.1332 4.7790 3.2771 33.1280
#
#
#
# Elastic Compliance Matrix: (Units=1/GPa)
#
#
# Indices 1 2 3 4 5 6 
#
# 1 0.010167 -0.001287 -0.001035 0.003913 -0.008396 -0.005990
# 2 -0.001287 0.017677 0.008302 0.024794 -0.008279 -0.008245
# 3 -0.001035 0.008302 0.040847 0.049513 -0.022432 -0.009594
# 4 0.003913 0.024794 0.049513 0.110692 -0.038712 -0.026068
# 5 -0.008396 -0.008279 -0.022432 -0.038712 0.055098 0.009869
# 6 -0.005990 -0.008245 -0.009594 -0.026068 0.009869 0.040271
#
#
# Mechanical properties :
#
#
# Convention : Reuss Voigt Hill
#
# Bulk Modulus (GPa) = 12.39935 54.54377 33.47156
# Shear Modulus (GPa) = 17.26074 33.36665 25.31370
#
# Velocity S-wave (km/s) = 2.77630 3.86006 3.36213
# Velocity P-wave (km/s) = 3.97670 6.65007 5.47894
#
# Compressibility (1/GPa) = 0.08064942
#
# Stress axis : x y z
#
# Youngs Moduli (GPa) = 98.36074 56.57090 24.48175
#
# Poissons Ratio (x) = 0.07283 0.02535
# Poissons Ratio (y) = 0.12662 -0.20325
# Poissons Ratio (z) = 0.10184 -0.46966
#
# Static dielectric constant tensor:
#      x y z
#    x 1.922070 0.061220 0.037090 
#    y 0.061220 1.876140 0.013130 
#    z 0.037090 0.013130 1.841500 
# 
# From -- ./inp_files/327446.got.cif
#   From: 2010.05.17/outbox.cif.g08.bks.cpg/sg2_164_cif.got.tgz:327446.got - 2010.06.03 11:33:40.
