data_PCOD9085537
_publ_section_title
;
Structure prediction by ZEFSAII (Michael W. Deem and Ramdas Pophale) SiO2 
 PCOD9085537
Probable space group: P -1
;
_chemical_formula_sum "Si O2"
_cell_formula_units_Z 16
_cell_length_a 6.760897
_cell_length_b 7.239322
_cell_length_c 18.305705
_cell_angle_alpha 123.744244
_cell_angle_beta 115.206149
_cell_angle_gamma 85.351794
_cell_volume 659.513445
_symmetry_space_group_name_H-M "P -1"
_symmetry_group_IT_number 2
_symmetry_cell_setting 'triclinic'
loop_
_space_group_symop_operation_xyz
x,y,z
-x,-y,-z
loop_
_atom_site_type_symbol
_atom_site_label
_atom_site_fract_x
_atom_site_fract_y
_atom_site_fract_z
Si Si1 0.165927 0.767907 0.767453
Si Si2 0.780469 0.990113 0.796534
Si Si3 0.678795 0.345424 0.385806
Si Si4 0.800478 0.133424 0.501324
Si Si5 0.577197 0.300053 0.628121
Si Si6 0.512202 0.269238 0.068476
Si Si7 0.468110 0.795243 0.099018
Si Si8 0.711320 0.431901 0.837053
O O1 0.177073 0.659317 0.666036
O O2 0.301900 0.654104 0.823076
O O3 0.305355 0.025521 0.836334
O O4 0.934940 0.812200 0.770358
O O5 0.725651 0.061475 0.885092
O O6 0.860315 0.239318 0.825371
O O7 0.539396 0.859357 0.700243
O O8 0.800091 0.293250 0.466438
O O9 0.579526 0.572359 0.417061
O O10 0.783918 0.265792 0.603434
O O11 0.571371 0.941644 0.424281
O O12 0.000000 0.000000 0.500000
O O13 0.644688 0.433410 0.743149
O O14 0.274652 0.320311 0.070903
O O15 0.585841 0.344260 0.014205
O O16 0.500000 0.000000 0.000000
O O17 0.471050 0.678277 0.153010
#
# Coordination Sequence:
#
# PCOD9085537 Si02
#       8
#     2   2   2   2   2   2   2   2
#     4  10  19  35  61  86 118 159 203 251 297 363
#     4   9  21  36  60  87 119 161 201 249 303 359
#     4  11  22  42  63  91 127 157 201 254 310 360
#     4  11  26  42  66  95 123 158 207 250 305 375
#     4  11  23  43  64  90 128 162 200 255 308 361
#     4  10  19  35  61  87 120 163 204 254 305 351
#     4   8  19  35  56  80 122 156 198 246 303 346
#     4  10  19  39  60  84 123 167 197 247 310 356
#
# _framework density 24.260308999999999
#
# number of rings (size 3 to 8) (size 9 to 14) (size 15 to 20)
#    0.750    1.250    2.500    0.750    1.750    2.000 
#    0.000    2.500    0.000    0.000    0.000    0.000 
#    0.000    0.000    0.000    0.000    0.000    0.000 
#
# Total GULP energy -89147.419204 kJ/mol
# GULP energy per Si atom -5571.713700 kJ/mol
# Density = 2.420509 g / cm^3
# Si number density = 24.260309 Si / 1000 Ang^3
#
#
#
# Elastic Constant Matrix: (Units=GPa)
#
#
# Indices 1 2 3 4 5 6 
#
# 1 98.1708 28.1845 63.1472 -9.8172 -34.0547 -24.1869
# 2 28.1845 125.6616 38.7101 -25.4199 -22.2451 -13.0073
# 3 63.1472 38.7101 123.7845 -18.5911 -44.5545 -6.3291
# 4 -9.8172 -25.4199 -18.5911 46.4173 1.6032 -12.8256
# 5 -34.0547 -22.2451 -44.5545 1.6032 33.2946 12.4276
# 6 -24.1869 -13.0073 -6.3291 -12.8256 12.4276 34.1921
#
#
#
# Elastic Compliance Matrix: (Units=1/GPa)
#
#
# Indices 1 2 3 4 5 6 
#
# 1 0.020590 0.001355 -0.006432 0.005862 0.008180 0.013115
# 2 0.001355 0.010903 -0.000960 0.007345 0.004817 0.005933
# 3 -0.006432 -0.000960 0.019540 0.002941 0.021819 -0.008125
# 4 0.005862 0.007345 0.002941 0.032494 0.006862 0.017180
# 5 0.008180 0.004817 0.021819 0.006862 0.075405 -0.013176
# 6 0.013115 0.005933 -0.008125 0.017180 -0.013176 0.050510
#
#
# Mechanical properties :
#
#
# Convention : Reuss Voigt Hill
#
# Bulk Modulus (GPa) = 25.66960 67.52228 46.59594
# Shear Modulus (GPa) = 21.32184 37.28581 29.30383
#
# Velocity S-wave (km/s) = 2.96780 3.92459 3.47924
# Velocity P-wave (km/s) = 4.72733 6.95912 5.94883
#
# Compressibility (1/GPa) = 0.03895659
#
# Stress axis : x y z
#
# Youngs Moduli (GPa) = 48.56780 91.72207 51.17807
#
# Poissons Ratio (x) = -0.12426 0.32918
# Poissons Ratio (y) = -0.06580 0.04915
# Poissons Ratio (z) = 0.31239 0.08808
#
# Static dielectric constant tensor:
#      x y z
#    x 1.965050 -0.032600 0.014450 
#    y -0.032600 2.221620 0.073090 
#    z 0.014450 0.073090 1.984430 
# 
# From -- ./inp_files/546719.got.cif
#   From: 2010.05.17/outbox.cif.g08.bks.cpg/sg2_274_cif.got.tgz:546719.got - 2010.06.03 11:33:40.
