data_PCOD9085309
_publ_section_title
;
Structure prediction by ZEFSAII (Michael W. Deem and Ramdas Pophale) SiO2 
 PCOD9085309
Probable space group: P -1
;
_chemical_formula_sum "Si O2"
_cell_formula_units_Z 16
_cell_length_a 12.593310
_cell_length_b 15.860232
_cell_length_c 9.301536
_cell_angle_alpha 34.125586
_cell_angle_beta 57.790723
_cell_angle_gamma 73.017569
_cell_volume 837.190529
_symmetry_space_group_name_H-M "P -1"
_symmetry_group_IT_number 2
_symmetry_cell_setting 'triclinic'
loop_
_space_group_symop_operation_xyz
x,y,z
-x,-y,-z
loop_
_atom_site_type_symbol
_atom_site_label
_atom_site_fract_x
_atom_site_fract_y
_atom_site_fract_z
Si Si1 0.685163 0.695484 0.419786
Si Si2 0.784399 0.317849 0.434231
Si Si3 0.231964 0.276115 0.360448
Si Si4 0.432115 0.527974 0.656463
Si Si5 0.048834 0.369750 0.730885
Si Si6 0.911620 0.001823 0.346445
Si Si7 0.021801 0.442509 0.249373
Si Si8 0.183932 0.983190 0.295176
O O1 0.691019 0.723537 0.547189
O O2 0.544298 0.599009 0.594131
O O3 0.796837 0.612132 0.418424
O O4 0.731103 0.861833 0.068471
O O5 0.648199 0.352590 0.498879
O O6 0.768088 0.164816 0.566460
O O7 0.878305 0.314837 0.505668
O O8 0.989749 0.589916 0.138757
O O9 0.117728 0.525350 0.932867
O O10 0.159215 0.106274 0.581723
O O11 0.328251 0.378123 0.022834
O O12 0.500000 0.500000 0.500000
O O13 0.117539 0.354349 0.376098
O O14 0.000000 0.500000 0.500000
O O15 0.970125 0.188387 0.006391
O O16 0.820344 0.985342 0.576626
O O17 0.035125 0.947923 0.389449
#
# Coordination Sequence:
#
# PCOD9085309 Si02
#       8
#     2   2   2   2   2   2   2   2
#     4  11  24  38  60  91 126 163 200 242 314 364
#     4  10  20  35  64  86 119 155 206 253 292 357
#     4  11  22  40  63  87 125 158 199 256 304 366
#     4  11  24  42  63  86 119 167 210 247 296 364
#     4  11  21  36  61  90 126 155 194 255 307 368
#     4  10  21  36  60  93 126 156 201 251 312 348
#     4  10  19  35  59  95 115 151 202 249 310 344
#     4  10  20  36  61  91 125 158 199 256 299 362
#
# _framework density 19.111540000000002
#
# number of rings (size 3 to 8) (size 9 to 14) (size 15 to 20)
#    0.000    1.500    3.750    1.875    0.000    3.500 
#    0.000    0.000    0.000    2.250    0.000    0.000 
#    0.000    0.000    0.000    0.000    0.000    0.000 
#
# Total GULP energy -89172.188609 kJ/mol
# GULP energy per Si atom -5573.261788 kJ/mol
# Density = 1.906804 g / cm^3
# Si number density = 19.111540 Si / 1000 Ang^3
#
#
#
# Elastic Constant Matrix: (Units=GPa)
#
#
# Indices 1 2 3 4 5 6 
#
# 1 94.5843 53.3573 20.6808 -8.5298 -9.8210 -4.3132
# 2 53.3573 119.9826 30.1218 -7.7366 -14.1867 -11.9069
# 3 20.6808 30.1218 48.4144 0.6698 1.5674 -9.4519
# 4 -8.5298 -7.7366 0.6698 27.0338 3.9453 -1.7869
# 5 -9.8210 -14.1867 1.5674 3.9453 25.9911 -2.5944
# 6 -4.3132 -11.9069 -9.4519 -1.7869 -2.5944 32.8034
#
#
#
# Elastic Compliance Matrix: (Units=1/GPa)
#
#
# Indices 1 2 3 4 5 6 
#
# 1 0.014770 -0.005361 -0.003204 0.002822 0.002361 -0.000587
# 2 -0.005361 0.013160 -0.005512 0.001601 0.005547 0.003010
# 3 -0.003204 -0.005512 0.026566 -0.002203 -0.005016 0.004716
# 4 0.002822 0.001601 -0.002203 0.039068 -0.003642 0.002157
# 5 0.002361 0.005547 -0.005016 -0.003642 0.043663 0.004134
# 6 -0.000587 0.003010 0.004716 0.002157 0.004134 0.033303
#
#
# Mechanical properties :
#
#
# Convention : Reuss Voigt Hill
#
# Bulk Modulus (GPa) = 37.96031 52.36678 45.16355
# Shear Modulus (GPa) = 24.10032 27.75377 25.92705
#
# Velocity S-wave (km/s) = 3.55496 3.81491 3.68722
# Velocity P-wave (km/s) = 6.06267 6.84579 6.46609
#
# Compressibility (1/GPa) = 0.02634330
#
# Stress axis : x y z
#
# Youngs Moduli (GPa) = 67.70287 75.98598 37.64141
#
# Poissons Ratio (x) = 0.40738 0.12059
# Poissons Ratio (y) = 0.36297 0.20748
# Poissons Ratio (z) = 0.21690 0.41883
#
# Static dielectric constant tensor:
#      x y z
#    x 1.764820 0.060770 0.047090 
#    y 0.060770 1.710300 0.047730 
#    z 0.047090 0.047730 1.688470 
# 
# From -- ./inp_files/201983.got.cif
#   From: 2010.05.17/outbox.cif.g08.bks.cpg/sg2_101_cif.got.tgz:201983.got - 2010.06.03 11:33:40.
