data_PCOD9085769
_publ_section_title
;
Structure prediction by ZEFSAII (Michael W. Deem and Ramdas Pophale) SiO2 
 PCOD9085769
Probable space group: P -1
;
_chemical_formula_sum "Si O2"
_cell_formula_units_Z 12
_cell_length_a 8.458118
_cell_length_b 11.909836
_cell_length_c 9.731649
_cell_angle_alpha 143.785515
_cell_angle_beta 108.501951
_cell_angle_gamma 85.008220
_cell_volume 523.655641
_symmetry_space_group_name_H-M "P -1"
_symmetry_group_IT_number 2
_symmetry_cell_setting 'triclinic'
loop_
_space_group_symop_operation_xyz
x,y,z
-x,-y,-z
loop_
_atom_site_type_symbol
_atom_site_label
_atom_site_fract_x
_atom_site_fract_y
_atom_site_fract_z
Si Si1 0.061005 0.098757 0.260471
Si Si2 0.347564 0.497198 0.769044
Si Si3 0.877378 0.743678 0.007767
Si Si4 0.494985 0.285226 0.223623
Si Si5 0.782616 0.291174 0.495392
Si Si6 0.731794 0.469995 0.920548
O O1 0.238620 0.277024 0.472897
O O2 0.923587 0.200802 0.384544
O O3 0.046865 0.915935 0.179598
O O4 0.000000 0.000000 0.000000
O O5 0.378575 0.661740 0.821884
O O6 0.259141 0.547317 0.932179
O O7 0.539866 0.484488 0.846317
O O8 0.859234 0.675765 0.094929
O O9 0.704104 0.803152 0.970947
O O10 0.851943 0.529900 0.717369
O O11 0.500000 0.500000 0.500000
O O12 0.593529 0.198356 0.281024
O O13 0.761760 0.298742 0.662079
#
# Coordination Sequence:
#
# PCOD9085769 Si02
#       6
#     2   2   2   2   2   2
#     4  12  24  33  57  93 118 141 189 245 283 328
#     4  10  19  35  63  84 112 148 197 231 275 340
#     4   8  19  37  56  83 114 148 186 232 285 330
#     4   9  15  34  60  80 111 150 185 226 274 339
#     4   9  20  38  60  80 115 156 188 222 294 337
#     4   8  19  40  62  77 107 166 188 222 284 340
#
# _framework density 22.915824000000001
#
# number of rings (size 3 to 8) (size 9 to 14) (size 15 to 20)
#    1.000    1.667    1.667    2.000    0.000    4.667 
#    0.000    0.000    3.667    3.000    0.000    0.000 
#    0.000    0.000    0.000    0.000    0.000    0.000 
#
# Total GULP energy -66914.089031 kJ/mol
# GULP energy per Si atom -5576.174086 kJ/mol
# Density = 2.286367 g / cm^3
# Si number density = 22.915824 Si / 1000 Ang^3
#
#
#
# Elastic Constant Matrix: (Units=GPa)
#
#
# Indices 1 2 3 4 5 6 
#
# 1 50.3610 26.3485 28.4260 -8.6740 -10.4357 8.4251
# 2 26.3485 68.0530 32.7517 -18.9797 -5.9929 26.1578
# 3 28.4260 32.7517 71.1440 -7.0651 -0.8868 13.1330
# 4 -8.6740 -18.9797 -7.0651 37.0495 10.3816 -1.6520
# 5 -10.4357 -5.9929 -0.8868 10.3816 42.7610 -1.9332
# 6 8.4251 26.1578 13.1330 -1.6520 -1.9332 37.1250
#
#
#
# Elastic Compliance Matrix: (Units=1/GPa)
#
#
# Indices 1 2 3 4 5 6 
#
# 1 0.029608 -0.007597 -0.008650 -0.000238 0.006130 0.002002
# 2 -0.007597 0.030779 -0.006771 0.012342 -0.001450 -0.017094
# 3 -0.008650 -0.006771 0.020645 -0.000904 -0.002445 -0.000737
# 4 -0.000238 0.012342 -0.000904 0.034759 -0.007109 -0.007146
# 5 0.006130 -0.001450 -0.002445 -0.007109 0.026424 0.001555
# 6 0.002002 -0.017094 -0.000737 -0.007146 0.001555 0.038550
#
#
# Mechanical properties :
#
#
# Convention : Reuss Voigt Hill
#
# Bulk Modulus (GPa) = 28.57365 40.51226 34.54296
# Shear Modulus (GPa) = 20.96750 30.18921 25.57835
#
# Velocity S-wave (km/s) = 3.02814 3.63353 3.34456
# Velocity P-wave (km/s) = 4.97215 5.94311 5.47918
#
# Compressibility (1/GPa) = 0.03499728
#
# Stress axis : x y z
#
# Youngs Moduli (GPa) = 33.77503 32.48946 48.43821
#
# Poissons Ratio (x) = 0.24681 0.41897
# Poissons Ratio (y) = 0.25657 0.32798
# Poissons Ratio (z) = 0.29214 0.21999
#
# Static dielectric constant tensor:
#      x y z
#    x 1.877200 0.012670 0.011630 
#    y 0.012670 1.915450 -0.005250 
#    z 0.011630 -0.005250 1.871260 
# 
# From -- ./inp_files/289785.got.cif
#   From: 2010.05.17/outbox.cif.g08.bks.cpg/sg2_145_cif.got.tgz:289785.got - 2010.06.03 11:33:40.
