data_PCOD9085113
_publ_section_title
;
Structure prediction by ZEFSAII (Michael W. Deem and Ramdas Pophale) SiO2 
 PCOD9085113
Probable space group: P -1
;
_chemical_formula_sum "Si O2"
_cell_formula_units_Z 16
_cell_length_a 11.976929
_cell_length_b 8.653443
_cell_length_c 10.815317
_cell_angle_alpha 42.407437
_cell_angle_beta 63.406392
_cell_angle_gamma 84.879160
_cell_volume 619.506097
_symmetry_space_group_name_H-M "P -1"
_symmetry_group_IT_number 2
_symmetry_cell_setting 'triclinic'
loop_
_space_group_symop_operation_xyz
x,y,z
-x,-y,-z
loop_
_atom_site_type_symbol
_atom_site_label
_atom_site_fract_x
_atom_site_fract_y
_atom_site_fract_z
Si Si1 0.171696 0.726319 0.602744
Si Si2 0.085564 0.091826 0.590703
Si Si3 0.788146 0.354409 0.835538
Si Si4 0.719897 0.867237 0.298448
Si Si5 0.906716 0.808231 0.054737
Si Si6 0.497980 0.686294 0.993425
Si Si7 0.660907 0.034051 0.865580
Si Si8 0.448958 0.851966 0.486361
O O1 0.065519 0.442026 0.815182
O O2 0.248721 0.798083 0.390754
O O3 0.287259 0.711374 0.648393
O O4 0.119921 0.932198 0.560431
O O5 0.095018 0.367272 0.385069
O O6 0.195862 0.135392 0.620337
O O7 0.946596 0.929937 0.828058
O O8 0.763928 0.155670 0.854169
O O9 0.761123 0.164551 0.075022
O O10 0.657355 0.414694 0.833487
O O11 0.762494 0.744848 0.231686
O O12 0.557924 0.734318 0.475238
O O13 0.000000 0.000000 0.000000
O O14 0.613902 0.754072 0.999398
O O15 0.525977 0.943912 0.755232
O O16 0.500000 0.500000 0.000000
O O17 0.500000 0.000000 0.000000
O O18 0.500000 0.000000 0.500000
#
# Coordination Sequence:
#
# PCOD9085113 Si02
#       8
#     2   2   2   2   2   2   2   2
#     4  11  21  39  66  95 126 165 216 261 320 381
#     4  11  22  41  69  89 125 171 215 263 314 366
#     4  10  20  37  61  88 124 164 208 261 312 371
#     4  10  22  40  62  96 129 164 211 255 321 387
#     4  10  23  42  63  90 125 172 218 260 309 372
#     4   9  18  32  53  84 122 164 204 244 310 381
#     4   9  18  33  54  85 126 161 202 248 310 383
#     4  10  19  35  58  93 126 156 196 259 320 372
#
# _framework density 25.827026
#
# number of rings (size 3 to 8) (size 9 to 14) (size 15 to 20)
#    0.000    2.000    1.250    4.125    0.000    1.000 
#    2.250    2.500    0.000    4.500    0.000    0.000 
#    0.000    0.000    0.000    0.000    0.000    0.000 
#
# Total GULP energy -89151.339718 kJ/mol
# GULP energy per Si atom -5571.958732 kJ/mol
# Density = 2.576824 g / cm^3
# Si number density = 25.827026 Si / 1000 Ang^3
#
#
#
# Elastic Constant Matrix: (Units=GPa)
#
#
# Indices 1 2 3 4 5 6 
#
# 1 60.9065 20.9398 13.3067 -4.7774 0.7004 -13.1928
# 2 20.9398 119.4032 38.0152 -4.2675 -3.3401 -0.2324
# 3 13.3067 38.0152 143.6140 -12.1567 5.6953 2.0517
# 4 -4.7774 -4.2675 -12.1567 35.4305 -1.5582 -1.4143
# 5 0.7004 -3.3401 5.6953 -1.5582 32.3645 4.8140
# 6 -13.1928 -0.2324 2.0517 -1.4143 4.8140 34.6431
#
#
#
# Elastic Compliance Matrix: (Units=1/GPa)
#
#
# Indices 1 2 3 4 5 6 
#
# 1 0.019554 -0.003111 -0.000847 0.002210 -0.001648 0.007795
# 2 -0.003111 0.009706 -0.002332 -0.000026 0.001659 -0.001213
# 3 -0.000847 -0.002332 0.007912 0.002236 -0.001430 -0.000517
# 4 0.002210 -0.000026 0.002236 0.029390 0.000702 0.001811
# 5 -0.001648 0.001659 -0.001430 0.000702 0.032129 -0.004968
# 6 0.007795 -0.001213 -0.000517 0.001811 -0.004968 0.032621
#
#
# Mechanical properties :
#
#
# Convention : Reuss Voigt Hill
#
# Bulk Modulus (GPa) = 40.66349 52.04968 46.35658
# Shear Modulus (GPa) = 32.87526 37.26509 35.07017
#
# Velocity S-wave (km/s) = 3.57164 3.80264 3.68895
# Velocity P-wave (km/s) = 5.72605 6.28307 6.01101
#
# Compressibility (1/GPa) = 0.02459209
#
# Stress axis : x y z
#
# Youngs Moduli (GPa) = 51.13986 103.02832 126.38763
#
# Poissons Ratio (x) = 0.32057 0.10707
# Poissons Ratio (y) = 0.15912 0.29468
# Poissons Ratio (z) = 0.04332 0.24022
#
# Static dielectric constant tensor:
#      x y z
#    x 2.217760 -0.020120 -0.029040 
#    y -0.020120 2.243730 -0.017470 
#    z -0.029040 -0.017470 2.071870 
# 
# From -- ./inp_files/446619.got.cif
#   From: 2010.05.17/outbox.cif.g08.bks.cpg/sg2_224_cif.got.tgz:446619.got - 2010.06.03 11:33:40.
