data_PCOD9085616
_publ_section_title
;
Structure prediction by ZEFSAII (Michael W. Deem and Ramdas Pophale) SiO2 
 PCOD9085616
Probable space group: P -1
;
_chemical_formula_sum "Si O2"
_cell_formula_units_Z 16
_cell_length_a 8.681525
_cell_length_b 23.427635
_cell_length_c 10.419541
_cell_angle_alpha 144.839168
_cell_angle_beta 42.771346
_cell_angle_gamma 149.274405
_cell_volume 619.995711
_symmetry_space_group_name_H-M "P -1"
_symmetry_group_IT_number 2
_symmetry_cell_setting 'triclinic'
loop_
_space_group_symop_operation_xyz
x,y,z
-x,-y,-z
loop_
_atom_site_type_symbol
_atom_site_label
_atom_site_fract_x
_atom_site_fract_y
_atom_site_fract_z
Si Si1 0.698172 0.502382 0.276142
Si Si2 0.046694 0.863864 0.106362
Si Si3 0.750320 0.850578 0.819503
Si Si4 0.595418 0.147067 0.362902
Si Si5 0.833126 0.412873 0.641673
Si Si6 0.039745 0.658943 0.827246
Si Si7 0.070941 0.765102 0.405082
Si Si8 0.428673 0.225917 0.943311
O O1 0.500000 0.500000 0.500000
O O2 0.975858 0.542223 0.263471
O O3 0.802692 0.608426 0.299061
O O4 0.551755 0.361110 0.052108
O O5 0.832122 0.877236 0.185146
O O6 0.286626 0.997938 0.281867
O O7 0.212561 0.852396 0.865826
O O8 0.925771 0.738229 0.035089
O O9 0.410594 0.775823 0.838811
O O10 0.931853 0.830384 0.577314
O O11 0.676395 0.768935 0.844287
O O12 0.000000 0.000000 0.000000
O O13 0.566915 0.255085 0.541626
O O14 0.769852 0.185517 0.460985
O O15 0.998522 0.406315 0.407236
O O16 0.858873 0.534996 0.808026
O O17 0.332567 0.791627 0.209832
#
# Coordination Sequence:
#
# PCOD9085616 Si02
#       8
#     2   2   2   2   2   2   2   2
#     4  11  18  39  66  95 123 166 218 264 315 380
#     4  10  20  36  65  92 120 169 215 257 318 380
#     4  12  25  42  66  92 131 175 208 263 325 382
#     4   9  18  36  61  89 121 163 217 258 306 382
#     4   9  18  31  58  90 119 159 209 258 312 374
#     4  10  19  35  61  93 122 164 212 256 319 381
#     4  11  23  40  66  97 128 164 218 265 317 379
#     4  12  24  40  67  97 127 166 216 266 318 384
#
# _framework density 25.806629000000001
#
# number of rings (size 3 to 8) (size 9 to 14) (size 15 to 20)
#    0.000    1.500    3.750    2.625    3.500    2.000 
#    0.000    0.000    8.250    3.750    0.000    0.000 
#    0.000    0.000    0.000    0.000    0.000    0.000 
#
# Total GULP energy -89348.180505 kJ/mol
# GULP energy per Si atom -5584.261282 kJ/mol
# Density = 2.574789 g / cm^3
# Si number density = 25.806629 Si / 1000 Ang^3
#
#
#
# Elastic Constant Matrix: (Units=GPa)
#
#
# Indices 1 2 3 4 5 6 
#
# 1 68.0510 17.1373 13.6656 4.7023 -11.9408 7.8455
# 2 17.1373 38.3719 30.9831 11.1516 -14.6393 1.3133
# 3 13.6656 30.9831 80.3729 -6.2462 -16.7314 5.9490
# 4 4.7023 11.1516 -6.2462 41.8940 3.2858 -8.6554
# 5 -11.9408 -14.6393 -16.7314 3.2858 36.6060 2.7002
# 6 7.8455 1.3133 5.9490 -8.6554 2.7002 27.4590
#
#
#
# Elastic Compliance Matrix: (Units=1/GPa)
#
#
# Indices 1 2 3 4 5 6 
#
# 1 0.017630 -0.005860 0.000423 -0.001896 0.004203 -0.005859
# 2 -0.005860 0.053782 -0.018094 -0.018228 0.013260 -0.004028
# 3 0.000423 -0.018094 0.020376 0.007364 0.001666 -0.001512
# 4 -0.001896 -0.018228 0.007364 0.032963 -0.008315 0.011026
# 5 0.004203 0.013260 0.001666 -0.008315 0.036117 -0.008368
# 6 -0.005859 -0.004028 -0.001512 0.011026 -0.008368 0.042911
#
#
# Mechanical properties :
#
#
# Convention : Reuss Voigt Hill
#
# Bulk Modulus (GPa) = 22.35884 34.48530 28.42207
# Shear Modulus (GPa) = 18.81469 29.52580 24.17025
#
# Velocity S-wave (km/s) = 2.70305 3.38615 3.06370
# Velocity P-wave (km/s) = 4.29241 5.35537 4.85308
#
# Compressibility (1/GPa) = 0.04472504
#
# Stress axis : x y z
#
# Youngs Moduli (GPa) = 56.72254 18.59355 49.07654
#
# Poissons Ratio (x) = 0.10895 -0.02074
# Poissons Ratio (y) = 0.33238 0.88801
# Poissons Ratio (z) = -0.02397 0.33644
#
# Static dielectric constant tensor:
#      x y z
#    x 2.016560 -0.008610 -0.071030 
#    y -0.008610 2.177010 0.039750 
#    z -0.071030 0.039750 2.102040 
# 
# From -- ./inp_files/407351.got.cif
#   From: 2010.05.17/outbox.cif.g08.bks.cpg/sg2_204_cif.got.tgz:407351.got - 2010.06.03 11:33:40.
