data_PCOD9085848
_publ_section_title
;
Structure prediction by ZEFSAII (Michael W. Deem and Ramdas Pophale) SiO2 
 PCOD9085848
Probable space group: P -1
;
_chemical_formula_sum "Si O2"
_cell_formula_units_Z 14
_cell_length_a 13.499259
_cell_length_b 5.435779
_cell_length_c 10.228261
_cell_angle_alpha 109.326472
_cell_angle_beta 65.146122
_cell_angle_gamma 124.411843
_cell_volume 557.452400
_symmetry_space_group_name_H-M "P -1"
_symmetry_group_IT_number 2
_symmetry_cell_setting 'triclinic'
loop_
_space_group_symop_operation_xyz
x,y,z
-x,-y,-z
loop_
_atom_site_type_symbol
_atom_site_label
_atom_site_fract_x
_atom_site_fract_y
_atom_site_fract_z
Si Si1 0.935584 0.283308 0.307619
Si Si2 0.313963 0.250226 0.645063
Si Si3 0.838868 0.479296 0.944128
Si Si4 0.112301 0.309307 0.439695
Si Si5 0.271756 0.099464 0.926168
Si Si6 0.664105 0.449722 0.819868
Si Si7 0.511953 0.910759 0.624750
O O1 0.858099 0.446578 0.421535
O O2 0.017903 0.413640 0.155692
O O3 0.045653 0.373754 0.366935
O O4 0.836110 0.933587 0.318424
O O5 0.331479 0.133586 0.756801
O O6 0.377871 0.176306 0.475118
O O7 0.386876 0.606947 0.679160
O O8 0.737441 0.333517 0.855021
O O9 0.826564 0.776794 0.022130
O O10 0.792253 0.231564 0.038402
O O11 0.236675 0.340072 0.310768
O O12 0.000000 0.000000 0.500000
O O13 0.358113 0.334675 0.032099
O O14 0.556698 0.168311 0.753713
O O15 0.500000 0.000000 0.500000
#
# Coordination Sequence:
#
# PCOD9085848 Si02
#       7
#     2   2   2   2   2   2   2
#     4  10  21  37  63  97 136 169 221 268 341 401
#     4  11  26  43  65  98 133 179 223 283 336 397
#     4   9  22  43  69 104 134 176 218 275 334 412
#     4  10  19  35  63  95 126 173 217 267 337 398
#     4  10  23  44  71 101 139 175 222 271 346 398
#     4   9  21  42  65  99 131 178 223 282 322 409
#     4  11  26  46  65  96 131 178 233 282 333 390
#
# _framework density 25.114253000000001
#
# number of rings (size 3 to 8) (size 9 to 14) (size 15 to 20)
#    0.857    1.143    1.429    0.857    4.000    4.000 
#    0.000    1.429    0.000    0.000    0.000    0.000 
#    0.000    0.000    0.000    0.000    0.000    0.000 
#
# Total GULP energy -78134.117058 kJ/mol
# GULP energy per Si atom -5581.008361 kJ/mol
# Density = 2.505709 g / cm^3
# Si number density = 25.114253 Si / 1000 Ang^3
#
#
#
# Elastic Constant Matrix: (Units=GPa)
#
#
# Indices 1 2 3 4 5 6 
#
# 1 60.2719 31.1411 28.2120 -0.0737 11.4363 6.1471
# 2 31.1411 144.6664 50.6561 -36.3565 7.9605 3.0442
# 3 28.2120 50.6561 127.6440 -2.3620 -4.0853 0.3013
# 4 -0.0737 -36.3565 -2.3620 42.3555 -3.0005 14.4150
# 5 11.4363 7.9605 -4.0853 -3.0005 25.1968 -5.9965
# 6 6.1471 3.0442 0.3013 14.4150 -5.9965 41.3081
#
#
#
# Elastic Compliance Matrix: (Units=1/GPa)
#
#
# Indices 1 2 3 4 5 6 
#
# 1 0.022769 -0.003454 -0.004057 -0.002648 -0.011119 -0.003794
# 2 -0.003454 0.012240 -0.003952 0.011739 -0.002696 -0.004847
# 3 -0.004057 -0.003952 0.010391 -0.003394 0.005021 0.002732
# 4 -0.002648 0.011739 -0.003394 0.038133 -0.001853 -0.014022
# 5 -0.011119 -0.002696 0.005021 -0.001853 0.048439 0.009495
# 6 -0.003794 -0.004847 0.002732 -0.014022 0.009495 0.031382
#
#
# Mechanical properties :
#
#
# Convention : Reuss Voigt Hill
#
# Bulk Modulus (GPa) = 44.49799 61.40007 52.94903
# Shear Modulus (GPa) = 25.80356 36.61030 31.20693
#
# Velocity S-wave (km/s) = 3.20886 3.82219 3.52888
# Velocity P-wave (km/s) = 5.61121 6.63176 6.14272
#
# Compressibility (1/GPa) = 0.02247293
#
# Stress axis : x y z
#
# Youngs Moduli (GPa) = 43.91930 81.69815 96.23927
#
# Poissons Ratio (x) = 0.28221 0.39049
# Poissons Ratio (y) = 0.15171 0.38031
# Poissons Ratio (z) = 0.17820 0.32285
#
# Static dielectric constant tensor:
#      x y z
#    x 2.083470 -0.035770 -0.044050 
#    y -0.035770 1.971390 0.056230 
#    z -0.044050 0.056230 2.063240 
# 
# From -- ./inp_files/441299.got.cif
#   From: 2010.05.17/outbox.cif.g08.bks.cpg/sg2_221_cif.got.tgz:441299.got - 2010.06.03 11:33:40.
