data_PCOD9085302
_publ_section_title
;
Structure prediction by ZEFSAII (Michael W. Deem and Ramdas Pophale) SiO2 
 PCOD9085302
Probable space group: P -1
;
_chemical_formula_sum "Si O2"
_cell_formula_units_Z 16
_cell_length_a 16.223672
_cell_length_b 8.328430
_cell_length_c 20.499855
_cell_angle_alpha 38.949291
_cell_angle_beta 148.419324
_cell_angle_gamma 151.009786
_cell_volume 697.241303
_symmetry_space_group_name_H-M "P -1"
_symmetry_group_IT_number 2
_symmetry_cell_setting 'triclinic'
loop_
_space_group_symop_operation_xyz
x,y,z
-x,-y,-z
loop_
_atom_site_type_symbol
_atom_site_label
_atom_site_fract_x
_atom_site_fract_y
_atom_site_fract_z
Si Si1 0.603064 0.717431 0.693705
Si Si2 0.969475 0.656280 0.258024
Si Si3 0.597485 0.241059 0.580898
Si Si4 0.922162 0.666896 0.467082
Si Si5 0.089633 0.885927 0.859746
Si Si6 0.090802 0.798340 0.735662
Si Si7 0.334670 0.913772 0.624116
Si Si8 0.669072 0.250006 0.844868
O O1 0.499558 0.702199 0.561457
O O2 0.584639 0.395435 0.786268
O O3 0.848653 0.012395 0.762104
O O4 0.538695 0.876118 0.648876
O O5 0.076847 0.545204 0.408897
O O6 0.835543 0.367429 0.204857
O O7 0.886447 0.790880 0.206659
O O8 0.841961 0.513199 0.658975
O O9 0.487068 0.202568 0.584556
O O10 0.801842 0.433733 0.397186
O O11 0.164400 0.931300 0.529464
O O12 0.852070 0.880902 0.365260
O O13 0.139566 0.882226 0.818682
O O14 0.855828 0.552385 0.828329
O O15 0.236068 0.871027 0.009012
O O16 0.479569 0.964302 0.762808
#
# Coordination Sequence:
#
# PCOD9085302 Si02
#       8
#     2   2   2   2   2   2   2   2
#     4   9  19  34  58  88 127 147 191 261 302 352
#     4  10  21  40  59  88 124 158 197 250 299 356
#     4  10  19  35  59  93 118 151 197 251 311 354
#     4  11  23  37  60  92 123 156 193 244 308 370
#     4  10  21  40  62  89 120 157 210 248 290 346
#     4  11  22  38  64  88 121 163 196 248 304 353
#     4  11  21  37  60  90 120 159 194 244 304 361
#     4  10  21  38  59  89 121 161 198 251 295 350
#
# _framework density 22.947581
#
# number of rings (size 3 to 8) (size 9 to 14) (size 15 to 20)
#    0.000    1.750    2.500    2.625    1.750    1.000 
#    4.500    5.000    0.000    1.500    0.000    0.000 
#    0.000    0.000    0.000    0.000    0.000    0.000 
#
# Total GULP energy -89357.724287 kJ/mol
# GULP energy per Si atom -5584.857768 kJ/mol
# Density = 2.289535 g / cm^3
# Si number density = 22.947581 Si / 1000 Ang^3
#
#
#
# Elastic Constant Matrix: (Units=GPa)
#
#
# Indices 1 2 3 4 5 6 
#
# 1 86.3462 31.9996 45.2531 -1.6182 -8.2898 -22.6134
# 2 31.9996 93.3848 47.4301 5.6723 -4.9215 -18.8855
# 3 45.2531 47.4301 102.5585 7.5238 -5.0405 -20.8733
# 4 -1.6182 5.6723 7.5238 21.8141 3.2018 -9.3288
# 5 -8.2898 -4.9215 -5.0405 3.2018 22.6727 7.5314
# 6 -22.6134 -18.8855 -20.8733 -9.3288 7.5314 28.2074
#
#
#
# Elastic Compliance Matrix: (Units=1/GPa)
#
#
# Indices 1 2 3 4 5 6 
#
# 1 0.018585 -0.001506 -0.005570 0.009280 -0.000379 0.012939
# 2 -0.001506 0.014859 -0.005212 -0.000075 -0.000096 0.004885
# 3 -0.005570 -0.005212 0.015329 -0.003359 -0.000046 0.002290
# 4 0.009280 -0.000075 -0.003359 0.062948 -0.016244 0.030060
# 5 -0.000379 -0.000096 -0.000046 -0.016244 0.052834 -0.019882
# 6 0.012939 0.004885 0.002290 0.030060 -0.019882 0.066040
#
#
# Mechanical properties :
#
#
# Convention : Reuss Voigt Hill
#
# Bulk Modulus (GPa) = 41.32883 59.07279 50.20081
# Shear Modulus (GPa) = 18.99427 25.04596 22.02011
#
# Velocity S-wave (km/s) = 2.88014 3.30728 3.10107
# Velocity P-wave (km/s) = 5.39532 6.35472 5.89457
#
# Compressibility (1/GPa) = 0.02419618
#
# Stress axis : x y z
#
# Youngs Moduli (GPa) = 53.80726 67.29815 65.23664
#
# Poissons Ratio (x) = 0.10138 0.36335
# Poissons Ratio (y) = 0.08106 0.34003
# Poissons Ratio (z) = 0.29969 0.35078
#
# Static dielectric constant tensor:
#      x y z
#    x 1.944800 -0.014850 0.016080 
#    y -0.014850 1.936680 -0.021660 
#    z 0.016080 -0.021660 1.784510 
# 
# From -- ./inp_files/399876.got.cif
#   From: 2010.05.17/outbox.cif.g08.bks.cpg/sg2_200_cif.got.tgz:399876.got - 2010.06.03 11:33:40.
