data_PCOD9085059
_publ_section_title
;
Structure prediction by ZEFSAII (Michael W. Deem and Ramdas Pophale) SiO2 
 PCOD9085059
Probable space group: P -1
;
_chemical_formula_sum "Si O2"
_cell_formula_units_Z 14
_cell_length_a 22.208937
_cell_length_b 9.222634
_cell_length_c 9.307086
_cell_angle_alpha 128.710174
_cell_angle_beta 26.105108
_cell_angle_gamma 137.078136
_cell_volume 567.928132
_symmetry_space_group_name_H-M "P -1"
_symmetry_group_IT_number 2
_symmetry_cell_setting 'triclinic'
loop_
_space_group_symop_operation_xyz
x,y,z
-x,-y,-z
loop_
_atom_site_type_symbol
_atom_site_label
_atom_site_fract_x
_atom_site_fract_y
_atom_site_fract_z
Si Si1 0.722071 0.493958 0.073732
Si Si2 0.224765 0.960355 0.814741
Si Si3 0.559291 0.764708 0.696211
Si Si4 0.132445 0.273577 0.631355
Si Si5 0.131158 0.238518 0.309729
Si Si6 0.298327 0.699261 0.716030
Si Si7 0.579365 0.758000 0.979227
O O1 0.653393 0.630408 0.388772
O O2 0.604414 0.366983 0.117164
O O3 0.720737 0.328080 0.089685
O O4 0.882013 0.653803 0.741784
O O5 0.223807 0.813246 0.852984
O O6 0.345624 0.017777 0.463230
O O7 0.054718 0.868822 0.046911
O O8 0.267406 0.184419 0.940022
O O9 0.553486 0.802405 0.899435
O O10 0.163427 0.376778 0.468685
O O11 0.202172 0.455675 0.712628
O O12 0.235482 0.154647 0.338860
O O13 0.000000 0.000000 0.500000
O O14 0.479637 0.805593 0.338458
O O15 0.500000 0.500000 0.000000
#
# Coordination Sequence:
#
# PCOD9085059 Si02
#       7
#     2   2   2   2   2   2   2
#     4  10  19  35  62  86 116 160 205 236 294 364
#     4  10  23  38  60  90 126 151 197 254 305 336
#     4  10  20  36  58  86 119 163 199 239 292 368
#     4  10  20  40  63  82 121 164 197 237 300 367
#     4   9  20  40  61  84 117 163 198 237 292 368
#     4  11  22  37  63  93 118 152 201 257 297 343
#     4  10  19  35  58  87 112 155 205 235 287 356
#
# _framework density 24.651005999999999
#
# number of rings (size 3 to 8) (size 9 to 14) (size 15 to 20)
#    0.000    2.000    2.857    2.143    4.000    1.714 
#    2.571    2.857    0.000    0.000    0.000    0.000 
#    0.000    0.000    0.000    0.000    0.000    0.000 
#
# Total GULP energy -78133.985786 kJ/mol
# GULP energy per Si atom -5580.998985 kJ/mol
# Density = 2.459490 g / cm^3
# Si number density = 24.651006 Si / 1000 Ang^3
#
#
#
# Elastic Constant Matrix: (Units=GPa)
#
#
# Indices 1 2 3 4 5 6 
#
# 1 156.9211 48.0667 53.0479 -28.8489 20.2356 -28.2614
# 2 48.0667 45.7946 33.2694 -20.5286 -1.1714 -12.1996
# 3 53.0479 33.2694 78.9529 -27.4319 1.8303 -10.4744
# 4 -28.8489 -20.5286 -27.4319 33.9770 -8.9005 8.8907
# 5 20.2356 -1.1714 1.8303 -8.9005 54.4953 -11.8868
# 6 -28.2614 -12.1996 -10.4744 8.8907 -11.8868 31.3445
#
#
#
# Elastic Compliance Matrix: (Units=1/GPa)
#
#
# Indices 1 2 3 4 5 6 
#
# 1 0.011306 -0.008315 -0.003522 -0.000344 -0.003306 0.004625
# 2 -0.008315 0.044161 -0.007515 0.014006 0.007933 0.006215
# 3 -0.003522 -0.007515 0.021772 0.010860 0.001933 -0.001172
# 4 -0.000344 0.014006 0.010860 0.048939 0.007568 -0.002241
# 5 -0.003306 0.007933 0.001933 0.007568 0.022475 0.007129
# 6 0.004625 0.006215 -0.001172 -0.002241 0.007129 0.041439
#
#
# Mechanical properties :
#
#
# Convention : Reuss Voigt Hill
#
# Bulk Modulus (GPa) = 25.95053 61.15963 43.55508
# Shear Modulus (GPa) = 20.69183 33.78234 27.23709
#
# Velocity S-wave (km/s) = 2.90037 3.70594 3.32762
# Velocity P-wave (km/s) = 4.66543 6.57085 5.69834
#
# Compressibility (1/GPa) = 0.03853487
#
# Stress axis : x y z
#
# Youngs Moduli (GPa) = 88.44561 22.64440 45.93109
#
# Poissons Ratio (x) = 0.18830 0.16177
# Poissons Ratio (y) = 0.73546 0.34516
# Poissons Ratio (z) = 0.31151 0.17017
#
# Static dielectric constant tensor:
#      x y z
#    x 1.989710 0.007110 0.005810 
#    y 0.007110 2.059940 -0.017340 
#    z 0.005810 -0.017340 2.071160 
# 
# From -- ./inp_files/173089.got.cif
#   From: 2010.05.17/outbox.cif.g08.bks.cpg/sg2_87_cif.got.tgz:173089.got - 2010.06.03 11:33:40.
