data_PCOD9085467
_publ_section_title
;
Structure prediction by ZEFSAII (Michael W. Deem and Ramdas Pophale) SiO2 
 PCOD9085467
Probable space group: P -1
;
_chemical_formula_sum "Si O2"
_cell_formula_units_Z 16
_cell_length_a 15.105702
_cell_length_b 9.415289
_cell_length_c 9.376777
_cell_angle_alpha 115.274431
_cell_angle_beta 101.159207
_cell_angle_gamma 38.989536
_cell_volume 735.990911
_symmetry_space_group_name_H-M "P -1"
_symmetry_group_IT_number 2
_symmetry_cell_setting 'triclinic'
loop_
_space_group_symop_operation_xyz
x,y,z
-x,-y,-z
loop_
_atom_site_type_symbol
_atom_site_label
_atom_site_fract_x
_atom_site_fract_y
_atom_site_fract_z
Si Si1 0.076317 0.559744 0.024341
Si Si2 0.362699 0.139331 0.115617
Si Si3 0.162398 0.309625 0.653230
Si Si4 0.678211 0.127608 0.841630
Si Si5 0.627848 0.513971 0.163013
Si Si6 0.064144 0.928772 0.825632
Si Si7 0.035287 0.241015 0.412729
Si Si8 0.458697 0.024515 0.659436
O O1 0.108499 0.497898 0.840444
O O2 0.219154 0.377642 0.086750
O O3 0.000000 0.500000 0.000000
O O4 0.973351 0.846095 0.136593
O O5 0.343174 0.982437 0.093914
O O6 0.399515 0.187254 0.290845
O O7 0.500000 0.000000 0.000000
O O8 0.083316 0.250407 0.582155
O O9 0.332906 0.066870 0.633753
O O10 0.109829 0.473648 0.565560
O O11 0.538262 0.299529 0.768462
O O12 0.828955 0.903302 0.711496
O O13 0.668337 0.316726 0.983631
O O14 0.612493 0.714840 0.192500
O O15 0.763272 0.331418 0.231734
O O16 0.991267 0.904535 0.685821
O O17 0.000000 0.000000 0.000000
O O18 0.500000 0.000000 0.500000
#
# Coordination Sequence:
#
# PCOD9085467 Si02
#       8
#     2   2   2   2   2   2   2   2
#     4  12  25  42  67  95 137 177 220 267 338 398
#     4  11  23  40  63  93 129 177 213 263 329 403
#     4  11  21  38  62  96 130 169 212 277 331 383
#     4  10  21  36  61  95 125 164 216 274 325 383
#     4  10  19  35  60  93 121 159 216 272 317 372
#     4  12  21  39  65  96 125 170 226 272 315 391
#     4  11  22  37  65  97 130 161 223 280 326 374
#     4  11  22  40  67  96 129 168 221 273 329 391
#
# _framework density 21.739398000000001
#
# number of rings (size 3 to 8) (size 9 to 14) (size 15 to 20)
#    0.000    1.000    5.000    3.000    1.750    1.000 
#    0.000    0.625    2.750    1.500    0.000    0.000 
#    0.000    0.000    0.000    0.000    0.000    0.000 
#
# Total GULP energy -89193.717994 kJ/mol
# GULP energy per Si atom -5574.607375 kJ/mol
# Density = 2.168992 g / cm^3
# Si number density = 21.739398 Si / 1000 Ang^3
#
#
#
# Elastic Constant Matrix: (Units=GPa)
#
#
# Indices 1 2 3 4 5 6 
#
# 1 103.7609 38.9807 16.4616 -5.3399 33.0812 -14.4930
# 2 38.9807 105.3898 15.8780 -11.3147 18.2151 -15.4958
# 3 16.4616 15.8780 63.4104 -9.1192 30.9692 -0.5389
# 4 -5.3399 -11.3147 -9.1192 32.3062 -4.3794 18.0051
# 5 33.0812 18.2151 30.9692 -4.3794 42.3659 -3.9520
# 6 -14.4930 -15.4958 -0.5389 18.0051 -3.9520 39.9038
#
#
#
# Elastic Compliance Matrix: (Units=1/GPa)
#
#
# Indices 1 2 3 4 5 6 
#
# 1 0.014665 -0.003437 0.002543 -0.001661 -0.011666 0.003620
# 2 -0.003437 0.011659 -0.001279 0.001678 -0.000996 0.002406
# 3 0.002543 -0.001279 0.026382 0.007139 -0.020399 -0.004458
# 4 -0.001661 0.001678 0.007139 0.044147 -0.001942 -0.019967
# 5 -0.011666 -0.000996 -0.020399 -0.001942 0.047920 0.000723
# 6 0.003620 0.002406 -0.004458 -0.019967 0.000723 0.036330
#
#
# Mechanical properties :
#
#
# Convention : Reuss Voigt Hill
#
# Bulk Modulus (GPa) = 20.67818 46.13352 33.40585
# Shear Modulus (GPa) = 24.80561 36.33122 30.56841
#
# Velocity S-wave (km/s) = 3.38160 4.09249 3.75391
# Velocity P-wave (km/s) = 4.97790 6.60291 5.84713
#
# Compressibility (1/GPa) = 0.04836016
#
# Stress axis : x y z
#
# Youngs Moduli (GPa) = 68.18998 85.77375 37.90519
#
# Poissons Ratio (x) = 0.29480 -0.09640
# Poissons Ratio (y) = 0.23437 0.04847
# Poissons Ratio (z) = -0.17342 0.10968
#
# Static dielectric constant tensor:
#      x y z
#    x 1.727380 -0.042770 0.074550 
#    y -0.042770 1.793100 -0.007770 
#    z 0.074550 -0.007770 1.805980 
# 
# From -- ./inp_files/299234.got.cif
#   From: 2010.05.17/outbox.cif.g08.bks.cpg/sg2_150_cif.got.tgz:299234.got - 2010.06.03 11:33:40.
