data_PCOD9085040
_publ_section_title
;
Structure prediction by ZEFSAII (Michael W. Deem and Ramdas Pophale) SiO2 
 PCOD9085040
Probable space group: P -1
;
_chemical_formula_sum "Si O2"
_cell_formula_units_Z 14
_cell_length_a 7.486425
_cell_length_b 7.949803
_cell_length_c 11.288754
_cell_angle_alpha 98.835010
_cell_angle_beta 109.726579
_cell_angle_gamma 108.064832
_cell_volume 575.673435
_symmetry_space_group_name_H-M "P -1"
_symmetry_group_IT_number 2
_symmetry_cell_setting 'triclinic'
loop_
_space_group_symop_operation_xyz
x,y,z
-x,-y,-z
loop_
_atom_site_type_symbol
_atom_site_label
_atom_site_fract_x
_atom_site_fract_y
_atom_site_fract_z
Si Si1 0.423421 0.230259 0.530936
Si Si2 0.614186 0.678386 0.220274
Si Si3 0.060272 0.924726 0.301619
Si Si4 0.600510 0.352439 0.064474
Si Si5 0.814145 0.496588 0.542981
Si Si6 0.052962 0.329332 0.956750
Si Si7 0.962759 0.237213 0.181376
O O1 0.485024 0.258210 0.684917
O O2 0.623577 0.303007 0.499983
O O3 0.298603 0.366458 0.503631
O O4 0.260050 0.030509 0.435059
O O5 0.860501 0.779818 0.306848
O O6 0.543833 0.452878 0.175127
O O7 0.544321 0.746075 0.089085
O O8 0.092427 0.816149 0.183452
O O9 0.983221 0.077528 0.247226
O O10 0.742075 0.550455 0.056294
O O11 0.735671 0.237763 0.116347
O O12 0.000000 0.500000 0.500000
O O13 0.913090 0.572445 0.701410
O O14 0.000000 0.500000 0.000000
O O15 0.054683 0.233334 0.071223
#
# Coordination Sequence:
#
# PCOD9085040 Si02
#       7
#     2   2   2   2   2   2   2
#     4  10  21  38  61  88 125 165 203 253 311 367
#     4  10  19  36  58  86 123 165 206 246 304 365
#     4  10  21  35  58  90 123 162 201 252 311 365
#     4   9  19  33  58  87 116 163 212 251 295 361
#     4  10  21  38  62  91 120 159 206 253 310 371
#     4   9  18  35  57  82 114 155 204 250 303 364
#     4  10  19  35  58  85 120 157 201 258 306 357
#
# _framework density 24.319343
#
# number of rings (size 3 to 8) (size 9 to 14) (size 15 to 20)
#    0.000    2.286    0.000    2.571    0.000    0.571 
#    0.000   10.000    0.000   18.857    0.000    0.000 
#    0.000    0.000    0.000    0.000    0.000    0.000 
#
# Total GULP energy -78074.052205 kJ/mol
# GULP energy per Si atom -5576.718015 kJ/mol
# Density = 2.426399 g / cm^3
# Si number density = 24.319343 Si / 1000 Ang^3
#
#
#
# Elastic Constant Matrix: (Units=GPa)
#
#
# Indices 1 2 3 4 5 6 
#
# 1 103.1939 32.8548 48.0069 10.6692 4.7179 6.5467
# 2 32.8548 63.9408 31.9911 11.4480 4.6907 -6.4780
# 3 48.0069 31.9911 133.6655 25.0840 -9.9551 7.0557
# 4 10.6692 11.4480 25.0840 36.8269 1.2832 9.7677
# 5 4.7179 4.6907 -9.9551 1.2832 33.5538 -5.6560
# 6 6.5467 -6.4780 7.0557 9.7677 -5.6560 32.7774
#
#
#
# Elastic Compliance Matrix: (Units=1/GPa)
#
#
# Indices 1 2 3 4 5 6 
#
# 1 0.013427 -0.005439 -0.003827 0.001548 -0.002981 -0.003909
# 2 -0.005439 0.021575 -0.002756 -0.005099 -0.001665 0.007176
# 3 -0.003827 -0.002756 0.010898 -0.005701 0.004431 0.000337
# 4 0.001548 -0.005099 -0.005701 0.035352 -0.004469 -0.011396
# 5 -0.002981 -0.001665 0.004431 -0.004469 0.033009 0.006340
# 6 -0.003909 0.007176 0.000337 -0.011396 0.006340 0.037125
#
#
# Mechanical properties :
#
#
# Convention : Reuss Voigt Hill
#
# Bulk Modulus (GPa) = 45.75444 58.50064 52.12754
# Shear Modulus (GPa) = 27.36511 33.16145 30.26328
#
# Velocity S-wave (km/s) = 3.35810 3.69668 3.53145
# Velocity P-wave (km/s) = 5.82157 6.50600 6.17327
#
# Compressibility (1/GPa) = 0.02185580
#
# Stress axis : x y z
#
# Youngs Moduli (GPa) = 74.47937 46.34958 91.76387
#
# Poissons Ratio (x) = 0.25209 0.35115
# Poissons Ratio (y) = 0.40508 0.25292
# Poissons Ratio (z) = 0.28501 0.12775
#
# Static dielectric constant tensor:
#      x y z
#    x 2.355700 0.038120 -0.182490 
#    y 0.038120 1.969510 -0.012510 
#    z -0.182490 -0.012510 2.155980 
# 
# From -- ./inp_files/379653.got.cif
#   From: 2010.05.17/outbox.cif.g08.bks.cpg/sg2_190_cif.got.tgz:379653.got - 2010.06.03 11:33:40.
