data_PCOD9085179
_publ_section_title
;
Structure prediction by ZEFSAII (Michael W. Deem and Ramdas Pophale) SiO2 
 PCOD9085179
Probable space group: P -1
;
_chemical_formula_sum "Si O2"
_cell_formula_units_Z 16
_cell_length_a 19.595566
_cell_length_b 9.724085
_cell_length_c 14.010399
_cell_angle_alpha 125.007204
_cell_angle_beta 19.391434
_cell_angle_gamma 127.126613
_cell_volume 706.621458
_symmetry_space_group_name_H-M "P -1"
_symmetry_group_IT_number 2
_symmetry_cell_setting 'triclinic'
loop_
_space_group_symop_operation_xyz
x,y,z
-x,-y,-z
loop_
_atom_site_type_symbol
_atom_site_label
_atom_site_fract_x
_atom_site_fract_y
_atom_site_fract_z
Si Si1 0.277797 0.989999 0.674431
Si Si2 0.471886 0.156432 0.028600
Si Si3 0.047962 0.159579 0.691539
Si Si4 0.567285 0.757471 0.274397
Si Si5 0.797799 0.418441 0.167518
Si Si6 0.163862 0.124873 0.264949
Si Si7 0.667316 0.523509 0.876435
Si Si8 0.166527 0.220144 0.778075
O O1 0.260971 0.123293 0.835653
O O2 0.315662 0.107210 0.578459
O O3 0.459372 0.893357 0.417282
O O4 0.059969 0.847177 0.899302
O O5 0.265851 0.213058 0.366767
O O6 0.386580 0.113086 0.015231
O O7 0.663005 0.327091 0.835877
O O8 0.500000 0.000000 0.000000
O O9 0.122163 0.179691 0.710186
O O10 0.913343 0.969156 0.769762
O O11 0.884864 0.280321 0.936868
O O12 0.390861 0.662218 0.545087
O O13 0.612073 0.622392 0.083682
O O14 0.751253 0.577847 0.235091
O O15 0.000000 0.500000 0.000000
O O16 0.150247 0.323622 0.349169
O O17 0.000000 0.000000 0.500000
O O18 0.500000 0.500000 0.000000
#
# Coordination Sequence:
#
# PCOD9085179 Si02
#       8
#     2   2   2   2   2   2   2   2
#     4  10  22  35  57  89 125 154 194 252 301 351
#     4  10  22  40  60  89 119 154 206 260 298 348
#     4  10  19  38  62  80 118 163 197 243 307 364
#     4  11  21  38  60  89 123 156 202 245 300 369
#     4  10  19  35  59  84 116 163 197 236 306 363
#     4   9  20  39  62  82 113 158 201 242 301 363
#     4  10  21  37  62  88 114 159 204 243 296 361
#     4  10  20  37  55  86 120 155 197 241 302 356
#
# _framework density 22.642956999999999
#
# number of rings (size 3 to 8) (size 9 to 14) (size 15 to 20)
#    0.000    2.000    2.500    2.250    1.750    2.500 
#    2.250    2.500    0.000    0.000    0.000    0.000 
#    0.000    0.000    0.000    0.000    0.000    0.000 
#
# Total GULP energy -89128.689768 kJ/mol
# GULP energy per Si atom -5570.543110 kJ/mol
# Density = 2.259142 g / cm^3
# Si number density = 22.642957 Si / 1000 Ang^3
#
#
#
# Elastic Constant Matrix: (Units=GPa)
#
#
# Indices 1 2 3 4 5 6 
#
# 1 81.1542 41.9065 5.7983 11.7546 -2.0673 -13.3530
# 2 41.9065 171.2415 18.0188 -12.7857 -5.2799 -22.4387
# 3 5.7983 18.0188 44.9793 -10.7374 11.2235 -10.5494
# 4 11.7546 -12.7857 -10.7374 24.0671 0.8257 2.7657
# 5 -2.0673 -5.2799 11.2235 0.8257 21.8773 -2.1235
# 6 -13.3530 -22.4387 -10.5494 2.7657 -2.1235 46.6545
#
#
#
# Elastic Compliance Matrix: (Units=1/GPa)
#
#
# Indices 1 2 3 4 5 6 
#
# 1 0.017220 -0.004298 -0.003668 -0.012779 0.003239 0.002937
# 2 -0.004298 0.007756 -0.001359 0.005312 0.002155 0.001976
# 3 -0.003668 -0.001359 0.032228 0.015601 -0.017422 0.003866
# 4 -0.012779 0.005312 0.015601 0.058097 -0.010266 -0.001486
# 5 0.003239 0.002155 -0.017422 -0.010266 0.055975 0.001180
# 6 0.002937 0.001976 0.003866 -0.001486 0.001180 0.024241
#
#
# Mechanical properties :
#
#
# Convention : Reuss Voigt Hill
#
# Bulk Modulus (GPa) = 25.93713 47.64693 36.79203
# Shear Modulus (GPa) = 22.02447 33.96320 27.99384
#
# Velocity S-wave (km/s) = 3.12217 3.87711 3.51994
# Velocity P-wave (km/s) = 4.94742 6.41335 5.72748
#
# Compressibility (1/GPa) = 0.03855477
#
# Stress axis : x y z
#
# Youngs Moduli (GPa) = 58.07124 128.92464 31.02888
#
# Poissons Ratio (x) = 0.55406 0.11382
# Poissons Ratio (y) = 0.24956 0.04218
# Poissons Ratio (z) = 0.21302 0.17524
#
# Static dielectric constant tensor:
#      x y z
#    x 1.954800 0.006360 0.072330 
#    y 0.006360 1.919140 0.021830 
#    z 0.072330 0.021830 1.982350 
# 
# From -- ./inp_files/540559.got.cif
#   From: 2010.05.17/outbox.cif.g08.bks.cpg/sg2_271_cif.got.tgz:540559.got - 2010.06.03 11:33:40.
