data_PCOD9085687
_publ_section_title
;
Structure prediction by ZEFSAII (Michael W. Deem and Ramdas Pophale) SiO2 
 PCOD9085687
Probable space group: P -1
;
_chemical_formula_sum "Si O2"
_cell_formula_units_Z 16
_cell_length_a 11.399935
_cell_length_b 14.272057
_cell_length_c 14.622529
_cell_angle_alpha 129.998517
_cell_angle_beta 154.344379
_cell_angle_gamma 39.017922
_cell_volume 633.848631
_symmetry_space_group_name_H-M "P -1"
_symmetry_group_IT_number 2
_symmetry_cell_setting 'triclinic'
loop_
_space_group_symop_operation_xyz
x,y,z
-x,-y,-z
loop_
_atom_site_type_symbol
_atom_site_label
_atom_site_fract_x
_atom_site_fract_y
_atom_site_fract_z
Si Si1 0.390660 0.736238 0.100856
Si Si2 0.059974 0.803574 0.647484
Si Si3 0.714501 0.801052 0.075781
Si Si4 0.798356 0.378863 0.536360
Si Si5 0.600710 0.526323 0.960030
Si Si6 0.156010 0.972349 0.217359
Si Si7 0.700828 0.635299 0.712259
Si Si8 0.667626 0.894579 0.905131
O O1 0.633685 0.627353 0.120984
O O2 0.356333 0.615934 0.051934
O O3 0.060660 0.879423 0.907692
O O4 0.449679 0.824352 0.274414
O O5 0.989071 0.750508 0.471489
O O6 0.794829 0.958860 0.614074
O O7 0.371085 0.814315 0.851417
O O8 0.240834 0.650532 0.740628
O O9 0.996349 0.669604 0.255342
O O10 0.638390 0.949394 0.166687
O O11 0.822055 0.795181 0.044185
O O12 0.664638 0.554729 0.548330
O O13 0.486892 0.374862 0.340944
O O14 0.899641 0.451336 0.051075
O O15 0.909540 0.926172 0.044944
O O16 0.561885 0.810455 0.714050
#
# Coordination Sequence:
#
# PCOD9085687 Si02
#       8
#     2   2   2   2   2   2   2   2
#     4   9  18  34  62  93 106 152 210 248 304 344
#     4  10  20  38  60  90 122 157 198 239 295 355
#     4  10  21  39  59  86 126 161 193 239 290 358
#     4  11  24  38  58  89 129 163 191 236 290 363
#     4  10  19  35  62  89 118 156 199 249 295 351
#     4   9  18  35  60  91 113 147 207 252 294 353
#     4  11  22  37  55  91 122 162 198 236 292 355
#     4  10  20  37  60  88 121 159 196 240 294 354
#
# _framework density 25.242619000000001
#
# number of rings (size 3 to 8) (size 9 to 14) (size 15 to 20)
#    0.000    2.000    3.750    0.000    0.000    3.500 
#    0.000    0.000    0.000    7.500    0.000    0.000 
#    0.000    0.000    0.000    0.000    0.000    0.000 
#
# Total GULP energy -89251.301110 kJ/mol
# GULP energy per Si atom -5578.206319 kJ/mol
# Density = 2.518517 g / cm^3
# Si number density = 25.242619 Si / 1000 Ang^3
#
#
#
# Elastic Constant Matrix: (Units=GPa)
#
#
# Indices 1 2 3 4 5 6 
#
# 1 106.0367 46.4803 13.4836 -3.6693 -16.5684 -8.7489
# 2 46.4803 158.6466 26.1586 43.6343 -7.6289 -11.3760
# 3 13.4836 26.1586 44.7254 18.3414 -4.6852 10.6060
# 4 -3.6693 43.6343 18.3414 35.3521 -5.9229 -5.6217
# 5 -16.5684 -7.6289 -4.6852 -5.9229 19.6034 2.4295
# 6 -8.7489 -11.3760 10.6060 -5.6217 2.4295 59.7619
#
#
#
# Elastic Compliance Matrix: (Units=1/GPa)
#
#
# Indices 1 2 3 4 5 6 
#
# 1 0.016993 -0.007838 -0.007279 0.018212 0.014652 0.003405
# 2 -0.007838 0.013248 0.001993 -0.019423 -0.006795 -0.000530
# 3 -0.007279 0.001993 0.034662 -0.023111 -0.002973 -0.008891
# 4 0.018212 -0.019423 -0.023111 0.071365 0.022774 0.008858
# 5 0.014652 -0.006795 -0.002973 0.022774 0.066821 0.000805
# 6 0.003405 -0.000530 -0.008891 0.008858 0.000805 0.019509
#
#
# Mechanical properties :
#
#
# Convention : Reuss Voigt Hill
#
# Bulk Modulus (GPa) = 25.87019 53.51707 39.69363
# Shear Modulus (GPa) = 19.10353 37.82923 28.46638
#
# Velocity S-wave (km/s) = 2.75398 3.87541 3.36178
# Velocity P-wave (km/s) = 4.51480 6.42434 5.55228
#
# Compressibility (1/GPa) = 0.03865454
#
# Stress axis : x y z
#
# Youngs Moduli (GPa) = 58.84841 75.48068 28.85013
#
# Poissons Ratio (x) = 0.59165 0.21001
# Poissons Ratio (y) = 0.46128 -0.05751
# Poissons Ratio (z) = 0.42838 -0.15047
#
# Static dielectric constant tensor:
#      x y z
#    x 2.051320 0.014720 -0.001080 
#    y 0.014720 2.036290 0.055930 
#    z -0.001080 0.055930 2.039350 
# 
# From -- ./inp_files/521691.got.cif
#   From: 2010.05.17/outbox.cif.g08.bks.cpg/sg2_261_cif.got.tgz:521691.got - 2010.06.03 11:33:40.
