data_PCOD9085929
_publ_section_title
;
Structure prediction by ZEFSAII (Michael W. Deem and Ramdas Pophale) SiO2 
 PCOD9085929
Probable space group: P -1
;
_chemical_formula_sum "Si O2"
_cell_formula_units_Z 14
_cell_length_a 9.706529
_cell_length_b 19.871648
_cell_length_c 9.710636
_cell_angle_alpha 125.168657
_cell_angle_beta 117.523821
_cell_angle_gamma 26.873806
_cell_volume 685.313808
_symmetry_space_group_name_H-M "P -1"
_symmetry_group_IT_number 2
_symmetry_cell_setting 'triclinic'
loop_
_space_group_symop_operation_xyz
x,y,z
-x,-y,-z
loop_
_atom_site_type_symbol
_atom_site_label
_atom_site_fract_x
_atom_site_fract_y
_atom_site_fract_z
Si Si1 0.784445 0.950001 0.426490
Si Si2 0.428779 0.608124 0.198246
Si Si3 0.410007 0.569655 0.692039
Si Si4 0.650201 0.149686 0.974800
Si Si5 0.766066 0.919720 0.705181
Si Si6 0.509454 0.752804 0.298447
Si Si7 0.142544 0.490146 0.176821
O O1 0.847677 0.900706 0.559774
O O2 0.067380 0.787137 0.276213
O O3 0.469357 0.047435 0.360034
O O4 0.714795 0.079154 0.534165
O O5 0.590160 0.505796 0.292957
O O6 0.535671 0.648933 0.245178
O O7 0.500000 0.500000 0.000000
O O8 0.500000 0.500000 0.500000
O O9 0.682760 0.507920 0.788758
O O10 0.076094 0.764097 0.751690
O O11 0.611554 0.197695 0.856403
O O12 0.583681 0.083543 0.865402
O O13 0.417930 0.307931 0.147459
O O14 0.000000 0.000000 0.000000
O O15 0.850388 0.637631 0.312035
O O16 0.000000 0.500000 0.000000
#
# Coordination Sequence:
#
# PCOD9085929 Si02
#       7
#     2   2   2   2   2   2   2
#     4  10  22  43  66  93 130 171 220 271 337 396
#     4  12  26  41  66  97 142 176 211 278 345 395
#     4  12  23  42  68  99 129 174 235 271 318 399
#     4  10  19  35  64  95 126 167 221 271 319 386
#     4  10  21  38  69  97 121 168 231 276 312 389
#     4  10  23  41  62  93 129 177 213 264 341 394
#     4  10  21  38  65  97 135 173 222 270 330 400
#
# _framework density 20.428598000000001
#
# number of rings (size 3 to 8) (size 9 to 14) (size 15 to 20)
#    0.000    1.429    2.857    3.000    8.000    0.000 
#    0.000    5.000    0.000    0.000    0.000    0.000 
#    0.000    0.000    0.000    0.000    0.000    0.000 
#
# Total GULP energy -78126.987718 kJ/mol
# GULP energy per Si atom -5580.499123 kJ/mol
# Density = 2.038210 g / cm^3
# Si number density = 20.428598 Si / 1000 Ang^3
#
#
#
# Elastic Constant Matrix: (Units=GPa)
#
#
# Indices 1 2 3 4 5 6 
#
# 1 105.4803 57.6809 13.2679 0.0013 16.2127 15.6424
# 2 57.6809 121.8053 25.8783 12.8856 -4.4792 5.2583
# 3 13.2679 25.8783 64.2228 25.2186 5.8925 9.3915
# 4 0.0013 12.8856 25.2186 41.6900 -3.1669 0.9691
# 5 16.2127 -4.4792 5.8925 -3.1669 25.4807 5.3272
# 6 15.6424 5.2583 9.3915 0.9691 5.3272 41.0627
#
#
#
# Elastic Compliance Matrix: (Units=1/GPa)
#
#
# Indices 1 2 3 4 5 6 
#
# 1 0.016107 -0.008220 0.001133 0.001111 -0.010993 -0.003942
# 2 -0.008220 0.013348 -0.004247 -0.000969 0.008154 0.001358
# 3 0.001133 -0.004247 0.023637 -0.013484 -0.007780 -0.003966
# 4 0.001111 -0.000969 -0.013484 0.032875 0.006072 0.001221
# 5 -0.010993 0.008154 -0.007780 0.006072 0.050601 -0.001785
# 6 -0.003942 0.001358 -0.003966 0.001221 -0.001785 0.026791
#
#
# Mechanical properties :
#
#
# Convention : Reuss Voigt Hill
#
# Bulk Modulus (GPa) = 32.86730 53.90697 43.38713
# Shear Modulus (GPa) = 25.48839 34.62545 30.05692
#
# Velocity S-wave (km/s) = 3.53609 4.12144 3.83993
# Velocity P-wave (km/s) = 5.72675 7.00669 6.39880
#
# Compressibility (1/GPa) = 0.03042538
#
# Stress axis : x y z
#
# Youngs Moduli (GPa) = 62.08383 74.91538 42.30720
#
# Poissons Ratio (x) = 0.61580 -0.04795
# Poissons Ratio (y) = 0.51033 0.17968
# Poissons Ratio (z) = -0.07037 0.31816
#
# Static dielectric constant tensor:
#      x y z
#    x 1.776560 -0.034550 -0.005180 
#    y -0.034550 1.771730 0.044430 
#    z -0.005180 0.044430 1.793230 
# 
# From -- ./inp_files/185104.got.cif
#   From: 2010.05.17/outbox.cif.g08.bks.cpg/sg2_93_cif.got.tgz:185104.got - 2010.06.03 11:33:40.
