data_PCOD9085333
_publ_section_title
;
Structure prediction by ZEFSAII (Michael W. Deem and Ramdas Pophale) SiO2 
 PCOD9085333
Probable space group: P -1
;
_chemical_formula_sum "Si O2"
_cell_formula_units_Z 14
_cell_length_a 10.660388
_cell_length_b 9.809194
_cell_length_c 7.922444
_cell_angle_alpha 136.238300
_cell_angle_beta 97.779669
_cell_angle_gamma 90.195109
_cell_volume 561.510562
_symmetry_space_group_name_H-M "P -1"
_symmetry_group_IT_number 2
_symmetry_cell_setting 'triclinic'
loop_
_space_group_symop_operation_xyz
x,y,z
-x,-y,-z
loop_
_atom_site_type_symbol
_atom_site_label
_atom_site_fract_x
_atom_site_fract_y
_atom_site_fract_z
Si Si1 0.000941 0.552131 0.277471
Si Si2 0.260342 0.430408 0.904160
Si Si3 0.752351 0.182535 0.587824
Si Si4 0.483952 0.825034 0.675314
Si Si5 0.388678 0.362607 0.200461
Si Si6 0.878188 0.721453 0.738637
Si Si7 0.743776 0.906317 0.638490
O O1 0.106997 0.430600 0.866265
O O2 0.128140 0.700510 0.386527
O O3 0.037175 0.335053 0.139264
O O4 0.939718 0.625418 0.503732
O O5 0.305705 0.662089 0.158333
O O6 0.322541 0.322610 0.971219
O O7 0.287310 0.321012 0.640812
O O8 0.645480 0.113637 0.367116
O O9 0.791934 0.024867 0.585746
O O10 0.463944 0.586131 0.410832
O O11 0.525594 0.795705 0.851487
O O12 0.607138 0.944991 0.713691
O O13 0.266104 0.365621 0.304803
O O14 0.845887 0.924899 0.827432
#
# Coordination Sequence:
#
# PCOD9085333 Si02
#       7
#     2   2   2   2   2   2   2
#     4  10  19  35  60  83 113 146 188 224 281 331
#     4  10  21  36  59  83 112 147 186 231 274 329
#     4  11  21  36  60  86 111 147 186 229 277 333
#     4   9  18  35  58  81 112 150 182 227 277 332
#     4   9  17  33  59  83 107 149 189 221 281 326
#     4   9  18  34  57  81 111 150 180 225 276 335
#     4  10  22  37  58  83 115 146 187 228 279 322
#
# _framework density 24.932745000000001
#
# number of rings (size 3 to 8) (size 9 to 14) (size 15 to 20)
#    0.000    2.286    2.857    0.857    0.000    4.571 
#    0.000    1.429   18.857    0.000    0.000    0.000 
#    0.000    0.000    0.000    0.000    0.000    0.000 
#
# Total GULP energy -77957.067654 kJ/mol
# GULP energy per Si atom -5568.361975 kJ/mol
# Density = 2.487600 g / cm^3
# Si number density = 24.932745 Si / 1000 Ang^3
#
#
#
# Elastic Constant Matrix: (Units=GPa)
#
#
# Indices 1 2 3 4 5 6 
#
# 1 98.6969 49.6815 11.8057 -16.5703 11.2493 -16.3852
# 2 49.6815 147.2156 12.6305 -32.6144 35.4756 -18.7052
# 3 11.8057 12.6305 65.9404 -18.8106 5.8626 -3.7029
# 4 -16.5703 -32.6144 -18.8106 36.5778 -13.5582 12.2296
# 5 11.2493 35.4756 5.8626 -13.5582 33.1084 -22.6097
# 6 -16.3852 -18.7052 -3.7029 12.2296 -22.6097 39.8201
#
#
#
# Elastic Compliance Matrix: (Units=1/GPa)
#
#
# Indices 1 2 3 4 5 6 
#
# 1 0.013134 -0.004532 -0.001260 0.001222 0.004929 0.005582
# 2 -0.004532 0.011957 0.001135 0.006312 -0.012376 -0.005109
# 3 -0.001260 0.001135 0.018001 0.009901 -0.001379 -0.002135
# 4 0.001222 0.006312 0.009901 0.042219 0.004082 -0.006260
# 5 0.004929 -0.012376 -0.001379 0.004082 0.065622 0.032092
# 6 0.005582 -0.005109 -0.002135 -0.006260 0.032092 0.044956
#
#
# Mechanical properties :
#
#
# Convention : Reuss Voigt Hill
#
# Bulk Modulus (GPa) = 29.60464 51.12093 40.36279
# Shear Modulus (GPa) = 23.09893 37.75028 30.42460
#
# Velocity S-wave (km/s) = 3.04707 3.89535 3.49702
# Velocity P-wave (km/s) = 4.92738 6.38590 5.70345
#
# Compressibility (1/GPa) = 0.03377849
#
# Stress axis : x y z
#
# Youngs Moduli (GPa) = 76.13786 83.63569 55.55394
#
# Poissons Ratio (x) = 0.37905 0.06997
# Poissons Ratio (y) = 0.34507 -0.06307
# Poissons Ratio (z) = 0.09590 -0.09496
#
# Static dielectric constant tensor:
#      x y z
#    x 1.960990 -0.089720 -0.016550 
#    y -0.089720 2.043390 -0.006660 
#    z -0.016550 -0.006660 2.074200 
# 
# From -- ./inp_files/179431.got.cif
#   From: 2010.05.17/outbox.cif.g08.bks.cpg/sg2_90_cif.got.tgz:179431.got - 2010.06.03 11:33:40.
