data_PCOD9085643
_publ_section_title
;
Structure prediction by ZEFSAII (Michael W. Deem and Ramdas Pophale) SiO2 
 PCOD9085643
Probable space group: P -1
;
_chemical_formula_sum "Si O2"
_cell_formula_units_Z 10
_cell_length_a 7.055265
_cell_length_b 12.262764
_cell_length_c 8.865529
_cell_angle_alpha 131.494078
_cell_angle_beta 66.970859
_cell_angle_gamma 76.761669
_cell_volume 373.287188
_symmetry_space_group_name_H-M "P -1"
_symmetry_group_IT_number 2
_symmetry_cell_setting 'triclinic'
loop_
_space_group_symop_operation_xyz
x,y,z
-x,-y,-z
loop_
_atom_site_type_symbol
_atom_site_label
_atom_site_fract_x
_atom_site_fract_y
_atom_site_fract_z
Si Si1 0.742983 0.716441 0.580339
Si Si2 0.728194 0.056372 0.558327
Si Si3 0.185105 0.024800 0.876336
Si Si4 0.642847 0.574106 0.777351
Si Si5 0.896980 0.363244 0.048126
O O1 0.458420 0.939981 0.812360
O O2 0.649156 0.658731 0.695697
O O3 0.838587 0.559401 0.272168
O O4 0.039835 0.644458 0.474805
O O5 0.714571 0.099172 0.425717
O O6 0.453961 0.254191 0.913606
O O7 0.000000 0.000000 0.500000
O O8 0.833364 0.834503 0.316912
O O9 0.000000 0.000000 0.000000
O O10 0.980136 0.254352 0.086965
O O11 0.396589 0.573731 0.851663
#
# Coordination Sequence:
#
# PCOD9085643 Si02
#       5
#     2   2   2   2   2
#     4  11  21  36  61  83 107 153 184 221 279 329
#     4   8  17  36  58  78 115 145 175 236 273 314
#     4  10  19  35  62  80 109 149 187 223 274 332
#     4  10  20  36  58  83 118 139 182 238 270 316
#     4   9  20  38  60  77 112 151 181 224 277 329
#
# _framework density 26.789027000000001
#
# number of rings (size 3 to 8) (size 9 to 14) (size 15 to 20)
#    1.200    1.200    2.000    0.600    0.000    1.600 
#    0.000   10.000    4.400    0.000    0.000    0.000 
#    0.000    0.000    0.000    0.000    0.000    0.000 
#
# Total GULP energy -55989.287136 kJ/mol
# GULP energy per Si atom -5598.928714 kJ/mol
# Density = 2.672805 g / cm^3
# Si number density = 26.789027 Si / 1000 Ang^3
#
#
#
# Elastic Constant Matrix: (Units=GPa)
#
#
# Indices 1 2 3 4 5 6 
#
# 1 103.8019 52.7304 27.5422 7.8465 -17.7880 -23.9467
# 2 52.7304 130.5818 41.5170 15.7924 -10.6132 -28.9162
# 3 27.5422 41.5170 129.1127 -7.2195 -0.1952 -8.3958
# 4 7.8465 15.7924 -7.2195 53.8698 -14.2302 -3.6155
# 5 -17.7880 -10.6132 -0.1952 -14.2302 49.8752 10.4864
# 6 -23.9467 -28.9162 -8.3958 -3.6155 10.4864 48.9165
#
#
#
# Elastic Compliance Matrix: (Units=1/GPa)
#
#
# Indices 1 2 3 4 5 6 
#
# 1 0.013306 -0.003981 -0.001335 0.000126 0.003247 0.003244
# 2 -0.003981 0.011370 -0.002701 -0.003033 -0.000770 0.004249
# 3 -0.001335 -0.002701 0.008982 0.002072 -0.000322 -0.000486
# 4 0.000126 -0.003033 0.002072 0.021137 0.005654 -0.001026
# 5 0.003247 -0.000770 -0.000322 0.005654 0.023396 -0.003519
# 6 0.003244 0.004249 -0.000486 -0.001026 -0.003519 0.025138
#
#
# Mechanical properties :
#
#
# Convention : Reuss Voigt Hill
#
# Bulk Modulus (GPa) = 56.74611 67.45284 62.09948
# Shear Modulus (GPa) = 39.92384 46.64609 43.28497
#
# Velocity S-wave (km/s) = 3.86464 4.17734 4.02403
# Velocity P-wave (km/s) = 6.41424 6.96426 6.69490
#
# Compressibility (1/GPa) = 0.01762235
#
# Stress axis : x y z
#
# Youngs Moduli (GPa) = 75.15468 87.95206 111.32948
#
# Poissons Ratio (x) = 0.35017 0.14865
# Poissons Ratio (y) = 0.29922 0.30072
# Poissons Ratio (z) = 0.10035 0.23758
#
# Static dielectric constant tensor:
#      x y z
#    x 2.038120 -0.023720 0.024700 
#    y -0.023720 2.049360 -0.008130 
#    z 0.024700 -0.008130 2.135640 
# 
# From -- ./inp_files/147257.got.cif
#   From: 2010.05.17/outbox.cif.g08.bks.cpg/sg2_74_cif.got.tgz:147257.got - 2010.06.03 11:33:40.
