data_PCOD9085634
_publ_section_title
;
Structure prediction by ZEFSAII (Michael W. Deem and Ramdas Pophale) SiO2 
 PCOD9085634
Probable space group: P -1
;
_chemical_formula_sum "Si O2"
_cell_formula_units_Z 16
_cell_length_a 16.903993
_cell_length_b 8.584624
_cell_length_c 7.124148
_cell_angle_alpha 105.976082
_cell_angle_beta 84.368987
_cell_angle_gamma 138.197840
_cell_volume 653.176157
_symmetry_space_group_name_H-M "P -1"
_symmetry_group_IT_number 2
_symmetry_cell_setting 'triclinic'
loop_
_space_group_symop_operation_xyz
x,y,z
-x,-y,-z
loop_
_atom_site_type_symbol
_atom_site_label
_atom_site_fract_x
_atom_site_fract_y
_atom_site_fract_z
Si Si1 0.420508 0.093798 0.359148
Si Si2 0.012421 0.523521 0.229971
Si Si3 0.729654 0.630051 0.066268
Si Si4 0.520129 0.848640 0.029761
Si Si5 0.763307 0.950695 0.661833
Si Si6 0.754091 0.042748 0.132288
Si Si7 0.194708 0.519356 0.256749
Si Si8 0.309668 0.520446 0.547807
O O1 0.466148 0.230793 0.192598
O O2 0.337786 0.111916 0.460752
O O3 0.548835 0.231832 0.451818
O O4 0.317649 0.800690 0.256551
O O5 0.084324 0.471063 0.248694
O O6 0.876626 0.312553 0.263188
O O7 0.101804 0.805891 0.358605
O O8 0.000000 0.500000 0.000000
O O9 0.598358 0.399075 0.927479
O O10 0.718354 0.531418 0.241514
O O11 0.748582 0.850552 0.146761
O O12 0.819509 0.661044 0.930375
O O13 0.500000 0.000000 0.000000
O O14 0.639770 0.988358 0.163006
O O15 0.725783 0.709577 0.596539
O O16 0.763218 0.024349 0.897505
O O17 0.225124 0.514139 0.457487
#
# Coordination Sequence:
#
# PCOD9085634 Si02
#       8
#     2   2   2   2   2   2   2   2
#     4   9  19  35  61  89 126 166 200 250 315 366
#     4   9  21  40  70  88 113 171 218 248 310 371
#     4  11  23  38  62  97 129 161 202 253 318 370
#     4  10  19  35  61  96 126 155 208 261 299 370
#     4   9  18  38  62  87 123 160 211 255 299 371
#     4  10  20  40  62  90 123 169 208 248 316 367
#     4  11  21  41  65  92 125 165 208 256 305 368
#     4  11  22  37  60  96 129 161 203 257 312 370
#
# _framework density 24.49569
#
# number of rings (size 3 to 8) (size 9 to 14) (size 15 to 20)
#    0.000    2.000    2.500    1.875    0.000    0.500 
#    2.250    3.750    0.000    0.000    0.000    0.000 
#    0.000    0.000    0.000    0.000    0.000    0.000 
#
# Total GULP energy -89335.055541 kJ/mol
# GULP energy per Si atom -5583.440971 kJ/mol
# Density = 2.443994 g / cm^3
# Si number density = 24.495690 Si / 1000 Ang^3
#
#
#
# Elastic Constant Matrix: (Units=GPa)
#
#
# Indices 1 2 3 4 5 6 
#
# 1 126.0445 43.9293 40.1555 16.2004 32.5983 -0.7316
# 2 43.9293 70.5392 12.7205 9.8937 8.0087 -0.9865
# 3 40.1555 12.7205 90.2355 -10.8310 21.4066 1.5130
# 4 16.2004 9.8937 -10.8310 32.6459 -9.1156 9.2859
# 5 32.5983 8.0087 21.4066 -9.1156 43.8976 5.2770
# 6 -0.7316 -0.9865 1.5130 9.2859 5.2770 31.5985
#
#
#
# Elastic Compliance Matrix: (Units=1/GPa)
#
#
# Indices 1 2 3 4 5 6 
#
# 1 0.016709 -0.006054 -0.005406 -0.013513 -0.012252 0.006474
# 2 -0.006054 0.018370 -0.000403 -0.002869 0.000601 0.001195
# 3 -0.005406 -0.000403 0.014845 0.008325 -0.001047 -0.003120
# 4 -0.013513 -0.002869 0.008325 0.051946 0.019611 -0.019342
# 5 -0.012252 0.000601 -0.001047 0.019611 0.037829 -0.012295
# 6 0.006474 0.001195 -0.003120 -0.019342 -0.012295 0.039721
#
#
# Mechanical properties :
#
#
# Convention : Reuss Voigt Hill
#
# Bulk Modulus (GPa) = 38.17069 53.38109 45.77589
# Shear Modulus (GPa) = 23.59840 34.29600 28.94720
#
# Velocity S-wave (km/s) = 3.10719 3.74583 3.44135
# Velocity P-wave (km/s) = 5.33753 6.36770 5.87524
#
# Compressibility (1/GPa) = 0.02619811
#
# Stress axis : x y z
#
# Youngs Moduli (GPa) = 59.84809 54.43623 67.36430
#
# Poissons Ratio (x) = 0.32956 0.36419
# Poissons Ratio (y) = 0.36232 0.02712
# Poissons Ratio (z) = 0.32356 0.02191
#
# Static dielectric constant tensor:
#      x y z
#    x 2.002850 0.033450 -0.019850 
#    y 0.033450 1.974160 -0.034260 
#    z -0.019850 -0.034260 2.031650 
# 
# From -- ./inp_files/243435.got.cif
#   From: 2010.05.17/outbox.cif.g08.bks.cpg/sg2_122_cif.got.tgz:243435.got - 2010.06.03 11:33:40.
