data_PCOD9085555
_publ_section_title
;
Structure prediction by ZEFSAII (Michael W. Deem and Ramdas Pophale) SiO2 
 PCOD9085555
Probable space group: P -1
;
_chemical_formula_sum "Si O2"
_cell_formula_units_Z 16
_cell_length_a 19.277259
_cell_length_b 10.752359
_cell_length_c 4.983734
_cell_angle_alpha 65.005186
_cell_angle_beta 83.080110
_cell_angle_gamma 43.651487
_cell_volume 617.294013
_symmetry_space_group_name_H-M "P -1"
_symmetry_group_IT_number 2
_symmetry_cell_setting 'triclinic'
loop_
_space_group_symop_operation_xyz
x,y,z
-x,-y,-z
loop_
_atom_site_type_symbol
_atom_site_label
_atom_site_fract_x
_atom_site_fract_y
_atom_site_fract_z
Si Si1 0.470837 0.319992 0.594780
Si Si2 0.439864 0.947795 0.676859
Si Si3 0.803418 0.127122 0.479676
Si Si4 0.834971 0.829777 0.383637
Si Si5 0.279763 0.398119 0.448673
Si Si6 0.976749 0.409051 0.893662
Si Si7 0.856447 0.342448 0.226373
Si Si8 0.321335 0.740729 0.070801
O O1 0.563108 0.139445 0.511057
O O2 0.368702 0.377943 0.511418
O O3 0.430213 0.530924 0.333461
O O4 0.501671 0.226634 0.962583
O O5 0.500000 0.000000 0.500000
O O6 0.336623 0.168348 0.647363
O O7 0.766376 0.185841 0.747359
O O8 0.842185 0.921513 0.553187
O O9 0.874463 0.153857 0.365003
O O10 0.700509 0.289105 0.185077
O O11 0.867718 0.627258 0.615693
O O12 0.930024 0.736111 0.230465
O O13 0.719969 0.041284 0.131045
O O14 0.240118 0.484447 0.088750
O O15 0.183181 0.560359 0.548612
O O16 0.949771 0.304183 0.130381
O O17 0.000000 0.500000 0.000000
#
# Coordination Sequence:
#
# PCOD9085555 Si02
#       8
#     2   2   2   2   2   2   2   2
#     4  11  17  32  55  86 129 166 198 240 297 366
#     4  10  20  29  52  86 129 172 192 241 299 366
#     4  10  19  38  58  92 119 158 198 250 306 356
#     4   9  23  42  65  84 126 154 208 263 295 381
#     4  11  20  36  51  90 128 163 205 237 312 366
#     4  11  25  45  64  89 122 158 216 256 316 363
#     4  12  23  37  65  88 126 167 196 265 305 365
#     4  10  19  35  61  87 124 157 200 244 300 361
#
# _framework density 25.919578000000001
#
# number of rings (size 3 to 8) (size 9 to 14) (size 15 to 20)
#    0.750    0.750    2.500    5.250    3.500    0.500 
#    0.000    1.250    0.000    0.000    0.000    5.250 
#    0.000    0.000    0.000    0.000    0.000    0.000 
#
# Total GULP energy -89420.114518 kJ/mol
# GULP energy per Si atom -5588.757157 kJ/mol
# Density = 2.586058 g / cm^3
# Si number density = 25.919578 Si / 1000 Ang^3
#
#
#
# Elastic Constant Matrix: (Units=GPa)
#
#
# Indices 1 2 3 4 5 6 
#
# 1 79.9240 -1.0401 9.4569 -13.2920 -3.4211 -1.6290
# 2 -1.0401 116.3712 35.5888 -24.7057 -13.0264 22.4152
# 3 9.4569 35.5888 120.5867 -28.3011 0.6924 16.8802
# 4 -13.2920 -24.7057 -28.3011 60.4039 2.0036 -10.6015
# 5 -3.4211 -13.0264 0.6924 2.0036 35.7848 -6.3792
# 6 -1.6290 22.4152 16.8802 -10.6015 -6.3792 20.0780
#
#
#
# Elastic Compliance Matrix: (Units=1/GPa)
#
#
# Indices 1 2 3 4 5 6 
#
# 1 0.013342 0.000658 -0.000972 0.003305 0.001980 0.003539
# 2 0.000658 0.011742 -0.001618 0.002418 0.002518 -0.009618
# 3 -0.000972 -0.001618 0.010422 0.003003 -0.002144 -0.006131
# 4 0.003305 0.002418 0.003003 0.020757 0.001109 0.006357
# 5 0.001980 0.002518 -0.002144 0.001109 0.030724 0.009499
# 6 0.003539 -0.009618 -0.006131 0.006357 0.009499 0.072360
#
#
# Mechanical properties :
#
#
# Convention : Reuss Voigt Hill
#
# Bulk Modulus (GPa) = 31.60253 44.98814 38.29533
# Shear Modulus (GPa) = 28.77603 41.44508 35.11056
#
# Velocity S-wave (km/s) = 3.33559 4.00307 3.68448
# Velocity P-wave (km/s) = 5.20133 6.22580 5.73648
#
# Compressibility (1/GPa) = 0.03164303
#
# Stress axis : x y z
#
# Youngs Moduli (GPa) = 74.95143 85.16720 95.95488
#
# Poissons Ratio (x) = -0.05604 0.09323
# Poissons Ratio (y) = -0.04932 0.15521
# Poissons Ratio (z) = 0.07282 0.13776
#
# Static dielectric constant tensor:
#      x y z
#    x 2.159630 -0.014260 0.012670 
#    y -0.014260 2.019010 -0.097010 
#    z 0.012670 -0.097010 2.093040 
# 
# From -- ./inp_files/108847.got.cif
#   From: 2010.05.17/outbox.cif.g08.bks.cpg/sg2_55_cif.got.tgz:108847.got - 2010.06.03 11:33:40.
