data_PCOD9085654
_publ_section_title
;
Structure prediction by ZEFSAII (Michael W. Deem and Ramdas Pophale) SiO2 
 PCOD9085654
Probable space group: P -1
;
_chemical_formula_sum "Si O2"
_cell_formula_units_Z 16
_cell_length_a 12.994485
_cell_length_b 5.302802
_cell_length_c 11.954501
_cell_angle_alpha 106.307923
_cell_angle_beta 74.635165
_cell_angle_gamma 64.407890
_cell_volume 638.115861
_symmetry_space_group_name_H-M "P -1"
_symmetry_group_IT_number 2
_symmetry_cell_setting 'triclinic'
loop_
_space_group_symop_operation_xyz
x,y,z
-x,-y,-z
loop_
_atom_site_type_symbol
_atom_site_label
_atom_site_fract_x
_atom_site_fract_y
_atom_site_fract_z
Si Si1 0.521928 0.339671 0.723242
Si Si2 0.910633 0.998595 0.116425
Si Si3 0.094663 0.332678 0.347250
Si Si4 0.214010 0.743737 0.382329
Si Si5 0.707959 0.940731 0.066369
Si Si6 0.890861 0.806995 0.321435
Si Si7 0.426419 0.876451 0.078320
Si Si8 0.312312 0.293812 0.731897
O O1 0.639145 0.364603 0.654780
O O2 0.405710 0.696909 0.829489
O O3 0.574321 0.105035 0.786049
O O4 0.450891 0.220574 0.651034
O O5 0.845535 0.840630 0.054943
O O6 0.792834 0.348278 0.218991
O O7 0.960219 0.849895 0.203247
O O8 0.000000 0.000000 0.000000
O O9 0.177582 0.490423 0.342948
O O10 0.000000 0.500000 0.500000
O O11 0.993117 0.457566 0.291822
O O12 0.171263 0.968478 0.313291
O O13 0.139549 0.952978 0.538995
O O14 0.680491 0.746273 0.138958
O O15 0.703331 0.940058 0.933248
O O16 0.755118 0.869452 0.324647
O O17 0.500000 0.500000 0.000000
O O18 0.500000 0.000000 0.000000
#
# Coordination Sequence:
#
# PCOD9085654 Si02
#       8
#     2   2   2   2   2   2   2   2
#     4  10  22  39  63  98 135 167 222 266 329 403
#     4  10  23  41  63  93 124 170 225 270 325 399
#     4  10  23  44  67  95 131 175 224 276 326 385
#     4  11  25  41  70 101 133 175 223 276 328 400
#     4   9  20  39  58  93 128 170 206 273 323 385
#     4  10  23  41  66  91 130 176 216 276 338 382
#     4  10  19  35  62  84 124 170 207 257 322 373
#     4  10  21  40  66  87 133 170 210 272 331 389
#
# _framework density 25.073816000000001
#
# number of rings (size 3 to 8) (size 9 to 14) (size 15 to 20)
#    0.000    2.000    1.250    1.500    7.000    3.500 
#    2.250    5.625    0.000    0.000    0.000    0.000 
#    0.000    0.000    0.000    0.000    0.000    0.000 
#
# Total GULP energy -89279.988091 kJ/mol
# GULP energy per Si atom -5579.999256 kJ/mol
# Density = 2.501675 g / cm^3
# Si number density = 25.073816 Si / 1000 Ang^3
#
#
#
# Elastic Constant Matrix: (Units=GPa)
#
#
# Indices 1 2 3 4 5 6 
#
# 1 154.8997 32.5808 34.4236 -10.1018 -16.0414 14.2882
# 2 32.5808 124.5215 34.4469 -26.1373 2.9631 7.0570
# 3 34.4236 34.4469 79.2593 -13.7396 5.6579 -3.2434
# 4 -10.1018 -26.1373 -13.7396 37.7242 -0.5719 2.7235
# 5 -16.0414 2.9631 5.6579 -0.5719 35.6663 -7.2027
# 6 14.2882 7.0570 -3.2434 2.7235 -7.2027 43.6438
#
#
#
# Elastic Compliance Matrix: (Units=1/GPa)
#
#
# Indices 1 2 3 4 5 6 
#
# 1 0.008031 -0.001071 -0.003309 0.000413 0.003809 -0.002099
# 2 -0.001071 0.010590 -0.003088 0.006064 -0.001213 -0.002170
# 3 -0.003309 -0.003088 0.016182 0.002668 -0.003338 0.002068
# 4 0.000413 0.006064 0.002668 0.031999 -0.000845 -0.003054
# 5 0.003809 -0.001213 -0.003338 -0.000845 0.031154 0.003895
# 6 -0.002099 -0.002170 0.002068 -0.003054 0.003895 0.024938
#
#
# Mechanical properties :
#
#
# Convention : Reuss Voigt Hill
#
# Bulk Modulus (GPa) = 50.33677 62.39813 56.36745
# Shear Modulus (GPa) = 34.61328 40.55547 37.58437
#
# Velocity S-wave (km/s) = 3.71948 4.02611 3.87583
# Velocity P-wave (km/s) = 6.21008 6.82294 6.52371
#
# Compressibility (1/GPa) = 0.01986619
#
# Stress axis : x y z
#
# Youngs Moduli (GPa) = 124.51109 94.42883 61.79877
#
# Poissons Ratio (x) = 0.10114 0.20449
# Poissons Ratio (y) = 0.13336 0.19086
# Poissons Ratio (z) = 0.41200 0.29163
#
# Static dielectric constant tensor:
#      x y z
#    x 2.038580 -0.012720 -0.101880 
#    y -0.012720 1.964730 -0.045730 
#    z -0.101880 -0.045730 1.950210 
# 
# From -- ./inp_files/442070.got.cif
#   From: 2010.05.17/outbox.cif.g08.bks.cpg/sg2_222_cif.got.tgz:442070.got - 2010.06.03 11:33:40.
