data_PCOD9085228
_publ_section_title
;
Structure prediction by ZEFSAII (Michael W. Deem and Ramdas Pophale) SiO2 
 PCOD9085228
Probable space group: P -1
;
_chemical_formula_sum "Si O2"
_cell_formula_units_Z 16
_cell_length_a 13.791826
_cell_length_b 7.564976
_cell_length_c 11.572772
_cell_angle_alpha 104.586165
_cell_angle_beta 141.064583
_cell_angle_gamma 94.702745
_cell_volume 653.223518
_symmetry_space_group_name_H-M "P -1"
_symmetry_group_IT_number 2
_symmetry_cell_setting 'triclinic'
loop_
_space_group_symop_operation_xyz
x,y,z
-x,-y,-z
loop_
_atom_site_type_symbol
_atom_site_label
_atom_site_fract_x
_atom_site_fract_y
_atom_site_fract_z
Si Si1 0.196383 0.340718 0.572981
Si Si2 0.750258 0.267515 0.205113
Si Si3 0.841747 0.472573 0.084378
Si Si4 0.907706 0.078786 0.662325
Si Si5 0.494956 0.480636 0.684846
Si Si6 0.540817 0.793334 0.606079
Si Si7 0.795419 0.209091 0.800295
Si Si8 0.660092 0.891968 0.210108
O O1 0.158801 0.527103 0.599474
O O2 0.349463 0.427307 0.635791
O O3 0.270359 0.277532 0.745997
O O4 0.060062 0.119098 0.360414
O O5 0.817266 0.333311 0.149358
O O6 0.754243 0.070478 0.233556
O O7 0.544729 0.207197 0.008167
O O8 0.964439 0.714176 0.248766
O O9 0.652550 0.447884 0.873228
O O10 0.906477 0.394642 0.019128
O O11 0.894555 0.130849 0.791396
O O12 0.721758 0.998617 0.411149
O O13 0.561862 0.708385 0.734067
O O14 0.420546 0.331432 0.480709
O O15 0.341572 0.747009 0.394990
O O16 0.669427 0.027593 0.738898
#
# Coordination Sequence:
#
# PCOD9085228 Si02
#       8
#     2   2   2   2   2   2   2   2
#     4  10  21  39  61  87 120 152 202 251 290 352
#     4  11  22  39  63  91 116 158 204 250 301 341
#     4  11  23  38  57  87 126 159 194 240 299 368
#     4  10  22  40  59  85 123 161 193 243 306 357
#     4  10  19  35  59  87 114 149 196 250 293 341
#     4   9  19  33  61  89 109 147 204 248 291 343
#     4  10  20  38  61  88 119 153 198 251 298 349
#     4   9  22  39  61  90 115 158 202 248 294 353
#
# _framework density 24.493912000000002
#
# number of rings (size 3 to 8) (size 9 to 14) (size 15 to 20)
#    0.750    1.250    2.500    0.750    5.250    2.000 
#    0.000    1.875    0.000    0.000    0.000    0.000 
#    0.000    0.000    0.000    0.000    0.000    0.000 
#
# Total GULP energy -89477.143452 kJ/mol
# GULP energy per Si atom -5592.321466 kJ/mol
# Density = 2.443816 g / cm^3
# Si number density = 24.493912 Si / 1000 Ang^3
#
#
#
# Elastic Constant Matrix: (Units=GPa)
#
#
# Indices 1 2 3 4 5 6 
#
# 1 109.0093 42.1127 35.1381 3.5021 -10.3886 8.2547
# 2 42.1127 131.4331 27.7936 -4.7038 2.9984 34.0277
# 3 35.1381 27.7936 70.2263 18.4455 -9.3025 6.8821
# 4 3.5021 -4.7038 18.4455 25.9253 -0.3274 -4.3133
# 5 -10.3886 2.9984 -9.3025 -0.3274 18.4694 -5.1452
# 6 8.2547 34.0277 6.8821 -4.3133 -5.1452 24.5841
#
#
#
# Elastic Compliance Matrix: (Units=1/GPa)
#
#
# Indices 1 2 3 4 5 6 
#
# 1 0.012588 -0.004456 -0.004528 0.001623 0.006929 0.004943
# 2 -0.004456 0.016023 -0.004536 0.002958 -0.013383 -0.021694
# 3 -0.004528 -0.004536 0.024155 -0.017250 0.010083 0.000120
# 4 0.001623 0.002958 -0.017250 0.052490 -0.004998 0.008354
# 5 0.006929 -0.013383 0.010083 -0.004998 0.072938 0.027763
# 6 0.004943 -0.021694 0.000120 0.008354 0.027763 0.076287
#
#
# Mechanical properties :
#
#
# Convention : Reuss Voigt Hill
#
# Bulk Modulus (GPa) = 38.86831 57.86194 48.36513
# Shear Modulus (GPa) = 17.23570 27.50404 22.36987
#
# Velocity S-wave (km/s) = 2.65556 3.35459 3.02534
# Velocity P-wave (km/s) = 5.03048 6.21922 5.65616
#
# Compressibility (1/GPa) = 0.02572790
#
# Stress axis : x y z
#
# Youngs Moduli (GPa) = 79.43896 62.41063 41.39912
#
# Poissons Ratio (x) = 0.27808 0.18745
# Poissons Ratio (y) = 0.35395 0.18777
# Poissons Ratio (z) = 0.35969 0.28307
#
# Static dielectric constant tensor:
#      x y z
#    x 1.931210 -0.038530 -0.003080 
#    y -0.038530 1.979430 0.009110 
#    z -0.003080 0.009110 1.955260 
# 
# From -- ./inp_files/446223.got.cif
#   From: 2010.05.17/outbox.cif.g08.bks.cpg/sg2_224_cif.got.tgz:446223.got - 2010.06.03 11:33:40.
