data_PCOD9085581
_publ_section_title
;
Structure prediction by ZEFSAII (Michael W. Deem and Ramdas Pophale) SiO2 
 PCOD9085581
Probable space group: P -1
;
_chemical_formula_sum "Si O2"
_cell_formula_units_Z 11
_cell_length_a 13.258989
_cell_length_b 5.586743
_cell_length_c 17.657369
_cell_angle_alpha 115.884504
_cell_angle_beta 21.232766
_cell_angle_gamma 122.920641
_cell_volume 386.933074
_symmetry_space_group_name_H-M "P -1"
_symmetry_group_IT_number 2
_symmetry_cell_setting 'triclinic'
loop_
_space_group_symop_operation_xyz
x,y,z
-x,-y,-z
loop_
_atom_site_type_symbol
_atom_site_label
_atom_site_fract_x
_atom_site_fract_y
_atom_site_fract_z
Si Si1 0.000000 0.500000 0.500000
Si Si2 0.371682 0.501638 0.738429
Si Si3 0.397714 0.180867 0.992575
Si Si4 0.256057 0.073340 0.633987
Si Si5 0.435743 0.083010 0.744812
Si Si6 0.076481 0.902411 0.325879
O O1 0.652198 0.319250 0.684051
O O2 0.920715 0.785678 0.616460
O O3 0.308151 0.378335 0.680218
O O4 0.265648 0.238086 0.836283
O O5 0.270563 0.765841 0.856669
O O6 0.738383 0.646976 0.521240
O O7 0.233173 0.930217 0.137483
O O8 0.500000 0.500000 0.000000
O O9 0.109633 0.122616 0.131407
O O10 0.734407 0.175049 0.750355
O O11 0.500000 0.000000 0.500000
O O12 0.349984 0.004470 0.475744
#
# Coordination Sequence:
#
# PCOD9085581 Si02
#       6
#     1   2   2   2   2   2
#     4  10  20  40  58  92 120 166 198 250 306 378
#     4  10  20  37  58  93 112 161 202 261 295 360
#     4  11  21  39  57  93 123 155 204 257 312 353
#     4  10  19  35  61  89 120 157 206 257 301 363
#     4  10  20  33  57  88 119 149 205 245 305 356
#     4  10  23  36  62  88 124 155 206 255 309 362
#
# _framework density 28.428688999999999
#
# number of rings (size 3 to 8) (size 9 to 14) (size 15 to 20)
#    0.000    1.818    3.636    2.727    0.000    2.909 
#    3.273    0.000    0.000    8.727    0.000    0.000 
#    0.000    0.000    0.000    0.000    0.000    0.000 
#
# Total GULP energy -61328.840395 kJ/mol
# GULP energy per Si atom -5575.349127 kJ/mol
# Density = 2.836398 g / cm^3
# Si number density = 28.428689 Si / 1000 Ang^3
#
#
#
# Elastic Constant Matrix: (Units=GPa)
#
#
# Indices 1 2 3 4 5 6 
#
# 1 124.1909 29.5045 51.8095 -16.5872 -35.2712 -3.0845
# 2 29.5045 181.3538 49.5711 -35.9399 -31.8911 19.3225
# 3 51.8095 49.5711 150.0745 -8.8134 -37.9639 5.8797
# 4 -16.5872 -35.9399 -8.8134 59.8585 0.2815 -20.1265
# 5 -35.2712 -31.8911 -37.9639 0.2815 53.5192 2.5303
# 6 -3.0845 19.3225 5.8797 -20.1265 2.5303 60.9488
#
#
#
# Elastic Compliance Matrix: (Units=1/GPa)
#
#
# Indices 1 2 3 4 5 6 
#
# 1 0.011080 0.000369 -0.002348 0.003447 0.005764 0.001569
# 2 0.000369 0.007370 -0.001352 0.003964 0.003704 -0.001032
# 3 -0.002348 -0.001352 0.008949 -0.000457 0.004039 -0.000872
# 4 0.003447 0.003964 -0.000457 0.021994 0.003907 0.006062
# 5 0.005764 0.003704 0.004039 0.003907 0.027589 -0.001127
# 6 0.001569 -0.001032 -0.000872 0.006062 -0.001127 0.018947
#
#
# Mechanical properties :
#
#
# Convention : Reuss Voigt Hill
#
# Bulk Modulus (GPa) = 48.21908 79.70995 63.96452
# Shear Modulus (GPa) = 45.66014 56.51423 51.08718
#
# Velocity S-wave (km/s) = 4.01200 4.46346 4.24374
# Velocity P-wave (km/s) = 6.20160 7.39342 6.82358
#
# Compressibility (1/GPa) = 0.02073868
#
# Stress axis : x y z
#
# Youngs Moduli (GPa) = 90.24903 135.67666 111.73822
#
# Poissons Ratio (x) = -0.05001 0.26235
# Poissons Ratio (y) = -0.03326 0.15102
# Poissons Ratio (z) = 0.21190 0.18337
#
# Static dielectric constant tensor:
#      x y z
#    x 2.586550 -0.020020 0.236770 
#    y -0.020020 1.994250 -0.013090 
#    z 0.236770 -0.013090 2.444950 
# 
# From -- ./inp_files/64800.got.cif
#   From: 2010.05.17/outbox.cif.g08.bks.cpg/sg2_33_cif.got.tgz:64800.got - 2010.06.03 11:33:40.
