data_PCOD9085074
_publ_section_title
;
Structure prediction by ZEFSAII (Michael W. Deem and Ramdas Pophale) SiO2 
 PCOD9085074
Probable space group: P -1
;
_chemical_formula_sum "Si O2"
_cell_formula_units_Z 16
_cell_length_a 11.716530
_cell_length_b 11.625554
_cell_length_c 9.270257
_cell_angle_alpha 121.461253
_cell_angle_beta 55.027916
_cell_angle_gamma 126.130960
_cell_volume 802.771570
_symmetry_space_group_name_H-M "P -1"
_symmetry_group_IT_number 2
_symmetry_cell_setting 'triclinic'
loop_
_space_group_symop_operation_xyz
x,y,z
-x,-y,-z
loop_
_atom_site_type_symbol
_atom_site_label
_atom_site_fract_x
_atom_site_fract_y
_atom_site_fract_z
Si Si1 0.019260 0.609487 0.924820
Si Si2 0.212382 0.667468 0.545878
Si Si3 0.745091 0.503500 0.847796
Si Si4 0.294152 0.895606 0.981195
Si Si5 0.432681 0.270939 0.632196
Si Si6 0.655728 0.007165 0.316201
Si Si7 0.417497 0.172759 0.261095
Si Si8 0.543723 0.602899 0.863176
O O1 0.119488 0.592877 0.707323
O O2 0.121236 0.775762 0.013387
O O3 0.859304 0.580926 0.945616
O O4 0.000000 0.500000 0.000000
O O5 0.174015 0.567130 0.366788
O O6 0.389591 0.703368 0.471526
O O7 0.213806 0.830352 0.630309
O O8 0.679434 0.600747 0.863594
O O9 0.586708 0.373290 0.934717
O O10 0.347023 0.986130 0.851185
O O11 0.407611 0.813151 0.861163
O O12 0.320641 0.006745 0.166650
O O13 0.379909 0.211673 0.471601
O O14 0.449215 0.434883 0.762910
O O15 0.334587 0.140305 0.727776
O O16 0.500000 0.000000 0.500000
O O17 0.399350 0.284647 0.233786
#
# Coordination Sequence:
#
# PCOD9085074 Si02
#       8
#     2   2   2   2   2   2   2   2
#     4  11  21  39  58  87 120 149 189 249 294 335
#     4   9  19  35  57  90 111 150 194 236 294 336
#     4  10  22  37  59  82 119 152 201 226 293 345
#     4  10  22  34  59  91 111 148 196 242 300 327
#     4  10  19  35  58  88 121 149 189 237 294 339
#     4   9  16  31  54  82 120 137 185 243 280 341
#     4  11  20  36  58  85 121 145 191 248 281 339
#     4  10  23  36  58  89 114 159 196 229 286 354
#
# _framework density 19.930948000000001
#
# number of rings (size 3 to 8) (size 9 to 14) (size 15 to 20)
#    0.000    2.000    3.750    1.500    7.000    1.000 
#    0.000    0.625    0.000    0.750    0.000    0.000 
#    0.000    0.000    0.000    0.000    0.000    0.000 
#
# Total GULP energy -89206.163163 kJ/mol
# GULP energy per Si atom -5575.385198 kJ/mol
# Density = 1.988558 g / cm^3
# Si number density = 19.930948 Si / 1000 Ang^3
#
#
#
# Elastic Constant Matrix: (Units=GPa)
#
#
# Indices 1 2 3 4 5 6 
#
# 1 102.2814 45.7237 24.4718 -2.7001 26.7186 13.1710
# 2 45.7237 80.7352 35.5490 -5.1324 13.7953 -0.4742
# 3 24.4718 35.5490 67.6976 4.4563 14.1571 3.6443
# 4 -2.7001 -5.1324 4.4563 36.4230 1.4757 9.2038
# 5 26.7186 13.7953 14.1571 1.4757 29.0645 -0.0350
# 6 13.1710 -0.4742 3.6443 9.2038 -0.0350 27.8867
#
#
#
# Elastic Compliance Matrix: (Units=1/GPa)
#
#
# Indices 1 2 3 4 5 6 
#
# 1 0.018053 -0.008203 0.000889 0.003094 -0.013304 -0.009820
# 2 -0.008203 0.020702 -0.008681 0.002118 0.001842 0.004664
# 3 0.000889 -0.008681 0.020711 -0.002829 -0.006644 -0.002349
# 4 0.003094 0.002118 -0.002829 0.031379 -0.004079 -0.011417
# 5 -0.013304 0.001842 -0.006644 -0.004079 0.049216 0.008591
# 6 -0.009820 0.004664 -0.002349 -0.011417 0.008591 0.044663
#
#
# Mechanical properties :
#
#
# Convention : Reuss Voigt Hill
#
# Bulk Modulus (GPa) = 36.39700 51.35593 43.87646
# Shear Modulus (GPa) = 22.13630 28.33948 25.23789
#
# Velocity S-wave (km/s) = 3.33626 3.77488 3.56232
# Velocity P-wave (km/s) = 5.75691 6.69496 6.24358
#
# Compressibility (1/GPa) = 0.02747479
#
# Stress axis : x y z
#
# Youngs Moduli (GPa) = 55.39211 48.30499 48.28380
#
# Poissons Ratio (x) = 0.39626 -0.04292
# Poissons Ratio (y) = 0.45440 0.41916
# Poissons Ratio (z) = -0.04924 0.41934
#
# Static dielectric constant tensor:
#      x y z
#    x 1.718230 -0.000690 -0.001470 
#    y -0.000690 1.747100 0.053990 
#    z -0.001470 0.053990 1.761200 
# 
# From -- ./inp_files/262789.got.cif
#   From: 2010.05.17/outbox.cif.g08.bks.cpg/sg2_132_cif.got.tgz:262789.got - 2010.06.03 11:33:40.
