data_PCOD9085664
_publ_section_title
;
Structure prediction by ZEFSAII (Michael W. Deem and Ramdas Pophale) SiO2 
 PCOD9085664
Probable space group: P -1
;
_chemical_formula_sum "Si O2"
_cell_formula_units_Z 14
_cell_length_a 22.471041
_cell_length_b 19.442562
_cell_length_c 7.988067
_cell_angle_alpha 148.092624
_cell_angle_beta 143.046650
_cell_angle_gamma 20.491910
_cell_volume 645.602694
_symmetry_space_group_name_H-M "P -1"
_symmetry_group_IT_number 2
_symmetry_cell_setting 'triclinic'
loop_
_space_group_symop_operation_xyz
x,y,z
-x,-y,-z
loop_
_atom_site_type_symbol
_atom_site_label
_atom_site_fract_x
_atom_site_fract_y
_atom_site_fract_z
Si Si1 0.575376 0.535320 0.356148
Si Si2 0.146965 0.694134 0.874416
Si Si3 0.768610 0.773520 0.176774
Si Si4 0.719916 0.164408 0.432434
Si Si5 0.437645 0.228667 0.465397
Si Si6 0.856583 0.083978 0.240025
Si Si7 0.980067 0.711845 0.258006
O O1 0.454621 0.680342 0.545728
O O2 0.564629 0.673479 0.500249
O O3 0.756799 0.289805 0.321596
O O4 0.500000 0.500000 0.000000
O O5 0.316313 0.428142 0.740067
O O6 0.087092 0.708848 0.588388
O O7 0.208155 0.777253 0.204233
O O8 0.976792 0.858306 0.940997
O O9 0.871440 0.760166 0.261120
O O10 0.635294 0.986381 0.438914
O O11 0.655320 0.805550 0.863234
O O12 0.898292 0.529949 0.041835
O O13 0.719216 0.179113 0.261093
O O14 0.856425 0.908948 0.256150
O O15 0.000000 0.000000 0.500000
#
# Coordination Sequence:
#
# PCOD9085664 Si02
#       7
#     2   2   2   2   2   2   2
#     4  12  22  37  64  94 118 154 199 248 300 356
#     4  10  21  34  58  88 120 152 195 247 298 348
#     4   9  20  34  54  91 114 157 199 257 285 334
#     4  11  21  37  57  91 122 154 189 244 311 359
#     4  10  20  35  58  89 120 145 204 255 289 337
#     4  10  25  38  55  91 129 158 189 233 320 363
#     4  10  19  35  62  87 118 154 207 247 288 349
#
# _framework density 21.685162999999999
#
# number of rings (size 3 to 8) (size 9 to 14) (size 15 to 20)
#    0.000    1.714    2.857    1.714    8.000    0.000 
#    0.000    0.000    0.000    8.571    3.714    0.000 
#    0.000    0.000    0.000    0.000    0.000    0.000 
#
# Total GULP energy -78100.895376 kJ/mol
# GULP energy per Si atom -5578.635384 kJ/mol
# Density = 2.163581 g / cm^3
# Si number density = 21.685163 Si / 1000 Ang^3
#
#
#
# Elastic Constant Matrix: (Units=GPa)
#
#
# Indices 1 2 3 4 5 6 
#
# 1 74.3721 9.8960 45.8274 9.0700 -12.2502 -18.3764
# 2 9.8960 98.9234 46.5345 36.0241 -6.6041 -5.2580
# 3 45.8274 46.5345 73.5666 31.9859 3.8321 -0.5148
# 4 9.0700 36.0241 31.9859 46.4802 -15.4300 -3.6883
# 5 -12.2502 -6.6041 3.8321 -15.4300 26.7833 8.4770
# 6 -18.3764 -5.2580 -0.5148 -3.6883 8.4770 36.6642
#
#
#
# Elastic Compliance Matrix: (Units=1/GPa)
#
#
# Indices 1 2 3 4 5 6 
#
# 1 0.092493 0.023590 -0.108927 0.072845 0.095050 0.033564
# 2 0.023590 0.022266 -0.034730 0.010926 0.024382 0.009991
# 3 -0.108927 -0.034730 0.155245 -0.104403 -0.128670 -0.038150
# 4 0.072845 0.010926 -0.104403 0.107573 0.105641 0.023008
# 5 0.095050 0.024382 -0.128670 0.105641 0.158732 0.023257
# 6 0.033564 0.009991 -0.038150 0.023008 0.023257 0.041931
#
#
# Mechanical properties :
#
#
# Convention : Reuss Voigt Hill
#
# Bulk Modulus (GPa) = 33.47999 50.15312 41.81655
# Shear Modulus (GPa) = 6.03623 31.62582 18.83102
#
# Velocity S-wave (km/s) = 1.67021 3.82305 2.95003
# Velocity P-wave (km/s) = 4.38088 6.53190 5.56138
#
# Compressibility (1/GPa) = 0.02986859
#
# Stress axis : x y z
#
# Youngs Moduli (GPa) = 10.81168 44.91106 6.44142
#
# Poissons Ratio (x) = -1.05945 0.70165
# Poissons Ratio (y) = -0.25505 0.22371
# Poissons Ratio (z) = 1.17769 1.55978
#
# Static dielectric constant tensor:
#      x y z
#    x 1.813830 -0.069780 -0.026890 
#    y -0.069780 1.837340 0.037120 
#    z -0.026890 0.037120 1.819250 
# 
# From -- ./inp_files/169380.got.cif
#   From: 2010.05.17/outbox.cif.g08.bks.cpg/sg2_85_cif.got.tgz:169380.got - 2010.06.03 11:33:40.
