data_PCOD9085375
_publ_section_title
;
Structure prediction by ZEFSAII (Michael W. Deem and Ramdas Pophale) SiO2 
 PCOD9085375
Probable space group: P -1
;
_chemical_formula_sum "Si O2"
_cell_formula_units_Z 15
_cell_length_a 9.699597
_cell_length_b 17.346985
_cell_length_c 10.976037
_cell_angle_alpha 27.511235
_cell_angle_beta 48.721812
_cell_angle_gamma 43.536879
_cell_volume 586.807561
_symmetry_space_group_name_H-M "P -1"
_symmetry_group_IT_number 2
_symmetry_cell_setting 'triclinic'
loop_
_space_group_symop_operation_xyz
x,y,z
-x,-y,-z
loop_
_atom_site_type_symbol
_atom_site_label
_atom_site_fract_x
_atom_site_fract_y
_atom_site_fract_z
Si Si1 0.283119 0.347924 0.028616
Si Si2 0.029485 0.678869 0.098438
Si Si3 0.000000 0.000000 0.000000
Si Si4 0.685273 0.910481 0.160404
Si Si5 0.208944 0.538152 0.541144
Si Si6 0.061737 0.725483 0.743350
Si Si7 0.260858 0.791341 0.989845
Si Si8 0.548193 0.244484 0.609526
O O1 0.259911 0.459262 0.757258
O O2 0.169678 0.503557 0.975089
O O3 0.512159 0.240472 0.083933
O O4 0.157741 0.226061 0.251109
O O5 0.036174 0.767936 0.841172
O O6 0.217416 0.671737 0.078253
O O7 0.842105 0.798971 0.121098
O O8 0.975257 0.504719 0.343474
O O9 0.196400 0.057972 0.842032
O O10 0.078005 0.985280 0.826621
O O11 0.550948 0.106170 0.908100
O O12 0.543085 0.800024 0.398742
O O13 0.179357 0.746351 0.237405
O O14 0.402960 0.434691 0.487652
O O15 0.228387 0.780328 0.511194
#
# Coordination Sequence:
#
# PCOD9085375 Si02
#       8
#     2   2   1   2   2   2   2   2
#     4  10  21  35  57  89 117 142 192 235 285 323
#     4   9  21  37  53  81 119 149 188 224 287 340
#     4  10  22  36  56  86 114 138 184 240 292 322
#     4   9  20  37  57  84 112 147 189 241 269 336
#     4  10  19  35  60  87 106 144 196 246 274 326
#     4  10  21  37  55  86 117 154 184 230 280 343
#     4  11  20  36  60  83 113 150 185 243 280 334
#     4  10  19  36  62  83 109 149 196 229 283 323
#
# _framework density 25.562044
#
# number of rings (size 3 to 8) (size 9 to 14) (size 15 to 20)
#    0.000    2.133    1.333    1.600    1.867    2.133 
#    0.000    1.333    0.000    3.200    0.000    0.000 
#    0.000    0.000    0.000    0.000    0.000    0.000 
#
# Total GULP energy -83623.548250 kJ/mol
# GULP energy per Si atom -5574.903217 kJ/mol
# Density = 2.550386 g / cm^3
# Si number density = 25.562044 Si / 1000 Ang^3
#
#
#
# Elastic Constant Matrix: (Units=GPa)
#
#
# Indices 1 2 3 4 5 6 
#
# 1 196.7627 49.5235 40.8708 9.7692 -56.9678 -21.9655
# 2 49.5235 59.2678 20.5302 -2.1581 -22.0864 -7.1733
# 3 40.8708 20.5302 71.9720 7.3976 -23.0846 1.4792
# 4 9.7692 -2.1581 7.3976 31.8724 -8.5572 -10.5098
# 5 -56.9678 -22.0864 -23.0846 -8.5572 40.5713 6.9008
# 6 -21.9655 -7.1733 1.4792 -10.5098 6.9008 47.0451
#
#
#
# Elastic Compliance Matrix: (Units=1/GPa)
#
#
# Indices 1 2 3 4 5 6 
#
# 1 0.009446 -0.003185 -0.001203 0.000869 0.010586 0.002604
# 2 -0.003185 0.024061 -0.003304 0.006268 0.007632 0.002566
# 3 -0.001203 -0.003304 0.018070 -0.003371 0.006654 -0.003363
# 4 0.000869 0.006268 -0.003371 0.037593 0.009194 0.008517
# 5 0.010586 0.007632 0.006654 0.009194 0.049269 0.000724
# 6 0.002604 0.002566 -0.003363 0.008517 0.000724 0.024765
#
#
# Mechanical properties :
#
#
# Convention : Reuss Voigt Hill
#
# Bulk Modulus (GPa) = 27.62918 61.09462 44.36190
# Shear Modulus (GPa) = 26.22565 38.36963 32.29764
#
# Velocity S-wave (km/s) = 3.20654 3.87853 3.55843
# Velocity P-wave (km/s) = 4.95392 6.63398 5.85453
#
# Compressibility (1/GPa) = 0.03619362
#
# Stress axis : x y z
#
# Youngs Moduli (GPa) = 105.86304 41.56073 55.34015
#
# Poissons Ratio (x) = 0.13236 0.06659
# Poissons Ratio (y) = 0.33714 0.18284
# Poissons Ratio (z) = 0.12738 0.13732
#
# Static dielectric constant tensor:
#      x y z
#    x 2.047390 0.017500 -0.045880 
#    y 0.017500 2.112320 -0.115760 
#    z -0.045880 -0.115760 2.230470 
# 
# From -- ./inp_files/175359.got.cif
#   From: 2010.05.17/outbox.cif.g08.bks.cpg/sg2_88_cif.got.tgz:175359.got - 2010.06.03 11:33:40.
