data_PCOD9085915
_publ_section_title
;
Structure prediction by ZEFSAII (Michael W. Deem and Ramdas Pophale) SiO2 
 PCOD9085915
Probable space group: P -1
;
_chemical_formula_sum "Si O2"
_cell_formula_units_Z 14
_cell_length_a 15.428905
_cell_length_b 7.609881
_cell_length_c 11.677642
_cell_angle_alpha 90.776409
_cell_angle_beta 129.082657
_cell_angle_gamma 129.294697
_cell_volume 598.369730
_symmetry_space_group_name_H-M "P -1"
_symmetry_group_IT_number 2
_symmetry_cell_setting 'triclinic'
loop_
_space_group_symop_operation_xyz
x,y,z
-x,-y,-z
loop_
_atom_site_type_symbol
_atom_site_label
_atom_site_fract_x
_atom_site_fract_y
_atom_site_fract_z
Si Si1 0.305273 0.407951 0.297722
Si Si2 0.106336 0.316975 0.324720
Si Si3 0.361006 0.655351 0.744944
Si Si4 0.726751 0.139145 0.673224
Si Si5 0.408042 0.689611 0.047639
Si Si6 0.119536 0.448168 0.987721
Si Si7 0.356623 0.265525 0.127496
O O1 0.205814 0.284132 0.338232
O O2 0.151678 0.317957 0.090290
O O3 0.355938 0.302223 0.264004
O O4 0.506210 0.785032 0.467859
O O5 0.161050 0.374777 0.503211
O O6 0.220895 0.631473 0.366059
O O7 0.873997 0.039345 0.105447
O O8 0.523578 0.746918 0.815601
O O9 0.422419 0.941080 0.799879
O O10 0.358841 0.591884 0.873732
O O11 0.769434 0.260323 0.839572
O O12 0.896549 0.219789 0.788739
O O13 0.223167 0.541122 0.956051
O O14 0.447466 0.559567 0.146224
#
# Coordination Sequence:
#
# PCOD9085915 Si02
#       7
#     2   2   2   2   2   2   2
#     4  10  21  37  60  91 126 160 200 250 304 365
#     4  11  22  37  60  94 125 157 204 252 303 364
#     4  11  24  43  65  87 122 165 204 251 302 357
#     4  10  19  35  64  93 122 163 201 244 308 367
#     4  10  22  44  65  87 122 163 206 251 299 358
#     4   9  18  35  61  90 121 156 200 251 296 352
#     4  11  24  41  63  92 124 159 203 253 303 360
#
# _framework density 23.396905
#
# number of rings (size 3 to 8) (size 9 to 14) (size 15 to 20)
#    0.000    1.714    0.000    6.000    0.000    5.714 
#    0.000   10.714    0.000    0.000    0.000    0.000 
#    0.000    0.000    0.000    0.000    0.000    0.000 
#
# Total GULP energy -78401.763721 kJ/mol
# GULP energy per Si atom -5600.125980 kJ/mol
# Density = 2.334365 g / cm^3
# Si number density = 23.396905 Si / 1000 Ang^3
#
#
#
# Elastic Constant Matrix: (Units=GPa)
#
#
# Indices 1 2 3 4 5 6 
#
# 1 89.4933 2.3066 13.9038 -6.6807 -14.5845 -3.9893
# 2 2.3066 65.8952 3.4005 -8.5789 -16.8232 -10.2849
# 3 13.9038 3.4005 87.1392 14.0500 -6.7457 -10.0452
# 4 -6.6807 -8.5789 14.0500 26.0368 1.6153 -5.9083
# 5 -14.5845 -16.8232 -6.7457 1.6153 40.1541 -7.8902
# 6 -3.9893 -10.2849 -10.0452 -5.9083 -7.8902 38.0725
#
#
#
# Elastic Compliance Matrix: (Units=1/GPa)
#
#
# Indices 1 2 3 4 5 6 
#
# 1 0.013002 0.002460 -0.002245 0.005800 0.005839 0.003545
# 2 0.002460 0.020546 -0.000779 0.009256 0.010822 0.009282
# 3 -0.002245 -0.000779 0.013523 -0.007722 0.001896 0.002317
# 4 0.005800 0.009256 -0.007722 0.049012 0.004608 0.009632
# 5 0.005839 0.010822 0.001896 0.004608 0.034011 0.011799
# 6 0.003545 0.009282 0.002317 0.009632 0.011799 0.033696
#
#
# Mechanical properties :
#
#
# Convention : Reuss Voigt Hill
#
# Bulk Modulus (GPa) = 21.76580 31.30549 26.53565
# Shear Modulus (GPa) = 27.74180 35.71381 31.72780
#
# Velocity S-wave (km/s) = 3.44714 3.91120 3.68648
# Velocity P-wave (km/s) = 5.01665 5.81428 5.43013
#
# Compressibility (1/GPa) = 0.04594363
#
# Stress axis : x y z
#
# Youngs Moduli (GPa) = 76.91101 48.67015 73.94552
#
# Poissons Ratio (x) = -0.11972 0.16602
# Poissons Ratio (y) = -0.18919 0.05760
# Poissons Ratio (z) = 0.17268 0.03791
#
# Static dielectric constant tensor:
#      x y z
#    x 1.908140 -0.071400 -0.036750 
#    y -0.071400 1.942490 0.024230 
#    z -0.036750 0.024230 1.854970 
# 
# From -- ./inp_files/446119.got.cif
#   From: 2010.05.17/outbox.cif.g08.bks.cpg/sg2_224_cif.got.tgz:446119.got - 2010.06.03 11:33:40.
