data_PCOD9085732
_publ_section_title
;
Structure prediction by ZEFSAII (Michael W. Deem and Ramdas Pophale) SiO2 
 PCOD9085732
Probable space group: P -1
;
_chemical_formula_sum "Si O2"
_cell_formula_units_Z 14
_cell_length_a 7.469445
_cell_length_b 11.252059
_cell_length_c 9.248191
_cell_angle_alpha 124.917679
_cell_angle_beta 69.487298
_cell_angle_gamma 122.322723
_cell_volume 537.487555
_symmetry_space_group_name_H-M "P -1"
_symmetry_group_IT_number 2
_symmetry_cell_setting 'triclinic'
loop_
_space_group_symop_operation_xyz
x,y,z
-x,-y,-z
loop_
_atom_site_type_symbol
_atom_site_label
_atom_site_fract_x
_atom_site_fract_y
_atom_site_fract_z
Si Si1 0.643821 0.352987 0.089668
Si Si2 0.450249 0.086439 0.742498
Si Si3 0.826998 0.335982 0.617507
Si Si4 0.890535 0.611874 0.009161
Si Si5 0.094417 0.942337 0.063046
Si Si6 0.635746 0.211693 0.285258
Si Si7 0.996220 0.097081 0.426179
O O1 0.604829 0.325181 0.251495
O O2 0.870077 0.350023 0.978994
O O3 0.465722 0.204387 0.952866
O O4 0.697967 0.521630 0.112505
O O5 0.617860 0.204925 0.665116
O O6 0.513664 0.949258 0.693506
O O7 0.226082 0.990687 0.660647
O O8 0.865115 0.502779 0.798335
O O9 0.782744 0.324640 0.450854
O O10 0.006816 0.274582 0.563757
O O11 0.916239 0.785306 0.080891
O O12 0.252884 0.875840 0.907281
O O13 0.165976 0.083656 0.258776
O O14 0.000000 0.000000 0.000000
O O15 0.000000 0.000000 0.500000
#
# Coordination Sequence:
#
# PCOD9085732 Si02
#       7
#     2   2   2   2   2   2   2
#     4   9  19  34  58  88 117 156 203 244 290 351
#     4  10  20  39  59  91 124 159 206 250 298 360
#     4  10  21  40  61  93 124 159 208 249 301 356
#     4   9  21  37  62  87 124 161 203 246 300 367
#     4  11  21  40  59  90 123 158 203 249 306 361
#     4  10  19  35  62  93 118 157 201 255 293 351
#     4  11  24  38  61  88 123 164 199 251 308 357
#
# _framework density 26.047117
#
# number of rings (size 3 to 8) (size 9 to 14) (size 15 to 20)
#    0.000    2.000    2.857    2.143   10.000    2.286 
#    2.571    2.857    0.000    0.000    0.000    9.000 
#    0.000    0.000    0.000    0.000    0.000    0.000 
#
# Total GULP energy -78179.296217 kJ/mol
# GULP energy per Si atom -5584.235444 kJ/mol
# Density = 2.598783 g / cm^3
# Si number density = 26.047117 Si / 1000 Ang^3
#
#
#
# Elastic Constant Matrix: (Units=GPa)
#
#
# Indices 1 2 3 4 5 6 
#
# 1 64.2312 8.8110 4.6794 -5.6877 22.5988 2.8930
# 2 8.8110 133.9989 -0.1189 -16.8428 10.0358 0.5625
# 3 4.6794 -0.1189 120.3612 -24.1112 7.4532 -1.4561
# 4 -5.6877 -16.8428 -24.1112 43.9090 -16.3405 11.6119
# 5 22.5988 10.0358 7.4532 -16.3405 35.1041 0.2839
# 6 2.8930 0.5625 -1.4561 11.6119 0.2839 35.9049
#
#
#
# Elastic Compliance Matrix: (Units=1/GPa)
#
#
# Indices 1 2 3 4 5 6 
#
# 1 0.020487 -0.000659 -0.000533 -0.003071 -0.014312 -0.000556
# 2 -0.000659 0.007988 0.000758 0.003585 -0.000342 -0.001198
# 3 -0.000533 0.000758 0.009498 0.006247 0.001031 -0.001612
# 4 -0.003071 0.003585 0.006247 0.036418 0.016671 -0.011465
# 5 -0.014312 -0.000342 0.001031 0.016671 0.045376 -0.004550
# 6 -0.000556 -0.001198 -0.001612 -0.011465 -0.004550 0.031593
#
#
# Mechanical properties :
#
#
# Convention : Reuss Voigt Hill
#
# Bulk Modulus (GPa) = 26.95071 38.37049 32.66060
# Shear Modulus (GPa) = 30.37746 43.33157 36.85451
#
# Velocity S-wave (km/s) = 3.41875 4.08313 3.76562
# Velocity P-wave (km/s) = 5.09442 6.08214 5.61006
#
# Compressibility (1/GPa) = 0.03710478
#
# Stress axis : x y z
#
# Youngs Moduli (GPa) = 48.81248 125.18826 105.28602
#
# Poissons Ratio (x) = 0.08254 0.05610
# Poissons Ratio (y) = 0.03218 -0.07984
# Poissons Ratio (z) = 0.02601 -0.09493
#
# Static dielectric constant tensor:
#      x y z
#    x 2.135180 0.004040 -0.017260 
#    y 0.004040 2.238430 -0.074200 
#    z -0.017260 -0.074200 2.116670 
# 
# From -- ./inp_files/189883.got.cif
#   From: 2010.05.17/outbox.cif.g08.bks.cpg/sg2_95_cif.got.tgz:189883.got - 2010.06.03 11:33:40.
