data_PCOD9085504
_publ_section_title
;
Structure prediction by ZEFSAII (Michael W. Deem and Ramdas Pophale) SiO2 
 PCOD9085504
Probable space group: P -1
;
_chemical_formula_sum "Si O2"
_cell_formula_units_Z 16
_cell_length_a 9.521240
_cell_length_b 14.604713
_cell_length_c 6.093863
_cell_angle_alpha 70.840268
_cell_angle_beta 89.088404
_cell_angle_gamma 110.324359
_cell_volume 742.492965
_symmetry_space_group_name_H-M "P -1"
_symmetry_group_IT_number 2
_symmetry_cell_setting 'triclinic'
loop_
_space_group_symop_operation_xyz
x,y,z
-x,-y,-z
loop_
_atom_site_type_symbol
_atom_site_label
_atom_site_fract_x
_atom_site_fract_y
_atom_site_fract_z
Si Si1 0.817289 0.302595 0.118609
Si Si2 0.522866 0.292725 0.379584
Si Si3 0.541055 0.935860 0.356253
Si Si4 0.904517 0.584205 0.218261
Si Si5 0.628261 0.452112 0.592908
Si Si6 0.996832 0.244931 0.546378
Si Si7 0.278748 0.374330 0.198411
Si Si8 0.259472 0.884687 0.074861
O O1 0.677488 0.317493 0.223909
O O2 0.897767 0.259140 0.337357
O O3 0.761106 0.213691 0.004281
O O4 0.947054 0.405325 0.932536
O O5 0.440764 0.168155 0.476777
O O6 0.548009 0.333480 0.601355
O O7 0.431911 0.353387 0.208788
O O8 0.395585 0.898510 0.228650
O O9 0.500000 0.000000 0.500000
O O10 0.684406 0.012828 0.157985
O O11 0.780533 0.485652 0.413441
O O12 0.974924 0.662945 0.352606
O O13 0.801584 0.624310 0.029616
O O14 0.500000 0.500000 0.500000
O O15 0.690306 0.514809 0.767815
O O16 0.895538 0.141817 0.762454
O O17 0.164234 0.276568 0.418763
#
# Coordination Sequence:
#
# PCOD9085504 Si02
#       8
#     2   2   2   2   2   2   2   2
#     4  10  19  36  60  86 114 147 190 236 281 335
#     4  11  21  37  57  87 116 148 187 243 281 325
#     4  11  21  37  56  88 118 143 186 238 288 335
#     4   9  19  37  58  83 111 160 188 222 285 339
#     4   9  20  38  55  81 119 155 186 231 278 332
#     4   9  17  37  61  80 114 155 186 229 284 335
#     4   9  20  39  58  82 119 151 189 230 276 341
#     4  10  19  35  61  83 112 153 185 229 294 335
#
# _framework density 21.549026000000001
#
# number of rings (size 3 to 8) (size 9 to 14) (size 15 to 20)
#    0.000    2.250    2.500    0.000    0.000    2.500 
#    9.000    6.250    0.000   10.500    0.000    0.000 
#    0.000    0.000    0.000    0.000    0.000    0.000 
#
# Total GULP energy -89194.942942 kJ/mol
# GULP energy per Si atom -5574.683934 kJ/mol
# Density = 2.149998 g / cm^3
# Si number density = 21.549026 Si / 1000 Ang^3
#
#
#
# Elastic Constant Matrix: (Units=GPa)
#
#
# Indices 1 2 3 4 5 6 
#
# 1 90.8197 25.2697 21.5869 1.5707 -16.9917 4.1898
# 2 25.2697 114.4856 34.2950 18.1065 8.2500 7.3527
# 3 21.5869 34.2950 66.7426 12.4234 -1.7446 5.9058
# 4 1.5707 18.1065 12.4234 35.1525 15.5294 2.5731
# 5 -16.9917 8.2500 -1.7446 15.5294 32.8520 -0.6589
# 6 4.1898 7.3527 5.9058 2.5731 -0.6589 30.5811
#
#
#
# Elastic Compliance Matrix: (Units=1/GPa)
#
#
# Indices 1 2 3 4 5 6 
#
# 1 0.014047 -0.002597 -0.002515 -0.002281 0.008853 -0.000432
# 2 -0.002597 0.011389 -0.004483 -0.002644 -0.003219 -0.001364
# 3 -0.002515 -0.004483 0.019453 -0.005926 0.003624 -0.001758
# 4 -0.002281 -0.002644 -0.005926 0.041104 -0.020297 -0.001803
# 5 0.008853 -0.003219 0.003624 -0.020297 0.045645 0.001552
# 6 -0.000432 -0.001364 -0.001758 -0.001803 0.001552 0.033611
#
#
# Mechanical properties :
#
#
# Convention : Reuss Voigt Hill
#
# Bulk Modulus (GPa) = 38.91191 48.26124 43.58657
# Shear Modulus (GPa) = 25.90598 32.44355 29.17476
#
# Velocity S-wave (km/s) = 3.47102 3.88438 3.68350
# Velocity P-wave (km/s) = 5.84470 6.52399 6.19367
#
# Compressibility (1/GPa) = 0.02569908
#
# Stress axis : x y z
#
# Youngs Moduli (GPa) = 71.19034 87.80749 51.40507
#
# Poissons Ratio (x) = 0.22801 0.12927
# Poissons Ratio (y) = 0.18486 0.23047
# Poissons Ratio (z) = 0.17903 0.39368
#
# Static dielectric constant tensor:
#      x y z
#    x 1.782880 0.037440 -0.037090 
#    y 0.037440 1.770030 -0.019000 
#    z -0.037090 -0.019000 1.846060 
# 
# From -- ./inp_files/37469.got.cif
#   From: 2010.05.17/outbox.cif.g08.bks.cpg/sg2_19_cif.got.tgz:37469.got - 2010.06.03 11:33:40.
