data_PCOD9085659
_publ_section_title
;
Structure prediction by ZEFSAII (Michael W. Deem and Ramdas Pophale) SiO2 
 PCOD9085659
Probable space group: P -1
;
_chemical_formula_sum "Si O2"
_cell_formula_units_Z 16
_cell_length_a 16.515946
_cell_length_b 10.708812
_cell_length_c 9.670144
_cell_angle_alpha 124.977374
_cell_angle_beta 111.673311
_cell_angle_gamma 32.450643
_cell_volume 726.038733
_symmetry_space_group_name_H-M "P -1"
_symmetry_group_IT_number 2
_symmetry_cell_setting 'triclinic'
loop_
_space_group_symop_operation_xyz
x,y,z
-x,-y,-z
loop_
_atom_site_type_symbol
_atom_site_label
_atom_site_fract_x
_atom_site_fract_y
_atom_site_fract_z
Si Si1 0.090669 0.181369 0.237416
Si Si2 0.617069 0.568148 0.731484
Si Si3 0.413175 0.598277 0.151859
Si Si4 0.130697 0.213215 0.982331
Si Si5 0.851481 0.970403 0.390541
Si Si6 0.619425 0.093599 0.457697
Si Si7 0.221168 0.326996 0.505746
Si Si8 0.776355 0.611219 0.748480
O O1 0.067869 0.222262 0.084675
O O2 0.155195 0.256445 0.368678
O O3 0.931621 0.373698 0.336780
O O4 0.229931 0.868903 0.170181
O O5 0.560422 0.587981 0.855447
O O6 0.755761 0.252361 0.566782
O O7 0.484643 0.757646 0.650058
O O8 0.690117 0.628852 0.812422
O O9 0.447473 0.688770 0.335378
O O10 0.500000 0.500000 0.000000
O O11 0.239981 0.190612 0.089419
O O12 0.000000 0.500000 0.000000
O O13 0.193970 0.000542 0.777905
O O14 0.787333 0.919995 0.406082
O O15 0.039062 0.702106 0.344291
O O16 0.655782 0.887412 0.432720
O O17 0.282823 0.318265 0.401640
#
# Coordination Sequence:
#
# PCOD9085659 Si02
#       8
#     2   2   2   2   2   2   2   2
#     4   9  17  30  57  84 108 144 208 243 275 331
#     4  11  23  37  58  91 121 155 191 243 308 351
#     4  10  21  36  59  85 116 158 203 239 284 360
#     4   9  18  32  58  88 113 150 198 242 285 342
#     4  10  19  35  62  85 113 157 205 239 280 358
#     4  10  21  36  60  87 114 155 206 237 284 356
#     4   9  16  33  55  83 111 150 193 245 282 343
#     4  10  20  36  60  87 121 151 195 247 303 343
#
# _framework density 22.037392000000001
#
# number of rings (size 3 to 8) (size 9 to 14) (size 15 to 20)
#    0.000    2.250    0.000    6.375    3.500    0.500 
#    0.000    0.625    8.250    3.750    0.000    0.000 
#    0.000    0.000    0.000    0.000    0.000    0.000 
#
# Total GULP energy -89344.483937 kJ/mol
# GULP energy per Si atom -5584.030246 kJ/mol
# Density = 2.198723 g / cm^3
# Si number density = 22.037392 Si / 1000 Ang^3
#
#
#
# Elastic Constant Matrix: (Units=GPa)
#
#
# Indices 1 2 3 4 5 6 
#
# 1 65.7224 23.4166 29.8967 -6.7244 -29.0749 4.8334
# 2 23.4166 114.2610 15.8750 -16.2018 -28.4225 8.5512
# 3 29.8967 15.8750 100.7816 -22.7491 -40.4897 7.1662
# 4 -6.7244 -16.2018 -22.7491 30.9720 9.3720 -9.1187
# 5 -29.0749 -28.4225 -40.4897 9.3720 23.2094 -7.4890
# 6 4.8334 8.5512 7.1662 -9.1187 -7.4890 20.4046
#
#
#
# Elastic Compliance Matrix: (Units=1/GPa)
#
#
# Indices 1 2 3 4 5 6 
#
# 1 -0.020264 -0.029161 -0.057696 -0.022211 -0.163292 -0.032573
# 2 -0.029161 -0.007101 -0.034225 -0.008801 -0.108422 -0.021823
# 3 -0.057696 -0.034225 -0.056592 -0.017659 -0.218791 -0.040308
# 4 -0.022211 -0.008801 -0.017659 0.035246 -0.083566 0.000232
# 5 -0.163292 -0.108422 -0.218791 -0.083566 -0.683218 -0.127144
# 6 -0.032573 -0.021823 -0.040308 0.000232 -0.127144 0.033465
#
#
# Mechanical properties :
#
#
# Convention : Reuss Voigt Hill
#
# Bulk Modulus (GPa) = -3.06633 46.57130 21.75248
# Shear Modulus (GPa) = -8.84945 29.02232 10.08643
#
# Velocity S-wave (km/s) = -2.00608 3.63293 2.14170
# Velocity P-wave (km/s) = 2.60005 6.22706 4.00100
#
# Compressibility (1/GPa) = -0.32612236
#
# Stress axis : x y z
#
# Youngs Moduli (GPa) = -49.34755 -140.81537 -17.67045
#
# Poissons Ratio (x) = -4.10639 -1.01952
# Poissons Ratio (y) = -1.43905 -0.60477
# Poissons Ratio (z) = -2.84716 -4.81939
#
# Static dielectric constant tensor:
#      x y z
#    x 1.813550 -0.004470 -0.000350 
#    y -0.004470 1.849110 -0.005110 
#    z -0.000350 -0.005110 1.851300 
# 
# From -- ./inp_files/333526.got.cif
#   From: 2010.05.17/outbox.cif.g08.bks.cpg/sg2_167_cif.got.tgz:333526.got - 2010.06.03 11:33:40.
