data_PCOD9085045
_publ_section_title
;
Structure prediction by ZEFSAII (Michael W. Deem and Ramdas Pophale) SiO2 
 PCOD9085045
Probable space group: P -1
;
_chemical_formula_sum "Si O2"
_cell_formula_units_Z 14
_cell_length_a 14.186428
_cell_length_b 11.387941
_cell_length_c 21.803694
_cell_angle_alpha 34.675417
_cell_angle_beta 18.122411
_cell_angle_gamma 42.422234
_cell_volume 604.314269
_symmetry_space_group_name_H-M "P -1"
_symmetry_group_IT_number 2
_symmetry_cell_setting 'triclinic'
loop_
_space_group_symop_operation_xyz
x,y,z
-x,-y,-z
loop_
_atom_site_type_symbol
_atom_site_label
_atom_site_fract_x
_atom_site_fract_y
_atom_site_fract_z
Si Si1 0.302877 0.805999 0.848561
Si Si2 0.761408 0.060179 0.875502
Si Si3 0.296271 0.504045 0.272765
Si Si4 0.343990 0.972828 0.349463
Si Si5 0.127460 0.841491 0.376176
Si Si6 0.244167 0.485442 0.610959
Si Si7 0.017296 0.130273 0.811847
O O1 0.491316 0.646991 0.770708
O O2 0.511859 0.983429 0.688509
O O3 0.117636 0.929526 0.866315
O O4 0.070254 0.642185 0.106776
O O5 0.569073 0.245624 0.922746
O O6 0.881244 0.069674 0.727522
O O7 0.025611 0.112946 0.740854
O O8 0.494263 0.849737 0.148151
O O9 0.000000 0.500000 0.500000
O O10 0.122824 0.387691 0.369865
O O11 0.017355 0.034615 0.536840
O O12 0.267094 0.730733 0.478750
O O13 0.646591 0.103255 0.068323
O O14 0.500000 0.500000 0.500000
O O15 0.236154 0.339918 0.618006
#
# Coordination Sequence:
#
# PCOD9085045 Si02
#       7
#     2   2   2   2   2   2   2
#     4  10  19  35  58  86 114 150 194 235 289 343
#     4  10  21  39  59  86 119 148 199 242 284 342
#     4   9  19  38  60  79 110 161 194 223 284 359
#     4  10  19  36  59  85 115 157 195 229 293 354
#     4   9  20  39  61  78 113 170 189 224 296 359
#     4  11  18  34  59  82 119 161 186 226 299 356
#     4  11  22  34  58  96 117 139 195 259 280 328
#
# _framework density 23.166754000000001
#
# number of rings (size 3 to 8) (size 9 to 14) (size 15 to 20)
#    0.000    2.000    2.857    1.714    0.000    1.714 
#    0.000   16.429    0.000    8.571    0.000    0.000 
#    0.000    0.000    0.000    0.000    0.000    0.000 
#
# Total GULP energy -77970.369826 kJ/mol
# GULP energy per Si atom -5569.312130 kJ/mol
# Density = 2.311403 g / cm^3
# Si number density = 23.166754 Si / 1000 Ang^3
#
#
#
# Elastic Constant Matrix: (Units=GPa)
#
#
# Indices 1 2 3 4 5 6 
#
# 1 125.7100 21.9861 20.2564 -0.3707 3.4084 12.6261
# 2 21.9861 73.6010 21.2560 -5.7114 8.1399 5.9827
# 3 20.2564 21.2560 87.6437 -12.2529 -15.1638 5.2194
# 4 -0.3707 -5.7114 -12.2529 37.8829 5.8519 -5.4179
# 5 3.4084 8.1399 -15.1638 5.8519 21.5954 -2.6068
# 6 12.6261 5.9827 5.2194 -5.4179 -2.6068 25.0641
#
#
#
# Elastic Compliance Matrix: (Units=1/GPa)
#
#
# Indices 1 2 3 4 5 6 
#
# 1 0.009048 -0.001575 -0.002032 -0.001027 -0.002495 -0.004240
# 2 -0.001575 0.017150 -0.005191 0.002147 -0.010789 -0.002877
# 3 -0.002032 -0.005191 0.015621 0.002411 0.012696 0.000851
# 4 -0.001027 0.002147 0.002411 0.029193 -0.006242 0.005164
# 5 -0.002495 -0.010789 0.012696 -0.006242 0.062133 0.006301
# 6 -0.004240 -0.002877 0.000851 0.005164 0.006301 0.044315
#
#
# Mechanical properties :
#
#
# Convention : Reuss Voigt Hill
#
# Bulk Modulus (GPa) = 41.28124 45.99461 43.63792
# Shear Modulus (GPa) = 24.61463 31.80555 28.21009
#
# Velocity S-wave (km/s) = 3.26313 3.70928 3.49334
# Velocity P-wave (km/s) = 5.66174 6.18400 5.92862
#
# Compressibility (1/GPa) = 0.02422408
#
# Stress axis : x y z
#
# Youngs Moduli (GPa) = 110.51879 58.30877 64.01562
#
# Poissons Ratio (x) = 0.09185 0.13007
# Poissons Ratio (y) = 0.17409 0.33228
# Poissons Ratio (z) = 0.22456 0.30266
#
# Static dielectric constant tensor:
#      x y z
#    x 1.970560 -0.016240 -0.056650 
#    y -0.016240 1.963290 -0.047900 
#    z -0.056650 -0.047900 1.996820 
# 
# From -- ./inp_files/611912.got.cif
#   From: 2010.05.17/outbox.cif.g08.bks.cpg/sg2_306_cif.got.tgz:611912.got - 2010.06.03 11:33:40.
