data_PCOD9085178
_publ_section_title
;
Structure prediction by ZEFSAII (Michael W. Deem and Ramdas Pophale) SiO2 
 PCOD9085178
Probable space group: P -1
;
_chemical_formula_sum "Si O2"
_cell_formula_units_Z 16
_cell_length_a 19.029817
_cell_length_b 5.361854
_cell_length_c 5.537123
_cell_angle_alpha 89.983085
_cell_angle_beta 100.508115
_cell_angle_gamma 85.114967
_cell_volume 553.415599
_symmetry_space_group_name_H-M "P -1"
_symmetry_group_IT_number 2
_symmetry_cell_setting 'triclinic'
loop_
_space_group_symop_operation_xyz
x,y,z
-x,-y,-z
loop_
_atom_site_type_symbol
_atom_site_label
_atom_site_fract_x
_atom_site_fract_y
_atom_site_fract_z
Si Si1 0.723843 0.202864 0.451677
Si Si2 0.347646 0.314200 0.096682
Si Si3 0.406126 0.797340 0.378617
Si Si4 0.029018 0.243119 0.144932
Si Si5 0.904192 0.329827 0.370344
Si Si6 0.470590 0.259105 0.854300
Si Si7 0.218289 0.312100 0.751508
Si Si8 0.150891 0.895241 0.164192
O O1 0.637538 0.209092 0.399844
O O2 0.749139 0.463481 0.376284
O O3 0.764875 0.149792 0.732351
O O4 0.757309 0.963456 0.325181
O O5 0.386657 0.284079 0.858437
O O6 0.262246 0.329704 0.026518
O O7 0.373690 0.565392 0.224478
O O8 0.377858 0.067110 0.256817
O O9 0.491329 0.756377 0.384009
O O10 0.988480 0.270685 0.375212
O O11 0.113915 0.176981 0.177864
O O12 0.000000 0.500000 0.000000
O O13 0.000000 0.000000 0.000000
O O14 0.866164 0.610086 0.312575
O O15 0.884098 0.238436 0.624365
O O16 0.869019 0.199487 0.113725
O O17 0.500000 0.500000 0.000000
O O18 0.500000 0.000000 0.000000
#
# Coordination Sequence:
#
# PCOD9085178 Si02
#       8
#     2   2   2   2   2   2   2   2
#     4  11  24  40  59  89 125 164 210 264 320 381
#     4  10  19  35  59  84 115 159 209 263 318 381
#     4  10  19  35  59  84 115 159 209 263 318 381
#     4  10  23  42  68  98 132 170 216 266 322 384
#     4  10  23  45  69  98 133 173 217 268 324 386
#     4   8  16  30  52  82 112 150 204 258 315 376
#     4  11  24  40  59  89 125 164 210 264 320 381
#     4  10  23  45  69  98 133 173 217 268 324 386
#
# _framework density 28.911363999999999
#
# number of rings (size 3 to 8) (size 9 to 14) (size 15 to 20)
#    0.000    2.000    0.000    2.625    0.000   11.000 
#    0.000    6.875    0.000    0.000    0.000    0.000 
#    0.000    0.000    0.000    0.000    0.000    0.000 
#
# Total GULP energy -89544.051675 kJ/mol
# GULP energy per Si atom -5596.503230 kJ/mol
# Density = 2.884556 g / cm^3
# Si number density = 28.911364 Si / 1000 Ang^3
#
#
#
# Elastic Constant Matrix: (Units=GPa)
#
#
# Indices 1 2 3 4 5 6 
#
# 1 129.1058 42.9087 34.6658 -6.3740 -25.9923 -14.4515
# 2 42.9087 200.1944 70.0367 2.6538 2.8904 -8.7702
# 3 34.6658 70.0367 111.9375 12.7892 -1.0702 10.0906
# 4 -6.3740 2.6538 12.7892 74.4110 6.8803 3.3519
# 5 -25.9923 2.8904 -1.0702 6.8803 59.2135 3.3164
# 6 -14.4515 -8.7702 10.0906 3.3519 3.3164 45.4653
#
#
#
# Elastic Compliance Matrix: (Units=1/GPa)
#
#
# Indices 1 2 3 4 5 6 
#
# 1 0.010108 -0.001124 -0.002777 0.000852 0.004161 0.003246
# 2 -0.001124 0.006769 -0.004112 0.000380 -0.001049 0.001910
# 3 -0.002777 -0.004112 0.012999 -0.002101 -0.000294 -0.004385
# 4 0.000852 0.000380 -0.002101 0.013985 -0.001300 -0.000126
# 5 0.004161 -0.001049 -0.000294 -0.001300 0.018917 -0.000099
# 6 0.003246 0.001910 -0.004385 -0.000126 -0.000099 0.024385
#
#
# Mechanical properties :
#
#
# Convention : Reuss Voigt Hill
#
# Bulk Modulus (GPa) = 72.21135 81.82891 77.02013
# Shear Modulus (GPa) = 46.37957 55.39307 50.88632
#
# Velocity S-wave (km/s) = 4.00959 4.38192 4.19988
# Velocity P-wave (km/s) = 6.81665 7.34618 7.08637
#
# Compressibility (1/GPa) = 0.01384824
#
# Stress axis : x y z
#
# Youngs Moduli (GPa) = 98.93162 147.74245 76.92805
#
# Poissons Ratio (x) = 0.16607 0.21365
# Poissons Ratio (y) = 0.11121 0.31636
# Poissons Ratio (z) = 0.27476 0.60758
#
# Static dielectric constant tensor:
#      x y z
#    x 2.351190 0.047890 -0.041600 
#    y 0.047890 2.218980 -0.010380 
#    z -0.041600 -0.010380 2.331810 
# 
# From -- ./inp_files/121754.got.cif
#   From: 2010.05.17/outbox.cif.g08.bks.cpg/sg2_61_cif.got.tgz:121754.got - 2010.06.03 11:33:40.
