data_PCOD9085565
_publ_section_title
;
Structure prediction by ZEFSAII (Michael W. Deem and Ramdas Pophale) SiO2 
 PCOD9085565
Probable space group: P -1
;
_chemical_formula_sum "Si O2"
_cell_formula_units_Z 12
_cell_length_a 12.388889
_cell_length_b 11.447785
_cell_length_c 11.704611
_cell_angle_alpha 144.525611
_cell_angle_beta 33.697641
_cell_angle_gamma 145.626276
_cell_volume 474.820250
_symmetry_space_group_name_H-M "P -1"
_symmetry_group_IT_number 2
_symmetry_cell_setting 'triclinic'
loop_
_space_group_symop_operation_xyz
x,y,z
-x,-y,-z
loop_
_atom_site_type_symbol
_atom_site_label
_atom_site_fract_x
_atom_site_fract_y
_atom_site_fract_z
Si Si1 0.905276 0.775340 0.239179
Si Si2 0.111020 0.883754 0.922306
Si Si3 0.974984 0.348575 0.752837
Si Si4 0.147653 0.602967 0.340275
Si Si5 0.445822 0.270401 0.796021
Si Si6 0.561615 0.309567 0.461484
O O1 0.057055 0.827131 0.258438
O O2 0.665321 0.753203 0.451243
O O3 0.016275 0.939979 0.164424
O O4 0.893203 0.529951 0.015881
O O5 0.312288 0.843593 0.762111
O O6 0.919964 0.643346 0.855149
O O7 0.220008 0.065897 0.872174
O O8 0.237400 0.472129 0.597032
O O9 0.879667 0.274791 0.651244
O O10 0.367489 0.777591 0.347753
O O11 0.000000 0.500000 0.500000
O O12 0.503048 0.331805 0.663128
O O13 0.500000 0.500000 0.000000
#
# Coordination Sequence:
#
# PCOD9085565 Si02
#       6
#     2   2   2   2   2   2
#     4   9  18  35  58  88 120 160 199 245 295 357
#     4  10  23  40  59  92 122 158 199 250 303 355
#     4   9  18  34  58  88 123 156 202 243 295 354
#     4  10  19  37  60  87 121 157 191 244 297 349
#     4  12  23  38  61  92 120 155 204 251 306 359
#     4  10  19  35  61  88 118 160 200 242 303 356
#
# _framework density 25.272722999999999
#
# number of rings (size 3 to 8) (size 9 to 14) (size 15 to 20)
#    0.000    2.333    3.333    3.000    0.000    2.667 
#    0.000    0.833    0.000    2.000    0.000    0.000 
#    0.000    0.000    0.000    0.000    0.000    0.000 
#
# Total GULP energy -66850.993100 kJ/mol
# GULP energy per Si atom -5570.916092 kJ/mol
# Density = 2.521520 g / cm^3
# Si number density = 25.272723 Si / 1000 Ang^3
#
#
#
# Elastic Constant Matrix: (Units=GPa)
#
#
# Indices 1 2 3 4 5 6 
#
# 1 141.6142 -2.9453 4.8147 -1.1777 10.1325 -0.1539
# 2 -2.9453 74.7735 10.7337 -17.9315 2.7547 11.3644
# 3 4.8147 10.7337 76.3834 0.7926 -13.5252 1.6331
# 4 -1.1777 -17.9315 0.7926 42.9169 2.8021 -6.3827
# 5 10.1325 2.7547 -13.5252 2.8021 39.0453 -20.4792
# 6 -0.1539 11.3644 1.6331 -6.3827 -20.4792 25.7034
#
#
#
# Elastic Compliance Matrix: (Units=1/GPa)
#
#
# Indices 1 2 3 4 5 6 
#
# 1 0.007480 0.001432 -0.001431 0.000522 -0.004756 -0.004157
# 2 0.001432 0.018436 -0.004535 0.006249 -0.012021 -0.015881
# 3 -0.001431 -0.004535 0.015620 -0.001532 0.011234 0.009574
# 4 0.000522 0.006249 -0.001532 0.026448 -0.001644 0.002595
# 5 -0.004756 -0.012021 0.011234 -0.001644 0.058215 0.050547
# 6 -0.004157 -0.015881 0.009574 0.002595 0.050547 0.086212
#
#
# Mechanical properties :
#
#
# Convention : Reuss Voigt Hill
#
# Bulk Modulus (GPa) = 30.79954 35.33082 33.06518
# Shear Modulus (GPa) = 21.52378 40.21097 30.86737
#
# Velocity S-wave (km/s) = 2.92149 3.99316 3.49860
# Velocity P-wave (km/s) = 4.85731 5.93891 5.42513
#
# Compressibility (1/GPa) = 0.03246802
#
# Stress axis : x y z
#
# Youngs Moduli (GPa) = 133.68957 54.24093 64.02174
#
# Poissons Ratio (x) = -0.07770 0.09164
# Poissons Ratio (y) = -0.19150 0.29034
# Poissons Ratio (z) = 0.19137 0.24598
#
# Static dielectric constant tensor:
#      x y z
#    x 1.312830 0.177680 0.074260 
#    y 0.177680 1.974880 -0.018810 
#    z 0.074260 -0.018810 2.217160 
# 
# From -- ./inp_files/426619.got.cif
#   From: 2010.05.17/outbox.cif.g08.bks.cpg/sg2_214_cif.got.tgz:426619.got - 2010.06.03 11:33:40.
