data_PCOD9085999
_publ_section_title
;
Structure prediction by ZEFSAII (Michael W. Deem and Ramdas Pophale) SiO2 
 PCOD9085999
Probable space group: P -1
;
_chemical_formula_sum "Si O2"
_cell_formula_units_Z 12
_cell_length_a 7.138094
_cell_length_b 11.072765
_cell_length_c 8.086398
_cell_angle_alpha 63.286846
_cell_angle_beta 53.680117
_cell_angle_gamma 62.669973
_cell_volume 443.179725
_symmetry_space_group_name_H-M "P -1"
_symmetry_group_IT_number 2
_symmetry_cell_setting 'triclinic'
loop_
_space_group_symop_operation_xyz
x,y,z
-x,-y,-z
loop_
_atom_site_type_symbol
_atom_site_label
_atom_site_fract_x
_atom_site_fract_y
_atom_site_fract_z
Si Si1 0.018119 0.152732 0.725864
Si Si2 0.333646 0.903360 0.570232
Si Si3 0.297240 0.609940 0.424471
Si Si4 0.654407 0.881248 0.112729
Si Si5 0.891760 0.643214 0.878523
Si Si6 0.642245 0.648009 0.686547
O O1 0.552378 0.140973 0.640485
O O2 0.753084 0.251146 0.756545
O O3 0.134362 0.102276 0.878352
O O4 0.078842 0.015368 0.659489
O O5 0.380313 0.756654 0.731975
O O6 0.500000 0.000000 0.500000
O O7 0.500000 0.500000 0.500000
O O8 0.098166 0.668820 0.635259
O O9 0.281592 0.493009 0.369032
O O10 0.818094 0.741023 0.472612
O O11 0.782505 0.755794 0.003765
O O12 0.500000 0.000000 0.000000
O O13 0.691704 0.621857 0.868467
O O14 0.000000 0.500000 0.000000
#
# Coordination Sequence:
#
# PCOD9085999 Si02
#       6
#     2   2   2   2   2   2
#     4   9  17  33  53  77 104 137 172 208 253 313
#     4   8  15  29  51  77 100 129 168 211 254 303
#     4  11  22  36  51  72 106 147 175 201 253 316
#     4  10  16  26  50  83 103 119 161 223 262 287
#     4  11  19  31  54  80 100 129 174 222 255 291
#     4   9  17  33  51  71 100 135 172 211 253 308
#
# _framework density 27.077051999999998
#
# number of rings (size 3 to 8) (size 9 to 14) (size 15 to 20)
#    0.000    2.667    0.000    9.000    0.000    0.000 
#    0.000    4.167    0.000    0.000    0.000   24.500 
#    0.000    0.000    0.000    0.000    0.000    0.000 
#
# Total GULP energy -66912.866586 kJ/mol
# GULP energy per Si atom -5576.072215 kJ/mol
# Density = 2.701542 g / cm^3
# Si number density = 27.077052 Si / 1000 Ang^3
#
#
#
# Elastic Constant Matrix: (Units=GPa)
#
#
# Indices 1 2 3 4 5 6 
#
# 1 130.5835 82.9263 66.6899 5.2874 46.0226 -27.9156
# 2 82.9263 254.9688 76.8145 38.8959 37.9084 -44.7458
# 3 66.6899 76.8145 140.8838 23.9462 40.0514 -19.5012
# 4 5.2874 38.8959 23.9462 65.6558 -4.6329 18.5042
# 5 46.0226 37.9084 40.0514 -4.6329 61.7024 -10.9085
# 6 -27.9156 -44.7458 -19.5012 18.5042 -10.9085 55.4484
#
#
#
# Elastic Compliance Matrix: (Units=1/GPa)
#
#
# Indices 1 2 3 4 5 6 
#
# 1 0.013251 -0.001982 -0.003044 -0.000005 -0.006198 0.002783
# 2 -0.001982 0.006846 -0.000571 -0.005446 -0.001740 0.005801
# 3 -0.003044 -0.000571 0.011300 -0.004598 -0.004598 0.002611
# 4 -0.000005 -0.005446 -0.004598 0.024194 0.005864 -0.012934
# 5 -0.006198 -0.001740 -0.004598 0.005864 0.024753 -0.003229
# 6 0.002783 0.005801 0.002611 -0.012934 -0.003229 0.028717
#
#
# Mechanical properties :
#
#
# Convention : Reuss Voigt Hill
#
# Bulk Modulus (GPa) = 49.49601 108.81083 79.15342
# Shear Modulus (GPa) = 39.37335 56.56168 47.96752
#
# Velocity S-wave (km/s) = 3.81743 4.57542 4.21351
# Velocity P-wave (km/s) = 6.14408 8.25745 7.27789
#
# Compressibility (1/GPa) = 0.02020365
#
# Stress axis : x y z
#
# Youngs Moduli (GPa) = 75.46736 146.06341 88.49318
#
# Poissons Ratio (x) = 0.28949 0.26934
# Poissons Ratio (y) = 0.14957 0.05055
# Poissons Ratio (z) = 0.22970 0.08344
#
# Static dielectric constant tensor:
#      x y z
#    x 2.391040 -0.065390 -0.108810 
#    y -0.065390 2.055920 -0.049990 
#    z -0.108810 -0.049990 2.179620 
# 
# From -- ./inp_files/130742.got.cif
#   From: 2010.05.17/outbox.cif.g08.bks.cpg/sg2_66_cif.got.tgz:130742.got - 2010.06.03 11:33:40.
