data_PCOD9085719
_publ_section_title
;
Structure prediction by ZEFSAII (Michael W. Deem and Ramdas Pophale) SiO2 
 PCOD9085719
Probable space group: P -1
;
_chemical_formula_sum "Si O2"
_cell_formula_units_Z 16
_cell_length_a 22.565907
_cell_length_b 8.914478
_cell_length_c 11.473432
_cell_angle_alpha 141.466571
_cell_angle_beta 147.658483
_cell_angle_gamma 28.955144
_cell_volume 589.467837
_symmetry_space_group_name_H-M "P -1"
_symmetry_group_IT_number 2
_symmetry_cell_setting 'triclinic'
loop_
_space_group_symop_operation_xyz
x,y,z
-x,-y,-z
loop_
_atom_site_type_symbol
_atom_site_label
_atom_site_fract_x
_atom_site_fract_y
_atom_site_fract_z
Si Si1 0.044743 0.865938 0.340597
Si Si2 0.351258 0.406043 0.599921
Si Si3 0.925290 0.625110 0.265011
Si Si4 0.241160 0.502537 0.235500
Si Si5 0.277166 0.238404 0.787335
Si Si6 0.746145 0.183735 0.968248
Si Si7 0.524235 0.263576 0.011996
Si Si8 0.765077 0.034383 0.653881
O O1 0.897675 0.920322 0.123900
O O2 0.028669 0.160653 0.538651
O O3 0.187316 0.563277 0.457619
O O4 0.104795 0.787478 0.259561
O O5 0.358116 0.318845 0.423026
O O6 0.357957 0.690169 0.780740
O O7 0.466783 0.200105 0.766702
O O8 0.855523 0.686682 0.314092
O O9 0.805269 0.680239 0.012213
O O10 0.064539 0.262731 0.254441
O O11 0.269827 0.659294 0.278509
O O12 0.237089 0.565618 0.894640
O O13 0.414392 0.001518 0.952455
O O14 0.304200 0.063219 0.605964
O O15 0.609750 0.391399 0.951470
O O16 0.720222 0.081267 0.742612
#
# Coordination Sequence:
#
# PCOD9085719 Si02
#       8
#     2   2   2   2   2   2   2   2
#     4  10  20  39  63  93 115 161 205 257 294 348
#     4   9  21  44  68  83 116 166 219 243 283 369
#     4  12  19  33  66  93 124 155 208 250 300 360
#     4  10  19  35  62  92 113 157 207 250 293 347
#     4  12  22  37  61  92 127 165 197 246 303 370
#     4  12  25  37  64  95 129 155 191 261 322 353
#     4  11  23  43  64  87 123 171 202 241 309 365
#     4  12  20  34  59  97 126 154 198 256 309 357
#
# _framework density 27.143127
#
# number of rings (size 3 to 8) (size 9 to 14) (size 15 to 20)
#    0.750    0.250    7.500    1.875    0.000    1.000 
#    0.000    0.625    5.500    1.500    0.000    0.000 
#    0.000    0.000    0.000    0.000    0.000    0.000 
#
# Total GULP energy -89615.633731 kJ/mol
# GULP energy per Si atom -5600.977108 kJ/mol
# Density = 2.708135 g / cm^3
# Si number density = 27.143127 Si / 1000 Ang^3
#
#
#
# Elastic Constant Matrix: (Units=GPa)
#
#
# Indices 1 2 3 4 5 6 
#
# 1 80.7403 27.4193 32.3905 6.2713 -17.3050 -10.4687
# 2 27.4193 80.8360 61.4783 -5.0236 -13.8189 -5.3565
# 3 32.3905 61.4783 217.4114 -9.1814 -54.7657 0.1295
# 4 6.2713 -5.0236 -9.1814 57.7086 -8.0523 -8.9947
# 5 -17.3050 -13.8189 -54.7657 -8.0523 36.3563 6.1149
# 6 -10.4687 -5.3565 0.1295 -8.9947 6.1149 40.7977
#
#
#
# Elastic Compliance Matrix: (Units=1/GPa)
#
#
# Indices 1 2 3 4 5 6 
#
# 1 0.015298 -0.004381 0.000305 -0.000865 0.005492 0.002335
# 2 -0.004381 0.017300 -0.004971 0.001051 -0.003078 0.001856
# 3 0.000305 -0.004971 0.009446 0.002589 0.013402 -0.002042
# 4 -0.000865 0.001051 0.002589 0.019474 0.007688 0.003049
# 5 0.005492 -0.003078 0.013402 0.007688 0.051697 -0.005091
# 6 0.002335 0.001856 -0.002042 0.003049 -0.005091 0.026796
#
#
# Mechanical properties :
#
#
# Convention : Reuss Voigt Hill
#
# Bulk Modulus (GPa) = 41.75454 69.06264 55.40859
# Shear Modulus (GPa) = 30.10447 44.15252 37.12850
#
# Velocity S-wave (km/s) = 3.33393 4.03756 3.70250
# Velocity P-wave (km/s) = 5.49878 6.87277 6.22381
#
# Compressibility (1/GPa) = 0.02394949
#
# Stress axis : x y z
#
# Youngs Moduli (GPa) = 65.36876 57.80442 105.86085
#
# Poissons Ratio (x) = 0.25326 -0.03231
# Poissons Ratio (y) = 0.28640 0.52625
# Poissons Ratio (z) = -0.01995 0.28735
#
# Static dielectric constant tensor:
#      x y z
#    x 2.096440 -0.043440 -0.013200 
#    y -0.043440 2.109370 -0.057070 
#    z -0.013200 -0.057070 2.097720 
# 
# From -- ./inp_files/476575.got.cif
#   From: 2010.05.17/outbox.cif.g08.bks.cpg/sg2_239_cif.got.tgz:476575.got - 2010.06.03 11:33:40.
