data_PCOD9085319
_publ_section_title
;
Structure prediction by ZEFSAII (Michael W. Deem and Ramdas Pophale) SiO2 
 PCOD9085319
Probable space group: P -1
;
_chemical_formula_sum "Si O2"
_cell_formula_units_Z 14
_cell_length_a 8.930738
_cell_length_b 14.036979
_cell_length_c 16.978661
_cell_angle_alpha 42.697232
_cell_angle_beta 101.536578
_cell_angle_gamma 66.768672
_cell_volume 819.701144
_symmetry_space_group_name_H-M "P -1"
_symmetry_group_IT_number 2
_symmetry_cell_setting 'triclinic'
loop_
_space_group_symop_operation_xyz
x,y,z
-x,-y,-z
loop_
_atom_site_type_symbol
_atom_site_label
_atom_site_fract_x
_atom_site_fract_y
_atom_site_fract_z
Si Si1 0.016573 0.938648 0.379098
Si Si2 0.256734 0.086576 0.137915
Si Si3 0.441098 0.514038 0.803624
Si Si4 0.884046 0.222189 0.896432
Si Si5 0.527374 0.366449 0.514911
Si Si6 0.534383 0.765401 0.911467
Si Si7 0.809753 0.391234 0.036444
O O1 0.183454 0.764037 0.578806
O O2 0.218131 0.787249 0.418408
O O3 0.763793 0.034415 0.272518
O O4 0.909467 0.179223 0.224017
O O5 0.405790 0.121292 0.126394
O O6 0.040252 0.259459 0.080288
O O7 0.438179 0.817238 0.340229
O O8 0.100620 0.154876 0.002550
O O9 0.676023 0.329446 0.876196
O O10 0.412294 0.385758 0.920929
O O11 0.558722 0.529705 0.873485
O O12 0.722969 0.432637 0.689173
O O13 0.000000 0.000000 0.000000
O O14 0.500000 0.500000 0.500000
O O15 0.722841 0.575997 0.974780
#
# Coordination Sequence:
#
# PCOD9085319 Si02
#       7
#     2   2   2   2   2   2   2
#     4   9  19  34  54  79 106 136 180 213 252 311
#     4  10  21  36  52  82 108 134 176 217 259 316
#     4   9  19  34  54  79 106 136 180 213 252 311
#     4  10  19  35  60  75  96 139 183 216 253 308
#     4  10  19  35  60  75  96 139 183 216 253 308
#     4  11  21  33  53  79 115 139 163 220 270 299
#     4   9  19  35  55  77 103 147 181 205 249 311
#
# _framework density 17.079395999999999
#
# number of rings (size 3 to 8) (size 9 to 14) (size 15 to 20)
#    0.000    2.286    1.429    3.000    0.000    3.429 
#    0.000    1.429    0.000    8.571    0.000    0.000 
#    0.000    0.000    0.000    0.000    0.000    0.000 
#
# Total GULP energy -78095.260137 kJ/mol
# GULP energy per Si atom -5578.232867 kJ/mol
# Density = 1.704052 g / cm^3
# Si number density = 17.079396 Si / 1000 Ang^3
#
#
#
# Elastic Constant Matrix: (Units=GPa)
#
#
# Indices 1 2 3 4 5 6 
#
# 1 76.1457 19.4370 39.4295 5.5787 -7.0050 31.5436
# 2 19.4370 88.5139 44.6005 -2.1273 -8.6510 21.3414
# 3 39.4295 44.6005 131.7407 12.3828 -1.4498 16.6565
# 4 5.5787 -2.1273 12.3828 19.7983 -6.9918 -2.8444
# 5 -7.0050 -8.6510 -1.4498 -6.9918 18.1979 -0.7360
# 6 31.5436 21.3414 16.6565 -2.8444 -0.7360 23.4255
#
#
#
# Elastic Compliance Matrix: (Units=1/GPa)
#
#
# Indices 1 2 3 4 5 6 
#
# 1 0.041387 0.010275 -0.007090 -0.009925 0.013978 -0.060816
# 2 0.010275 0.020372 -0.006914 0.004696 0.013823 -0.026475
# 3 -0.007090 -0.006914 0.011961 -0.008158 -0.007951 0.006100
# 4 -0.009925 0.004696 -0.008158 0.071709 0.026301 0.024420
# 5 0.013978 0.013823 -0.007951 0.026301 0.075558 -0.020195
# 6 -0.060816 -0.026475 0.006100 0.024420 -0.020195 0.146693
#
#
# Mechanical properties :
#
#
# Convention : Reuss Voigt Hill
#
# Bulk Modulus (GPa) = 15.09142 55.92607 35.50874
# Shear Modulus (GPa) = 12.58727 25.14656 18.86691
#
# Velocity S-wave (km/s) = 2.71769 3.84126 3.32725
# Velocity P-wave (km/s) = 4.32470 7.24497 5.96626
#
# Compressibility (1/GPa) = 0.06626281
#
# Stress axis : x y z
#
# Youngs Moduli (GPa) = 24.16203 49.08592 83.60242
#
# Poissons Ratio (x) = -0.50435 0.59272
# Poissons Ratio (y) = -0.24826 0.57805
# Poissons Ratio (z) = 0.17130 0.33939
#
# Static dielectric constant tensor:
#      x y z
#    x 1.554360 -0.031110 0.005530 
#    y -0.031110 1.577450 0.008320 
#    z 0.005530 0.008320 1.616510 
# 
# From -- ./inp_files/249331.got.cif
#   From: 2010.05.17/outbox.cif.g08.bks.cpg/sg2_125_cif.got.tgz:249331.got - 2010.06.03 11:33:40.
