data_PCOD9085201
_publ_section_title
;
Structure prediction by ZEFSAII (Michael W. Deem and Ramdas Pophale) SiO2 
 PCOD9085201
Probable space group: P -1
;
_chemical_formula_sum "Si O2"
_cell_formula_units_Z 16
_cell_length_a 19.369341
_cell_length_b 17.362529
_cell_length_c 9.521272
_cell_angle_alpha 133.226414
_cell_angle_beta 60.287536
_cell_angle_gamma 157.845072
_cell_volume 759.607156
_symmetry_space_group_name_H-M "P -1"
_symmetry_group_IT_number 2
_symmetry_cell_setting 'triclinic'
loop_
_space_group_symop_operation_xyz
x,y,z
-x,-y,-z
loop_
_atom_site_type_symbol
_atom_site_label
_atom_site_fract_x
_atom_site_fract_y
_atom_site_fract_z
Si Si1 0.728894 0.012335 0.449468
Si Si2 0.899526 0.949173 0.817782
Si Si3 0.062178 0.254719 0.764710
Si Si4 0.779223 0.833106 0.278089
Si Si5 0.454853 0.616804 0.688442
Si Si6 0.509984 0.854222 0.705050
Si Si7 0.156935 0.550003 0.831656
Si Si8 0.344820 0.188262 0.984435
O O1 0.947968 0.328982 0.684254
O O2 0.741735 0.903889 0.344702
O O3 0.538886 0.838046 0.502731
O O4 0.711201 0.983592 0.264093
O O5 0.680506 0.636327 0.577249
O O6 0.832722 0.939641 0.002222
O O7 0.022458 0.175170 0.865008
O O8 0.044867 0.025933 0.793333
O O9 0.276825 0.462428 0.759466
O O10 0.086515 0.401708 0.859300
O O11 0.872244 0.967059 0.508174
O O12 0.561418 0.502245 0.096166
O O13 0.559187 0.821054 0.723243
O O14 0.616761 0.783401 0.853705
O O15 0.284148 0.623863 0.694430
O O16 0.680294 0.157037 0.930953
#
# Coordination Sequence:
#
# PCOD9085201 Si02
#       8
#     2   2   2   2   2   2   2   2
#     4  11  24  37  55  86 120 147 181 234 288 335
#     4  11  20  34  58  83 116 153 189 232 268 323
#     4   9  17  35  60  83 109 143 192 244 263 315
#     4  10  20  36  53  81 117 153 188 226 270 336
#     4  10  19  35  59  86 110 147 195 229 273 332
#     4  10  21  41  66  81 105 148 192 243 275 323
#     4   9  21  40  65  84 103 143 203 231 276 336
#     4  12  23  33  53  87 121 153 182 220 290 343
#
# _framework density 21.063521000000001
#
# number of rings (size 3 to 8) (size 9 to 14) (size 15 to 20)
#    0.000    1.750    2.500    3.375    3.500    1.500 
#    0.000    0.625    0.000    2.250    0.000    0.000 
#    0.000    0.000    0.000    0.000    0.000    0.000 
#
# Total GULP energy -89344.504666 kJ/mol
# GULP energy per Si atom -5584.031542 kJ/mol
# Density = 2.101558 g / cm^3
# Si number density = 21.063521 Si / 1000 Ang^3
#
#
#
# Elastic Constant Matrix: (Units=GPa)
#
#
# Indices 1 2 3 4 5 6 
#
# 1 31.1532 43.4158 15.6234 -7.0763 -10.3199 -7.9824
# 2 43.4158 42.6965 31.9373 -12.6547 -5.7555 17.0824
# 3 15.6234 31.9373 34.7926 -18.1991 -15.7478 -5.5320
# 4 -7.0763 -12.6547 -18.1991 35.2178 2.9828 -14.5864
# 5 -10.3199 -5.7555 -15.7478 2.9828 16.3118 -3.3590
# 6 -7.9824 17.0824 -5.5320 -14.5864 -3.3590 25.9169
#
#
#
# Elastic Compliance Matrix: (Units=1/GPa)
#
#
# Indices 1 2 3 4 5 6 
#
# 1 0.025150 0.007161 -0.045269 -0.023101 -0.025774 -0.022979
# 2 0.007161 0.000364 0.022356 0.019656 0.027034 0.021304
# 3 -0.045269 0.022356 0.045599 0.018355 0.018638 -0.006199
# 4 -0.023101 0.019656 0.018355 0.043670 0.003894 0.008929
# 5 -0.025774 0.027034 0.018638 0.003894 0.069645 -0.010561
# 6 -0.022979 0.021304 -0.006199 0.008929 -0.010561 0.019799
#
#
# Mechanical properties :
#
#
# Convention : Reuss Voigt Hill
#
# Bulk Modulus (GPa) = 25.24762 32.28835 28.76798
# Shear Modulus (GPa) = 20.08572 16.66703 18.37637
#
# Velocity S-wave (km/s) = 3.09136 2.81601 2.95689
# Velocity P-wave (km/s) = 4.97538 5.09270 5.03438
#
# Compressibility (1/GPa) = 0.03960770
#
# Stress axis : x y z
#
# Youngs Moduli (GPa) = 39.76219 2749.81480 21.93009
#
# Poissons Ratio (x) = -19.69093 0.99276
# Poissons Ratio (y) = -0.28473 -0.49027
# Poissons Ratio (z) = 1.80001 -61.47509
#
# Static dielectric constant tensor:
#      x y z
#    x 1.816800 0.016810 0.021480 
#    y 0.016810 1.767000 -0.023270 
#    z 0.021480 -0.023270 1.767990 
# 
# From -- ./inp_files/308013.got.cif
#   From: 2010.05.17/outbox.cif.g08.bks.cpg/sg2_155_cif.got.tgz:308013.got - 2010.06.03 11:33:40.
