data_PCOD9085931
_publ_section_title
;
Structure prediction by ZEFSAII (Michael W. Deem and Ramdas Pophale) SiO2 
 PCOD9085931
Probable space group: P -1
;
_chemical_formula_sum "Si O2"
_cell_formula_units_Z 14
_cell_length_a 9.308771
_cell_length_b 8.515324
_cell_length_c 14.275375
_cell_angle_alpha 66.039475
_cell_angle_beta 137.947028
_cell_angle_gamma 93.379066
_cell_volume 635.902852
_symmetry_space_group_name_H-M "P -1"
_symmetry_group_IT_number 2
_symmetry_cell_setting 'triclinic'
loop_
_space_group_symop_operation_xyz
x,y,z
-x,-y,-z
loop_
_atom_site_type_symbol
_atom_site_label
_atom_site_fract_x
_atom_site_fract_y
_atom_site_fract_z
Si Si1 0.924230 0.437271 0.881330
Si Si2 0.738140 0.869939 0.011723
Si Si3 0.298446 0.245120 0.676286
Si Si4 0.427521 0.508403 0.569990
Si Si5 0.396499 0.418707 0.865843
Si Si6 0.099863 0.690936 0.796478
Si Si7 0.975165 0.112919 0.668048
O O1 0.668407 0.437153 0.761386
O O2 0.098407 0.241366 0.967699
O O3 0.935132 0.589869 0.774776
O O4 0.000000 0.500000 0.000000
O O5 0.622387 0.735636 0.033192
O O6 0.878317 0.905273 0.159597
O O7 0.537414 0.061236 0.834991
O O8 0.286736 0.376151 0.551430
O O9 0.314557 0.373471 0.739031
O O10 0.100811 0.175596 0.629318
O O11 0.500000 0.500000 0.500000
O O12 0.269794 0.718617 0.472730
O O13 0.219221 0.616130 0.772250
O O14 0.665754 0.388275 0.005588
O O15 0.978092 0.912056 0.694121
#
# Coordination Sequence:
#
# PCOD9085931 Si02
#       7
#     2   2   2   2   2   2   2
#     4  11  25  42  65  96 135 180 218 264 327 399
#     4  10  19  38  71 100 124 166 234 269 316 384
#     4  11  21  40  70  99 122 174 231 270 313 396
#     4  12  27  45  64  94 142 178 213 267 335 392
#     4   9  17  34  64 100 128 158 214 285 320 366
#     4  10  19  35  64  95 133 163 213 273 332 370
#     4  11  21  42  68 101 129 172 219 279 327 387
#
# _framework density 22.015941000000002
#
# number of rings (size 3 to 8) (size 9 to 14) (size 15 to 20)
#    0.000    1.429    4.286    2.143    0.000    2.286 
#    0.000    0.714    0.000    0.000    0.000    0.000 
#    0.000    0.000    0.000    0.000    0.000    0.000 
#
# Total GULP energy -78299.669404 kJ/mol
# GULP energy per Si atom -5592.833529 kJ/mol
# Density = 2.196583 g / cm^3
# Si number density = 22.015941 Si / 1000 Ang^3
#
#
#
# Elastic Constant Matrix: (Units=GPa)
#
#
# Indices 1 2 3 4 5 6 
#
# 1 99.4168 42.8124 36.0800 -29.4071 10.0749 -14.1265
# 2 42.8124 102.7397 21.0643 -34.6218 6.4045 -24.4207
# 3 36.0800 21.0643 47.9090 -12.6664 6.0568 -19.2918
# 4 -29.4071 -34.6218 -12.6664 37.5122 -6.6506 16.0796
# 5 10.0749 6.4045 6.0568 -6.6506 32.0113 -0.0586
# 6 -14.1265 -24.4207 -19.2918 16.0796 -0.0586 27.7499
#
#
#
# Elastic Compliance Matrix: (Units=1/GPa)
#
#
# Indices 1 2 3 4 5 6 
#
# 1 0.018049 -0.003480 -0.012806 0.010279 -0.000442 -0.008734
# 2 -0.003480 0.015803 0.001236 0.008813 -0.000455 0.007887
# 3 -0.012806 0.001236 0.039159 -0.007899 -0.005219 0.026359
# 4 0.010279 0.008813 -0.007899 0.050833 0.007017 -0.021943
# 5 -0.000442 -0.000455 -0.005219 0.007017 0.033899 -0.008248
# 6 -0.008734 0.007887 0.026359 -0.021943 -0.008248 0.069553
#
#
# Mechanical properties :
#
#
# Convention : Reuss Voigt Hill
#
# Bulk Modulus (GPa) = 23.30421 49.99764 36.65093
# Shear Modulus (GPa) = 18.40266 29.46192 23.93229
#
# Velocity S-wave (km/s) = 2.89429 3.66212 3.30061
# Velocity P-wave (km/s) = 4.66662 6.37499 5.58650
#
# Compressibility (1/GPa) = 0.04291071
#
# Stress axis : x y z
#
# Youngs Moduli (GPa) = 55.40451 63.27844 25.53706
#
# Poissons Ratio (x) = 0.22024 0.32703
# Poissons Ratio (y) = 0.19283 -0.03158
# Poissons Ratio (z) = 0.70952 -0.07824
#
# Static dielectric constant tensor:
#      x y z
#    x 1.830580 -0.006490 -0.032760 
#    y -0.006490 1.778430 0.020490 
#    z -0.032760 0.020490 1.827010 
# 
# From -- ./inp_files/153785.got.cif
#   From: 2010.05.17/outbox.cif.g08.bks.cpg/sg2_77_cif.got.tgz:153785.got - 2010.06.03 11:33:40.
