data_PCOD9085418
_publ_section_title
;
Structure prediction by ZEFSAII (Michael W. Deem and Ramdas Pophale) SiO2 
 PCOD9085418
Probable space group: P -1
;
_chemical_formula_sum "Si O2"
_cell_formula_units_Z 14
_cell_length_a 8.699631
_cell_length_b 10.226309
_cell_length_c 10.473306
_cell_angle_alpha 104.917995
_cell_angle_beta 57.906973
_cell_angle_gamma 63.467592
_cell_volume 535.020804
_symmetry_space_group_name_H-M "P -1"
_symmetry_group_IT_number 2
_symmetry_cell_setting 'triclinic'
loop_
_space_group_symop_operation_xyz
x,y,z
-x,-y,-z
loop_
_atom_site_type_symbol
_atom_site_label
_atom_site_fract_x
_atom_site_fract_y
_atom_site_fract_z
Si Si1 0.016587 0.552706 0.211096
Si Si2 0.315409 0.185416 0.800581
Si Si3 0.127310 0.137772 0.262577
Si Si4 0.603757 0.723227 0.831138
Si Si5 0.671535 0.209363 0.551094
Si Si6 0.274779 0.898126 0.795693
Si Si7 0.732605 0.459496 0.328646
O O1 0.226869 0.468927 0.205404
O O2 0.857842 0.733388 0.232540
O O3 0.795726 0.577282 0.378020
O O4 0.156186 0.366487 0.011921
O O5 0.585956 0.119691 0.640828
O O6 0.336632 0.024920 0.804188
O O7 0.224988 0.237151 0.277274
O O8 0.919803 0.172804 0.455427
O O9 0.974211 0.249409 0.225132
O O10 0.372678 0.912301 0.066604
O O11 0.470095 0.728162 0.769617
O O12 0.722715 0.135760 0.364042
O O13 0.396180 0.439254 0.727382
O O14 0.000000 0.000000 0.000000
O O15 0.500000 0.500000 0.500000
#
# Coordination Sequence:
#
# PCOD9085418 Si02
#       7
#     2   2   2   2   2   2   2
#     4   9  19  37  61  84 114 152 192 240 294 328
#     4  10  21  38  60  87 118 153 192 238 289 348
#     4   9  16  32  57  84 111 143 195 241 276 326
#     4  10  19  35  60  89 113 150 195 246 281 335
#     4  10  20  35  56  87 118 153 190 235 292 349
#     4  12  23  37  59  86 117 157 195 232 290 355
#     4   8  15  28  53  84 109 138 188 236 269 327
#
# _framework density 26.167207999999999
#
# number of rings (size 3 to 8) (size 9 to 14) (size 15 to 20)
#    0.000    2.286    1.429    3.000    2.000    0.000 
#    0.000   10.000    0.000    0.000    0.000    0.000 
#    0.000    0.000    0.000    0.000    0.000    0.000 
#
# Total GULP energy -78042.655522 kJ/mol
# GULP energy per Si atom -5574.475394 kJ/mol
# Density = 2.610765 g / cm^3
# Si number density = 26.167208 Si / 1000 Ang^3
#
#
#
# Elastic Constant Matrix: (Units=GPa)
#
#
# Indices 1 2 3 4 5 6 
#
# 1 94.1304 33.7826 39.6860 3.1232 -15.2880 -18.7273
# 2 33.7826 113.4037 15.5645 -3.7361 -22.7133 -20.0101
# 3 39.6860 15.5645 107.8278 -15.5397 -27.8096 -1.9358
# 4 3.1232 -3.7361 -15.5397 29.6051 1.1334 -14.0634
# 5 -15.2880 -22.7133 -27.8096 1.1334 47.6431 5.9859
# 6 -18.7273 -20.0101 -1.9358 -14.0634 5.9859 54.3540
#
#
#
# Elastic Compliance Matrix: (Units=1/GPa)
#
#
# Indices 1 2 3 4 5 6 
#
# 1 0.014752 -0.003331 -0.005490 -0.003523 -0.000325 0.002785
# 2 -0.003331 0.011308 0.001434 0.004070 0.004608 0.003612
# 3 -0.005490 0.001434 0.014031 0.008087 0.006860 0.000473
# 4 -0.003523 0.004070 0.008087 0.044360 0.003003 0.011720
# 5 -0.000325 0.004608 0.006860 0.003003 0.027062 -0.000375
# 6 0.002785 0.003612 0.000473 0.011720 -0.000375 0.023778
#
#
# Mechanical properties :
#
#
# Convention : Reuss Voigt Hill
#
# Bulk Modulus (GPa) = 39.50054 54.82534 47.16294
# Shear Modulus (GPa) = 31.54499 41.40903 36.47701
#
# Velocity S-wave (km/s) = 3.47582 3.98235 3.73768
# Velocity P-wave (km/s) = 5.58898 6.49176 6.05721
#
# Compressibility (1/GPa) = 0.02531611
#
# Stress axis : x y z
#
# Youngs Moduli (GPa) = 67.78822 88.43349 71.27121
#
# Poissons Ratio (x) = 0.29455 0.39129
# Poissons Ratio (y) = 0.22578 -0.10217
# Poissons Ratio (z) = 0.37217 -0.12677
#
# Static dielectric constant tensor:
#      x y z
#    x 2.095280 -0.010200 0.027260 
#    y -0.010200 2.143240 0.091850 
#    z 0.027260 0.091850 2.245590 
# 
# From -- ./inp_files/392548.got.cif
#   From: 2010.05.17/outbox.cif.g08.bks.cpg/sg2_197_cif.got.tgz:392548.got - 2010.06.03 11:33:40.
