data_PCOD9085307
_publ_section_title
;
Structure prediction by ZEFSAII (Michael W. Deem and Ramdas Pophale) SiO2 
 PCOD9085307
Probable space group: P -1
;
_chemical_formula_sum "Si O2"
_cell_formula_units_Z 15
_cell_length_a 15.425108
_cell_length_b 14.383109
_cell_length_c 12.102401
_cell_angle_alpha 34.118359
_cell_angle_beta 52.122969
_cell_angle_gamma 28.197356
_cell_volume 640.284493
_symmetry_space_group_name_H-M "P -1"
_symmetry_group_IT_number 2
_symmetry_cell_setting 'triclinic'
loop_
_space_group_symop_operation_xyz
x,y,z
-x,-y,-z
loop_
_atom_site_type_symbol
_atom_site_label
_atom_site_fract_x
_atom_site_fract_y
_atom_site_fract_z
Si Si1 0.496766 0.775796 0.426225
Si Si2 0.431186 0.316644 0.287033
Si Si3 0.182888 0.977750 0.802530
Si Si4 0.923044 0.852019 0.659701
Si Si5 0.147537 0.255926 0.966349
Si Si6 0.500000 0.000000 0.000000
Si Si7 0.066716 0.625778 0.174264
Si Si8 0.942280 0.114626 0.665871
O O1 0.535609 0.774890 0.522570
O O2 0.700759 0.434112 0.554676
O O3 0.302943 0.902337 0.448341
O O4 0.455735 0.980811 0.176405
O O5 0.638980 0.118238 0.266515
O O6 0.287464 0.667271 0.057253
O O7 0.304898 0.340095 0.295457
O O8 0.047528 0.211724 0.779772
O O9 0.048204 0.114668 0.664464
O O10 0.082211 0.514848 0.816860
O O11 0.993564 0.927615 0.467953
O O12 0.914429 0.812562 0.833830
O O13 0.389691 0.971344 0.057628
O O14 0.029846 0.392402 0.808775
O O15 0.015440 0.851510 0.918924
#
# Coordination Sequence:
#
# PCOD9085307 Si02
#       8
#     2   2   2   2   2   1   2   2
#     4  11  19  37  66  87 113 166 210 234 292 374
#     4  10  19  35  61  92 126 161 195 238 314 364
#     4  10  19  35  59  94 129 162 188 243 309 372
#     4  10  22  41  62  81 118 172 209 240 298 369
#     4  10  23  44  61  85 123 161 210 253 298 359
#     4  10  22  40  64  80 110 172 202 242 300 358
#     4  11  22  38  61  98 126 149 198 265 302 348
#     4  11  19  36  67  91 121 160 199 249 304 363
#
# _framework density 23.427087
#
# number of rings (size 3 to 8) (size 9 to 14) (size 15 to 20)
#    0.000    1.600    5.333    0.800    0.000    0.533 
#    7.200    6.000    0.000    0.000    0.000    0.000 
#    0.000    0.000    0.000    0.000    0.000    0.000 
#
# Total GULP energy -83611.323987 kJ/mol
# GULP energy per Si atom -5574.088266 kJ/mol
# Density = 2.337377 g / cm^3
# Si number density = 23.427087 Si / 1000 Ang^3
#
#
#
# Elastic Constant Matrix: (Units=GPa)
#
#
# Indices 1 2 3 4 5 6 
#
# 1 389.6534 463.1049 -124.6107 -100.8434 132.3220 -177.4504
# 2 463.1049 741.7752 -174.9179 -140.5731 160.1742 -275.2651
# 3 -124.6107 -174.9179 163.1010 66.2947 -35.3256 87.2069
# 4 -100.8434 -140.5731 66.2947 79.0346 -42.2440 74.2185
# 5 132.3220 160.1742 -35.3256 -42.2440 77.2330 -51.8687
# 6 -177.4504 -275.2651 87.2069 74.2185 -51.8687 124.0223
#
#
#
# Elastic Compliance Matrix: (Units=1/GPa)
#
#
# Indices 1 2 3 4 5 6 
#
# 1 0.015434 -0.001248 0.001430 -0.007494 -0.016677 0.015818
# 2 -0.001248 0.016756 -0.000635 -0.016273 -0.015556 0.039082
# 3 0.001430 -0.000635 0.010630 -0.004812 -0.002171 -0.004867
# 4 -0.007494 -0.016273 -0.004812 0.053704 0.031973 -0.062221
# 5 -0.016677 -0.015556 -0.002171 0.031973 0.054566 -0.053174
# 6 0.015818 0.039082 -0.004867 -0.062221 -0.053174 0.135858
#
#
# Mechanical properties :
#
#
# Convention : Reuss Voigt Hill
#
# Bulk Modulus (GPa) = 23.85817 180.18693 102.02255
# Shear Modulus (GPa) = 16.56585 131.45485 74.01035
#
# Velocity S-wave (km/s) = 2.66206 7.49894 5.62675
# Velocity P-wave (km/s) = 4.43339 12.33125 9.26592
#
# Compressibility (1/GPa) = 0.04191436
#
# Stress axis : x y z
#
# Youngs Moduli (GPa) = 64.79064 59.68167 94.06919
#
# Poissons Ratio (x) = 0.07447 -0.13452
# Poissons Ratio (y) = 0.08084 0.05976
# Poissons Ratio (z) = -0.09265 0.03791
#
# Static dielectric constant tensor:
#      x y z
#    x 1.920330 -0.036670 0.009500 
#    y -0.036670 2.010530 -0.155650 
#    z 0.009500 -0.155650 1.961450 
# 
# From -- ./inp_files/331096.got.cif
#   From: 2010.05.17/outbox.cif.g08.bks.cpg/sg2_166_cif.got.tgz:331096.got - 2010.06.03 11:33:40.
