data_PCOD9085642
_publ_section_title
;
Structure prediction by ZEFSAII (Michael W. Deem and Ramdas Pophale) SiO2 
 PCOD9085642
Probable space group: P -1
;
_chemical_formula_sum "Si O2"
_cell_formula_units_Z 12
_cell_length_a 9.869604
_cell_length_b 10.209289
_cell_length_c 10.925657
_cell_angle_alpha 114.464964
_cell_angle_beta 128.922635
_cell_angle_gamma 32.242675
_cell_volume 438.328947
_symmetry_space_group_name_H-M "P -1"
_symmetry_group_IT_number 2
_symmetry_cell_setting 'triclinic'
loop_
_space_group_symop_operation_xyz
x,y,z
-x,-y,-z
loop_
_atom_site_type_symbol
_atom_site_label
_atom_site_fract_x
_atom_site_fract_y
_atom_site_fract_z
Si Si1 0.835560 0.358935 0.502994
Si Si2 0.742967 0.179932 0.760932
Si Si3 0.859594 0.789109 0.632525
Si Si4 0.456030 0.970135 0.828397
Si Si5 0.412312 0.413752 0.182484
Si Si6 0.567104 0.710104 0.127735
O O1 0.504329 0.666585 0.433185
O O2 0.709167 0.287940 0.364690
O O3 0.004948 0.313280 0.465826
O O4 0.093061 0.181474 0.683249
O O5 0.832821 0.286308 0.843161
O O6 0.582637 0.277726 0.841926
O O7 0.930267 0.905980 0.755811
O O8 0.063306 0.549692 0.742085
O O9 0.500000 0.000000 0.500000
O O10 0.536509 0.053584 0.825230
O O11 0.649643 0.690794 0.820331
O O12 0.500000 0.000000 0.000000
O O13 0.486502 0.315634 0.047759
#
# Coordination Sequence:
#
# PCOD9085642 Si02
#       6
#     2   2   2   2   2   2
#     4   9  20  37  58  82 111 144 188 229 272 330
#     4   9  20  35  60  82 112 144 183 230 277 320
#     4  11  21  34  58  88 113 146 186 229 279 327
#     4  10  19  35  62  79 110 153 182 225 282 331
#     4   9  20  37  59  84 110 151 184 225 282 324
#     4  10  20  37  59  84 114 144 187 229 273 332
#
# _framework density 27.3767
#
# number of rings (size 3 to 8) (size 9 to 14) (size 15 to 20)
#    1.000    1.333    0.000    3.000    0.000    3.333 
#    0.000    0.833    3.667   14.000    0.000    0.000 
#    0.000    0.000    0.000    0.000    0.000    0.000 
#
# Total GULP energy -67066.941507 kJ/mol
# GULP energy per Si atom -5588.911792 kJ/mol
# Density = 2.731439 g / cm^3
# Si number density = 27.376700 Si / 1000 Ang^3
#
#
#
# Elastic Constant Matrix: (Units=GPa)
#
#
# Indices 1 2 3 4 5 6 
#
# 1 86.1671 54.7964 29.0350 -6.2673 9.6264 33.6628
# 2 54.7964 115.3646 29.3897 17.2112 18.3821 53.1227
# 3 29.0350 29.3897 182.0740 -14.9992 5.6155 7.1153
# 4 -6.2673 17.2112 -14.9992 35.8252 -1.5848 10.3501
# 5 9.6264 18.3821 5.6155 -1.5848 40.1267 6.6709
# 6 33.6628 53.1227 7.1153 10.3501 6.6709 53.7140
#
#
#
# Elastic Compliance Matrix: (Units=1/GPa)
#
#
# Indices 1 2 3 4 5 6 
#
# 1 0.019862 -0.007429 -0.001011 0.008549 0.000222 -0.006641
# 2 -0.007429 0.021315 -0.002266 -0.008778 -0.005731 -0.013721
# 3 -0.001011 -0.002266 0.006212 0.003117 0.000299 0.001414
# 4 0.008549 -0.008778 0.003117 0.036416 0.003732 -0.004570
# 5 0.000222 -0.005731 0.000299 0.003732 0.027371 0.001371
# 6 -0.006641 -0.013721 0.001414 -0.004570 0.001371 0.036872
#
#
# Mechanical properties :
#
#
# Convention : Reuss Voigt Hill
#
# Bulk Modulus (GPa) = 38.49717 67.78312 53.14015
# Shear Modulus (GPa) = 28.07087 43.95881 36.01484
#
# Velocity S-wave (km/s) = 3.20559 4.01147 3.63096
# Velocity P-wave (km/s) = 5.27197 6.80213 6.08534
#
# Compressibility (1/GPa) = 0.02597593
#
# Stress axis : x y z
#
# Youngs Moduli (GPa) = 50.34718 46.91437 160.98914
#
# Poissons Ratio (x) = 0.34854 0.16279
# Poissons Ratio (y) = 0.37404 0.36482
# Poissons Ratio (z) = 0.05091 0.10631
#
# Static dielectric constant tensor:
#      x y z
#    x 2.107510 0.012030 0.028950 
#    y 0.012030 2.165750 -0.052200 
#    z 0.028950 -0.052200 2.157290 
# 
# From -- ./inp_files/361495.got.cif
#   From: 2010.05.17/outbox.cif.g08.bks.cpg/sg2_181_cif.got.tgz:361495.got - 2010.06.03 11:33:40.
