data_PCOD9085408
_publ_section_title
;
Structure prediction by ZEFSAII (Michael W. Deem and Ramdas Pophale) SiO2 
 PCOD9085408
Probable space group: P -1
;
_chemical_formula_sum "Si O2"
_cell_formula_units_Z 15
_cell_length_a 24.138617
_cell_length_b 4.895572
_cell_length_c 5.302738
_cell_angle_alpha 92.729026
_cell_angle_beta 68.669098
_cell_angle_gamma 68.313677
_cell_volume 530.265150
_symmetry_space_group_name_H-M "P -1"
_symmetry_group_IT_number 2
_symmetry_cell_setting 'triclinic'
loop_
_space_group_symop_operation_xyz
x,y,z
-x,-y,-z
loop_
_atom_site_type_symbol
_atom_site_label
_atom_site_fract_x
_atom_site_fract_y
_atom_site_fract_z
Si Si1 0.263012 0.383363 0.534137
Si Si2 0.500000 0.000000 0.000000
Si Si3 0.137376 0.105431 0.266245
Si Si4 0.404378 0.992726 0.436420
Si Si5 0.881111 0.370457 0.018331
Si Si6 0.420269 0.606786 0.875661
Si Si7 0.012169 0.236024 0.667563
Si Si8 0.277147 0.840418 0.205848
O O1 0.269218 0.690636 0.474481
O O2 0.325813 0.179776 0.588035
O O3 0.276083 0.167469 0.259859
O O4 0.187924 0.453028 0.723480
O O5 0.557589 0.801821 0.679622
O O6 0.466440 0.272372 0.859217
O O7 0.115195 0.954095 0.068989
O O8 0.212421 0.887920 0.168528
O O9 0.129666 0.432774 0.212340
O O10 0.089946 0.113959 0.576698
O O11 0.427380 0.776952 0.625341
O O12 0.423117 0.821471 0.117550
O O13 0.954478 0.327881 0.976125
O O14 0.347135 0.627559 0.980038
O O15 0.000000 0.500000 0.500000
O O16 0.000000 0.000000 0.500000
#
# Coordination Sequence:
#
# PCOD9085408 Si02
#       8
#     2   1   2   2   2   2   2   2
#     4  11  23  42  61  96 134 178 228 292 350 421
#     4  12  24  50  72 108 136 192 232 294 362 422
#     4  10  19  35  60  88 121 172 225 286 346 415
#     4  11  26  46  71 104 142 184 237 294 356 427
#     4  10  19  35  60  88 121 172 225 286 346 415
#     4  11  26  46  71 104 142 184 237 294 356 427
#     4   8  16  30  52  84 120 160 222 280 343 409
#     4  11  23  42  61  96 134 178 228 292 350 421
#
# _framework density 28.287735000000001
#
# number of rings (size 3 to 8) (size 9 to 14) (size 15 to 20)
#    0.000    1.600    1.333    3.200    0.000    4.267 
#    0.000    1.333    0.000    0.000    0.000    0.000 
#    0.000    0.000    0.000    0.000    0.000    0.000 
#
# Total GULP energy -83715.278374 kJ/mol
# GULP energy per Si atom -5581.018558 kJ/mol
# Density = 2.822335 g / cm^3
# Si number density = 28.287735 Si / 1000 Ang^3
#
#
#
# Elastic Constant Matrix: (Units=GPa)
#
#
# Indices 1 2 3 4 5 6 
#
# 1 106.8652 28.8610 64.8515 -11.0554 -34.4859 -31.3648
# 2 28.8610 117.6648 41.9410 -16.2884 4.3797 -5.7412
# 3 64.8515 41.9410 167.3168 -21.8363 -37.5067 -24.7859
# 4 -11.0554 -16.2884 -21.8363 41.8548 -11.1219 0.8097
# 5 -34.4859 4.3797 -37.5067 -11.1219 60.9227 24.0181
# 6 -31.3648 -5.7412 -24.7859 0.8097 24.0181 55.3962
#
#
#
# Elastic Compliance Matrix: (Units=1/GPa)
#
#
# Indices 1 2 3 4 5 6 
#
# 1 0.015286 -0.002249 -0.003010 0.003023 0.005719 0.004551
# 2 -0.002249 0.010140 -0.002174 0.001379 -0.003147 0.000150
# 3 -0.003010 -0.002174 0.009441 0.004641 0.005107 0.000012
# 4 0.003023 0.001379 0.004641 0.030442 0.010436 -0.001039
# 5 0.005719 -0.003147 0.005107 0.010436 0.027667 -0.006952
# 6 0.004551 0.000150 0.000012 -0.001039 -0.006952 0.023679
#
#
# Mechanical properties :
#
#
# Convention : Reuss Voigt Hill
#
# Bulk Modulus (GPa) = 49.99620 73.68375 61.83997
# Shear Modulus (GPa) = 36.18284 48.71429 42.44857
#
# Velocity S-wave (km/s) = 3.58033 4.15432 3.87796
# Velocity P-wave (km/s) = 5.89951 7.00826 6.47765
#
# Compressibility (1/GPa) = 0.02000152
#
# Stress axis : x y z
#
# Youngs Moduli (GPa) = 65.42098 98.61536 105.92526
#
# Poissons Ratio (x) = 0.22174 0.31887
# Poissons Ratio (y) = 0.14710 0.23025
# Poissons Ratio (z) = 0.19694 0.21436
#
# Static dielectric constant tensor:
#      x y z
#    x 1.610580 -0.320380 0.183390 
#    y -0.320380 2.005340 0.180580 
#    z 0.183390 0.180580 2.199130 
# 
# From -- ./inp_files/11987.got.cif
#   From: 2010.05.17/outbox.cif.g08.bks.cpg/sg2_6_cif.got.tgz:11987.got - 2010.06.03 11:33:40.
