data_PCOD9085471
_publ_section_title
;
Structure prediction by ZEFSAII (Michael W. Deem and Ramdas Pophale) SiO2 
 PCOD9085471
Probable space group: P -1
;
_chemical_formula_sum "Si O2"
_cell_formula_units_Z 11
_cell_length_a 7.451143
_cell_length_b 8.039899
_cell_length_c 10.872773
_cell_angle_alpha 46.888519
_cell_angle_beta 122.263618
_cell_angle_gamma 121.779041
_cell_volume 388.022928
_symmetry_space_group_name_H-M "P -1"
_symmetry_group_IT_number 2
_symmetry_cell_setting 'triclinic'
loop_
_space_group_symop_operation_xyz
x,y,z
-x,-y,-z
loop_
_atom_site_type_symbol
_atom_site_label
_atom_site_fract_x
_atom_site_fract_y
_atom_site_fract_z
Si Si1 0.500000 0.500000 0.000000
Si Si2 0.192337 0.118073 0.915733
Si Si3 0.940203 0.368767 0.177541
Si Si4 0.437854 0.676237 0.583654
Si Si5 0.637021 0.292381 0.740792
Si Si6 0.121660 0.960976 0.382632
O O1 0.338494 0.351107 0.910792
O O2 0.309113 0.634631 0.894754
O O3 0.048360 0.138034 0.736751
O O4 0.327845 0.923337 0.059797
O O5 0.000000 0.000000 0.000000
O O6 0.124028 0.517215 0.263781
O O7 0.976239 0.107555 0.327935
O O8 0.000000 0.500000 0.000000
O O9 0.474470 0.424863 0.681492
O O10 0.430649 0.779110 0.388745
O O11 0.658218 0.815804 0.668564
O O12 0.241858 0.750235 0.546498
#
# Coordination Sequence:
#
# PCOD9085471 Si02
#       6
#     1   2   2   2   2   2
#     4  12  26  38  66 104 132 168 216 276 338 370
#     4  12  21  40  66  96 129 170 219 277 316 389
#     4  11  21  39  65 101 130 167 217 274 319 393
#     4   9  19  32  61  97 121 179 213 253 338 395
#     4  10  19  37  63  94 130 169 219 262 329 388
#     4  10  19  35  60  93 127 163 222 263 318 388
#
# _framework density 28.348841
#
# number of rings (size 3 to 8) (size 9 to 14) (size 15 to 20)
#    0.000    1.455    5.455    0.000    0.000    0.727 
#    0.000    0.000    0.000   19.636    0.000    0.000 
#    0.000    0.000    0.000    0.000    0.000    0.000 
#
# Total GULP energy -61304.986485 kJ/mol
# GULP energy per Si atom -5573.180590 kJ/mol
# Density = 2.828432 g / cm^3
# Si number density = 28.348841 Si / 1000 Ang^3
#
#
#
# Elastic Constant Matrix: (Units=GPa)
#
#
# Indices 1 2 3 4 5 6 
#
# 1 139.1824 40.2569 82.3216 -22.9420 57.2039 -13.4544
# 2 40.2569 168.2291 71.6770 29.5245 20.3132 -33.8876
# 3 82.3216 71.6770 207.8017 -4.1354 63.0126 -8.7672
# 4 -22.9420 29.5245 -4.1354 66.2855 -25.8269 22.5825
# 5 57.2039 20.3132 63.0126 -25.8269 63.5590 -14.5793
# 6 -13.4544 -33.8876 -8.7672 22.5825 -14.5793 30.8977
#
#
#
# Elastic Compliance Matrix: (Units=1/GPa)
#
#
# Indices 1 2 3 4 5 6 
#
# 1 0.012636 -0.003352 -0.001476 0.004508 -0.008342 -0.005824
# 2 -0.003352 0.019346 -0.004417 -0.021684 0.000316 0.034502
# 3 -0.001476 -0.004417 0.008722 0.001933 -0.006881 -0.007672
# 4 0.004508 -0.021684 0.001933 0.047359 0.008277 -0.051978
# 5 -0.008342 0.000316 -0.006881 0.008277 0.034467 0.004975
# 6 -0.005824 0.034502 -0.007672 -0.051978 0.004975 0.105830
#
#
# Mechanical properties :
#
#
# Convention : Reuss Voigt Hill
#
# Bulk Modulus (GPa) = 45.01626 100.41379 72.71503
# Shear Modulus (GPa) = 19.66541 53.54562 36.60552
#
# Velocity S-wave (km/s) = 2.63666 4.35076 3.59730
# Velocity P-wave (km/s) = 5.01829 7.79336 6.55438
#
# Compressibility (1/GPa) = 0.02221420
#
# Stress axis : x y z
#
# Youngs Moduli (GPa) = 79.13869 51.69137 114.65478
#
# Poissons Ratio (x) = 0.17327 0.16924
# Poissons Ratio (y) = 0.26527 0.50638
# Poissons Ratio (z) = 0.11681 0.22830
#
# Static dielectric constant tensor:
#      x y z
#    x 2.193600 -0.011280 -0.000700 
#    y -0.011280 2.123500 -0.069930 
#    z -0.000700 -0.069930 2.108050 
# 
# From -- ./inp_files/160983.got.cif
#   From: 2010.05.17/outbox.cif.g08.bks.cpg/sg2_81_cif.got.tgz:160983.got - 2010.06.03 11:33:40.
