data_PCOD9085655
_publ_section_title
;
Structure prediction by ZEFSAII (Michael W. Deem and Ramdas Pophale) SiO2 
 PCOD9085655
Probable space group: P -1
;
_chemical_formula_sum "Si O2"
_cell_formula_units_Z 16
_cell_length_a 19.416110
_cell_length_b 8.623430
_cell_length_c 8.728260
_cell_angle_alpha 50.791928
_cell_angle_beta 127.641057
_cell_angle_gamma 87.090996
_cell_volume 629.711749
_symmetry_space_group_name_H-M "P -1"
_symmetry_group_IT_number 2
_symmetry_cell_setting 'triclinic'
loop_
_space_group_symop_operation_xyz
x,y,z
-x,-y,-z
loop_
_atom_site_type_symbol
_atom_site_label
_atom_site_fract_x
_atom_site_fract_y
_atom_site_fract_z
Si Si1 0.868595 0.113353 0.199892
Si Si2 0.772687 0.528200 0.222464
Si Si3 0.990678 0.067958 0.123023
Si Si4 0.347065 0.974504 0.740990
Si Si5 0.467211 0.657814 0.611027
Si Si6 0.138262 0.341536 0.475948
Si Si7 0.384279 0.276298 0.397063
Si Si8 0.668817 0.313247 0.350462
O O1 0.885779 0.851751 0.418998
O O2 0.733239 0.401530 0.900017
O O3 0.000000 0.000000 0.500000
O O4 0.878600 0.152801 0.009537
O O5 0.818175 0.639702 0.313158
O O6 0.667402 0.737973 0.822588
O O7 0.735766 0.413468 0.361746
O O8 0.883276 0.242080 0.457087
O O9 0.973609 0.334553 0.936957
O O10 0.000000 0.000000 0.000000
O O11 0.248057 0.189783 0.598459
O O12 0.283941 0.936390 0.546960
O O13 0.404872 0.071419 0.676673
O O14 0.454535 0.657759 0.151199
O O15 0.345803 0.758313 0.457221
O O16 0.497223 0.787460 0.454925
O O17 0.540627 0.583590 0.917326
#
# Coordination Sequence:
#
# PCOD9085655 Si02
#       8
#     2   2   2   2   2   2   2   2
#     4  12  23  39  58  86 114 149 197 239 275 341
#     4  10  21  40  56  84 120 150 190 237 285 341
#     4  10  23  40  58  85 116 154 187 234 287 344
#     4  10  19  35  62  85 108 158 189 233 282 334
#     4   8  17  36  60  83 120 143 191 240 281 327
#     4  11  23  40  59  81 120 157 184 235 295 331
#     4  11  20  37  60  88 115 147 197 235 278 339
#     4   8  17  37  60  83 115 152 188 236 283 334
#
# _framework density 25.408449000000001
#
# number of rings (size 3 to 8) (size 9 to 14) (size 15 to 20)
#    0.750    1.250    3.750    0.000    0.000    4.000 
#    4.500    0.625    0.000    0.750    0.000    2.625 
#    0.000    0.000    0.000    0.000    0.000    0.000 
#
# Total GULP energy -89309.100566 kJ/mol
# GULP energy per Si atom -5581.818785 kJ/mol
# Density = 2.535062 g / cm^3
# Si number density = 25.408449 Si / 1000 Ang^3
#
#
#
# Elastic Constant Matrix: (Units=GPa)
#
#
# Indices 1 2 3 4 5 6 
#
# 1 166.6823 39.7964 23.2404 -7.9249 -31.6185 6.7210
# 2 39.7964 76.5391 35.8682 -24.3124 -2.5042 1.4679
# 3 23.2404 35.8682 53.4242 -9.2873 -9.3780 3.1709
# 4 -7.9249 -24.3124 -9.2873 41.3517 3.0611 -2.6061
# 5 -31.6185 -2.5042 -9.3780 3.0611 39.3021 -13.1423
# 6 6.7210 1.4679 3.1709 -2.6061 -13.1423 43.3778
#
#
#
# Elastic Compliance Matrix: (Units=1/GPa)
#
#
# Indices 1 2 3 4 5 6 
#
# 1 0.008280 -0.004859 0.000540 -0.001606 0.006884 0.000831
# 2 -0.004859 0.025730 -0.014325 0.011450 -0.006720 -0.000419
# 3 0.000540 -0.014325 0.028854 -0.002320 0.006643 0.000165
# 4 -0.001606 0.011450 -0.002320 0.030378 -0.003184 0.000891
# 5 0.006884 -0.006720 0.006643 -0.003184 0.035474 0.009232
# 6 0.000831 -0.000419 0.000165 0.000891 0.009232 0.025777
#
#
# Mechanical properties :
#
#
# Convention : Reuss Voigt Hill
#
# Bulk Modulus (GPa) = 39.09958 54.93952 47.01955
# Shear Modulus (GPa) = 24.96165 37.98902 31.47533
#
# Velocity S-wave (km/s) = 3.13775 3.87089 3.52344
# Velocity P-wave (km/s) = 5.34314 6.45352 5.92440
#
# Compressibility (1/GPa) = 0.02557572
#
# Stress axis : x y z
#
# Youngs Moduli (GPa) = 120.76952 38.86450 34.65743
#
# Poissons Ratio (x) = 0.18886 -0.01873
# Poissons Ratio (y) = 0.58686 0.49648
# Poissons Ratio (z) = -0.06525 0.55675
#
# Static dielectric constant tensor:
#      x y z
#    x 2.021110 0.014880 0.071610 
#    y 0.014880 2.090160 0.068810 
#    z 0.071610 0.068810 2.125960 
# 
# From -- ./inp_files/328456.got.cif
#   From: 2010.05.17/outbox.cif.g08.bks.cpg/sg2_165_cif.got.tgz:328456.got - 2010.06.03 11:33:40.
