data_PCOD9085913
_publ_section_title
;
Structure prediction by ZEFSAII (Michael W. Deem and Ramdas Pophale) SiO2 
 PCOD9085913
Probable space group: P -1
;
_chemical_formula_sum "Si O2"
_cell_formula_units_Z 14
_cell_length_a 8.580396
_cell_length_b 12.731030
_cell_length_c 10.123154
_cell_angle_alpha 49.559428
_cell_angle_beta 73.699611
_cell_angle_gamma 100.199461
_cell_volume 703.422707
_symmetry_space_group_name_H-M "P -1"
_symmetry_group_IT_number 2
_symmetry_cell_setting 'triclinic'
loop_
_space_group_symop_operation_xyz
x,y,z
-x,-y,-z
loop_
_atom_site_type_symbol
_atom_site_label
_atom_site_fract_x
_atom_site_fract_y
_atom_site_fract_z
Si Si1 0.346948 0.864672 0.738523
Si Si2 0.407534 0.582640 0.866122
Si Si3 0.606229 0.718293 0.168951
Si Si4 0.382546 0.878470 0.015706
Si Si5 0.027748 0.359612 0.664819
Si Si6 0.085382 0.308240 0.993898
Si Si7 0.621055 0.655486 0.500093
O O1 0.364448 0.705439 0.853041
O O2 0.500000 0.000000 0.500000
O O3 0.395614 0.932542 0.819342
O O4 0.126558 0.802659 0.817225
O O5 0.217235 0.445041 0.954564
O O6 0.556928 0.684712 0.632108
O O7 0.500000 0.500000 0.000000
O O8 0.460839 0.755291 0.102415
O O9 0.805134 0.787553 0.993321
O O10 0.615277 0.753146 0.294761
O O11 0.527188 0.530232 0.333595
O O12 0.168531 0.797140 0.172266
O O13 0.500000 0.000000 0.000000
O O14 0.000000 0.500000 0.500000
O O15 0.073452 0.380600 0.794242
O O16 0.182445 0.339673 0.564615
#
# Coordination Sequence:
#
# PCOD9085913 Si02
#       7
#     2   2   2   2   2   2   2
#     4  11  25  44  60  91 132 168 206 256 317 378
#     4  11  23  40  65  91 127 164 210 258 315 374
#     4   9  17  36  62  88 117 150 205 256 305 352
#     4  11  24  40  61  88 126 166 205 255 308 370
#     4  10  19  35  64  93 121 151 208 260 303 360
#     4   9  21  40  64  90 120 164 205 263 307 367
#     4   9  18  34  60  92 114 152 199 259 304 356
#
# _framework density 19.902683
#
# number of rings (size 3 to 8) (size 9 to 14) (size 15 to 20)
#    0.000    2.000    1.429    3.000    4.000    0.000 
#    5.143    3.571    0.000    0.000    0.000    0.000 
#    0.000    0.000    0.000    0.000    0.000    0.000 
#
# Total GULP energy -78045.427814 kJ/mol
# GULP energy per Si atom -5574.673415 kJ/mol
# Density = 1.985738 g / cm^3
# Si number density = 19.902683 Si / 1000 Ang^3
#
#
#
# Elastic Constant Matrix: (Units=GPa)
#
#
# Indices 1 2 3 4 5 6 
#
# 1 112.8178 24.1473 47.7123 0.2057 -32.7118 20.6868
# 2 24.1473 94.4914 29.8891 6.3212 -14.0667 25.7501
# 3 47.7123 29.8891 98.9950 8.7230 -37.7534 13.3132
# 4 0.2057 6.3212 8.7230 17.5038 -7.6816 -4.1095
# 5 -32.7118 -14.0667 -37.7534 -7.6816 32.4064 3.1297
# 6 20.6868 25.7501 13.3132 -4.1095 3.1297 32.5210
#
#
#
# Elastic Compliance Matrix: (Units=1/GPa)
#
#
# Indices 1 2 3 4 5 6 
#
# 1 0.016871 0.002203 0.000961 0.004631 0.021591 -0.014362
# 2 0.002203 0.016079 0.000591 -0.005437 0.010152 -0.016039
# 3 0.000961 0.000591 0.021841 -0.002111 0.027420 -0.012926
# 4 0.004631 -0.005437 -0.002111 0.069032 0.015303 0.009475
# 5 0.021591 0.010152 0.027420 0.015303 0.096527 -0.040353
# 6 -0.014362 -0.016039 -0.012926 0.009475 -0.040353 0.062957
#
#
# Mechanical properties :
#
#
# Convention : Reuss Voigt Hill
#
# Bulk Modulus (GPa) = 16.05094 56.64463 36.34779
# Shear Modulus (GPa) = 16.85973 30.12326 23.49150
#
# Velocity S-wave (km/s) = 2.91367 3.89463 3.43930
# Velocity P-wave (km/s) = 4.40472 6.98189 5.83731
#
# Compressibility (1/GPa) = 0.06230163
#
# Stress axis : x y z
#
# Youngs Moduli (GPa) = 59.27212 62.19391 45.78519
#
# Poissons Ratio (x) = -0.13700 -0.04400
# Poissons Ratio (y) = -0.13057 -0.02708
# Poissons Ratio (z) = -0.05696 -0.03678
#
# Static dielectric constant tensor:
#      x y z
#    x 1.960680 0.046420 -0.007350 
#    y 0.046420 1.762370 0.019900 
#    z -0.007350 0.019900 1.736860 
# 
# From -- ./inp_files/174041.got.cif
#   From: 2010.05.17/outbox.cif.g08.bks.cpg/sg2_88_cif.got.tgz:174041.got - 2010.06.03 11:33:40.
