data_PCOD9085336
_publ_section_title
;
Structure prediction by ZEFSAII (Michael W. Deem and Ramdas Pophale) SiO2 
 PCOD9085336
Probable space group: P -1
;
_chemical_formula_sum "Si O2"
_cell_formula_units_Z 12
_cell_length_a 7.340101
_cell_length_b 9.996964
_cell_length_c 13.438372
_cell_angle_alpha 141.631967
_cell_angle_beta 111.299427
_cell_angle_gamma 47.487840
_cell_volume 420.221911
_symmetry_space_group_name_H-M "P -1"
_symmetry_group_IT_number 2
_symmetry_cell_setting 'triclinic'
loop_
_space_group_symop_operation_xyz
x,y,z
-x,-y,-z
loop_
_atom_site_type_symbol
_atom_site_label
_atom_site_fract_x
_atom_site_fract_y
_atom_site_fract_z
Si Si1 0.542583 0.581288 0.356731
Si Si2 0.082211 0.625106 0.226981
Si Si3 0.192868 0.577163 0.877248
Si Si4 0.686445 0.941025 0.636831
Si Si5 0.236761 0.081331 0.855440
Si Si6 0.243371 0.447337 0.414471
O O1 0.265127 0.675885 0.333830
O O2 0.745907 0.362595 0.181367
O O3 0.542586 0.841317 0.500003
O O4 0.636094 0.497854 0.440055
O O5 0.858196 0.874965 0.251588
O O6 0.468798 0.225901 0.249588
O O7 0.249504 0.330788 0.020512
O O8 0.039892 0.460070 0.771230
O O9 0.483946 0.288399 0.806351
O O10 0.995992 0.830473 0.066460
O O11 0.780453 0.770503 0.662471
O O12 0.960478 0.769256 0.533264
#
# Coordination Sequence:
#
# PCOD9085336 Si02
#       6
#     2   2   2   2   2   2
#     4  10  20  33  60  87 103 144 194 229 259 334
#     4   9  18  34  57  83 111 140 189 225 277 319
#     4  10  19  35  60  84 106 144 188 232 268 322
#     4   9  18  33  57  82 112 148 182 218 289 330
#     4   9  18  36  55  79 115 149 173 230 285 322
#     4   9  18  35  60  77 113 155 175 221 292 326
#
# _framework density 28.556342000000001
#
# number of rings (size 3 to 8) (size 9 to 14) (size 15 to 20)
#    2.000    0.667    1.667    0.500    0.000    3.333 
#    0.000    1.667    3.667    9.000    0.000    0.000 
#    0.000    0.000    0.000    0.000    0.000    0.000 
#
# Total GULP energy -67025.266249 kJ/mol
# GULP energy per Si atom -5585.438854 kJ/mol
# Density = 2.849135 g / cm^3
# Si number density = 28.556342 Si / 1000 Ang^3
#
#
#
# Elastic Constant Matrix: (Units=GPa)
#
#
# Indices 1 2 3 4 5 6 
#
# 1 108.2282 54.8516 50.8449 8.6936 -21.2651 -26.7645
# 2 54.8516 115.4636 43.5808 21.3137 -7.0526 -30.6789
# 3 50.8449 43.5808 113.6492 20.2436 -39.9786 -35.8117
# 4 8.6936 21.3137 20.2436 52.4926 -16.5410 -8.9188
# 5 -21.2651 -7.0526 -39.9786 -16.5410 70.5966 0.6660
# 6 -26.7645 -30.6789 -35.8117 -8.9188 0.6660 61.1517
#
#
#
# Elastic Compliance Matrix: (Units=1/GPa)
#
#
# Indices 1 2 3 4 5 6 
#
# 1 0.014217 -0.005245 -0.003271 0.002121 0.002385 0.001959
# 2 -0.005245 0.013198 -0.002018 -0.004020 -0.002371 0.002583
# 3 -0.003271 -0.002018 0.016010 -0.001316 0.007508 0.006658
# 4 0.002121 -0.004020 -0.001316 0.022576 0.004769 0.001382
# 5 0.002385 -0.002371 0.007508 0.004769 0.019971 0.004729
# 6 0.001959 0.002583 0.006658 0.001382 0.004729 0.022555
#
#
# Mechanical properties :
#
#
# Convention : Reuss Voigt Hill
#
# Bulk Modulus (GPa) = 44.72937 70.65507 57.69222
# Shear Modulus (GPa) = 36.48382 49.38577 42.93480
#
# Velocity S-wave (km/s) = 3.57824 4.16314 3.88172
# Velocity P-wave (km/s) = 5.72445 6.92134 6.35115
#
# Compressibility (1/GPa) = 0.02235668
#
# Stress axis : x y z
#
# Youngs Moduli (GPa) = 70.33778 75.77132 62.46136
#
# Poissons Ratio (x) = 0.39739 0.20431
# Poissons Ratio (y) = 0.36889 0.12608
# Poissons Ratio (z) = 0.23007 0.15294
#
# Static dielectric constant tensor:
#      x y z
#    x 2.297040 0.098380 -0.047760 
#    y 0.098380 2.320300 -0.077030 
#    z -0.047760 -0.077030 2.218070 
# 
# From -- ./inp_files/497082.got.cif
#   From: 2010.05.17/outbox.cif.g08.bks.cpg/sg2_249_cif.got.tgz:497082.got - 2010.06.03 11:33:40.
