data_PCOD9085673
_publ_section_title
;
Structure prediction by ZEFSAII (Michael W. Deem and Ramdas Pophale) SiO2 
 PCOD9085673
Probable space group: P -1
;
_chemical_formula_sum "Si O2"
_cell_formula_units_Z 16
_cell_length_a 10.115768
_cell_length_b 12.555526
_cell_length_c 7.990970
_cell_angle_alpha 74.791533
_cell_angle_beta 120.560525
_cell_angle_gamma 126.560304
_cell_volume 700.770990
_symmetry_space_group_name_H-M "P -1"
_symmetry_group_IT_number 2
_symmetry_cell_setting 'triclinic'
loop_
_space_group_symop_operation_xyz
x,y,z
-x,-y,-z
loop_
_atom_site_type_symbol
_atom_site_label
_atom_site_fract_x
_atom_site_fract_y
_atom_site_fract_z
Si Si1 0.307843 0.375802 0.085808
Si Si2 0.463900 0.653773 0.223670
Si Si3 0.953543 0.123031 0.090194
Si Si4 0.641953 0.148167 0.969242
Si Si5 0.468291 0.865552 0.469910
Si Si6 0.162320 0.310752 0.640234
Si Si7 0.114296 0.963057 0.308588
Si Si8 0.337955 0.596308 0.555250
O O1 0.345083 0.514550 0.108857
O O2 0.499444 0.390254 0.233712
O O3 0.154706 0.255719 0.147772
O O4 0.233316 0.339882 0.865782
O O5 0.420472 0.753050 0.063076
O O6 0.677011 0.697954 0.341072
O O7 0.398182 0.622734 0.387706
O O8 0.836949 0.164197 0.104689
O O9 0.885489 0.071912 0.874604
O O10 0.973240 0.008334 0.223338
O O11 0.627479 0.156408 0.758203
O O12 0.500000 0.000000 0.000000
O O13 0.342997 0.728554 0.547322
O O14 0.500000 0.000000 0.500000
O O15 0.681228 0.912823 0.566875
O O16 0.172784 0.442000 0.531103
O O17 0.966165 0.170607 0.580908
#
# Coordination Sequence:
#
# PCOD9085673 Si02
#       8
#     2   2   2   2   2   2   2   2
#     4  10  19  35  62  88 110 156 203 239 283 347
#     4  10  21  37  58  83 124 155 188 241 302 348
#     4  10  20  37  62  86 121 149 200 243 293 343
#     4  11  24  40  56  88 122 158 189 246 301 350
#     4  11  22  40  64  84 120 158 197 234 302 352
#     4  10  20  35  62  90 114 150 205 244 277 348
#     4  10  20  38  63  92 111 153 201 251 279 342
#     4  10  20  37  56  89 118 155 189 239 299 343
#
# _framework density 22.831997000000001
#
# number of rings (size 3 to 8) (size 9 to 14) (size 15 to 20)
#    0.000    1.750    2.500    3.750    0.000    2.500 
#    4.500    2.500    0.000    0.000    0.000    0.000 
#    0.000    0.000    0.000    0.000    0.000    0.000 
#
# Total GULP energy -89244.356049 kJ/mol
# GULP energy per Si atom -5577.772253 kJ/mol
# Density = 2.278003 g / cm^3
# Si number density = 22.831997 Si / 1000 Ang^3
#
#
#
# Elastic Constant Matrix: (Units=GPa)
#
#
# Indices 1 2 3 4 5 6 
#
# 1 28.0886 22.2957 -3.0561 -10.3692 8.0288 -6.6292
# 2 22.2957 157.9649 10.8585 -51.8734 6.0518 -9.4519
# 3 -3.0561 10.8585 38.9863 -14.2650 1.8958 -7.6023
# 4 -10.3692 -51.8734 -14.2650 36.6335 -2.0418 0.2899
# 5 8.0288 6.0518 1.8958 -2.0418 18.1181 -2.8050
# 6 -6.6292 -9.4519 -7.6023 0.2899 -2.8050 45.6182
#
#
#
# Elastic Compliance Matrix: (Units=1/GPa)
#
#
# Indices 1 2 3 4 5 6 
#
# 1 0.052228 -0.001611 0.013124 0.016384 -0.020886 0.008055
# 2 -0.001611 0.012767 0.003911 0.019046 -0.001371 0.002857
# 3 0.013124 0.003911 0.035839 0.022750 -0.007052 0.008112
# 4 0.016384 0.019046 0.022750 0.067301 -0.006985 0.009261
# 5 -0.020886 -0.001371 -0.007052 -0.006985 0.064785 -0.000466
# 6 0.008055 0.002857 0.008112 0.009261 -0.000466 0.024948
#
#
# Mechanical properties :
#
#
# Convention : Reuss Voigt Hill
#
# Bulk Modulus (GPa) = 7.59415 31.69289 19.64352
# Shear Modulus (GPa) = 18.45604 33.07009 25.76307
#
# Velocity S-wave (km/s) = 2.84622 3.80993 3.36277
# Velocity P-wave (km/s) = 3.75960 5.76759 4.86825
#
# Compressibility (1/GPa) = 0.13168036
#
# Stress axis : x y z
#
# Youngs Moduli (GPa) = 19.14686 78.32671 27.90275
#
# Poissons Ratio (x) = 0.12621 -0.36620
# Poissons Ratio (y) = 0.03085 -0.10911
# Poissons Ratio (z) = -0.25129 -0.30630
#
# Static dielectric constant tensor:
#      x y z
#    x 1.974430 -0.102720 0.026620 
#    y -0.102720 1.931390 -0.012890 
#    z 0.026620 -0.012890 1.846380 
# 
# From -- ./inp_files/257683.got.cif
#   From: 2010.05.17/outbox.cif.g08.bks.cpg/sg2_129_cif.got.tgz:257683.got - 2010.06.03 11:33:40.
