data_PCOD9085733
_publ_section_title
;
Structure prediction by ZEFSAII (Michael W. Deem and Ramdas Pophale) SiO2 
 PCOD9085733
Probable space group: P -1
;
_chemical_formula_sum "Si O2"
_cell_formula_units_Z 15
_cell_length_a 18.126803
_cell_length_b 8.052999
_cell_length_c 9.124062
_cell_angle_alpha 65.089973
_cell_angle_beta 147.160364
_cell_angle_gamma 109.652055
_cell_volume 654.657142
_symmetry_space_group_name_H-M "P -1"
_symmetry_group_IT_number 2
_symmetry_cell_setting 'triclinic'
loop_
_space_group_symop_operation_xyz
x,y,z
-x,-y,-z
loop_
_atom_site_type_symbol
_atom_site_label
_atom_site_fract_x
_atom_site_fract_y
_atom_site_fract_z
Si Si1 0.194904 0.497017 0.284008
Si Si2 0.500000 0.000000 0.500000
Si Si3 0.037434 0.501013 0.315838
Si Si4 0.780678 0.072546 0.773460
Si Si5 0.679368 0.960036 0.068658
Si Si6 0.767523 0.188313 0.383958
Si Si7 0.527882 0.656941 0.106864
Si Si8 0.922349 0.852765 0.329659
O O1 0.127681 0.431336 0.349724
O O2 0.187745 0.718184 0.205046
O O3 0.349994 0.424314 0.559500
O O4 0.103507 0.437075 0.019045
O O5 0.631466 0.037054 0.599395
O O6 0.414666 0.923106 0.242490
O O7 0.122613 0.659111 0.470128
O O8 0.012448 0.343694 0.449957
O O9 0.778875 0.069177 0.595827
O O10 0.889787 0.934497 0.084920
O O11 0.587338 0.831910 0.060244
O O12 0.771506 0.839272 0.155604
O O13 0.774852 0.069123 0.295187
O O14 0.616865 0.284692 0.089850
O O15 0.500000 0.500000 0.000000
O O16 0.000000 0.000000 0.500000
#
# Coordination Sequence:
#
# PCOD9085733 Si02
#       8
#     2   1   2   2   2   2   2   2
#     4  10  19  35  62  93 121 169 222 253 302 389
#     4  10  20  36  60  88 124 164 200 252 324 382
#     4  10  20  38  63  89 126 169 214 262 313 380
#     4  10  20  35  64  92 124 161 214 260 318 374
#     4  11  23  39  65  94 129 165 212 269 321 383
#     4  11  23  40  65  96 131 164 217 272 316 370
#     4  12  19  36  65  95 123 166 216 260 310 377
#     4  11  21  39  67  91 122 170 217 254 323 394
#
# _framework density 22.912756999999999
#
# number of rings (size 3 to 8) (size 9 to 14) (size 15 to 20)
#    0.000    1.333    6.667    0.400    0.000    1.067 
#    0.000    3.333    8.800    8.800    0.000    0.000 
#    0.000    0.000    0.000    0.000    0.000    0.000 
#
# Total GULP energy -83590.273619 kJ/mol
# GULP energy per Si atom -5572.684908 kJ/mol
# Density = 2.286061 g / cm^3
# Si number density = 22.912757 Si / 1000 Ang^3
#
#
#
# Elastic Constant Matrix: (Units=GPa)
#
#
# Indices 1 2 3 4 5 6 
#
# 1 75.1003 22.1493 41.0344 -3.6609 -7.4139 4.3388
# 2 22.1493 65.9974 62.3453 1.7777 -20.8233 11.9524
# 3 41.0344 62.3453 194.2423 5.9439 -21.0892 7.7812
# 4 -3.6609 1.7777 5.9439 39.4972 1.6999 -1.1711
# 5 -7.4139 -20.8233 -21.0892 1.6999 40.1834 2.3677
# 6 4.3388 11.9524 7.7812 -1.1711 2.3677 24.6310
#
#
#
# Elastic Compliance Matrix: (Units=1/GPa)
#
#
# Indices 1 2 3 4 5 6 
#
# 1 0.015613 -0.002925 -0.002393 0.001922 0.000057 -0.000489
# 2 -0.002925 0.028321 -0.006700 -0.001392 0.011402 -0.012273
# 3 -0.002393 -0.006700 0.007809 -0.001069 0.000163 0.001139
# 4 0.001922 -0.001392 -0.001069 0.025875 -0.002147 0.002111
# 5 0.000057 0.011402 0.000163 -0.002147 0.031495 -0.008724
# 6 -0.000489 -0.012273 0.001139 0.002111 -0.008724 0.047220
#
#
# Mechanical properties :
#
#
# Convention : Reuss Voigt Hill
#
# Bulk Modulus (GPa) = 36.09102 65.15534 50.62318
# Shear Modulus (GPa) = 26.37079 34.84973 30.61026
#
# Velocity S-wave (km/s) = 3.39620 3.90420 3.65903
# Velocity P-wave (km/s) = 5.58253 6.98725 6.32401
#
# Compressibility (1/GPa) = 0.02770772
#
# Stress axis : x y z
#
# Youngs Moduli (GPa) = 64.04918 35.30986 128.05999
#
# Poissons Ratio (x) = 0.10328 0.30639
# Poissons Ratio (y) = 0.18734 0.85799
# Poissons Ratio (z) = 0.15324 0.23657
#
# Static dielectric constant tensor:
#      x y z
#    x 1.912720 0.013680 0.024320 
#    y 0.013680 1.824250 -0.007790 
#    z 0.024320 -0.007790 1.836690 
# 
# From -- ./inp_files/343469.got.cif
#   From: 2010.05.17/outbox.cif.g08.bks.cpg/sg2_172_cif.got.tgz:343469.got - 2010.06.03 11:33:40.
