data_PCOD9085600
_publ_section_title
;
Structure prediction by ZEFSAII (Michael W. Deem and Ramdas Pophale) SiO2 
 PCOD9085600
Probable space group: P -1
;
_chemical_formula_sum "Si O2"
_cell_formula_units_Z 16
_cell_length_a 9.225740
_cell_length_b 24.151472
_cell_length_c 5.231681
_cell_angle_alpha 77.712056
_cell_angle_beta 78.055151
_cell_angle_gamma 125.668554
_cell_volume 841.000803
_symmetry_space_group_name_H-M "P -1"
_symmetry_group_IT_number 2
_symmetry_cell_setting 'triclinic'
loop_
_space_group_symop_operation_xyz
x,y,z
-x,-y,-z
loop_
_atom_site_type_symbol
_atom_site_label
_atom_site_fract_x
_atom_site_fract_y
_atom_site_fract_z
Si Si1 0.940126 0.574226 0.812792
Si Si2 0.801335 0.652726 0.929853
Si Si3 0.119036 0.973618 0.421488
Si Si4 0.601633 0.483676 0.683203
Si Si5 0.535288 0.046918 0.190678
Si Si6 0.048319 0.880349 0.037665
Si Si7 0.696600 0.413413 0.343365
Si Si8 0.248134 0.288956 0.587690
O O1 0.938619 0.631975 0.914167
O O2 0.811218 0.557981 0.628131
O O3 0.151276 0.599674 0.671634
O O4 0.805552 0.490421 0.066691
O O5 0.850726 0.708110 0.629790
O O6 0.583708 0.573914 0.009649
O O7 0.782402 0.679078 0.182562
O O8 0.354448 0.044979 0.264629
O O9 0.071034 0.931193 0.210776
O O10 0.067087 0.917148 0.725116
O O11 0.000000 0.000000 0.500000
O O12 0.500000 0.500000 0.500000
O O13 0.654714 0.435356 0.600335
O O14 0.500000 0.000000 0.500000
O O15 0.500000 0.000000 0.000000
O O16 0.766595 0.117349 0.026509
O O17 0.851838 0.795657 0.229406
O O18 0.481458 0.341916 0.397668
#
# Coordination Sequence:
#
# PCOD9085600 Si02
#       8
#     2   2   2   2   2   2   2   2
#     4  11  20  36  53  80 104 142 191 257 290 323
#     4  11  22  36  57  78 107 142 201 236 280 335
#     4  10  19  35  61  92 112 143 183 231 269 321
#     4  11  19  34  55  79 102 140 189 250 291 331
#     4   8  16  31  54  81 107 140 179 218 256 308
#     4  10  20  37  58  81 120 149 182 222 276 337
#     4  10  22  34  54  78 111 144 188 239 300 340
#     4  11  23  40  55  81 110 159 184 225 284 355
#
# _framework density 19.024951999999999
#
# number of rings (size 3 to 8) (size 9 to 14) (size 15 to 20)
#    0.000    1.750    2.500    3.375    0.000    0.000 
#    0.000    2.500    0.000    0.000    0.000    0.000 
#    0.000    0.000    0.000    0.000    0.000    0.000 
#
# Total GULP energy -89131.231260 kJ/mol
# GULP energy per Si atom -5570.701954 kJ/mol
# Density = 1.898165 g / cm^3
# Si number density = 19.024952 Si / 1000 Ang^3
#
#
#
# Elastic Constant Matrix: (Units=GPa)
#
#
# Indices 1 2 3 4 5 6 
#
# 1 129.6755 19.8945 26.6764 7.2391 -31.9399 -18.2707
# 2 19.8945 32.7774 5.8073 -1.1515 -11.0034 -2.4110
# 3 26.6764 5.8073 73.3615 4.1386 -0.4973 -1.3350
# 4 7.2391 -1.1515 4.1386 31.7617 2.2070 -3.7796
# 5 -31.9399 -11.0034 -0.4973 2.2070 38.5531 8.1804
# 6 -18.2707 -2.4110 -1.3350 -3.7796 8.1804 19.6091
#
#
#
# Elastic Compliance Matrix: (Units=1/GPa)
#
#
# Indices 1 2 3 4 5 6 
#
# 1 0.011985 -0.003656 -0.003775 -0.002066 0.007483 0.006941
# 2 -0.003656 0.035390 -0.001546 0.001576 0.007372 -0.001932
# 3 -0.003775 -0.001546 0.015141 -0.001162 -0.002953 -0.001669
# 4 -0.002066 0.001576 -0.001162 0.033254 -0.004560 0.006501
# 5 0.007483 0.007372 -0.002953 -0.004560 0.036229 -0.008315
# 6 0.006941 -0.001932 -0.001669 0.006501 -0.008315 0.061835
#
#
# Mechanical properties :
#
#
# Convention : Reuss Voigt Hill
#
# Bulk Modulus (GPa) = 22.44059 37.84119 30.14089
# Shear Modulus (GPa) = 22.06109 30.21385 26.13747
#
# Velocity S-wave (km/s) = 3.40897 3.98944 3.71057
# Velocity P-wave (km/s) = 5.22644 6.41516 5.85107
#
# Compressibility (1/GPa) = 0.04456212
#
# Stress axis : x y z
#
# Youngs Moduli (GPa) = 83.43440 28.25689 66.04376
#
# Poissons Ratio (x) = 0.10330 0.24933
# Poissons Ratio (y) = 0.30502 0.10211
# Poissons Ratio (z) = 0.31499 0.04369
#
# Static dielectric constant tensor:
#      x y z
#    x 1.693480 0.026340 0.018960 
#    y 0.026340 1.680810 0.023130 
#    z 0.018960 0.023130 1.721080 
# 
# From -- ./inp_files/51265.got.cif
#   From: 2010.05.17/outbox.cif.g08.bks.cpg/sg2_26_cif.got.tgz:51265.got - 2010.06.03 11:33:40.
