data_PCOD9085514
_publ_section_title
;
Structure prediction by ZEFSAII (Michael W. Deem and Ramdas Pophale) SiO2 
 PCOD9085514
Probable space group: P -1
;
_chemical_formula_sum "Si O2"
_cell_formula_units_Z 16
_cell_length_a 9.426628
_cell_length_b 14.694823
_cell_length_c 12.087059
_cell_angle_alpha 69.374886
_cell_angle_beta 90.786230
_cell_angle_gamma 142.530043
_cell_volume 842.983589
_symmetry_space_group_name_H-M "P -1"
_symmetry_group_IT_number 2
_symmetry_cell_setting 'triclinic'
loop_
_space_group_symop_operation_xyz
x,y,z
-x,-y,-z
loop_
_atom_site_type_symbol
_atom_site_label
_atom_site_fract_x
_atom_site_fract_y
_atom_site_fract_z
Si Si1 0.751948 0.594313 0.211688
Si Si2 0.690263 0.502898 0.789007
Si Si3 0.634568 0.297306 0.013196
Si Si4 0.683679 0.011857 0.019844
Si Si5 0.210640 0.595749 0.793548
Si Si6 0.215554 0.789387 0.570798
Si Si7 0.073964 0.408573 0.580232
Si Si8 0.367965 0.705661 0.300134
O O1 0.514357 0.530508 0.218393
O O2 0.695856 0.454582 0.224426
O O3 0.823344 0.618887 0.331222
O O4 0.014083 0.785128 0.073207
O O5 0.643319 0.387416 0.750047
O O6 0.989800 0.707198 0.680905
O O7 0.651185 0.422792 0.937419
O O8 0.632571 0.277460 0.151210
O O9 0.907313 0.414397 0.912070
O O10 0.397152 0.109757 0.026343
O O11 0.606644 0.912516 0.175858
O O12 0.500000 0.000000 0.000000
O O13 0.232939 0.689889 0.659902
O O14 0.097990 0.721049 0.473967
O O15 0.500000 0.000000 0.500000
O O16 0.877843 0.361269 0.672138
O O17 0.315051 0.615558 0.450899
#
# Coordination Sequence:
#
# PCOD9085514 Si02
#       8
#     2   2   2   2   2   2   2   2
#     4  12  22  35  62  89 120 153 186 243 294 348
#     4   9  21  39  58  84 120 149 187 237 302 341
#     4   9  19  37  57  80 118 154 192 235 284 343
#     4  11  19  33  59  89 113 145 207 240 270 342
#     4  10  20  36  59  84 113 156 191 238 290 331
#     4  10  22  39  61  84 112 153 203 237 275 351
#     4  10  19  35  61  84 114 152 196 237 293 331
#     4   9  18  35  55  81 117 147 191 241 274 339
#
# _framework density 18.980204000000001
#
# number of rings (size 3 to 8) (size 9 to 14) (size 15 to 20)
#    0.000    2.000    2.500    3.750    1.750    4.500 
#    2.250    0.625    5.500    0.000    0.000    0.000 
#    0.000    0.000    0.000    0.000    0.000    0.000 
#
# Total GULP energy -89168.152686 kJ/mol
# GULP energy per Si atom -5573.009543 kJ/mol
# Density = 1.893700 g / cm^3
# Si number density = 18.980204 Si / 1000 Ang^3
#
#
#
# Elastic Constant Matrix: (Units=GPa)
#
#
# Indices 1 2 3 4 5 6 
#
# 1 110.5863 28.2750 24.3094 -8.1680 9.8004 15.9288
# 2 28.2750 63.4540 32.0560 -10.3897 -2.0276 0.7133
# 3 24.3094 32.0560 95.3668 -12.5805 8.1925 8.1884
# 4 -8.1680 -10.3897 -12.5805 38.7310 3.5138 -4.2334
# 5 9.8004 -2.0276 8.1925 3.5138 16.0745 2.3579
# 6 15.9288 0.7133 8.1884 -4.2334 2.3579 18.2322
#
#
#
# Elastic Compliance Matrix: (Units=1/GPa)
#
#
# Indices 1 2 3 4 5 6 
#
# 1 0.012551 -0.005734 0.000295 0.000799 -0.007271 -0.009748
# 2 -0.005734 0.022489 -0.007072 0.002509 0.008390 0.006803
# 3 0.000295 -0.007072 0.014306 0.003066 -0.008357 -0.004614
# 4 0.000799 0.002509 0.003066 0.029094 -0.008935 0.005738
# 5 -0.007271 0.008390 -0.008357 -0.008935 0.074191 -0.001892
# 6 -0.009748 0.006803 -0.004614 0.005738 -0.001892 0.066748
#
#
# Mechanical properties :
#
#
# Convention : Reuss Voigt Hill
#
# Bulk Modulus (GPa) = 41.10910 48.74310 44.92610
# Shear Modulus (GPa) = 19.80117 26.92530 23.36324
#
# Velocity S-wave (km/s) = 3.23345 3.77052 3.51226
# Velocity P-wave (km/s) = 5.97044 6.68524 6.33793
#
# Compressibility (1/GPa) = 0.02432551
#
# Stress axis : x y z
#
# Youngs Moduli (GPa) = 79.67268 44.46526 69.89975
#
# Poissons Ratio (x) = 0.25495 -0.02061
# Poissons Ratio (y) = 0.45683 0.49432
# Poissons Ratio (z) = -0.02349 0.31445
#
# Static dielectric constant tensor:
#      x y z
#    x 1.639600 -0.007060 0.007240 
#    y -0.007060 1.697480 0.028070 
#    z 0.007240 0.028070 1.725440 
# 
# From -- ./inp_files/263580.got.cif
#   From: 2010.05.17/outbox.cif.g08.bks.cpg/sg2_132_cif.got.tgz:263580.got - 2010.06.03 11:33:40.
