data_PCOD9085279
_publ_section_title
;
Structure prediction by ZEFSAII (Michael W. Deem and Ramdas Pophale) SiO2 
 PCOD9085279
Probable space group: P -1
;
_chemical_formula_sum "Si O2"
_cell_formula_units_Z 14
_cell_length_a 19.821850
_cell_length_b 4.947355
_cell_length_c 8.503289
_cell_angle_alpha 88.892865
_cell_angle_beta 49.411293
_cell_angle_gamma 111.755284
_cell_volume 546.570248
_symmetry_space_group_name_H-M "P -1"
_symmetry_group_IT_number 2
_symmetry_cell_setting 'triclinic'
loop_
_space_group_symop_operation_xyz
x,y,z
-x,-y,-z
loop_
_atom_site_type_symbol
_atom_site_label
_atom_site_fract_x
_atom_site_fract_y
_atom_site_fract_z
Si Si1 0.634913 0.171053 0.353023
Si Si2 0.375356 0.077739 0.977580
Si Si3 0.866468 0.537650 0.117600
Si Si4 0.244586 0.408556 0.225410
Si Si5 0.055981 0.337999 0.335824
Si Si6 0.590083 0.608183 0.610333
Si Si7 0.821430 0.971665 0.374551
O O1 0.691245 0.748883 0.934088
O O2 0.752759 0.304718 0.223519
O O3 0.570740 0.874802 0.567811
O O4 0.618375 0.051443 0.202389
O O5 0.490021 0.337611 0.850133
O O6 0.388768 0.557932 0.568431
O O7 0.320046 0.762043 0.170059
O O8 0.867796 0.842701 0.175572
O O9 0.870401 0.335994 0.259225
O O10 0.941907 0.625433 0.855539
O O11 0.173556 0.461117 0.210002
O O12 0.170450 0.158555 0.469217
O O13 0.000000 0.500000 0.500000
O O14 0.000000 0.000000 0.500000
O O15 0.696474 0.779382 0.543141
#
# Coordination Sequence:
#
# PCOD9085279 Si02
#       7
#     2   2   2   2   2   2   2
#     4  10  19  35  59  90 130 167 219 255 306 364
#     4  12  22  36  62  93 136 169 217 260 309 358
#     4  10  21  42  68  89 126 172 207 256 319 379
#     4  12  26  42  64  96 131 167 210 269 322 370
#     4  12  26  46  71  98 122 156 212 271 329 387
#     4  10  21  35  59  93 131 177 213 254 296 370
#     4  10  23  42  64  93 135 174 209 246 312 383
#
# _framework density 25.614274999999999
#
# number of rings (size 3 to 8) (size 9 to 14) (size 15 to 20)
#    0.000    1.143    1.429    5.143    4.000    1.143 
#    0.000    4.286    0.000    0.000    0.000    0.000 
#    0.000    0.000    0.000    0.000    0.000    0.000 
#
# Total GULP energy -78426.560838 kJ/mol
# GULP energy per Si atom -5601.897203 kJ/mol
# Density = 2.555598 g / cm^3
# Si number density = 25.614275 Si / 1000 Ang^3
#
#
#
# Elastic Constant Matrix: (Units=GPa)
#
#
# Indices 1 2 3 4 5 6 
#
# 1 86.3741 14.5212 17.9801 16.5682 -10.3595 -18.4089
# 2 14.5212 120.6096 5.1920 -5.9166 -7.9985 -32.0503
# 3 17.9801 5.1920 104.6674 -21.7579 -7.9379 -10.1475
# 4 16.5682 -5.9166 -21.7579 44.6618 6.4170 3.2727
# 5 -10.3595 -7.9985 -7.9379 6.4170 33.2215 -2.6086
# 6 -18.4089 -32.0503 -10.1475 3.2727 -2.6086 33.6981
#
#
#
# Elastic Compliance Matrix: (Units=1/GPa)
#
#
# Indices 1 2 3 4 5 6 
#
# 1 0.017219 0.000972 -0.003422 -0.009802 0.007530 0.010836
# 2 0.000972 0.011660 0.000768 0.000057 0.004239 0.012175
# 3 -0.003422 0.000768 0.011761 0.006863 0.000743 0.001794
# 4 -0.009802 0.000057 0.006863 0.031020 -0.007934 -0.006861
# 5 0.007530 0.004239 0.000743 -0.007934 0.036117 0.011936
# 6 0.010836 0.012175 0.001794 -0.006861 0.011936 0.049305
#
#
# Mechanical properties :
#
#
# Convention : Reuss Voigt Hill
#
# Bulk Modulus (GPa) = 26.82636 43.00419 34.91527
# Shear Modulus (GPa) = 28.92317 40.58015 34.75166
#
# Velocity S-wave (km/s) = 3.36398 3.98462 3.68738
# Velocity P-wave (km/s) = 5.05810 6.16402 5.63824
#
# Compressibility (1/GPa) = 0.03727677
#
# Stress axis : x y z
#
# Youngs Moduli (GPa) = 58.07435 85.76009 85.02902
#
# Poissons Ratio (x) = -0.08336 0.29099
# Poissons Ratio (y) = -0.05645 -0.06533
# Poissons Ratio (z) = 0.19875 -0.06590
#
# Static dielectric constant tensor:
#      x y z
#    x 2.098790 0.047560 -0.008230 
#    y 0.047560 1.923680 -0.011860 
#    z -0.008230 -0.011860 2.036370 
# 
# From -- ./inp_files/89221.got.cif
#   From: 2010.05.17/outbox.cif.g08.bks.cpg/sg2_45_cif.got.tgz:89221.got - 2010.06.03 11:33:40.
