data_PCOD9085674
_publ_section_title
;
Structure prediction by ZEFSAII (Michael W. Deem and Ramdas Pophale) SiO2 
 PCOD9085674
Probable space group: P -1
;
_chemical_formula_sum "Si O2"
_cell_formula_units_Z 14
_cell_length_a 16.709563
_cell_length_b 18.729430
_cell_length_c 7.132543
_cell_angle_alpha 136.772597
_cell_angle_beta 51.810594
_cell_angle_gamma 158.430758
_cell_volume 546.196291
_symmetry_space_group_name_H-M "P -1"
_symmetry_group_IT_number 2
_symmetry_cell_setting 'triclinic'
loop_
_space_group_symop_operation_xyz
x,y,z
-x,-y,-z
loop_
_atom_site_type_symbol
_atom_site_label
_atom_site_fract_x
_atom_site_fract_y
_atom_site_fract_z
Si Si1 0.366432 0.900422 0.197544
Si Si2 0.188321 0.361492 0.832729
Si Si3 0.795908 0.393847 0.604979
Si Si4 0.858495 0.741869 0.864661
Si Si5 0.743469 0.989206 0.591679
Si Si6 0.350112 0.261582 0.050642
Si Si7 0.705352 0.384513 0.295063
O O1 0.215966 0.861937 0.283423
O O2 0.563700 0.123895 0.470076
O O3 0.259067 0.692565 0.013256
O O4 0.500000 0.000000 0.000000
O O5 0.959893 0.123958 0.605165
O O6 0.176412 0.476631 0.067241
O O7 0.180454 0.315159 0.969576
O O8 0.430435 0.542317 0.762006
O O9 0.777190 0.418819 0.467481
O O10 0.000000 0.500000 0.500000
O O11 0.821826 0.602941 0.529200
O O12 0.691515 0.673201 0.884740
O O13 0.111482 0.015658 0.014740
O O14 0.617387 0.803918 0.268065
O O15 0.565091 0.844245 0.740907
#
# Coordination Sequence:
#
# PCOD9085674 Si02
#       7
#     2   2   2   2   2   2   2
#     4   8  14  28  51  85 115 142 189 228 283 338
#     4  11  20  37  63  86 112 154 195 231 288 347
#     4   9  14  26  54  85 111 147 185 227 278 339
#     4  10  23  40  60  81 119 154 188 249 284 335
#     4  10  19  35  62  88 113 152 190 236 284 346
#     4  11  22  43  57  84 119 149 196 241 291 331
#     4   9  17  33  54  85 115 151 188 231 287 339
#
# _framework density 25.631810999999999
#
# number of rings (size 3 to 8) (size 9 to 14) (size 15 to 20)
#    0.000    2.571    4.286    3.000    0.000    0.571 
#    2.571    2.143    0.000    4.286    0.000    0.000 
#    0.000    0.000    0.000    0.000    0.000    0.000 
#
# Total GULP energy -78232.940435 kJ/mol
# GULP energy per Si atom -5588.067174 kJ/mol
# Density = 2.557347 g / cm^3
# Si number density = 25.631811 Si / 1000 Ang^3
#
#
#
# Elastic Constant Matrix: (Units=GPa)
#
#
# Indices 1 2 3 4 5 6 
#
# 1 143.2987 66.1615 34.3117 16.2607 -19.0671 26.1968
# 2 66.1615 94.8003 7.6610 17.0271 -2.7815 35.5530
# 3 34.3117 7.6610 55.5468 -4.6185 -15.9351 4.5141
# 4 16.2607 17.0271 -4.6185 30.8270 14.0235 0.7504
# 5 -19.0671 -2.7815 -15.9351 14.0235 48.2656 7.3613
# 6 26.1968 35.5530 4.5141 0.7504 7.3613 56.2162
#
#
#
# Elastic Compliance Matrix: (Units=1/GPa)
#
#
# Indices 1 2 3 4 5 6 
#
# 1 0.013372 -0.006750 -0.006263 -0.006499 0.005024 -0.002031
# 2 -0.006750 0.020675 0.002436 -0.008827 0.003490 -0.010465
# 3 -0.006263 0.002436 0.023203 0.003412 0.004506 -0.001121
# 4 -0.006499 -0.008827 0.003412 0.049079 -0.017735 0.010005
# 5 0.005024 0.003490 0.004506 -0.017735 0.030875 -0.008716
# 6 -0.002031 -0.010465 -0.001121 0.010005 -0.008716 0.026451
#
#
# Mechanical properties :
#
#
# Convention : Reuss Voigt Hill
#
# Bulk Modulus (GPa) = 27.70445 56.65712 42.18079
# Shear Modulus (GPa) = 25.40140 39.42919 32.41529
#
# Velocity S-wave (km/s) = 3.15145 3.92636 3.56005
# Velocity P-wave (km/s) = 4.90655 6.53508 5.77847
#
# Compressibility (1/GPa) = 0.03609528
#
# Stress axis : x y z
#
# Youngs Moduli (GPa) = 74.78558 48.36811 43.09754
#
# Poissons Ratio (x) = 0.32647 0.26992
# Poissons Ratio (y) = 0.50478 -0.10497
# Poissons Ratio (z) = 0.46838 -0.11780
#
# Static dielectric constant tensor:
#      x y z
#    x 1.972780 -0.042540 -0.021830 
#    y -0.042540 2.130600 0.020770 
#    z -0.021830 0.020770 2.068920 
# 
# From -- ./inp_files/337902.got.cif
#   From: 2010.05.17/outbox.cif.g08.bks.cpg/sg2_169_cif.got.tgz:337902.got - 2010.06.03 11:33:40.
