data_PCOD9085114
_publ_section_title
;
Structure prediction by ZEFSAII (Michael W. Deem and Ramdas Pophale) SiO2 
 PCOD9085114
Probable space group: P -1
;
_chemical_formula_sum "Si O2"
_cell_formula_units_Z 14
_cell_length_a 11.122773
_cell_length_b 6.933038
_cell_length_c 17.573310
_cell_angle_alpha 93.152522
_cell_angle_beta 28.400183
_cell_angle_gamma 79.254921
_cell_volume 559.401270
_symmetry_space_group_name_H-M "P -1"
_symmetry_group_IT_number 2
_symmetry_cell_setting 'triclinic'
loop_
_space_group_symop_operation_xyz
x,y,z
-x,-y,-z
loop_
_atom_site_type_symbol
_atom_site_label
_atom_site_fract_x
_atom_site_fract_y
_atom_site_fract_z
Si Si1 0.167084 0.381136 0.691849
Si Si2 0.330755 0.890839 0.292249
Si Si3 0.342854 0.849275 0.711595
Si Si4 0.715088 0.672532 0.206745
Si Si5 0.350157 0.336746 0.310488
Si Si6 0.549635 0.706848 0.999705
Si Si7 0.193013 0.857142 0.064433
O O1 0.435226 0.258953 0.483706
O O2 0.274481 0.414090 0.715345
O O3 0.025681 0.222498 0.781987
O O4 0.897943 0.600423 0.810178
O O5 0.472710 0.724965 0.280208
O O6 0.413716 0.792710 0.159903
O O7 0.397301 0.091719 0.262966
O O8 0.000000 0.000000 0.500000
O O9 0.498100 0.686999 0.692810
O O10 0.310148 0.086660 0.760071
O O11 0.016038 0.929187 0.866053
O O12 0.000000 0.500000 0.000000
O O13 0.000000 0.500000 0.500000
O O14 0.563767 0.339480 0.127100
O O15 0.370590 0.880134 0.036032
O O16 0.500000 0.500000 0.000000
#
# Coordination Sequence:
#
# PCOD9085114 Si02
#       7
#     2   2   2   2   2   2   2
#     4  10  20  37  65  95 123 164 213 254 311 379
#     4  11  26  39  63  97 128 164 220 261 309 381
#     4  10  22  38  65  95 123 167 215 253 313 388
#     4  10  19  35  58  93 126 156 201 266 311 356
#     4  11  25  42  65  93 131 171 207 262 326 372
#     4  10  22  37  65  93 127 167 210 260 317 369
#     4  10  21  37  64  90 128 159 211 255 317 369
#
# _framework density 25.026758000000001
#
# number of rings (size 3 to 8) (size 9 to 14) (size 15 to 20)
#    0.000    1.714    1.429    3.000   14.000    0.571 
#    0.000    0.000    0.000    1.714    0.000    0.000 
#    0.000    0.000    0.000    0.000    0.000    0.000 
#
# Total GULP energy -78289.161128 kJ/mol
# GULP energy per Si atom -5592.082938 kJ/mol
# Density = 2.496980 g / cm^3
# Si number density = 25.026758 Si / 1000 Ang^3
#
#
#
# Elastic Constant Matrix: (Units=GPa)
#
#
# Indices 1 2 3 4 5 6 
#
# 1 252.7569 45.9376 117.0292 29.7518 1.2113 -51.1036
# 2 45.9376 89.1846 30.3599 21.1086 3.5893 -20.6247
# 3 117.0292 30.3599 242.8731 27.4916 0.1035 -35.9142
# 4 29.7518 21.1086 27.4916 36.3938 -10.1278 -10.0066
# 5 1.2113 3.5893 0.1035 -10.1278 58.3427 16.3973
# 6 -51.1036 -20.6247 -35.9142 -10.0066 16.3973 50.9356
#
#
#
# Elastic Compliance Matrix: (Units=1/GPa)
#
#
# Indices 1 2 3 4 5 6 
#
# 1 0.006238 -0.000843 -0.001943 -0.002361 -0.001794 0.004661
# 2 -0.000843 0.014656 0.000152 -0.007584 -0.003565 0.004854
# 3 -0.001943 0.000152 0.005591 -0.002468 -0.000933 0.001869
# 4 -0.002361 -0.007584 -0.002468 0.037150 0.007625 -0.002336
# 5 -0.001794 -0.003565 -0.000933 0.007625 0.021327 -0.009269
# 6 0.004661 0.004854 0.001869 -0.002336 -0.009269 0.030117
#
#
# Mechanical properties :
#
#
# Convention : Reuss Voigt Hill
#
# Bulk Modulus (GPa) = 47.13331 107.94089 77.53710
# Shear Modulus (GPa) = 39.24018 55.23360 47.23689
#
# Velocity S-wave (km/s) = 3.96400 4.70295 4.34920
# Velocity P-wave (km/s) = 6.31072 8.52726 7.50131
#
# Compressibility (1/GPa) = 0.02121642
#
# Stress axis : x y z
#
# Youngs Moduli (GPa) = 160.30312 68.23108 178.85833
#
# Poissons Ratio (x) = 0.05751 0.34758
# Poissons Ratio (y) = 0.13511 -0.02714
# Poissons Ratio (z) = 0.31152 -0.01035
#
# Static dielectric constant tensor:
#      x y z
#    x 2.005350 0.015590 -0.033710 
#    y 0.015590 2.147210 0.010250 
#    z -0.033710 0.010250 1.849950 
# 
# From -- ./inp_files/527380.got.cif
#   From: 2010.05.17/outbox.cif.g08.bks.cpg/sg2_264_cif.got.tgz:527380.got - 2010.06.03 11:33:40.
