data_PCOD9085778
_publ_section_title
;
Structure prediction by ZEFSAII (Michael W. Deem and Ramdas Pophale) SiO2 
 PCOD9085778
Probable space group: P -1
;
_chemical_formula_sum "Si O2"
_cell_formula_units_Z 14
_cell_length_a 13.957548
_cell_length_b 6.916017
_cell_length_c 14.629532
_cell_angle_alpha 49.887760
_cell_angle_beta 28.341191
_cell_angle_gamma 59.197208
_cell_volume 506.799108
_symmetry_space_group_name_H-M "P -1"
_symmetry_group_IT_number 2
_symmetry_cell_setting 'triclinic'
loop_
_space_group_symop_operation_xyz
x,y,z
-x,-y,-z
loop_
_atom_site_type_symbol
_atom_site_label
_atom_site_fract_x
_atom_site_fract_y
_atom_site_fract_z
Si Si1 0.553493 0.790773 0.441256
Si Si2 0.744027 0.426248 0.908937
Si Si3 0.082430 0.230504 0.005710
Si Si4 0.154213 0.309176 0.645880
Si Si5 0.309970 0.009991 0.250216
Si Si6 0.775632 0.036398 0.854125
Si Si7 0.663521 0.936439 0.586790
O O1 0.723599 0.771834 0.223601
O O2 0.641825 0.599384 0.496240
O O3 0.500000 0.000000 0.500000
O O4 0.362207 0.820149 0.527977
O O5 0.664161 0.687621 0.881365
O O6 0.956907 0.447226 0.778637
O O7 0.789469 0.304612 0.811743
O O8 0.565796 0.219128 0.163463
O O9 0.133064 0.142469 0.093714
O O10 0.000000 0.500000 0.000000
O O11 0.928740 0.988338 0.167193
O O12 0.219483 0.266570 0.500408
O O13 0.167100 0.908391 0.316704
O O14 0.244524 0.977460 0.419568
O O15 0.533069 0.925312 0.085060
#
# Coordination Sequence:
#
# PCOD9085778 Si02
#       7
#     2   2   2   2   2   2   2
#     4  10  20  38  63  85 117 163 202 249 308 369
#     4  10  20  37  63  86 119 157 210 240 309 368
#     4  11  22  38  62  90 125 156 207 259 309 371
#     4  10  22  37  62  86 120 161 200 257 309 355
#     4  10  19  35  63  86 118 165 200 246 313 357
#     4   9  19  36  58  88 121 153 201 255 302 362
#     4  10  19  37  59  85 123 153 205 251 294 372
#
# _framework density 27.624358999999998
#
# number of rings (size 3 to 8) (size 9 to 14) (size 15 to 20)
#    0.000    2.000    4.286    2.143    2.000    0.571 
#    0.000    5.714   25.143    0.000    0.000    0.000 
#    0.000    0.000    0.000    0.000    0.000    0.000 
#
# Total GULP energy -78078.813086 kJ/mol
# GULP energy per Si atom -5577.058078 kJ/mol
# Density = 2.756148 g / cm^3
# Si number density = 27.624359 Si / 1000 Ang^3
#
#
#
# Elastic Constant Matrix: (Units=GPa)
#
#
# Indices 1 2 3 4 5 6 
#
# 1 158.1513 58.9146 46.3449 18.4569 17.2962 -26.2601
# 2 58.9146 158.8278 41.1715 -1.0119 0.2770 -11.9401
# 3 46.3449 41.1715 100.3560 20.2855 17.1053 -10.0683
# 4 18.4569 -1.0119 20.2855 36.2997 5.5115 -7.1746
# 5 17.2962 0.2770 17.1053 5.5115 44.2216 21.3880
# 6 -26.2601 -11.9401 -10.0683 -7.1746 21.3880 45.2292
#
#
#
# Elastic Compliance Matrix: (Units=1/GPa)
#
#
# Indices 1 2 3 4 5 6 
#
# 1 0.009987 -0.002839 -0.001075 -0.001947 -0.007010 0.007816
# 2 -0.002839 0.008096 -0.003061 0.002873 0.002280 -0.000815
# 3 -0.001075 -0.003061 0.014335 -0.005867 -0.006190 0.003755
# 4 -0.001947 0.002873 -0.005867 0.033550 -0.003799 0.005440
# 5 -0.007010 0.002280 -0.006190 -0.003799 0.039991 -0.024360
# 6 0.007816 -0.000815 0.003755 0.005440 -0.024360 0.039651
#
#
# Mechanical properties :
#
#
# Convention : Reuss Voigt Hill
#
# Bulk Modulus (GPa) = 54.14833 78.91081 66.52957
# Shear Modulus (GPa) = 30.17239 43.21038 36.69138
#
# Velocity S-wave (km/s) = 3.30849 3.95930 3.64844
# Velocity P-wave (km/s) = 5.85141 7.03769 6.47179
#
# Compressibility (1/GPa) = 0.01846779
#
# Stress axis : x y z
#
# Youngs Moduli (GPa) = 100.12789 123.52244 69.76057
#
# Poissons Ratio (x) = 0.35062 0.07499
# Poissons Ratio (y) = 0.28422 0.21357
# Poissons Ratio (z) = 0.10764 0.37815
#
# Static dielectric constant tensor:
#      x y z
#    x 2.228280 0.041030 -0.041280 
#    y 0.041030 2.129510 -0.019320 
#    z -0.041280 -0.019320 2.275200 
# 
# From -- ./inp_files/253632.got.cif
#   From: 2010.05.17/outbox.cif.g08.bks.cpg/sg2_127_cif.got.tgz:253632.got - 2010.06.03 11:33:40.
