data_PCOD9085427
_publ_section_title
;
Structure prediction by ZEFSAII (Michael W. Deem and Ramdas Pophale) SiO2 
 PCOD9085427
Probable space group: P -1
;
_chemical_formula_sum "Si O2"
_cell_formula_units_Z 16
_cell_length_a 8.480674
_cell_length_b 13.620531
_cell_length_c 9.098112
_cell_angle_alpha 124.975934
_cell_angle_beta 63.043206
_cell_angle_gamma 112.613519
_cell_volume 756.303108
_symmetry_space_group_name_H-M "P -1"
_symmetry_group_IT_number 2
_symmetry_cell_setting 'triclinic'
loop_
_space_group_symop_operation_xyz
x,y,z
-x,-y,-z
loop_
_atom_site_type_symbol
_atom_site_label
_atom_site_fract_x
_atom_site_fract_y
_atom_site_fract_z
Si Si1 0.039686 0.000337 0.807745
Si Si2 0.983860 0.628652 0.042309
Si Si3 0.908271 0.616818 0.623508
Si Si4 0.580136 0.182680 0.715021
Si Si5 0.159611 0.791933 0.888690
Si Si6 0.584199 0.054690 0.311012
Si Si7 0.638659 0.606673 0.961728
Si Si8 0.997060 0.762146 0.435918
O O1 0.250768 0.998120 0.725117
O O2 0.967773 0.887989 0.633376
O O3 0.000000 0.000000 0.000000
O O4 0.951528 0.115705 0.903783
O O5 0.819437 0.613502 0.985939
O O6 0.938051 0.722931 0.264826
O O7 0.000000 0.500000 0.000000
O O8 0.159227 0.687435 0.921843
O O9 0.000000 0.500000 0.500000
O O10 0.037386 0.727213 0.749688
O O11 0.905615 0.657835 0.493659
O O12 0.712394 0.589951 0.754029
O O13 0.526943 0.141065 0.534472
O O14 0.453486 0.275023 0.896692
O O15 0.789107 0.239393 0.661564
O O16 0.561545 0.067829 0.736754
O O17 0.335148 0.870487 0.803071
O O18 0.500000 0.500000 0.000000
#
# Coordination Sequence:
#
# PCOD9085427 Si02
#       8
#     2   2   2   2   2   2   2   2
#     4   9  16  32  59  92 121 149 212 249 295 358
#     4  11  24  41  60  87 128 166 204 257 316 361
#     4  11  20  35  61  88 115 163 215 247 296 371
#     4  10  19  35  62  94 121 151 208 252 307 356
#     4  10  19  35  60  89 121 165 206 253 295 379
#     4   9  17  31  60  90 120 155 199 256 296 360
#     4  11  24  40  65  90 120 160 210 262 302 368
#     4  11  21  38  63  94 125 162 200 258 309 371
#
# _framework density 21.155539000000001
#
# number of rings (size 3 to 8) (size 9 to 14) (size 15 to 20)
#    0.000    1.750    3.750    4.500    1.750    0.500 
#    0.000    1.250    2.750    0.000    0.000    0.875 
#    0.000    0.000    0.000    0.000    0.000    0.000 
#
# Total GULP energy -89159.636467 kJ/mol
# GULP energy per Si atom -5572.477279 kJ/mol
# Density = 2.110739 g / cm^3
# Si number density = 21.155539 Si / 1000 Ang^3
#
#
#
# Elastic Constant Matrix: (Units=GPa)
#
#
# Indices 1 2 3 4 5 6 
#
# 1 13.3495 12.8059 6.8578 -7.7414 -8.1191 2.8286
# 2 12.8059 144.7587 54.3606 -36.6846 -7.4478 -0.1715
# 3 6.8578 54.3606 108.8353 -17.3961 -17.7154 0.8261
# 4 -7.7414 -36.6846 -17.3961 52.8905 -3.9707 -5.9103
# 5 -8.1191 -7.4478 -17.7154 -3.9707 34.7552 -2.6864
# 6 2.8286 -0.1715 0.8261 -5.9103 -2.6864 22.4480
#
#
#
# Elastic Compliance Matrix: (Units=1/GPa)
#
#
# Indices 1 2 3 4 5 6 
#
# 1 0.103317 -0.005396 0.002481 0.013353 0.025258 -0.006613
# 2 -0.005396 0.010182 -0.003991 0.005183 -0.000349 0.002227
# 3 0.002481 -0.003991 0.012407 0.002213 0.006343 0.000542
# 4 0.013353 0.005183 0.002213 0.026558 0.008881 0.006331
# 5 0.025258 -0.000349 0.006343 0.008881 0.039125 0.003602
# 6 -0.006613 0.002227 0.000542 0.006331 0.003602 0.047476
#
#
# Mechanical properties :
#
#
# Convention : Reuss Voigt Hill
#
# Bulk Modulus (GPa) = 8.92103 46.11021 27.51562
# Shear Modulus (GPa) = 17.22700 34.88001 26.05351
#
# Velocity S-wave (km/s) = 2.85669 4.06487 3.51311
# Velocity P-wave (km/s) = 3.88677 6.62375 5.43052
#
# Compressibility (1/GPa) = 0.11209464
#
# Stress axis : x y z
#
# Youngs Moduli (GPa) = 9.67895 98.21078 80.59734
#
# Poissons Ratio (x) = 0.52993 -0.19995
# Poissons Ratio (y) = 0.05223 0.32167
# Poissons Ratio (z) = -0.02401 0.39196
#
# Static dielectric constant tensor:
#      x y z
#    x 1.799930 0.019470 -0.001670 
#    y 0.019470 1.853480 0.017210 
#    z -0.001670 0.017210 1.814420 
# 
# From -- ./inp_files/271031.got.cif
#   From: 2010.05.17/outbox.cif.g08.bks.cpg/sg2_136_cif.got.tgz:271031.got - 2010.06.03 11:33:40.
