data_PCOD9085116
_publ_section_title
;
Structure prediction by ZEFSAII (Michael W. Deem and Ramdas Pophale) SiO2 
 PCOD9085116
Probable space group: P -1
;
_chemical_formula_sum "Si O2"
_cell_formula_units_Z 16
_cell_length_a 13.046524
_cell_length_b 13.475367
_cell_length_c 7.738793
_cell_angle_alpha 48.890086
_cell_angle_beta 50.883479
_cell_angle_gamma 68.550225
_cell_volume 792.518204
_symmetry_space_group_name_H-M "P -1"
_symmetry_group_IT_number 2
_symmetry_cell_setting 'triclinic'
loop_
_space_group_symop_operation_xyz
x,y,z
-x,-y,-z
loop_
_atom_site_type_symbol
_atom_site_label
_atom_site_fract_x
_atom_site_fract_y
_atom_site_fract_z
Si Si1 0.248201 0.389382 0.992054
Si Si2 0.847805 0.138502 0.022139
Si Si3 0.649479 0.645576 0.616556
Si Si4 0.218638 0.717627 0.397329
Si Si5 0.170336 0.667965 0.886920
Si Si6 0.479532 0.563395 0.227641
Si Si7 0.835124 0.837087 0.386130
Si Si8 0.121068 0.451099 0.696465
O O1 0.198268 0.265294 0.304480
O O2 0.225898 0.526576 0.956846
O O3 0.406965 0.404891 0.788590
O O4 0.178406 0.389519 0.880478
O O5 0.795067 0.165691 0.855189
O O6 0.008724 0.161624 0.825463
O O7 0.788502 0.242352 0.096335
O O8 0.811958 0.987147 0.285101
O O9 0.560717 0.587954 0.616804
O O10 0.734975 0.784841 0.397465
O O11 0.773120 0.554049 0.564398
O O12 0.554145 0.623134 0.907175
O O13 0.198920 0.745390 0.587403
O O14 0.352858 0.643343 0.314011
O O15 0.105592 0.602285 0.591311
O O16 0.014390 0.627548 0.117157
#
# Coordination Sequence:
#
# PCOD9085116 Si02
#       8
#     2   2   2   2   2   2   2   2
#     4  10  21  37  61  86 121 152 194 253 287 346
#     4  11  23  38  61  86 122 163 186 243 303 349
#     4   9  18  34  56  81 115 145 198 236 279 348
#     4  10  22  38  56  89 124 148 201 244 287 353
#     4  11  22  36  62  93 118 151 196 247 306 342
#     4   9  20  36  58  87 113 159 199 238 290 345
#     4  10  21  40  56  87 121 152 199 236 296 365
#     4  10  19  35  58  94 115 145 195 252 301 342
#
# _framework density 20.18881
#
# number of rings (size 3 to 8) (size 9 to 14) (size 15 to 20)
#    0.000    2.000    1.250    3.000    8.750    5.500 
#    2.250    4.375    0.000    3.000    0.000    0.000 
#    0.000    0.000    0.000    0.000    0.000    0.000 
#
# Total GULP energy -89173.975475 kJ/mol
# GULP energy per Si atom -5573.373467 kJ/mol
# Density = 2.014286 g / cm^3
# Si number density = 20.188810 Si / 1000 Ang^3
#
#
#
# Elastic Constant Matrix: (Units=GPa)
#
#
# Indices 1 2 3 4 5 6 
#
# 1 46.6764 6.1910 13.5623 -11.4082 -9.1258 1.1220
# 2 6.1910 49.1586 34.7106 -3.2524 -0.5399 -0.5266
# 3 13.5623 34.7106 86.7991 -9.8716 6.6196 5.1338
# 4 -11.4082 -3.2524 -9.8716 37.3923 -0.0224 0.7238
# 5 -9.1258 -0.5399 6.6196 -0.0224 35.6321 1.7854
# 6 1.1220 -0.5266 5.1338 0.7238 1.7854 19.2886
#
#
#
# Elastic Compliance Matrix: (Units=1/GPa)
#
#
# Indices 1 2 3 4 5 6 
#
# 1 0.025650 -0.000139 -0.003641 0.006885 0.007321 -0.001463
# 2 -0.000139 0.028863 -0.012020 -0.000777 0.002444 0.003798
# 3 -0.003641 -0.012020 0.017784 0.002624 -0.004188 -0.004561
# 4 0.006885 -0.000777 0.002624 0.029516 0.001401 -0.002357
# 5 0.007321 0.002444 -0.004188 0.001401 0.030864 -0.002154
# 6 -0.001463 0.003798 -0.004561 -0.002357 -0.002154 0.053535
#
#
# Mechanical properties :
#
#
# Convention : Reuss Voigt Hill
#
# Bulk Modulus (GPa) = 24.57190 32.39579 28.48385
# Shear Modulus (GPa) = 21.60980 27.00729 24.30854
#
# Velocity S-wave (km/s) = 3.27522 3.66147 3.47372
# Velocity P-wave (km/s) = 5.14784 5.82722 5.49803
#
# Compressibility (1/GPa) = 0.04069689
#
# Stress axis : x y z
#
# Youngs Moduli (GPa) = 38.98670 34.64626 56.23008
#
# Poissons Ratio (x) = 0.00483 0.20473
# Poissons Ratio (y) = 0.00543 0.67588
# Poissons Ratio (z) = 0.14195 0.41645
#
# Static dielectric constant tensor:
#      x y z
#    x 1.790490 -0.007220 0.014260 
#    y -0.007220 1.722560 0.037220 
#    z 0.014260 0.037220 1.743640 
# 
# From -- ./inp_files/312325.got.cif
#   From: 2010.05.17/outbox.cif.g08.bks.cpg/sg2_157_cif.got.tgz:312325.got - 2010.06.03 11:33:40.
