data_PCOD9085025
_publ_section_title
;
Structure prediction by ZEFSAII (Michael W. Deem and Ramdas Pophale) SiO2 
 PCOD9085025
Probable space group: P -1
;
_chemical_formula_sum "Si O2"
_cell_formula_units_Z 16
_cell_length_a 19.206404
_cell_length_b 15.099111
_cell_length_c 9.495842
_cell_angle_alpha 157.074146
_cell_angle_beta 41.408831
_cell_angle_gamma 142.498607
_cell_volume 650.870870
_symmetry_space_group_name_H-M "P -1"
_symmetry_group_IT_number 2
_symmetry_cell_setting 'triclinic'
loop_
_space_group_symop_operation_xyz
x,y,z
-x,-y,-z
loop_
_atom_site_type_symbol
_atom_site_label
_atom_site_fract_x
_atom_site_fract_y
_atom_site_fract_z
Si Si1 0.425770 0.224111 0.344057
Si Si2 0.327330 0.541939 0.815138
Si Si3 0.187181 0.762468 0.682040
Si Si4 0.382470 0.095595 0.539721
Si Si5 0.012113 0.619774 0.486307
Si Si6 0.231389 0.310863 0.356809
Si Si7 0.144089 0.120312 0.930099
Si Si8 0.625894 0.275871 0.474755
O O1 0.339714 0.362006 0.652316
O O2 0.556024 0.405577 0.375815
O O3 0.419452 0.117697 0.353298
O O4 0.392370 0.995818 0.953093
O O5 0.224913 0.420563 0.680866
O O6 0.338740 0.811738 0.240033
O O7 0.110164 0.646827 0.491134
O O8 0.283912 0.676415 0.466461
O O9 0.080580 0.659037 0.806282
O O10 0.248075 0.058053 0.998508
O O11 0.278657 0.182001 0.815849
O O12 0.499205 0.252457 0.675544
O O13 0.086125 0.824954 0.562077
O O14 0.923635 0.746603 0.856370
O O15 0.322120 0.538329 0.462629
O O16 0.131847 0.200406 0.228994
#
# Coordination Sequence:
#
# PCOD9085025 Si02
#       8
#     2   2   2   2   2   2   2   2
#     4  10  19  35  58  84 123 168 190 222 290 370
#     4  10  19  35  59  84 123 163 196 224 283 372
#     4  10  20  36  64  83 109 151 210 244 276 346
#     4  11  22  37  57  94 130 151 182 246 305 351
#     4   9  20  42  60  80 112 166 206 236 291 354
#     4  11  19  35  60  90 113 156 196 236 288 355
#     4  10  22  39  64  86 118 157 197 248 296 345
#     4  11  19  34  61  93 118 153 191 235 300 356
#
# _framework density 24.582446999999998
#
# number of rings (size 3 to 8) (size 9 to 14) (size 15 to 20)
#    0.000    1.750    5.000    0.750    0.000    0.500 
#    6.750    2.500    0.000   13.500    0.000    0.000 
#    0.000    0.000    0.000    0.000    0.000    0.000 
#
# Total GULP energy -89086.868797 kJ/mol
# GULP energy per Si atom -5567.929300 kJ/mol
# Density = 2.452650 g / cm^3
# Si number density = 24.582447 Si / 1000 Ang^3
#
#
#
# Elastic Constant Matrix: (Units=GPa)
#
#
# Indices 1 2 3 4 5 6 
#
# 1 127.4306 48.9256 47.9464 -4.4973 -39.7824 24.7404
# 2 48.9256 77.1850 12.0246 20.2232 -18.4221 29.2262
# 3 47.9464 12.0246 71.8547 30.9584 -28.5922 6.4989
# 4 -4.4973 20.2232 30.9584 32.1192 -6.1369 -15.4250
# 5 -39.7824 -18.4221 -28.5922 -6.1369 43.2554 0.8285
# 6 24.7404 29.2262 6.4989 -15.4250 0.8285 38.2640
#
#
#
# Elastic Compliance Matrix: (Units=1/GPa)
#
#
# Indices 1 2 3 4 5 6 
#
# 1 0.011177 0.006864 0.005395 -0.014458 0.015093 -0.019542
# 2 0.006864 -0.007250 -0.024801 0.037823 -0.008199 0.020736
# 3 0.005395 -0.024801 -0.005701 0.035802 -0.004882 0.030961
# 4 -0.014458 0.037823 0.035802 -0.046849 0.020690 -0.044955
# 5 0.015093 -0.008199 -0.004882 0.020690 0.033121 0.004957
# 6 -0.019542 0.020736 0.030961 -0.044955 0.004957 -0.000558
#
#
# Mechanical properties :
#
#
# Convention : Reuss Voigt Hill
#
# Bulk Modulus (GPa) = -37.23531 54.91816 8.84142
# Shear Modulus (GPa) = 70464.51999 33.89931 35249.20965
#
# Velocity S-wave (km/s) = 169.48981 3.71752 119.87622
# Velocity P-wave (km/s) = 195.67119 6.38870 138.43415
#
# Compressibility (1/GPa) = -0.02685623
#
# Stress axis : x y z
#
# Youngs Moduli (GPa) = 89.46654 -137.92647 -175.40919
#
# Poissons Ratio (x) = 0.94678 0.94640
# Poissons Ratio (y) = -0.61413 -4.35032
# Poissons Ratio (z) = -0.48271 -3.42071
#
# Static dielectric constant tensor:
#      x y z
#    x 1.974090 -0.024530 0.011110 
#    y -0.024530 2.125430 0.018100 
#    z 0.011110 0.018100 2.012950 
# 
# From -- ./inp_files/455706.got.cif
#   From: 2010.05.17/outbox.cif.g08.bks.cpg/sg2_228_cif.got.tgz:455706.got - 2010.06.03 11:33:40.
