data_PCOD9085894
_publ_section_title
;
Structure prediction by ZEFSAII (Michael W. Deem and Ramdas Pophale) SiO2 
 PCOD9085894
Probable space group: P -1
;
_chemical_formula_sum "Si O2"
_cell_formula_units_Z 16
_cell_length_a 10.756781
_cell_length_b 15.927388
_cell_length_c 9.476875
_cell_angle_alpha 38.497633
_cell_angle_beta 73.784544
_cell_angle_gamma 95.750186
_cell_volume 820.981247
_symmetry_space_group_name_H-M "P -1"
_symmetry_group_IT_number 2
_symmetry_cell_setting 'triclinic'
loop_
_space_group_symop_operation_xyz
x,y,z
-x,-y,-z
loop_
_atom_site_type_symbol
_atom_site_label
_atom_site_fract_x
_atom_site_fract_y
_atom_site_fract_z
Si Si1 0.815643 0.533744 0.495898
Si Si2 0.151931 0.023179 0.343104
Si Si3 0.341965 0.398822 0.768666
Si Si4 0.805399 0.767131 0.390712
Si Si5 0.821509 0.237071 0.864718
Si Si6 0.849819 0.064229 0.855246
Si Si7 0.365342 0.035066 0.501198
Si Si8 0.609394 0.645231 0.874460
O O1 0.770316 0.554899 0.326082
O O2 0.748225 0.605601 0.533074
O O3 0.757344 0.349244 0.774375
O O4 0.998339 0.645303 0.312363
O O5 0.254144 0.990421 0.459833
O O6 0.124429 0.930621 0.326616
O O7 0.257511 0.209285 0.024011
O O8 0.000000 0.000000 0.500000
O O9 0.500000 0.500000 0.500000
O O10 0.366684 0.417539 0.903574
O O11 0.758050 0.739782 0.604244
O O12 0.987949 0.858340 0.218463
O O13 0.759583 0.880608 0.178556
O O14 0.790348 0.170796 0.801159
O O15 0.746697 0.079077 0.189980
O O16 0.433042 0.222494 0.257891
O O17 0.500000 0.000000 0.500000
O O18 0.500000 0.500000 0.000000
#
# Coordination Sequence:
#
# PCOD9085894 Si02
#       8
#     2   2   2   2   2   2   2   2
#     4  10  21  39  63  91 123 165 203 254 313 380
#     4  11  23  41  70  95 122 164 219 264 307 373
#     4  11  23  37  62  91 124 160 206 258 311 366
#     4  10  19  35  64  90 118 154 210 264 301 359
#     4  10  22  39  63  89 127 165 203 247 323 379
#     4  10  19  37  63  94 117 153 210 263 303 365
#     4  11  25  42  61  91 131 169 203 261 324 376
#     4  11  24  40  60  89 121 164 214 256 307 373
#
# _framework density 19.488873999999999
#
# number of rings (size 3 to 8) (size 9 to 14) (size 15 to 20)
#    0.000    1.500    2.500    3.000    7.000    0.000 
#    2.250    0.625    0.000    5.250    0.000    0.000 
#    0.000    0.000    0.000    0.000    0.000    0.000 
#
# Total GULP energy -89157.948394 kJ/mol
# GULP energy per Si atom -5572.371775 kJ/mol
# Density = 1.944452 g / cm^3
# Si number density = 19.488874 Si / 1000 Ang^3
#
#
#
# Elastic Constant Matrix: (Units=GPa)
#
#
# Indices 1 2 3 4 5 6 
#
# 1 60.6296 48.9486 23.9492 -2.4306 18.7642 1.4220
# 2 48.9486 157.0568 51.9014 -1.4676 20.7399 10.1340
# 3 23.9492 51.9014 90.1585 9.9248 9.0213 -1.2210
# 4 -2.4306 -1.4676 9.9248 33.3991 1.3280 2.5863
# 5 18.7642 20.7399 9.0213 1.3280 32.1678 5.5710
# 6 1.4220 10.1340 -1.2210 2.5863 5.5710 26.9830
#
#
#
# Elastic Compliance Matrix: (Units=1/GPa)
#
#
# Indices 1 2 3 4 5 6 
#
# 1 0.025711 -0.005840 -0.002609 0.002617 -0.011086 0.002759
# 2 -0.005840 0.010030 -0.004319 0.001625 -0.001303 -0.003542
# 3 -0.002609 -0.004319 0.014881 -0.005023 -0.000170 0.002950
# 4 0.002617 0.001625 -0.005023 0.032053 -0.001854 -0.003665
# 5 -0.011086 -0.001303 -0.000170 -0.001854 0.039723 -0.006958
# 6 0.002759 -0.003542 0.002950 -0.003665 -0.006958 0.040167
#
#
# Mechanical properties :
#
#
# Convention : Reuss Voigt Hill
#
# Bulk Modulus (GPa) = 39.86482 61.93813 50.90148
# Shear Modulus (GPa) = 25.45002 30.71302 28.08152
#
# Velocity S-wave (km/s) = 3.61761 3.97410 3.80004
# Velocity P-wave (km/s) = 6.16028 7.27380 6.74008
#
# Compressibility (1/GPa) = 0.02508477
#
# Stress axis : x y z
#
# Youngs Moduli (GPa) = 38.89447 99.69613 67.19957
#
# Poissons Ratio (x) = 0.58227 0.17531
# Poissons Ratio (y) = 0.22716 0.29026
# Poissons Ratio (z) = 0.10147 0.43062
#
# Static dielectric constant tensor:
#      x y z
#    x 1.713110 -0.006900 -0.032310 
#    y -0.006900 1.742670 -0.011220 
#    z -0.032310 -0.011220 1.766470 
# 
# From -- ./inp_files/271519.got.cif
#   From: 2010.05.17/outbox.cif.g08.bks.cpg/sg2_136_cif.got.tgz:271519.got - 2010.06.03 11:33:40.
