data_PCOD9085169
_publ_section_title
;
Structure prediction by ZEFSAII (Michael W. Deem and Ramdas Pophale) SiO2 
 PCOD9085169
Probable space group: P -1
;
_chemical_formula_sum "Si O2"
_cell_formula_units_Z 16
_cell_length_a 8.078513
_cell_length_b 20.801052
_cell_length_c 12.278258
_cell_angle_alpha 153.285566
_cell_angle_beta 48.281572
_cell_angle_gamma 127.726237
_cell_volume 691.390200
_symmetry_space_group_name_H-M "P -1"
_symmetry_group_IT_number 2
_symmetry_cell_setting 'triclinic'
loop_
_space_group_symop_operation_xyz
x,y,z
-x,-y,-z
loop_
_atom_site_type_symbol
_atom_site_label
_atom_site_fract_x
_atom_site_fract_y
_atom_site_fract_z
Si Si1 0.840982 0.415803 0.280669
Si Si2 0.968864 0.095797 0.768995
Si Si3 0.323538 0.098231 0.965039
Si Si4 0.749009 0.564681 0.004058
Si Si5 0.932714 0.924479 0.738357
Si Si6 0.780999 0.330131 0.790503
Si Si7 0.395266 0.155480 0.583156
Si Si8 0.514480 0.612840 0.788263
O O1 0.708446 0.503421 0.560127
O O2 0.686678 0.446661 0.290869
O O3 0.090148 0.466615 0.215050
O O4 0.851169 0.245444 0.034658
O O5 0.234123 0.138414 0.732770
O O6 0.876671 0.010864 0.785271
O O7 0.000000 0.000000 0.500000
O O8 0.379860 0.249996 0.114398
O O9 0.248688 0.106937 0.136222
O O10 0.126201 0.020027 0.861726
O O11 0.533875 0.998627 0.718713
O O12 0.844046 0.483499 0.942553
O O13 0.500000 0.500000 0.000000
O O14 0.731956 0.736027 0.274741
O O15 0.023781 0.774068 0.432473
O O16 0.627146 0.240387 0.634915
O O17 0.615189 0.345106 0.984792
#
# Coordination Sequence:
#
# PCOD9085169 Si02
#       8
#     2   2   2   2   2   2   2   2
#     4  10  23  39  56  83 118 154 194 238 296 361
#     4  11  21  38  59  83 116 153 192 242 296 350
#     4  10  20  37  58  84 118 154 197 249 292 339
#     4   9  19  37  57  81 114 147 186 240 292 345
#     4  10  21  35  59  88 114 154 204 245 290 348
#     4  10  19  35  59  84 112 155 199 241 292 344
#     4   9  19  35  56  83 114 149 196 242 292 352
#     4  11  22  38  58  83 118 157 196 243 294 349
#
# _framework density 23.141779
#
# number of rings (size 3 to 8) (size 9 to 14) (size 15 to 20)
#    0.000    2.000    0.000    3.750    0.000    4.500 
#    0.000   17.500    0.000    0.000    0.000    0.000 
#    0.000    0.000    0.000    0.000    0.000    0.000 
#
# Total GULP energy -89304.294289 kJ/mol
# GULP energy per Si atom -5581.518393 kJ/mol
# Density = 2.308911 g / cm^3
# Si number density = 23.141779 Si / 1000 Ang^3
#
#
#
# Elastic Constant Matrix: (Units=GPa)
#
#
# Indices 1 2 3 4 5 6 
#
# 1 39.3210 8.7201 27.4368 -6.9122 -11.9069 -10.7758
# 2 8.7201 132.3364 78.2713 -5.9996 -11.9885 -23.1506
# 3 27.4368 78.2713 186.1374 -6.1600 -41.8093 -13.6764
# 4 -6.9122 -5.9996 -6.1600 34.3401 1.5730 -3.9649
# 5 -11.9069 -11.9885 -41.8093 1.5730 36.1439 1.8520
# 6 -10.7758 -23.1506 -13.6764 -3.9649 1.8520 35.4807
#
#
#
# Elastic Compliance Matrix: (Units=1/GPa)
#
#
# Indices 1 2 3 4 5 6 
#
# 1 0.033821 0.002784 -0.003475 0.007641 0.007138 0.011230
# 2 0.002784 0.011495 -0.005002 0.002523 -0.001514 0.006779
# 3 -0.003475 -0.005002 0.009847 -0.000320 0.008652 -0.001011
# 4 0.007641 0.002523 -0.000320 0.031833 0.001222 0.007337
# 5 0.007138 -0.001514 0.008652 0.001222 0.039338 0.002598
# 6 0.011230 0.006779 -0.001011 0.007337 0.002598 0.036312
#
#
# Mechanical properties :
#
#
# Convention : Reuss Voigt Hill
#
# Bulk Modulus (GPa) = 22.84343 65.18347 44.01345
# Shear Modulus (GPa) = 26.50778 37.41739 31.96259
#
# Velocity S-wave (km/s) = 3.38812 4.02540 3.72043
# Velocity P-wave (km/s) = 5.01980 7.05927 6.12502
#
# Compressibility (1/GPa) = 0.04377626
#
# Stress axis : x y z
#
# Youngs Moduli (GPa) = 29.56745 86.99537 101.55874
#
# Poissons Ratio (x) = -0.24221 0.35289
# Poissons Ratio (y) = -0.08232 0.50805
# Poissons Ratio (z) = 0.10274 0.43519
#
# Static dielectric constant tensor:
#      x y z
#    x 1.988980 0.044780 0.061180 
#    y 0.044780 1.863410 0.042090 
#    z 0.061180 0.042090 1.930360 
# 
# From -- ./inp_files/405024.got.cif
#   From: 2010.05.17/outbox.cif.g08.bks.cpg/sg2_203_cif.got.tgz:405024.got - 2010.06.03 11:33:40.
