data_PCOD9085061
_publ_section_title
;
Structure prediction by ZEFSAII (Michael W. Deem and Ramdas Pophale) SiO2 
 PCOD9085061
Probable space group: P -1
;
_chemical_formula_sum "Si O2"
_cell_formula_units_Z 16
_cell_length_a 6.885431
_cell_length_b 12.356831
_cell_length_c 11.202419
_cell_angle_alpha 78.765387
_cell_angle_beta 97.271391
_cell_angle_gamma 109.741422
_cell_volume 878.008395
_symmetry_space_group_name_H-M "P -1"
_symmetry_group_IT_number 2
_symmetry_cell_setting 'triclinic'
loop_
_space_group_symop_operation_xyz
x,y,z
-x,-y,-z
loop_
_atom_site_type_symbol
_atom_site_label
_atom_site_fract_x
_atom_site_fract_y
_atom_site_fract_z
Si Si1 0.549023 0.882168 0.491653
Si Si2 0.404638 0.753430 0.889967
Si Si3 0.894032 0.939852 0.304707
Si Si4 0.204782 0.812954 0.295803
Si Si5 0.027022 0.378871 0.151555
Si Si6 0.442544 0.006737 0.858806
Si Si7 0.840931 0.351974 0.894083
Si Si8 0.765678 0.805648 0.736525
O O1 0.753198 0.922595 0.415398
O O2 0.354747 0.802782 0.416989
O O3 0.603789 0.814131 0.620941
O O4 0.500000 0.000000 0.500000
O O5 0.631338 0.775916 0.853466
O O6 0.356188 0.873458 0.838288
O O7 0.218425 0.654268 0.831963
O O8 0.367157 0.718753 0.033896
O O9 0.011146 0.845737 0.322910
O O10 0.729555 0.932373 0.188590
O O11 0.062489 0.067535 0.281517
O O12 0.145947 0.712124 0.213673
O O13 0.353959 0.926185 0.213413
O O14 0.141355 0.514312 0.152307
O O15 0.127601 0.293993 0.243915
O O16 0.010778 0.354772 0.010769
O O17 0.500000 0.000000 0.000000
#
# Coordination Sequence:
#
# PCOD9085061 Si02
#       8
#     2   2   2   2   2   2   2   2
#     4  11  24  39  58  88 124 154 194 247 295 353
#     4  10  19  35  58  87 117 150 189 249 287 343
#     4  11  22  35  58  89 116 159 192 232 307 354
#     4  11  22  37  58  88 124 157 186 244 305 348
#     4   9  21  39  60  85 117 159 203 239 286 348
#     4  11  19  33  52  88 125 146 181 241 297 355
#     4   9  20  43  57  84 125 155 194 244 297 345
#     4  12  21  35  63  89 109 160 207 235 289 352
#
# _framework density 18.223061000000001
#
# number of rings (size 3 to 8) (size 9 to 14) (size 15 to 20)
#    0.750    0.750    5.000    1.125    0.000    2.000 
#    0.000    0.625    0.000    1.500    0.000    0.000 
#    0.000    0.000    0.000    0.000    0.000    0.000 
#
# Total GULP energy -89119.973398 kJ/mol
# GULP energy per Si atom -5569.998337 kJ/mol
# Density = 1.818158 g / cm^3
# Si number density = 18.223061 Si / 1000 Ang^3
#
#
#
# Elastic Constant Matrix: (Units=GPa)
#
#
# Indices 1 2 3 4 5 6 
#
# 1 96.8128 26.2888 30.4764 8.8823 -10.5047 -9.4425
# 2 26.2888 96.1285 30.7630 10.0228 -0.5052 -2.1986
# 3 30.4764 30.7630 77.5888 8.5137 7.3506 -13.1069
# 4 8.8823 10.0228 8.5137 21.2099 -4.3963 3.6137
# 5 -10.5047 -0.5052 7.3506 -4.3963 21.3326 -1.3067
# 6 -9.4425 -2.1986 -13.1069 3.6137 -1.3067 11.2007
#
#
#
# Elastic Compliance Matrix: (Units=1/GPa)
#
#
# Indices 1 2 3 4 5 6 
#
# 1 0.014103 -0.002126 -0.003472 -0.003470 0.007955 0.009457
# 2 -0.002126 0.012617 -0.004520 -0.002609 0.000042 -0.003758
# 3 -0.003472 -0.004520 0.022634 -0.011992 -0.010537 0.025312
# 4 -0.003470 -0.002609 -0.011992 0.063601 0.013236 -0.036446
# 5 0.007955 0.000042 -0.010537 0.013236 0.056955 -0.003242
# 6 0.009457 -0.003758 0.025312 -0.036446 -0.003242 0.137515
#
#
# Mechanical properties :
#
#
# Convention : Reuss Voigt Hill
#
# Bulk Modulus (GPa) = 34.34227 49.50960 41.92593
# Shear Modulus (GPa) = 14.82061 22.94876 18.88469
#
# Velocity S-wave (km/s) = 2.85492 3.55255 3.22266
# Velocity P-wave (km/s) = 5.45470 6.63740 6.07490
#
# Compressibility (1/GPa) = 0.02911864
#
# Stress axis : x y z
#
# Youngs Moduli (GPa) = 70.90475 79.25912 44.18039
#
# Poissons Ratio (x) = 0.16849 0.15340
# Poissons Ratio (y) = 0.15073 0.19970
# Poissons Ratio (z) = 0.24620 0.35825
#
# Static dielectric constant tensor:
#      x y z
#    x 1.652990 0.006760 0.004270 
#    y 0.006760 1.612460 0.010900 
#    z 0.004270 0.010900 1.666350 
# 
# From -- ./inp_files/364577.got.cif
#   From: 2010.05.17/outbox.cif.g08.bks.cpg/sg2_183_cif.got.tgz:364577.got - 2010.06.03 11:33:40.
