data_PCOD9085845
_publ_section_title
;
Structure prediction by ZEFSAII (Michael W. Deem and Ramdas Pophale) SiO2 
 PCOD9085845
Probable space group: P -1
;
_chemical_formula_sum "Si O2"
_cell_formula_units_Z 16
_cell_length_a 9.365517
_cell_length_b 17.386008
_cell_length_c 17.796452
_cell_angle_alpha 32.164739
_cell_angle_beta 132.139527
_cell_angle_gamma 149.495725
_cell_volume 764.535918
_symmetry_space_group_name_H-M "P -1"
_symmetry_group_IT_number 2
_symmetry_cell_setting 'triclinic'
loop_
_space_group_symop_operation_xyz
x,y,z
-x,-y,-z
loop_
_atom_site_type_symbol
_atom_site_label
_atom_site_fract_x
_atom_site_fract_y
_atom_site_fract_z
Si Si1 0.348975 0.589439 0.432724
Si Si2 0.706384 0.752683 0.871024
Si Si3 0.780827 0.373938 0.926602
Si Si4 0.550104 0.840591 0.432966
Si Si5 0.811262 0.598898 0.615179
Si Si6 0.701462 0.034824 0.102273
Si Si7 0.578722 0.194768 0.155200
Si Si8 0.843950 0.941044 0.598140
O O1 0.314998 0.635548 0.465452
O O2 0.541228 0.554930 0.544249
O O3 0.114649 0.418307 0.428064
O O4 0.534886 0.815778 0.268057
O O5 0.581930 0.804346 0.838893
O O6 0.754367 0.836585 0.734246
O O7 0.016031 0.875015 0.909131
O O8 0.500000 0.500000 0.000000
O O9 0.722170 0.427446 0.784959
O O10 0.082972 0.605287 0.870643
O O11 0.805887 0.218855 0.043464
O O12 0.556711 0.254243 0.015289
O O13 0.593823 0.796779 0.567032
O O14 0.496589 0.981120 0.301195
O O15 0.870578 0.985978 0.389961
O O16 0.056513 0.837052 0.539874
O O17 0.500000 0.000000 0.000000
#
# Coordination Sequence:
#
# PCOD9085845 Si02
#       8
#     2   2   2   2   2   2   2   2
#     4  10  20  35  62  93 121 160 218 261 308 374
#     4  12  25  41  60  97 131 165 210 278 321 372
#     4  11  21  37  63  97 120 171 216 258 309 391
#     4  10  19  37  62  93 123 167 214 264 312 380
#     4  10  19  35  63  95 118 164 219 259 303 383
#     4  12  22  41  66  89 126 171 216 256 318 394
#     4  11  23  35  62  92 133 159 214 268 323 363
#     4  10  21  37  63  94 127 162 218 264 317 375
#
# _framework density 20.92773
#
# number of rings (size 3 to 8) (size 9 to 14) (size 15 to 20)
#    0.000    1.250    7.500    0.000    1.750    0.500 
#    0.000    0.625    0.000    2.250    0.000    0.000 
#    0.000    0.000    0.000    0.000    0.000    0.000 
#
# Total GULP energy -89300.134374 kJ/mol
# GULP energy per Si atom -5581.258398 kJ/mol
# Density = 2.088010 g / cm^3
# Si number density = 20.927730 Si / 1000 Ang^3
#
#
#
# Elastic Constant Matrix: (Units=GPa)
#
#
# Indices 1 2 3 4 5 6 
#
# 1 104.8393 26.0143 42.2100 8.6849 -1.4684 -27.3528
# 2 26.0143 59.9668 13.0721 23.1418 2.7465 -23.8360
# 3 42.2100 13.0721 108.9342 24.9666 5.9975 -1.4758
# 4 8.6849 23.1418 24.9666 39.6139 -12.4393 2.4452
# 5 -1.4684 2.7465 5.9975 -12.4393 25.8551 -4.4126
# 6 -27.3528 -23.8360 -1.4758 2.4452 -4.4126 31.2844
#
#
#
# Elastic Compliance Matrix: (Units=1/GPa)
#
#
# Indices 1 2 3 4 5 6 
#
# 1 0.015936 -0.001726 -0.006830 0.003007 0.006330 0.012954
# 2 -0.001726 0.044045 0.005092 -0.036160 -0.017790 0.032607
# 3 -0.006830 0.005092 0.015199 -0.014654 -0.011829 -0.001898
# 4 0.003007 -0.036160 -0.014654 0.067712 0.035570 -0.025888
# 5 0.006330 -0.017790 -0.011829 0.035570 0.060297 -0.002853
# 6 0.012954 0.032607 -0.001898 -0.025888 -0.002853 0.069666
#
#
# Mechanical properties :
#
#
# Convention : Reuss Voigt Hill
#
# Bulk Modulus (GPa) = 14.65145 48.48146 31.56646
# Shear Modulus (GPa) = 16.52720 32.18028 24.35374
#
# Velocity S-wave (km/s) = 2.81326 3.92559 3.41502
# Velocity P-wave (km/s) = 4.19151 6.61539 5.53770
#
# Compressibility (1/GPa) = 0.06825261
#
# Stress axis : x y z
#
# Youngs Moduli (GPa) = 62.75230 22.70418 65.79234
#
# Poissons Ratio (x) = 0.03918 0.44936
# Poissons Ratio (y) = 0.10829 -0.33502
# Poissons Ratio (z) = 0.42859 -0.11561
#
# Static dielectric constant tensor:
#      x y z
#    x 1.769430 -0.045210 -0.015710 
#    y -0.045210 1.822680 0.019020 
#    z -0.015710 0.019020 1.740110 
# 
# From -- ./inp_files/503914.got.cif
#   From: 2010.05.17/outbox.cif.g08.bks.cpg/sg2_252_cif.got.tgz:503914.got - 2010.06.03 11:33:40.
