data_PCOD9085524
_publ_section_title
;
Structure prediction by ZEFSAII (Michael W. Deem and Ramdas Pophale) SiO2 
 PCOD9085524
Probable space group: P -1
;
_chemical_formula_sum "Si O2"
_cell_formula_units_Z 16
_cell_length_a 14.438523
_cell_length_b 8.802141
_cell_length_c 12.251912
_cell_angle_alpha 68.809060
_cell_angle_beta 146.434618
_cell_angle_gamma 96.263718
_cell_volume 744.872635
_symmetry_space_group_name_H-M "P -1"
_symmetry_group_IT_number 2
_symmetry_cell_setting 'triclinic'
loop_
_space_group_symop_operation_xyz
x,y,z
-x,-y,-z
loop_
_atom_site_type_symbol
_atom_site_label
_atom_site_fract_x
_atom_site_fract_y
_atom_site_fract_z
Si Si1 0.294241 0.344944 0.401539
Si Si2 0.497170 0.030375 0.302682
Si Si3 0.484772 0.336067 0.364077
Si Si4 0.545139 0.333660 0.859346
Si Si5 0.888153 0.972118 0.297481
Si Si6 0.105799 0.716639 0.162581
Si Si7 0.892021 0.986388 0.060199
Si Si8 0.400116 0.171880 0.931758
O O1 0.379739 0.382499 0.363336
O O2 0.418133 0.329323 0.634242
O O3 0.117637 0.519021 0.204710
O O4 0.319382 0.141808 0.465930
O O5 0.481244 0.161654 0.351283
O O6 0.322020 0.975296 0.152649
O O7 0.476361 0.127888 0.140300
O O8 0.410616 0.495156 0.164169
O O9 0.692857 0.305293 0.597040
O O10 0.440968 0.325078 0.870617
O O11 0.723137 0.159630 0.075220
O O12 0.979091 0.936223 0.277730
O O13 0.803612 0.822910 0.270742
O O14 0.000000 0.000000 0.500000
O O15 0.971743 0.826616 0.095476
O O16 0.074736 0.844508 0.995539
O O17 0.500000 0.000000 0.000000
#
# Coordination Sequence:
#
# PCOD9085524 Si02
#       8
#     2   2   2   2   2   2   2   2
#     4  11  19  37  63  87 114 156 193 237 292 350
#     4  11  21  36  62  84 121 149 195 244 288 343
#     4  11  22  35  62  91 111 150 202 241 283 345
#     4  10  19  38  60  85 115 151 199 238 279 347
#     4  10  19  35  61  85 116 155 193 233 295 346
#     4  10  21  35  62  84 119 155 189 232 299 351
#     4  10  20  39  55  87 123 154 181 243 299 343
#     4   9  18  36  58  82 111 156 188 239 284 333
#
# _framework density 21.480181999999999
#
# number of rings (size 3 to 8) (size 9 to 14) (size 15 to 20)
#    0.000    1.750    5.000    2.625    0.000    2.500 
#    0.000    4.375    0.000    7.500    0.000    0.875 
#    0.000    0.000    0.000    0.000    0.000    0.000 
#
# Total GULP energy -89276.788533 kJ/mol
# GULP energy per Si atom -5579.799283 kJ/mol
# Density = 2.143129 g / cm^3
# Si number density = 21.480182 Si / 1000 Ang^3
#
#
#
# Elastic Constant Matrix: (Units=GPa)
#
#
# Indices 1 2 3 4 5 6 
#
# 1 113.4238 19.2540 40.6729 -12.8497 -36.1308 -4.0599
# 2 19.2540 65.4465 31.0687 -18.4191 -14.6291 -1.4805
# 3 40.6729 31.0687 63.6683 -5.5271 -16.5248 5.9375
# 4 -12.8497 -18.4191 -5.5271 33.2508 0.0855 -1.0249
# 5 -36.1308 -14.6291 -16.5248 0.0855 27.5077 -7.0968
# 6 -4.0599 -1.4805 5.9375 -1.0249 -7.0968 23.6936
#
#
#
# Elastic Compliance Matrix: (Units=1/GPa)
#
#
# Indices 1 2 3 4 5 6 
#
# 1 0.025883 0.011591 -0.013068 0.014781 0.037504 0.020307
# 2 0.011591 0.031070 -0.015498 0.019559 0.026672 0.016646
# 3 -0.013068 -0.015498 0.029155 -0.009202 -0.011572 -0.014378
# 4 0.014781 0.019559 -0.009202 0.045528 0.028414 0.016541
# 5 0.037504 0.026672 -0.011572 0.028414 0.103945 0.043356
# 6 0.020307 0.016646 -0.014378 0.016541 0.043356 0.064030
#
#
# Mechanical properties :
#
#
# Convention : Reuss Voigt Hill
#
# Bulk Modulus (GPa) = 19.17184 47.16998 33.17091
# Shear Modulus (GPa) = 14.24716 26.99328 20.62022
#
# Velocity S-wave (km/s) = 2.57820 3.54879 3.10169
# Velocity P-wave (km/s) = 4.21990 6.22891 5.32009
#
# Compressibility (1/GPa) = 0.05215983
#
# Stress axis : x y z
#
# Youngs Moduli (GPa) = 38.63525 32.18548 34.29889
#
# Poissons Ratio (x) = -0.37307 0.44820
# Poissons Ratio (y) = -0.44783 0.53157
# Poissons Ratio (z) = 0.50487 0.49881
#
# Static dielectric constant tensor:
#      x y z
#    x 1.815300 0.033950 0.000110 
#    y 0.033950 1.841350 -0.024110 
#    z 0.000110 -0.024110 1.789150 
# 
# From -- ./inp_files/333261.got.cif
#   From: 2010.05.17/outbox.cif.g08.bks.cpg/sg2_167_cif.got.tgz:333261.got - 2010.06.03 11:33:40.
