data_PCOD9085735
_publ_section_title
;
Structure prediction by ZEFSAII (Michael W. Deem and Ramdas Pophale) SiO2 
 PCOD9085735
Probable space group: P -1
;
_chemical_formula_sum "Si O2"
_cell_formula_units_Z 14
_cell_length_a 12.157406
_cell_length_b 14.822813
_cell_length_c 15.114598
_cell_angle_alpha 19.286355
_cell_angle_beta 140.048755
_cell_angle_gamma 128.818078
_cell_volume 514.117009
_symmetry_space_group_name_H-M "P -1"
_symmetry_group_IT_number 2
_symmetry_cell_setting 'triclinic'
loop_
_space_group_symop_operation_xyz
x,y,z
-x,-y,-z
loop_
_atom_site_type_symbol
_atom_site_label
_atom_site_fract_x
_atom_site_fract_y
_atom_site_fract_z
Si Si1 0.994409 0.476550 0.622624
Si Si2 0.237131 0.095597 0.603067
Si Si3 0.299001 0.293591 0.628286
Si Si4 0.477503 0.403576 0.231736
Si Si5 0.509098 0.392881 0.452471
Si Si6 0.168799 0.894663 0.380044
Si Si7 0.214641 0.101578 0.394689
O O1 0.147388 0.586817 0.648976
O O2 0.000000 0.500000 0.500000
O O3 0.799172 0.709247 0.336617
O O4 0.044621 0.143826 0.999671
O O5 0.163275 0.293785 0.463445
O O6 0.411044 0.175994 0.609745
O O7 0.119416 0.163491 0.376006
O O8 0.330605 0.737065 0.015176
O O9 0.356214 0.569195 0.425051
O O10 0.500000 0.000000 0.000000
O O11 0.596683 0.324503 0.470970
O O12 0.611867 0.205354 0.419440
O O13 0.299648 0.331879 0.207022
O O14 0.395585 0.762745 0.831269
O O15 0.107432 0.050857 0.292531
#
# Coordination Sequence:
#
# PCOD9085735 Si02
#       7
#     2   2   2   2   2   2   2
#     4  12  28  45  63  93 130 165 205 262 326 374
#     4   9  19  34  58  90 118 149 203 259 298 350
#     4  10  22  42  66  90 120 167 216 258 306 373
#     4  10  19  35  62  93 127 168 212 253 302 372
#     4   9  18  32  57  89 119 152 202 262 302 342
#     4  12  24  41  62  90 130 171 203 255 321 375
#     4  10  20  37  62  95 126 164 213 255 300 372
#
# _framework density 27.231154
#
# number of rings (size 3 to 8) (size 9 to 14) (size 15 to 20)
#    0.000    1.714    0.000    4.286    0.000    9.143 
#    0.000    1.429    0.000    0.000    0.000    0.000 
#    0.000    0.000    0.000    0.000    0.000    0.000 
#
# Total GULP energy -78366.150651 kJ/mol
# GULP energy per Si atom -5597.582189 kJ/mol
# Density = 2.716917 g / cm^3
# Si number density = 27.231154 Si / 1000 Ang^3
#
#
#
# Elastic Constant Matrix: (Units=GPa)
#
#
# Indices 1 2 3 4 5 6 
#
# 1 129.4884 33.8726 28.4169 11.9723 1.0024 -27.9757
# 2 33.8726 120.2443 -4.0407 -3.9178 -7.7092 -36.9785
# 3 28.4169 -4.0407 86.7655 -13.1192 6.6317 -3.4504
# 4 11.9723 -3.9178 -13.1192 31.0997 -2.9651 -15.1126
# 5 1.0024 -7.7092 6.6317 -2.9651 35.0184 -0.1086
# 6 -27.9757 -36.9785 -3.4504 -15.1126 -0.1086 59.7209
#
#
#
# Elastic Compliance Matrix: (Units=1/GPa)
#
#
# Indices 1 2 3 4 5 6 
#
# 1 0.010179 -0.002774 -0.004176 -0.005380 -0.000562 0.001447
# 2 -0.002774 0.012289 0.002844 0.008264 0.002973 0.008571
# 3 -0.004176 0.002844 0.014682 0.009531 -0.001218 0.003063
# 4 -0.005380 0.008264 0.009531 0.047001 0.004195 0.015049
# 5 -0.000562 0.002973 -0.001218 0.004195 0.029821 0.002622
# 6 0.001447 0.008571 0.003063 0.015049 0.002622 0.026719
#
#
# Mechanical properties :
#
#
# Convention : Reuss Voigt Hill
#
# Bulk Modulus (GPa) = 34.55729 50.33287 42.44508
# Shear Modulus (GPa) = 31.53611 43.71777 37.62694
#
# Velocity S-wave (km/s) = 3.40676 4.01113 3.72124
# Velocity P-wave (km/s) = 5.30967 6.32265 5.83817
#
# Compressibility (1/GPa) = 0.02893746
#
# Stress axis : x y z
#
# Youngs Moduli (GPa) = 98.23906 81.37340 68.11255
#
# Poissons Ratio (x) = 0.22575 0.28444
# Poissons Ratio (y) = 0.27254 -0.19372
# Poissons Ratio (z) = 0.41025 -0.23143
#
# Static dielectric constant tensor:
#      x y z
#    x 2.105490 -0.057480 -0.024110 
#    y -0.057480 2.231850 0.110010 
#    z -0.024110 0.110010 2.114110 
# 
# From -- ./inp_files/458860.got.cif
#   From: 2010.05.17/outbox.cif.g08.bks.cpg/sg2_230_cif.got.tgz:458860.got - 2010.06.03 11:33:40.
