data_PCOD9085044
_publ_section_title
;
Structure prediction by ZEFSAII (Michael W. Deem and Ramdas Pophale) SiO2 
 PCOD9085044
Probable space group: P -1
;
_chemical_formula_sum "Si O2"
_cell_formula_units_Z 16
_cell_length_a 12.345686
_cell_length_b 23.943971
_cell_length_c 9.300455
_cell_angle_alpha 139.902163
_cell_angle_beta 52.660601
_cell_angle_gamma 155.898864
_cell_volume 677.697041
_symmetry_space_group_name_H-M "P -1"
_symmetry_group_IT_number 2
_symmetry_cell_setting 'triclinic'
loop_
_space_group_symop_operation_xyz
x,y,z
-x,-y,-z
loop_
_atom_site_type_symbol
_atom_site_label
_atom_site_fract_x
_atom_site_fract_y
_atom_site_fract_z
Si Si1 0.439560 0.914593 0.732112
Si Si2 0.397818 0.398259 0.224805
Si Si3 0.751269 0.983576 0.401665
Si Si4 0.707929 0.802314 0.286948
Si Si5 0.763479 0.800596 0.750514
Si Si6 0.900929 0.627270 0.431210
Si Si7 0.826044 0.418841 0.621531
Si Si8 0.698945 0.330039 0.065595
O O1 0.704659 0.031830 0.652956
O O2 0.291904 0.741594 0.555226
O O3 0.212792 0.827053 0.627029
O O4 0.500000 0.000000 0.000000
O O5 0.278103 0.278564 0.224826
O O6 0.734270 0.572328 0.319476
O O7 0.286147 0.432959 0.406042
O O8 0.286339 0.290775 0.961615
O O9 0.664093 0.842885 0.267575
O O10 0.508745 0.848927 0.207673
O O11 0.070642 0.155223 0.424060
O O12 0.444769 0.670844 0.343805
O O13 0.000000 0.000000 0.500000
O O14 0.505278 0.723013 0.775133
O O15 0.000000 0.000000 0.000000
O O16 0.863184 0.502797 0.197043
O O17 0.000000 0.500000 0.500000
O O18 0.056610 0.581065 0.869533
#
# Coordination Sequence:
#
# PCOD9085044 Si02
#       8
#     2   2   2   2   2   2   2   2
#     4  10  23  41  59  82 123 162 197 243 306 357
#     4  10  19  35  58  86 112 148 196 244 297 348
#     4  10  20  36  61  86 112 157 201 237 300 356
#     4  11  23  34  58  89 119 156 200 248 297 358
#     4   9  16  33  57  88 115 143 190 249 288 347
#     4   9  19  35  57  80 115 148 195 239 291 358
#     4  10  24  40  61  90 119 159 203 251 296 352
#     4   9  18  37  63  83 114 153 197 247 286 354
#
# _framework density 23.609369999999998
#
# number of rings (size 3 to 8) (size 9 to 14) (size 15 to 20)
#    0.000    2.250    3.750    0.000    7.000    1.500 
#    0.000    4.375    0.000    5.250    0.000    0.000 
#    0.000    0.000    0.000    0.000    0.000    0.000 
#
# Total GULP energy -89089.035724 kJ/mol
# GULP energy per Si atom -5568.064733 kJ/mol
# Density = 2.355563 g / cm^3
# Si number density = 23.609370 Si / 1000 Ang^3
#
#
#
# Elastic Constant Matrix: (Units=GPa)
#
#
# Indices 1 2 3 4 5 6 
#
# 1 14.1573 8.1740 10.6532 -1.2468 -4.9800 7.2714
# 2 8.1740 114.3484 38.6132 -27.5369 13.8207 19.8630
# 3 10.6532 38.6132 153.7827 -13.3119 0.7758 29.0341
# 4 -1.2468 -27.5369 -13.3119 40.8273 8.2163 2.0090
# 5 -4.9800 13.8207 0.7758 8.2163 25.2264 4.2317
# 6 7.2714 19.8630 29.0341 2.0090 4.2317 32.2501
#
#
#
# Elastic Compliance Matrix: (Units=1/GPa)
#
#
# Indices 1 2 3 4 5 6 
#
# 1 0.096009 -0.008790 -0.001992 -0.008740 0.029661 -0.017787
# 2 -0.008790 0.015366 -0.001023 0.012720 -0.013325 -0.005605
# 3 -0.001992 -0.001023 0.008336 0.002234 0.000291 -0.006603
# 4 -0.008740 0.012720 0.002234 0.037899 -0.019826 -0.007634
# 5 0.029661 -0.013325 0.000291 -0.019826 0.060151 -0.005400
# 6 -0.017787 -0.005605 -0.006603 -0.007634 -0.005400 0.045599
#
#
# Mechanical properties :
#
#
# Convention : Reuss Voigt Hill
#
# Bulk Modulus (GPa) = 10.40575 44.12991 27.26783
# Shear Modulus (GPa) = 15.67379 34.65063 25.16221
#
# Velocity S-wave (km/s) = 2.57938 3.83517 3.26816
# Velocity P-wave (km/s) = 3.64527 6.19222 5.08092
#
# Compressibility (1/GPa) = 0.09610068
#
# Stress axis : x y z
#
# Youngs Moduli (GPa) = 10.41574 65.07793 119.96157
#
# Poissons Ratio (x) = 0.57206 0.23894
# Poissons Ratio (y) = 0.09156 0.12270
# Poissons Ratio (z) = 0.02075 0.06656
#
# Static dielectric constant tensor:
#      x y z
#    x 2.012500 -0.018610 0.034290 
#    y -0.018610 2.195720 -0.029830 
#    z 0.034290 -0.029830 1.993160 
# 
# From -- ./inp_files/320344.got.cif
#   From: 2010.05.17/outbox.cif.g08.bks.cpg/sg2_161_cif.got.tgz:320344.got - 2010.06.03 11:33:40.
