data_PCOD9085660
_publ_section_title
;
Structure prediction by ZEFSAII (Michael W. Deem and Ramdas Pophale) SiO2 
 PCOD9085660
Probable space group: P -1
;
_chemical_formula_sum "Si O2"
_cell_formula_units_Z 12
_cell_length_a 15.110278
_cell_length_b 15.979402
_cell_length_c 14.504377
_cell_angle_alpha 135.661056
_cell_angle_beta 159.992797
_cell_angle_gamma 34.791371
_cell_volume 654.475380
_symmetry_space_group_name_H-M "P -1"
_symmetry_group_IT_number 2
_symmetry_cell_setting 'triclinic'
loop_
_space_group_symop_operation_xyz
x,y,z
-x,-y,-z
loop_
_atom_site_type_symbol
_atom_site_label
_atom_site_fract_x
_atom_site_fract_y
_atom_site_fract_z
Si Si1 0.240180 0.864992 0.925209
Si Si2 0.805297 0.450977 0.823929
Si Si3 0.412655 0.039285 0.551458
Si Si4 0.743112 0.887550 0.925212
Si Si5 0.508174 0.292917 0.139005
Si Si6 0.241490 0.110814 0.756006
O O1 0.959356 0.886841 0.728687
O O2 0.103001 0.023083 0.860527
O O3 0.395617 0.735256 0.897005
O O4 0.503710 0.853322 0.241345
O O5 0.500000 0.500000 0.500000
O O6 0.668997 0.543737 0.859622
O O7 0.039633 0.271292 0.934862
O O8 0.000000 0.500000 0.000000
O O9 0.500000 0.000000 0.500000
O O10 0.647659 0.887084 0.725930
O O11 0.400235 0.009791 0.739586
O O12 0.863753 0.179309 0.449955
O O13 0.276510 0.244055 0.888073
O O14 0.500000 0.000000 0.000000
#
# Coordination Sequence:
#
# PCOD9085660 Si02
#       6
#     2   2   2   2   2   2
#     4   9  19  35  58  82 107 142 185 230 279 327
#     4  12  26  37  53  82 119 156 187 221 275 329
#     4  10  19  35  62  86 106 135 186 242 284 325
#     4   9  22  35  57  81 115 141 192 226 273 327
#     4  11  20  37  52  77 110 149 180 229 273 323
#     4  11  20  34  55  77 105 148 191 230 264 321
#
# _framework density 18.335297000000001
#
# number of rings (size 3 to 8) (size 9 to 14) (size 15 to 20)
#    1.000    0.667    1.667    4.000    2.333    1.333 
#    0.000    0.000    0.000    2.000    0.000    0.000 
#    0.000    0.000    0.000    0.000    0.000    0.000 
#
# Total GULP energy -66848.878593 kJ/mol
# GULP energy per Si atom -5570.739883 kJ/mol
# Density = 1.829356 g / cm^3
# Si number density = 18.335297 Si / 1000 Ang^3
#
#
#
# Elastic Constant Matrix: (Units=GPa)
#
#
# Indices 1 2 3 4 5 6 
#
# 1 79.0732 16.6131 18.4663 12.2957 5.2194 -18.5830
# 2 16.6131 84.3322 19.6250 5.8481 4.7396 -17.5696
# 3 18.4663 19.6250 95.3533 19.2056 16.3723 -0.5414
# 4 12.2957 5.8481 19.2056 18.7261 0.5413 -5.3331
# 5 5.2194 4.7396 16.3723 0.5413 29.4847 -1.7911
# 6 -18.5830 -17.5696 -0.5414 -5.3331 -1.7911 24.9747
#
#
#
# Elastic Compliance Matrix: (Units=1/GPa)
#
#
# Indices 1 2 3 4 5 6 
#
# 1 0.016646 -0.000125 -0.001725 -0.005983 -0.001197 0.010897
# 2 -0.000125 0.014737 -0.003364 0.001954 0.000131 0.010628
# 3 -0.001725 -0.003364 0.016168 -0.016257 -0.008281 -0.007366
# 4 -0.005983 0.001954 -0.016257 0.077023 0.009189 0.013676
# 5 -0.001197 0.000131 -0.008281 0.009189 0.038765 0.003765
# 6 0.010897 0.010628 -0.007366 0.013676 0.003765 0.058656
#
#
# Mechanical properties :
#
#
# Convention : Reuss Voigt Hill
#
# Bulk Modulus (GPa) = 26.93906 40.90747 33.92327
# Shear Modulus (GPa) = 20.42496 28.24072 24.33284
#
# Velocity S-wave (km/s) = 3.34124 3.92884 3.64690
# Velocity P-wave (km/s) = 5.44146 6.55288 6.02287
#
# Compressibility (1/GPa) = 0.03712081
#
# Stress axis : x y z
#
# Youngs Moduli (GPa) = 60.07441 67.85738 61.84928
#
# Poissons Ratio (x) = 0.00850 0.10672
# Poissons Ratio (y) = 0.00753 0.20809
# Poissons Ratio (z) = 0.10366 0.22830
#
# Static dielectric constant tensor:
#      x y z
#    x 1.683220 -0.024160 -0.021420 
#    y -0.024160 1.627260 0.027780 
#    z -0.021420 0.027780 1.662360 
# 
# From -- ./inp_files/42314.got.cif
#   From: 2010.05.17/outbox.cif.g08.bks.cpg/sg2_22_cif.got.tgz:42314.got - 2010.06.03 11:33:40.
