data_PCOD9085449
_publ_section_title
;
Structure prediction by ZEFSAII (Michael W. Deem and Ramdas Pophale) SiO2 
 PCOD9085449
Probable space group: P -1
;
_chemical_formula_sum "Si O2"
_cell_formula_units_Z 16
_cell_length_a 8.887914
_cell_length_b 19.258601
_cell_length_c 12.589728
_cell_angle_alpha 22.087785
_cell_angle_beta 125.039878
_cell_angle_gamma 123.998728
_cell_volume 660.868619
_symmetry_space_group_name_H-M "P -1"
_symmetry_group_IT_number 2
_symmetry_cell_setting 'triclinic'
loop_
_space_group_symop_operation_xyz
x,y,z
-x,-y,-z
loop_
_atom_site_type_symbol
_atom_site_label
_atom_site_fract_x
_atom_site_fract_y
_atom_site_fract_z
Si Si1 0.865863 0.318549 0.166430
Si Si2 0.368730 0.613847 0.711267
Si Si3 0.534218 0.990741 0.157892
Si Si4 0.973665 0.425613 0.828864
Si Si5 0.879985 0.928535 0.275990
Si Si6 0.936978 0.705874 0.164629
Si Si7 0.463156 0.395297 0.855507
Si Si8 0.340416 0.335468 0.611355
O O1 0.935579 0.148749 0.498020
O O2 0.903337 0.317079 0.058329
O O3 0.647171 0.326334 0.078572
O O4 0.000000 0.500000 0.000000
O O5 0.428188 0.829467 0.413025
O O6 0.392997 0.538537 0.708641
O O7 0.159353 0.558284 0.739425
O O8 0.500000 0.500000 0.000000
O O9 0.745081 0.945474 0.298000
O O10 0.500000 0.000000 0.000000
O O11 0.478465 0.181333 0.915813
O O12 0.815282 0.558431 0.542231
O O13 0.025774 0.283654 0.961467
O O14 0.784905 0.781918 0.362269
O O15 0.929625 0.131778 0.958782
O O16 0.723131 0.732701 0.060641
O O17 0.000000 0.500000 0.500000
O O18 0.532337 0.505288 0.623094
#
# Coordination Sequence:
#
# PCOD9085449 Si02
#       8
#     2   2   2   2   2   2   2   2
#     4  11  19  40  69  96 122 159 215 269 316 373
#     4  11  20  33  58  93 128 156 204 267 322 367
#     4  10  19  35  60  91 118 162 218 260 306 375
#     4  10  23  38  62  94 125 163 205 265 320 373
#     4  11  21  37  69  89 120 169 209 254 317 378
#     4  11  26  43  58  88 137 172 204 258 326 376
#     4  10  20  39  63  89 125 170 203 256 322 382
#     4  10  20  39  68  90 116 164 224 262 305 366
#
# _framework density 24.210561999999999
#
# number of rings (size 3 to 8) (size 9 to 14) (size 15 to 20)
#    0.000    1.500    5.000    2.250    5.250    1.500 
#    0.000    5.625    0.000    0.000    0.000    0.000 
#    0.000    0.000    0.000    0.000    0.000    0.000 
#
# Total GULP energy -89385.141260 kJ/mol
# GULP energy per Si atom -5586.571329 kJ/mol
# Density = 2.415546 g / cm^3
# Si number density = 24.210562 Si / 1000 Ang^3
#
#
#
# Elastic Constant Matrix: (Units=GPa)
#
#
# Indices 1 2 3 4 5 6 
#
# 1 122.5477 29.2392 10.9501 -7.2257 17.9388 24.8791
# 2 29.2392 72.6314 16.0761 -4.1728 3.6921 26.3128
# 3 10.9501 16.0761 85.3965 -7.5312 11.0708 7.8320
# 4 -7.2257 -4.1728 -7.5312 35.5448 12.0591 -2.4504
# 5 17.9388 3.6921 11.0708 12.0591 32.8606 10.6871
# 6 24.8791 26.3128 7.8320 -2.4504 10.6871 40.1789
#
#
#
# Elastic Compliance Matrix: (Units=1/GPa)
#
#
# Indices 1 2 3 4 5 6 
#
# 1 0.010468 -0.002740 0.000556 0.003757 -0.006007 -0.002968
# 2 -0.002740 0.019489 -0.002944 -0.001266 0.004598 -0.011792
# 3 0.000556 -0.002944 0.013392 0.004925 -0.006629 0.001037
# 4 0.003757 -0.001266 0.004925 0.036366 -0.018430 0.004662
# 5 -0.006007 0.004598 -0.006629 -0.018430 0.045875 -0.011325
# 6 -0.002968 -0.011792 0.001037 0.004662 -0.011325 0.037544
#
#
# Mechanical properties :
#
#
# Convention : Reuss Voigt Hill
#
# Bulk Modulus (GPa) = 30.21866 43.67849 36.94857
# Shear Modulus (GPa) = 27.11209 36.67089 31.89149
#
# Velocity S-wave (km/s) = 3.35004 3.89609 3.63334
# Velocity P-wave (km/s) = 5.24141 6.19028 5.73550
#
# Compressibility (1/GPa) = 0.03309214
#
# Stress axis : x y z
#
# Youngs Moduli (GPa) = 95.53092 51.31219 74.67362
#
# Poissons Ratio (x) = 0.14062 -0.04152
# Poissons Ratio (y) = 0.26180 0.21980
# Poissons Ratio (z) = -0.05312 0.15104
#
# Static dielectric constant tensor:
#      x y z
#    x 1.964170 0.004000 -0.002780 
#    y 0.004000 2.035970 0.029450 
#    z -0.002780 0.029450 1.943000 
# 
# From -- ./inp_files/243032.got.cif
#   From: 2010.05.17/outbox.cif.g08.bks.cpg/sg2_122_cif.got.tgz:243032.got - 2010.06.03 11:33:40.
