data_PCOD9085378
_publ_section_title
;
Structure prediction by ZEFSAII (Michael W. Deem and Ramdas Pophale) SiO2 
 PCOD9085378
Probable space group: P -1
;
_chemical_formula_sum "Si O2"
_cell_formula_units_Z 16
_cell_length_a 11.206100
_cell_length_b 24.042135
_cell_length_c 8.146974
_cell_angle_alpha 72.060586
_cell_angle_beta 46.616745
_cell_angle_gamma 36.679366
_cell_volume 789.842452
_symmetry_space_group_name_H-M "P -1"
_symmetry_group_IT_number 2
_symmetry_cell_setting 'triclinic'
loop_
_space_group_symop_operation_xyz
x,y,z
-x,-y,-z
loop_
_atom_site_type_symbol
_atom_site_label
_atom_site_fract_x
_atom_site_fract_y
_atom_site_fract_z
Si Si1 0.346168 0.499607 0.888753
Si Si2 0.747380 0.976478 0.828634
Si Si3 0.857429 0.228768 0.165393
Si Si4 0.649829 0.799614 0.845276
Si Si5 0.236730 0.389219 0.767486
Si Si6 0.128500 0.729246 0.244839
Si Si7 0.712975 0.200347 0.768467
Si Si8 0.186820 0.651486 0.708054
O O1 0.569156 0.406023 0.902791
O O2 0.309108 0.579500 0.816042
O O3 0.527234 0.424785 0.617739
O O4 0.997122 0.580555 0.142138
O O5 0.972627 0.882901 0.846266
O O6 0.967943 0.917894 0.514359
O O7 0.500000 0.000000 0.000000
O O8 0.582002 0.085588 0.946145
O O9 0.481071 0.342528 0.449187
O O10 0.966720 0.242070 0.186805
O O11 0.937343 0.228440 0.912807
O O12 0.839139 0.780549 0.549550
O O13 0.927174 0.696602 0.804995
O O14 0.457344 0.800658 0.972265
O O15 0.471905 0.289013 0.768409
O O16 0.000000 0.500000 0.000000
O O17 0.212170 0.762549 0.239228
#
# Coordination Sequence:
#
# PCOD9085378 Si02
#       8
#     2   2   2   2   2   2   2   2
#     4  10  19  35  60  87 115 156 199 243 291 339
#     4  11  20  41  68  87 112 154 208 255 288 338
#     4  11  24  38  58  89 123 158 193 242 307 358
#     4  11  21  40  66  89 113 157 205 251 291 340
#     4  11  18  36  62  84 113 156 205 244 279 342
#     4  11  24  40  56  89 134 158 183 239 310 368
#     4  11  22  39  64  92 117 151 207 248 288 350
#     4  10  19  35  61  88 113 150 210 246 277 350
#
# _framework density 20.257204000000002
#
# number of rings (size 3 to 8) (size 9 to 14) (size 15 to 20)
#    0.000    1.250    6.250    1.875    0.000    1.500 
#    2.250    0.625    0.000    0.000    0.000    0.000 
#    0.000    0.000    0.000    0.000    0.000    0.000 
#
# Total GULP energy -89208.671470 kJ/mol
# GULP energy per Si atom -5575.541967 kJ/mol
# Density = 2.021110 g / cm^3
# Si number density = 20.257204 Si / 1000 Ang^3
#
#
#
# Elastic Constant Matrix: (Units=GPa)
#
#
# Indices 1 2 3 4 5 6 
#
# 1 21.9231 2.8980 33.9182 -10.8725 -15.7858 2.9320
# 2 2.8980 70.7416 25.9783 1.9269 -0.2377 4.3403
# 3 33.9182 25.9783 115.4979 -10.9203 -26.3636 0.9391
# 4 -10.8725 1.9269 -10.9203 34.0925 5.5598 -3.8955
# 5 -15.7858 -0.2377 -26.3636 5.5598 24.5185 -5.9457
# 6 2.9320 4.3403 0.9391 -3.8955 -5.9457 22.1509
#
#
#
# Elastic Compliance Matrix: (Units=1/GPa)
#
#
# Indices 1 2 3 4 5 6 
#
# 1 0.139072 0.003351 -0.026401 0.026846 0.055502 0.001674
# 2 0.003351 0.016507 -0.005925 -0.001533 -0.004922 -0.005018
# 3 -0.026401 -0.005925 0.018515 -0.002358 0.004519 0.004669
# 4 0.026846 -0.001533 -0.002358 0.036575 0.007739 0.005356
# 5 0.055502 -0.004922 0.004519 0.007739 0.083765 0.017271
# 6 0.001674 -0.005018 0.004669 0.005356 0.017271 0.051287
#
#
# Mechanical properties :
#
#
# Convention : Reuss Voigt Hill
#
# Bulk Modulus (GPa) = 8.61000 37.08351 22.84676
# Shear Modulus (GPa) = 11.30235 25.84359 18.57297
#
# Velocity S-wave (km/s) = 2.36464 3.57567 3.03125
# Velocity P-wave (km/s) = 3.42271 5.94923 4.85326
#
# Compressibility (1/GPa) = 0.11614396
#
# Stress axis : x y z
#
# Youngs Moduli (GPa) = 7.19049 60.57872 54.01103
#
# Poissons Ratio (x) = -0.20298 1.42597
# Poissons Ratio (y) = -0.02409 0.32000
# Poissons Ratio (z) = 0.18984 0.35891
#
# Static dielectric constant tensor:
#      x y z
#    x 1.739960 0.025190 -0.044030 
#    y 0.025190 1.745410 -0.024610 
#    z -0.044030 -0.024610 1.739280 
# 
# From -- ./inp_files/211675.got.cif
#   From: 2010.05.17/outbox.cif.g08.bks.cpg/sg2_106_cif.got.tgz:211675.got - 2010.06.03 11:33:40.
