data_PCOD9085397
_publ_section_title
;
Structure prediction by ZEFSAII (Michael W. Deem and Ramdas Pophale) SiO2 
 PCOD9085397
Probable space group: P -1
;
_chemical_formula_sum "Si O2"
_cell_formula_units_Z 14
_cell_length_a 13.041829
_cell_length_b 18.280498
_cell_length_c 8.432390
_cell_angle_alpha 47.206317
_cell_angle_beta 146.285548
_cell_angle_gamma 148.483921
_cell_volume 580.230669
_symmetry_space_group_name_H-M "P -1"
_symmetry_group_IT_number 2
_symmetry_cell_setting 'triclinic'
loop_
_space_group_symop_operation_xyz
x,y,z
-x,-y,-z
loop_
_atom_site_type_symbol
_atom_site_label
_atom_site_fract_x
_atom_site_fract_y
_atom_site_fract_z
Si Si1 0.472096 0.358675 0.133113
Si Si2 0.453326 0.921143 0.741527
Si Si3 0.606882 0.494133 0.419429
Si Si4 0.077834 0.787951 0.199249
Si Si5 0.090850 0.293119 0.236106
Si Si6 0.285474 0.087360 0.304965
Si Si7 0.221979 0.024693 0.660402
O O1 0.657417 0.449265 0.390683
O O2 0.465329 0.242887 0.238713
O O3 0.493093 0.440455 0.889699
O O4 0.189663 0.280656 0.962071
O O5 0.248129 0.797930 0.537358
O O6 0.742929 0.046903 0.855186
O O7 0.364304 0.001891 0.527737
O O8 0.514717 0.888979 0.028345
O O9 0.372123 0.364782 0.420179
O O10 0.838671 0.608825 0.670539
O O11 0.041575 0.722453 0.077621
O O12 0.910750 0.134537 0.300245
O O13 0.283748 0.105635 0.462456
O O14 0.000000 0.000000 0.000000
O O15 0.000000 0.000000 0.500000
#
# Coordination Sequence:
#
# PCOD9085397 Si02
#       7
#     2   2   2   2   2   2   2
#     4  10  19  35  60  88 114 157 197 243 288 350
#     4  10  21  36  57  86 127 157 185 237 305 354
#     4   9  18  34  57  86 112 155 209 235 284 340
#     4   9  18  35  56  79 117 155 186 237 290 347
#     4   9  18  34  57  86 114 153 198 244 284 346
#     4  12  22  35  60  92 125 150 193 238 303 360
#     4  11  23  38  60  91 122 153 193 241 303 358
#
# _framework density 24.128333000000001
#
# number of rings (size 3 to 8) (size 9 to 14) (size 15 to 20)
#    0.000    2.000    1.429    3.857    2.000    0.000 
#    0.000    0.000    0.000   17.143    0.000    0.000 
#    0.000    0.000    0.000    0.000    0.000    0.000 
#
# Total GULP energy -78095.476154 kJ/mol
# GULP energy per Si atom -5578.248297 kJ/mol
# Density = 2.407342 g / cm^3
# Si number density = 24.128333 Si / 1000 Ang^3
#
#
#
# Elastic Constant Matrix: (Units=GPa)
#
#
# Indices 1 2 3 4 5 6 
#
# 1 65.3022 11.4362 33.4374 4.1530 -0.2129 -12.2364
# 2 11.4362 71.6679 37.6679 13.9629 -13.9796 -11.1376
# 3 33.4374 37.6679 143.2629 19.2022 -22.0633 -24.0888
# 4 4.1530 13.9629 19.2022 43.4777 -12.0822 -16.0777
# 5 -0.2129 -13.9796 -22.0633 -12.0822 41.2784 5.6417
# 6 -12.2364 -11.1376 -24.0888 -16.0777 5.6417 40.9321
#
#
#
# Elastic Compliance Matrix: (Units=1/GPa)
#
#
# Indices 1 2 3 4 5 6 
#
# 1 0.018068 -0.000962 -0.003876 0.000911 -0.002525 0.003565
# 2 -0.000962 0.017113 -0.003270 -0.002749 0.003110 0.000936
# 3 -0.003876 -0.003270 0.009898 -0.000889 0.003500 0.002945
# 4 0.000911 -0.002749 -0.000889 0.029428 0.005879 0.009750
# 5 -0.002525 0.003110 0.003500 0.005879 0.028790 0.000492
# 6 0.003565 0.000936 0.002945 0.009750 0.000492 0.031246
#
#
# Mechanical properties :
#
#
# Convention : Reuss Voigt Hill
#
# Bulk Modulus (GPa) = 34.64600 49.47956 42.06278
# Shear Modulus (GPa) = 31.17576 38.31706 34.74641
#
# Velocity S-wave (km/s) = 3.59845 3.98936 3.79894
# Velocity P-wave (km/s) = 5.62631 6.46308 6.05915
#
# Compressibility (1/GPa) = 0.02886336
#
# Stress axis : x y z
#
# Youngs Moduli (GPa) = 55.34585 58.43402 101.03065
#
# Poissons Ratio (x) = 0.05623 0.39156
# Poissons Ratio (y) = 0.05325 0.33039
# Poissons Ratio (z) = 0.21450 0.19109
#
# Static dielectric constant tensor:
#      x y z
#    x 2.059000 -0.056980 -0.010280 
#    y -0.056980 2.000680 0.043420 
#    z -0.010280 0.043420 1.934100 
# 
# From -- ./inp_files/171140.got.cif
#   From: 2010.05.17/outbox.cif.g08.bks.cpg/sg2_86_cif.got.tgz:171140.got - 2010.06.03 11:33:40.
