data_PCOD9085026
_publ_section_title
;
Structure prediction by ZEFSAII (Michael W. Deem and Ramdas Pophale) SiO2 
 PCOD9085026
Probable space group: P -1
;
_chemical_formula_sum "Si O2"
_cell_formula_units_Z 16
_cell_length_a 8.402960
_cell_length_b 14.286164
_cell_length_c 23.284437
_cell_angle_alpha 18.447228
_cell_angle_beta 130.577646
_cell_angle_gamma 134.627292
_cell_volume 627.909558
_symmetry_space_group_name_H-M "P -1"
_symmetry_group_IT_number 2
_symmetry_cell_setting 'triclinic'
loop_
_space_group_symop_operation_xyz
x,y,z
-x,-y,-z
loop_
_atom_site_type_symbol
_atom_site_label
_atom_site_fract_x
_atom_site_fract_y
_atom_site_fract_z
Si Si1 0.751746 0.672382 0.481140
Si Si2 0.360219 0.799594 0.822153
Si Si3 0.778271 0.935787 0.116539
Si Si4 0.811169 0.164865 0.360048
Si Si5 0.429635 0.390711 0.913342
Si Si6 0.494263 0.306274 0.353487
Si Si7 0.644436 0.226764 0.812708
Si Si8 0.858229 0.277788 0.646039
O O1 0.500000 0.500000 0.500000
O O2 0.748669 0.558008 0.612200
O O3 0.894832 0.527241 0.561148
O O4 0.784760 0.035154 0.271878
O O5 0.221835 0.716007 0.780131
O O6 0.595431 0.074725 0.697230
O O7 0.440025 0.586434 0.009017
O O8 0.688273 0.621040 0.238575
O O9 0.613838 0.868690 0.171955
O O10 0.025837 0.976705 0.167467
O O11 0.756661 0.204957 0.912833
O O12 0.761130 0.447249 0.221311
O O13 0.615700 0.855658 0.519296
O O14 0.000000 0.000000 0.500000
O O15 0.594667 0.546796 0.807408
O O16 0.333036 0.024545 0.083040
O O17 0.500000 0.000000 0.500000
O O18 0.000000 0.500000 0.500000
#
# Coordination Sequence:
#
# PCOD9085026 Si02
#       8
#     2   2   2   2   2   2   2   2
#     4  10  19  35  58  84 125 167 199 249 322 374
#     4  11  23  43  65  92 133 169 211 271 326 383
#     4  10  21  36  62  96 128 165 217 262 318 380
#     4  11  24  44  68  94 122 167 222 269 324 389
#     4  10  21  42  68  89 129 170 212 269 326 385
#     4   9  20  41  65  89 128 173 210 260 316 379
#     4  10  19  38  59  90 129 170 207 263 320 378
#     4  11  22  36  60  94 128 168 212 259 320 381
#
# _framework density 25.481376000000001
#
# number of rings (size 3 to 8) (size 9 to 14) (size 15 to 20)
#    0.000    1.750    2.500    3.375    0.000    3.500 
#    9.000    0.625    0.000    0.000    0.000    0.000 
#    0.000    0.000    0.000    0.000    0.000    0.000 
#
# Total GULP energy -89125.481752 kJ/mol
# GULP energy per Si atom -5570.342609 kJ/mol
# Density = 2.542338 g / cm^3
# Si number density = 25.481376 Si / 1000 Ang^3
#
#
#
# Elastic Constant Matrix: (Units=GPa)
#
#
# Indices 1 2 3 4 5 6 
#
# 1 98.7436 29.6739 38.3540 21.1571 19.0845 -20.8762
# 2 29.6739 68.8819 25.9819 7.5244 9.4003 -20.1712
# 3 38.3540 25.9819 134.9525 18.6188 10.3852 -4.2542
# 4 21.1571 7.5244 18.6188 33.3950 -9.1792 0.4979
# 5 19.0845 9.4003 10.3852 -9.1792 55.9826 7.7721
# 6 -20.8762 -20.1712 -4.2542 0.4979 7.7721 28.9021
#
#
#
# Elastic Compliance Matrix: (Units=1/GPa)
#
#
# Indices 1 2 3 4 5 6 
#
# 1 0.020043 0.000705 -0.002315 -0.014988 -0.011474 0.017972
# 2 0.000705 0.021829 -0.002485 -0.006122 -0.006854 0.017327
# 3 -0.002315 -0.002485 0.008978 -0.003150 -0.000721 -0.001836
# 4 -0.014988 -0.006122 -0.003150 0.047692 0.017468 -0.021081
# 5 -0.011474 -0.006854 -0.000721 0.017468 0.028872 -0.021243
# 6 0.017972 0.017327 -0.001836 -0.021081 -0.021243 0.065479
#
#
# Mechanical properties :
#
#
# Convention : Reuss Voigt Hill
#
# Bulk Modulus (GPa) = 23.44018 54.51084 38.97551
# Shear Modulus (GPa) = 23.22295 37.56049 30.39172
#
# Velocity S-wave (km/s) = 3.02216 3.84348 3.45730
# Velocity P-wave (km/s) = 4.62568 6.41369 5.59161
#
# Compressibility (1/GPa) = 0.04266179
#
# Stress axis : x y z
#
# Youngs Moduli (GPa) = 49.89179 45.80999 111.37793
#
# Poissons Ratio (x) = -0.03228 0.25780
# Poissons Ratio (y) = -0.03516 0.27674
# Poissons Ratio (z) = 0.11548 0.11383
#
# Static dielectric constant tensor:
#      x y z
#    x 2.025840 0.034370 -0.136550 
#    y 0.034370 2.056600 0.282950 
#    z -0.136550 0.282950 1.333660 
# 
# From -- ./inp_files/608053.got.cif
#   From: 2010.05.17/outbox.cif.g08.bks.cpg/sg2_305_cif.got.tgz:608053.got - 2010.06.03 11:33:40.
