data_PCOD9085669
_publ_section_title
;
Structure prediction by ZEFSAII (Michael W. Deem and Ramdas Pophale) SiO2 
 PCOD9085669
Probable space group: P -1
;
_chemical_formula_sum "Si O2"
_cell_formula_units_Z 16
_cell_length_a 17.542017
_cell_length_b 12.233815
_cell_length_c 6.931392
_cell_angle_alpha 114.641414
_cell_angle_beta 72.974634
_cell_angle_gamma 50.874602
_cell_volume 645.283186
_symmetry_space_group_name_H-M "P -1"
_symmetry_group_IT_number 2
_symmetry_cell_setting 'triclinic'
loop_
_space_group_symop_operation_xyz
x,y,z
-x,-y,-z
loop_
_atom_site_type_symbol
_atom_site_label
_atom_site_fract_x
_atom_site_fract_y
_atom_site_fract_z
Si Si1 0.383820 0.763203 0.755953
Si Si2 0.110745 0.759901 0.347097
Si Si3 0.761328 0.921431 0.228575
Si Si4 0.908918 0.799045 0.422232
Si Si5 0.633336 0.633985 0.386949
Si Si6 0.565525 0.999730 0.706906
Si Si7 0.200523 0.540093 0.487261
Si Si8 0.830788 0.681140 0.610402
O O1 0.500000 0.500000 0.500000
O O2 0.308795 0.870270 0.677076
O O3 0.247093 0.949501 0.158286
O O4 0.618568 0.726852 0.917025
O O5 0.117159 0.744800 0.561667
O O6 0.049570 0.707321 0.291751
O O7 0.000000 0.000000 0.500000
O O8 0.495132 0.735618 0.657067
O O9 0.872257 0.828232 0.247341
O O10 0.640862 0.992578 0.491161
O O11 0.805093 0.783803 0.906030
O O12 0.939002 0.628113 0.362998
O O13 0.581953 0.836876 0.522815
O O14 0.773154 0.454952 0.310988
O O15 0.709062 0.465318 0.027759
O O16 0.676903 0.863659 0.717170
O O17 0.111775 0.527842 0.539685
#
# Coordination Sequence:
#
# PCOD9085669 Si02
#       8
#     2   2   2   2   2   2   2   2
#     4  11  23  39  62  90 118 160 216 260 302 359
#     4  12  28  44  59  88 128 173 218 247 292 371
#     4  10  19  35  62  87 123 160 189 252 314 359
#     4  10  23  41  59  87 125 162 206 252 302 373
#     4  11  23  41  68  97 123 157 206 263 315 367
#     4  10  19  37  66 102 125 147 202 263 321 375
#     4  11  22  39  66  93 128 163 198 260 316 362
#     4   9  19  37  62  93 120 150 196 251 317 376
#
# _framework density 24.795318000000002
#
# number of rings (size 3 to 8) (size 9 to 14) (size 15 to 20)
#    0.000    1.500    0.000    7.500    0.000    6.000 
#    0.000    8.750    0.000    0.000    0.000    0.000 
#    0.000    0.000    0.000    0.000    0.000    0.000 
#
# Total GULP energy -89556.164020 kJ/mol
# GULP energy per Si atom -5597.260251 kJ/mol
# Density = 2.473888 g / cm^3
# Si number density = 24.795318 Si / 1000 Ang^3
#
#
#
# Elastic Constant Matrix: (Units=GPa)
#
#
# Indices 1 2 3 4 5 6 
#
# 1 63.3156 -3.4261 -3.4864 -9.1629 -5.6024 -9.3967
# 2 -3.4261 186.2241 40.1081 -16.3203 1.6649 -3.2725
# 3 -3.4864 40.1081 90.5395 -17.6853 -19.1899 -1.1483
# 4 -9.1629 -16.3203 -17.6853 45.0256 -2.5291 4.7964
# 5 -5.6024 1.6649 -19.1899 -2.5291 30.2241 -9.5914
# 6 -9.3967 -3.2725 -1.1483 4.7964 -9.5914 33.5462
#
#
#
# Elastic Compliance Matrix: (Units=1/GPa)
#
#
# Indices 1 2 3 4 5 6 
#
# 1 0.018451 0.000069 0.003461 0.004861 0.008227 0.006951
# 2 0.000069 0.006115 -0.002995 0.000957 -0.002229 -0.000261
# 3 0.003461 -0.002995 0.016613 0.006449 0.013194 0.004097
# 4 0.004861 0.000957 0.006449 0.026487 0.007137 -0.000071
# 5 0.008227 -0.002229 0.013194 0.007137 0.048600 0.015414
# 6 0.006951 -0.000261 0.004097 -0.000071 0.015414 0.036289
#
#
# Mechanical properties :
#
#
# Convention : Reuss Voigt Hill
#
# Bulk Modulus (GPa) = 23.66905 45.16340 34.41622
# Shear Modulus (GPa) = 30.19896 42.21810 36.20853
#
# Velocity S-wave (km/s) = 3.49367 4.13081 3.82553
# Velocity P-wave (km/s) = 5.08339 6.40355 5.78128
#
# Compressibility (1/GPa) = 0.04224927
#
# Stress axis : x y z
#
# Youngs Moduli (GPa) = 54.19720 163.52122 60.19310
#
# Poissons Ratio (x) = -0.01121 -0.20835
# Poissons Ratio (y) = -0.00372 0.18029
# Poissons Ratio (z) = -0.18760 0.48978
#
# Static dielectric constant tensor:
#      x y z
#    x 2.028820 -0.064110 -0.056990 
#    y -0.064110 2.000650 0.027060 
#    z -0.056990 0.027060 1.986470 
# 
# From -- ./inp_files/118854.got.cif
#   From: 2010.05.17/outbox.cif.g08.bks.cpg/sg2_60_cif.got.tgz:118854.got - 2010.06.03 11:33:40.
