data_PCOD9085987
_publ_section_title
;
Structure prediction by ZEFSAII (Michael W. Deem and Ramdas Pophale) SiO2 
 PCOD9085987
Probable space group: P -1
;
_chemical_formula_sum "Si O2"
_cell_formula_units_Z 16
_cell_length_a 14.293160
_cell_length_b 8.432919
_cell_length_c 20.684537
_cell_angle_alpha 135.261282
_cell_angle_beta 151.409939
_cell_angle_gamma 41.529179
_cell_volume 779.904457
_symmetry_space_group_name_H-M "P -1"
_symmetry_group_IT_number 2
_symmetry_cell_setting 'triclinic'
loop_
_space_group_symop_operation_xyz
x,y,z
-x,-y,-z
loop_
_atom_site_type_symbol
_atom_site_label
_atom_site_fract_x
_atom_site_fract_y
_atom_site_fract_z
Si Si1 0.944094 0.108930 0.926406
Si Si2 0.810718 0.478795 0.334265
Si Si3 0.505890 0.491169 0.744389
Si Si4 0.336957 0.968595 0.605096
Si Si5 0.249225 0.380127 0.181374
Si Si6 0.240202 0.551864 0.477266
Si Si7 0.026585 0.220919 0.266793
Si Si8 0.327694 0.816839 0.410739
O O1 0.692222 0.239395 0.802884
O O2 0.033959 0.908113 0.867118
O O3 0.049533 0.306651 0.035600
O O4 0.000000 0.000000 0.000000
O O5 0.637756 0.417016 0.253287
O O6 0.000000 0.500000 0.500000
O O7 0.889971 0.292215 0.269365
O O8 0.711846 0.754365 0.327991
O O9 0.629936 0.624804 0.815007
O O10 0.333990 0.481415 0.585377
O O11 0.577985 0.813553 0.724443
O O12 0.208984 0.827418 0.524109
O O13 0.289972 0.936838 0.492494
O O14 0.205038 0.642292 0.263140
O O15 0.048835 0.467401 0.327847
O O16 0.432237 0.373407 0.499020
O O17 0.252837 0.029011 0.373696
#
# Coordination Sequence:
#
# PCOD9085987 Si02
#       8
#     2   2   2   2   2   2   2   2
#     4  12  26  41  68  92 126 172 217 265 312 370
#     4  12  23  40  63  97 134 168 206 253 331 385
#     4  10  21  42  65  91 124 167 209 263 314 373
#     4  10  21  37  63  94 133 161 205 268 319 381
#     4  10  22  42  65  96 124 167 219 262 315 369
#     4  10  20  35  62  96 125 159 208 270 323 358
#     4  12  24  38  61  97 130 164 212 257 317 383
#     4  10  19  35  66  92 127 155 210 275 320 362
#
# _framework density 20.515332000000001
#
# number of rings (size 3 to 8) (size 9 to 14) (size 15 to 20)
#    0.000    1.500    5.000    3.000    5.250    0.500 
#    0.000    3.125    0.000    0.000    0.000    0.000 
#    0.000    0.000    0.000    0.000    0.000    0.000 
#
# Total GULP energy -89204.841792 kJ/mol
# GULP energy per Si atom -5575.302612 kJ/mol
# Density = 2.046864 g / cm^3
# Si number density = 20.515332 Si / 1000 Ang^3
#
#
#
# Elastic Constant Matrix: (Units=GPa)
#
#
# Indices 1 2 3 4 5 6 
#
# 1 114.1593 24.4786 50.1447 9.6302 -18.4909 -16.2411
# 2 24.4786 41.0423 1.8561 -1.3169 -11.7694 7.9202
# 3 50.1447 1.8561 60.0783 11.7488 -8.4348 -1.6703
# 4 9.6302 -1.3169 11.7488 17.3774 5.6065 -5.8550
# 5 -18.4909 -11.7694 -8.4348 5.6065 29.9267 3.1822
# 6 -16.2411 7.9202 -1.6703 -5.8550 3.1822 35.4328
#
#
#
# Elastic Compliance Matrix: (Units=1/GPa)
#
#
# Indices 1 2 3 4 5 6 
#
# 1 0.020798 -0.013639 -0.017015 0.002755 0.000882 0.012156
# 2 -0.013639 0.038962 0.013433 -0.008891 0.014162 -0.017069
# 3 -0.017015 0.013433 0.035737 -0.021642 0.010345 -0.013622
# 4 0.002755 -0.008891 -0.021642 0.084500 -0.025692 0.018500
# 5 0.000882 0.014162 0.010345 -0.025692 0.048414 -0.010867
# 6 0.012156 -0.017069 -0.013622 0.018500 -0.010867 0.041000
#
#
# Mechanical properties :
#
#
# Convention : Reuss Voigt Hill
#
# Bulk Modulus (GPa) = 16.37868 40.91540 28.64704
# Shear Modulus (GPa) = 15.42236 25.80075 20.61155
#
# Velocity S-wave (km/s) = 2.74478 3.55016 3.17312
# Velocity P-wave (km/s) = 4.24806 6.06564 5.23631
#
# Compressibility (1/GPa) = 0.06105498
#
# Stress axis : x y z
#
# Youngs Moduli (GPa) = 48.08221 25.66602 27.98205
#
# Poissons Ratio (x) = 0.35006 0.47610
# Poissons Ratio (y) = 0.65580 -0.37587
# Poissons Ratio (z) = 0.81810 -0.34476
#
# Static dielectric constant tensor:
#      x y z
#    x 1.798940 0.009200 0.015280 
#    y 0.009200 1.763490 -0.013880 
#    z 0.015280 -0.013880 1.737810 
# 
# From -- ./inp_files/464313.got.cif
#   From: 2010.05.17/outbox.cif.g08.bks.cpg/sg2_233_cif.got.tgz:464313.got - 2010.06.03 11:33:40.
