data_PCOD9085313
_publ_section_title
;
Structure prediction by ZEFSAII (Michael W. Deem and Ramdas Pophale) SiO2 
 PCOD9085313
Probable space group: P -1
;
_chemical_formula_sum "Si O2"
_cell_formula_units_Z 16
_cell_length_a 19.988272
_cell_length_b 10.957917
_cell_length_c 13.804584
_cell_angle_alpha 148.143888
_cell_angle_beta 147.744943
_cell_angle_gamma 30.269775
_cell_volume 729.506071
_symmetry_space_group_name_H-M "P -1"
_symmetry_group_IT_number 2
_symmetry_cell_setting 'triclinic'
loop_
_space_group_symop_operation_xyz
x,y,z
-x,-y,-z
loop_
_atom_site_type_symbol
_atom_site_label
_atom_site_fract_x
_atom_site_fract_y
_atom_site_fract_z
Si Si1 0.369459 0.802890 0.955231
Si Si2 0.212621 0.975300 0.692663
Si Si3 0.117167 0.851056 0.127168
Si Si4 0.922006 0.877579 0.079582
Si Si5 0.448175 0.220251 0.667620
Si Si6 0.836068 0.635526 0.257977
Si Si7 0.819208 0.695991 0.494366
Si Si8 0.092419 0.617039 0.309282
O O1 0.457772 0.482537 0.829494
O O2 0.315580 0.965711 0.898746
O O3 0.221827 0.875270 0.883180
O O4 0.458858 0.885045 0.190281
O O5 0.233532 0.070505 0.678291
O O6 0.044253 0.200455 0.664785
O O7 0.215610 0.694770 0.518986
O O8 0.020870 0.915596 0.149441
O O9 0.206588 0.002682 0.342929
O O10 0.191179 0.543077 0.974105
O O11 0.000000 0.000000 0.000000
O O12 0.027155 0.717590 0.189836
O O13 0.869357 0.686494 0.838791
O O14 0.283933 0.311027 0.556159
O O15 0.500000 0.000000 0.500000
O O16 0.785679 0.627716 0.300145
O O17 0.011266 0.501709 0.400728
#
# Coordination Sequence:
#
# PCOD9085313 Si02
#       8
#     2   2   2   2   2   2   2   2
#     4  10  26  41  63  92 122 165 213 263 298 374
#     4  10  19  35  59  96 127 160 204 251 323 365
#     4  10  21  32  56  90 127 161 189 245 310 368
#     4  10  19  36  56  95 132 156 201 249 314 376
#     4  11  27  46  65  85 123 171 216 258 302 364
#     4  10  21  38  63  96 129 155 194 261 318 374
#     4  10  24  39  62  93 123 165 207 245 311 378
#     4   9  19  29  58  93 132 161 184 254 321 373
#
# _framework density 21.932649999999999
#
# number of rings (size 3 to 8) (size 9 to 14) (size 15 to 20)
#    0.000    2.000    1.250    0.750   15.750    1.000 
#    0.000    0.625    0.000    1.500    0.000    0.000 
#    0.000    0.000    0.000    0.000    0.000    0.000 
#
# Total GULP energy -89333.867153 kJ/mol
# GULP energy per Si atom -5583.366697 kJ/mol
# Density = 2.188273 g / cm^3
# Si number density = 21.932650 Si / 1000 Ang^3
#
#
#
# Elastic Constant Matrix: (Units=GPa)
#
#
# Indices 1 2 3 4 5 6 
#
# 1 68.7952 4.0346 5.5104 6.4059 -14.6404 5.7862
# 2 4.0346 34.6184 23.2891 5.3849 -6.6510 5.6745
# 3 5.5104 23.2891 85.9701 12.1756 -16.1464 2.7675
# 4 6.4059 5.3849 12.1756 33.3685 7.3114 -4.9401
# 5 -14.6404 -6.6510 -16.1464 7.3114 27.7272 0.9215
# 6 5.7862 5.6745 2.7675 -4.9401 0.9215 27.2663
#
#
#
# Elastic Compliance Matrix: (Units=1/GPa)
#
#
# Indices 1 2 3 4 5 6 
#
# 1 0.018648 0.001257 0.002589 -0.008809 0.014196 -0.006558
# 2 0.001257 0.037774 -0.007788 -0.006356 0.007156 -0.008731
# 3 0.002589 -0.007788 0.017055 -0.008417 0.011736 -0.002581
# 4 -0.008809 -0.006356 -0.008417 0.042591 -0.022724 0.012531
# 5 0.014196 0.007156 0.011736 -0.022724 0.058496 -0.011787
# 6 -0.006558 -0.008731 -0.002581 0.012531 -0.011787 0.042815
#
#
# Mechanical properties :
#
#
# Convention : Reuss Voigt Hill
#
# Bulk Modulus (GPa) = 15.24551 28.33910 21.79230
# Shear Modulus (GPa) = 20.23259 28.10905 24.17082
#
# Velocity S-wave (km/s) = 3.04054 3.58384 3.32331
# Velocity P-wave (km/s) = 4.39234 5.48400 4.96824
#
# Compressibility (1/GPa) = 0.06559310
#
# Stress axis : x y z
#
# Youngs Moduli (GPa) = 53.62596 26.47334 58.63337
#
# Poissons Ratio (x) = -0.03329 -0.15180
# Poissons Ratio (y) = -0.06743 0.45665
# Poissons Ratio (z) = -0.13884 0.20618
#
# Static dielectric constant tensor:
#      x y z
#    x 1.912670 -0.010670 -0.071280 
#    y -0.010670 1.841250 0.046270 
#    z -0.071280 0.046270 1.942250 
# 
# From -- ./inp_files/541186.got.cif
#   From: 2010.05.17/outbox.cif.g08.bks.cpg/sg2_271_cif.got.tgz:541186.got - 2010.06.03 11:33:40.
