data_PCOD9085566
_publ_section_title
;
Structure prediction by ZEFSAII (Michael W. Deem and Ramdas Pophale) SiO2 
 PCOD9085566
Probable space group: P -1
;
_chemical_formula_sum "Si O2"
_cell_formula_units_Z 16
_cell_length_a 12.387711
_cell_length_b 13.695417
_cell_length_c 14.720369
_cell_angle_alpha 30.756165
_cell_angle_beta 139.496611
_cell_angle_gamma 146.791369
_cell_volume 691.797649
_symmetry_space_group_name_H-M "P -1"
_symmetry_group_IT_number 2
_symmetry_cell_setting 'triclinic'
loop_
_space_group_symop_operation_xyz
x,y,z
-x,-y,-z
loop_
_atom_site_type_symbol
_atom_site_label
_atom_site_fract_x
_atom_site_fract_y
_atom_site_fract_z
Si Si1 0.730871 0.253776 0.781235
Si Si2 0.460517 0.688936 0.646150
Si Si3 0.605034 0.871709 0.131362
Si Si4 0.923168 0.546520 0.504405
Si Si5 0.277420 0.096607 0.628316
Si Si6 0.093839 0.590957 0.849940
Si Si7 0.738589 0.624083 0.762175
Si Si8 0.679680 0.210448 0.345508
O O1 0.844433 0.341069 0.689655
O O2 0.514168 0.211826 0.668846
O O3 0.871340 0.463199 0.771515
O O4 0.718655 0.032577 0.989616
O O5 0.277869 0.481715 0.637081
O O6 0.649520 0.686279 0.740002
O O7 0.398570 0.684141 0.715282
O O8 0.515858 0.940280 0.447999
O O9 0.730312 0.862141 0.302337
O O10 0.435600 0.620717 0.192995
O O11 0.500000 0.000000 0.000000
O O12 0.000000 0.500000 0.500000
O O13 0.118754 0.758121 0.507388
O O14 0.203971 0.197525 0.424893
O O15 0.173354 0.830103 0.756519
O O16 0.245677 0.660728 0.805663
O O17 0.101948 0.418212 0.060565
#
# Coordination Sequence:
#
# PCOD9085566 Si02
#       8
#     2   2   2   2   2   2   2   2
#     4  10  20  40  64  88 125 167 198 254 320 357
#     4  10  19  35  61  88 118 163 203 245 306 356
#     4  10  22  42  65  87 123 168 205 255 315 365
#     4   9  17  33  62  89 116 163 205 240 301 367
#     4  11  22  45  63  89 123 164 208 260 308 365
#     4  11  22  39  63  92 128 156 205 259 309 364
#     4  12  22  39  67  92 121 162 213 255 306 370
#     4   9  19  36  59  87 124 159 197 250 304 363
#
# _framework density 23.128149000000001
#
# number of rings (size 3 to 8) (size 9 to 14) (size 15 to 20)
#    0.000    1.750    5.000    0.375    0.000    1.000 
#    4.500    0.625    0.000    2.250    0.000    0.000 
#    0.000    0.000    0.000    0.000    0.000    0.000 
#
# Total GULP energy -89382.035961 kJ/mol
# GULP energy per Si atom -5586.377248 kJ/mol
# Density = 2.307551 g / cm^3
# Si number density = 23.128149 Si / 1000 Ang^3
#
#
#
# Elastic Constant Matrix: (Units=GPa)
#
#
# Indices 1 2 3 4 5 6 
#
# 1 112.5054 16.8294 48.6787 0.4464 -20.4860 2.6679
# 2 16.8294 95.3648 16.9114 10.9200 0.5266 -3.6766
# 3 48.6787 16.9114 91.9811 10.4258 -13.6361 -1.1682
# 4 0.4464 10.9200 10.4258 31.8423 1.1648 -1.3107
# 5 -20.4860 0.5266 -13.6361 1.1648 35.8836 -1.0462
# 6 2.6679 -3.6766 -1.1682 -1.3107 -1.0462 27.9514
#
#
#
# Elastic Compliance Matrix: (Units=1/GPa)
#
#
# Indices 1 2 3 4 5 6 
#
# 1 0.012575 -0.001483 -0.005912 0.002034 0.004849 -0.001366
# 2 -0.001483 0.011394 -0.001094 -0.003425 -0.001278 0.001386
# 3 -0.005912 -0.001094 0.015107 -0.004544 0.002557 0.000934
# 4 0.002034 -0.003425 -0.004544 0.034126 -0.001602 0.000706
# 5 0.004849 -0.001278 0.002557 -0.001602 0.031695 0.000587
# 6 -0.001366 0.001386 0.000934 0.000706 0.000587 0.036183
#
#
# Mechanical properties :
#
#
# Convention : Reuss Voigt Hill
#
# Bulk Modulus (GPa) = 45.24853 51.63225 48.44039
# Shear Modulus (GPa) = 30.22504 33.63091 31.92798
#
# Velocity S-wave (km/s) = 3.61896 3.81742 3.71951
# Velocity P-wave (km/s) = 6.08845 6.46553 6.27982
#
# Compressibility (1/GPa) = 0.02210016
#
# Stress axis : x y z
#
# Youngs Moduli (GPa) = 79.52040 87.76227 66.19289
#
# Poissons Ratio (x) = 0.13017 0.39131
# Poissons Ratio (y) = 0.11795 0.07239
# Poissons Ratio (z) = 0.47009 0.09598
#
# Static dielectric constant tensor:
#      x y z
#    x 1.898370 0.031320 -0.029150 
#    y 0.031320 1.886730 0.045590 
#    z -0.029150 0.045590 1.857660 
# 
# From -- ./inp_files/395825.got.cif
#   From: 2010.05.17/outbox.cif.g08.bks.cpg/sg2_198_cif.got.tgz:395825.got - 2010.06.03 11:33:40.
