data_PCOD9085993
_publ_section_title
;
Structure prediction by ZEFSAII (Michael W. Deem and Ramdas Pophale) SiO2 
 PCOD9085993
Probable space group: P -1
;
_chemical_formula_sum "Si O2"
_cell_formula_units_Z 12
_cell_length_a 10.319781
_cell_length_b 14.841392
_cell_length_c 9.514441
_cell_angle_alpha 132.534613
_cell_angle_beta 138.080128
_cell_angle_gamma 26.787935
_cell_volume 438.436809
_symmetry_space_group_name_H-M "P -1"
_symmetry_group_IT_number 2
_symmetry_cell_setting 'triclinic'
loop_
_space_group_symop_operation_xyz
x,y,z
-x,-y,-z
loop_
_atom_site_type_symbol
_atom_site_label
_atom_site_fract_x
_atom_site_fract_y
_atom_site_fract_z
Si Si1 0.186288 0.427037 0.716652
Si Si2 0.662446 0.092759 0.935192
Si Si3 0.807715 0.318643 0.915235
Si Si4 0.123917 0.800257 0.605342
Si Si5 0.589258 0.611420 0.535498
Si Si6 0.237774 0.159719 0.843505
O O1 0.322461 0.494377 0.922130
O O2 0.879133 0.560183 0.711129
O O3 0.000000 0.500000 0.500000
O O4 0.477921 0.192102 0.743399
O O5 0.359208 0.218094 0.923938
O O6 0.915891 0.865497 0.950737
O O7 0.836110 0.132347 0.158401
O O8 0.927373 0.308315 0.846415
O O9 0.597595 0.311005 0.681143
O O10 0.342231 0.753602 0.611786
O O11 0.252298 0.601482 0.537343
O O12 0.800464 0.927373 0.397267
O O13 0.500000 0.000000 0.000000
#
# Coordination Sequence:
#
# PCOD9085993 Si02
#       6
#     2   2   2   2   2   2
#     4  12  26  43  62  84 121 170 211 250 292 349
#     4  11  22  39  64  91 126 158 198 252 304 363
#     4  10  23  40  61  95 120 156 205 248 307 361
#     4  10  19  35  66  94 122 158 189 245 321 360
#     4  10  21  39  63  92 124 155 199 248 303 370
#     4   9  19  34  61  98 126 153 189 245 311 371
#
# _framework density 27.369966999999999
#
# number of rings (size 3 to 8) (size 9 to 14) (size 15 to 20)
#    0.000    1.667    3.333    1.000    0.000   11.333 
#    0.000    0.833    0.000    0.000    0.000    0.000 
#    0.000    0.000    0.000    0.000    0.000    0.000 
#
# Total GULP energy -67082.627585 kJ/mol
# GULP energy per Si atom -5590.218965 kJ/mol
# Density = 2.730767 g / cm^3
# Si number density = 27.369967 Si / 1000 Ang^3
#
#
#
# Elastic Constant Matrix: (Units=GPa)
#
#
# Indices 1 2 3 4 5 6 
#
# 1 70.9242 4.6446 26.3322 -10.4058 21.7384 2.6397
# 2 4.6446 80.0073 43.5698 -42.1279 -10.0657 16.6079
# 3 26.3322 43.5698 156.4774 -40.6683 11.1963 12.6720
# 4 -10.4058 -42.1279 -40.6683 59.8562 7.5895 -1.9766
# 5 21.7384 -10.0657 11.1963 7.5895 53.8967 -6.6558
# 6 2.6397 16.6079 12.6720 -1.9766 -6.6558 28.3789
#
#
#
# Elastic Compliance Matrix: (Units=1/GPa)
#
#
# Indices 1 2 3 4 5 6 
#
# 1 0.017566 0.001738 -0.001587 0.004027 -0.007418 -0.003401
# 2 0.001738 0.024323 -0.002077 0.015533 0.000573 -0.012253
# 3 -0.001587 -0.002077 0.008817 0.004483 -0.002564 -0.002863
# 4 0.004027 0.015533 0.004483 0.031725 -0.005422 -0.010529
# 5 -0.007418 0.000573 -0.002564 -0.005422 0.023776 0.006698
# 6 -0.003401 -0.012253 -0.002863 -0.010529 0.006698 0.044840
#
#
# Mechanical properties :
#
#
# Convention : Reuss Voigt Hill
#
# Bulk Modulus (GPa) = 21.34323 50.72247 36.03285
# Shear Modulus (GPa) = 29.32247 43.95051 36.63649
#
# Velocity S-wave (km/s) = 3.27668 4.01158 3.66261
# Velocity P-wave (km/s) = 4.70431 6.32688 5.57494
#
# Compressibility (1/GPa) = 0.04685326
#
# Stress axis : x y z
#
# Youngs Moduli (GPa) = 56.92827 41.11290 113.42314
#
# Poissons Ratio (x) = -0.07144 0.18002
# Poissons Ratio (y) = -0.09892 0.23555
# Poissons Ratio (z) = 0.09035 0.08538
#
# Static dielectric constant tensor:
#      x y z
#    x 2.282400 -0.038080 -0.042670 
#    y -0.038080 2.128270 -0.010370 
#    z -0.042670 -0.010370 2.107140 
# 
# From -- ./inp_files/25667.got.cif
#   From: 2010.05.17/outbox.cif.g08.bks.cpg/sg2_13_cif.got.tgz:25667.got - 2010.06.03 11:33:40.
