data_PCOD9085020
_publ_section_title
;
Structure prediction by ZEFSAII (Michael W. Deem and Ramdas Pophale) SiO2 
 PCOD9085020
Probable space group: P -1
;
_chemical_formula_sum "Si O2"
_cell_formula_units_Z 16
_cell_length_a 18.632568
_cell_length_b 9.399414
_cell_length_c 12.955451
_cell_angle_alpha 104.473042
_cell_angle_beta 37.378361
_cell_angle_gamma 131.051406
_cell_volume 835.621252
_symmetry_space_group_name_H-M "P -1"
_symmetry_group_IT_number 2
_symmetry_cell_setting 'triclinic'
loop_
_space_group_symop_operation_xyz
x,y,z
-x,-y,-z
loop_
_atom_site_type_symbol
_atom_site_label
_atom_site_fract_x
_atom_site_fract_y
_atom_site_fract_z
Si Si1 0.702818 0.122632 0.770986
Si Si2 0.076555 0.383037 0.116787
Si Si3 0.562756 0.405022 0.310395
Si Si4 0.785606 0.939656 0.499412
Si Si5 0.043537 0.717214 0.992588
Si Si6 0.966955 0.556113 0.389877
Si Si7 0.432532 0.252961 0.660622
Si Si8 0.206098 0.391938 0.557114
O O1 0.823623 0.344977 0.597229
O O2 0.834417 0.227759 0.740150
O O3 0.697183 0.960857 0.689755
O O4 0.500000 0.000000 0.000000
O O5 0.010284 0.275842 0.058520
O O6 0.008879 0.480309 0.237529
O O7 0.980923 0.193588 0.280401
O O8 0.299250 0.576107 0.897582
O O9 0.356258 0.196977 0.460254
O O10 0.545924 0.353162 0.440993
O O11 0.635151 0.641391 0.247796
O O12 0.810270 0.796792 0.477357
O O13 0.261130 0.972930 0.808237
O O14 0.000000 0.500000 0.000000
O O15 0.922713 0.679136 0.212649
O O16 0.865881 0.593862 0.458458
O O17 0.579066 0.371698 0.607862
#
# Coordination Sequence:
#
# PCOD9085020 Si02
#       8
#     2   2   2   2   2   2   2   2
#     4  10  22  44  68  87 111 157 202 255 313 367
#     4  11  20  37  59  87 121 168 203 245 290 360
#     4  10  19  35  58  84 118 164 206 246 284 350
#     4  10  22  38  64  90 120 159 208 249 304 354
#     4  12  23  37  55  89 130 170 203 235 300 359
#     4  10  23  41  61  90 121 150 206 253 304 363
#     4  10  22  35  54  85 124 165 205 240 291 350
#     4  11  23  40  58  93 129 158 198 255 297 359
#
# _framework density 19.14743
#
# number of rings (size 3 to 8) (size 9 to 14) (size 15 to 20)
#    0.000    1.500    3.750    1.500    0.000    3.000 
#    4.500    0.625    0.000    0.000    0.000    0.000 
#    0.000    0.000    0.000    0.000    0.000    0.000 
#
# Total GULP energy -89306.878758 kJ/mol
# GULP energy per Si atom -5581.679922 kJ/mol
# Density = 1.910385 g / cm^3
# Si number density = 19.147430 Si / 1000 Ang^3
#
#
#
# Elastic Constant Matrix: (Units=GPa)
#
#
# Indices 1 2 3 4 5 6 
#
# 1 122.5856 36.9278 26.1653 -0.7972 -9.5807 -3.4644
# 2 36.9278 92.9746 31.9730 1.9061 -3.3847 -8.8745
# 3 26.1653 31.9730 75.4476 7.9717 -12.6082 -14.7309
# 4 -0.7972 1.9061 7.9717 26.1340 5.1088 -0.2191
# 5 -9.5807 -3.3847 -12.6082 5.1088 18.6631 8.5628
# 6 -3.4644 -8.8745 -14.7309 -0.2191 8.5628 22.5370
#
#
#
# Elastic Compliance Matrix: (Units=1/GPa)
#
#
# Indices 1 2 3 4 5 6 
#
# 1 0.009828 -0.003389 -0.001778 0.000209 0.004388 -0.002652
# 2 -0.003389 0.013942 -0.004946 0.001296 -0.004493 0.003456
# 3 -0.001778 -0.004946 0.019874 -0.007794 0.010710 0.006624
# 4 0.000209 0.001296 -0.007794 0.044157 -0.018311 0.002834
# 5 0.004388 -0.004493 0.010710 -0.018311 0.078286 -0.024016
# 6 -0.002652 0.003456 0.006624 0.002834 -0.024016 0.058807
#
#
# Mechanical properties :
#
#
# Convention : Reuss Voigt Hill
#
# Bulk Modulus (GPa) = 42.70588 53.46003 48.08295
# Shear Modulus (GPa) = 19.76859 26.52960 23.14910
#
# Velocity S-wave (km/s) = 3.21665 3.72633 3.48083
# Velocity P-wave (km/s) = 6.01231 6.81871 6.42817
#
# Compressibility (1/GPa) = 0.02341598
#
# Stress axis : x y z
#
# Youngs Moduli (GPa) = 101.75478 71.72332 50.31795
#
# Poissons Ratio (x) = 0.24310 0.08949
# Poissons Ratio (y) = 0.34489 0.24887
# Poissons Ratio (z) = 0.18096 0.35475
#
# Static dielectric constant tensor:
#      x y z
#    x 1.668370 0.003540 -0.002040 
#    y 0.003540 1.684360 0.003000 
#    z -0.002040 0.003000 1.649980 
# 
# From -- ./inp_files/49414.got.cif
#   From: 2010.05.17/outbox.cif.g08.bks.cpg/sg2_25_cif.got.tgz:49414.got - 2010.06.03 11:33:40.
