data_PCOD9085015
_publ_section_title
;
Structure prediction by ZEFSAII (Michael W. Deem and Ramdas Pophale) SiO2 
 PCOD9085015
Probable space group: P -1
;
_chemical_formula_sum "Si O2"
_cell_formula_units_Z 16
_cell_length_a 19.884704
_cell_length_b 6.647875
_cell_length_c 6.493708
_cell_angle_alpha 65.495469
_cell_angle_beta 111.013065
_cell_angle_gamma 102.782554
_cell_volume 726.485391
_symmetry_space_group_name_H-M "P -1"
_symmetry_group_IT_number 2
_symmetry_cell_setting 'triclinic'
loop_
_space_group_symop_operation_xyz
x,y,z
-x,-y,-z
loop_
_atom_site_type_symbol
_atom_site_label
_atom_site_fract_x
_atom_site_fract_y
_atom_site_fract_z
Si Si1 0.208345 0.757886 0.081937
Si Si2 0.165166 0.108311 0.583791
Si Si3 0.034926 0.143645 0.667938
Si Si4 0.904152 0.137011 0.773276
Si Si5 0.296401 0.364059 0.439578
Si Si6 0.445190 0.465103 0.140040
Si Si7 0.570177 0.296608 0.594131
Si Si8 0.660947 0.907179 0.769721
O O1 0.171150 0.867721 0.800826
O O2 0.153695 0.727604 0.228477
O O3 0.247970 0.534763 0.191521
O O4 0.269523 0.952384 0.126148
O O5 0.109223 0.239517 0.601782
O O6 0.241895 0.249623 0.594094
O O7 0.135518 0.044454 0.349486
O O8 0.969593 0.258616 0.658381
O O9 0.000000 0.000000 0.500000
O O10 0.061160 0.989665 0.945324
O O11 0.370192 0.513455 0.508215
O O12 0.319744 0.168653 0.404059
O O13 0.490917 0.331453 0.411358
O O14 0.427974 0.676771 0.166795
O O15 0.371976 0.320006 0.064562
O O16 0.500000 0.500000 0.000000
O O17 0.597999 0.070119 0.648143
#
# Coordination Sequence:
#
# PCOD9085015 Si02
#       8
#     2   2   2   2   2   2   2   2
#     4  10  21  37  56  85 117 153 198 240 289 349
#     4  10  19  35  58  84 115 159 191 238 297 337
#     4   8  16  30  59  88 113 154 196 234 293 345
#     4   9  16  34  57  84 119 153 189 245 292 334
#     4  10  21  39  57  84 120 152 197 242 283 348
#     4  10  21  37  60  87 110 148 194 234 286 351
#     4   9  21  40  57  82 119 148 187 242 286 338
#     4  10  20  40  57  80 119 153 186 243 292 332
#
# _framework density 22.023845000000001
#
# number of rings (size 3 to 8) (size 9 to 14) (size 15 to 20)
#    0.000    2.500    1.250    0.375    1.750    0.500 
#    9.000    0.625    0.000   25.500    0.000    0.000 
#    0.000    0.000    0.000    0.000    0.000    0.000 
#
# Total GULP energy -89119.428001 kJ/mol
# GULP energy per Si atom -5569.964250 kJ/mol
# Density = 2.197372 g / cm^3
# Si number density = 22.023845 Si / 1000 Ang^3
#
#
#
# Elastic Constant Matrix: (Units=GPa)
#
#
# Indices 1 2 3 4 5 6 
#
# 1 140.5035 30.2302 19.6640 7.3110 -34.8650 -7.1561
# 2 30.2302 73.1203 26.4736 10.1248 -7.6908 -12.4290
# 3 19.6640 26.4736 71.9552 8.5903 -8.8150 0.8386
# 4 7.3110 10.1248 8.5903 14.7877 0.5730 -3.6620
# 5 -34.8650 -7.6908 -8.8150 0.5730 44.3020 -6.2636
# 6 -7.1561 -12.4290 0.8386 -3.6620 -6.2636 32.4862
#
#
#
# Elastic Compliance Matrix: (Units=1/GPa)
#
#
# Indices 1 2 3 4 5 6 
#
# 1 0.009845 -0.002246 -0.000646 -0.002631 0.007617 0.002498
# 2 -0.002246 0.018736 -0.005330 -0.007120 0.001404 0.006279
# 3 -0.000646 -0.005330 0.017078 -0.006776 0.001617 -0.003074
# 4 -0.002631 -0.007120 -0.006776 0.079125 -0.004996 0.004827
# 5 0.007617 0.001404 0.001617 -0.004996 0.030249 0.007442
# 6 0.002498 0.006279 -0.003074 0.004827 0.007442 0.035793
#
#
# Mechanical properties :
#
#
# Convention : Reuss Voigt Hill
#
# Bulk Modulus (GPa) = 34.23101 48.70161 41.46631
# Shear Modulus (GPa) = 23.04053 32.26260 27.65157
#
# Velocity S-wave (km/s) = 3.23795 3.83155 3.54719
# Velocity P-wave (km/s) = 5.43650 6.46030 5.97039
#
# Compressibility (1/GPa) = 0.02921328
#
# Stress axis : x y z
#
# Youngs Moduli (GPa) = 101.57307 53.37428 58.55442
#
# Poissons Ratio (x) = 0.11990 0.03782
# Poissons Ratio (y) = 0.22818 0.31212
# Poissons Ratio (z) = 0.06561 0.28451
#
# Static dielectric constant tensor:
#      x y z
#    x 1.864880 -0.005360 -0.004980 
#    y -0.005360 1.792860 -0.008200 
#    z -0.004980 -0.008200 1.829010 
# 
# From -- ./inp_files/12712.got.cif
#   From: 2010.05.17/outbox.cif.g08.bks.cpg/sg2_7_cif.got.tgz:12712.got - 2010.06.03 11:33:40.
