data_PCOD9085741
_publ_section_title
;
Structure prediction by ZEFSAII (Michael W. Deem and Ramdas Pophale) SiO2 
 PCOD9085741
Probable space group: P -1
;
_chemical_formula_sum "Si O2"
_cell_formula_units_Z 16
_cell_length_a 15.158914
_cell_length_b 14.706992
_cell_length_c 8.880213
_cell_angle_alpha 121.208042
_cell_angle_beta 36.958197
_cell_angle_gamma 142.329258
_cell_volume 691.297307
_symmetry_space_group_name_H-M "P -1"
_symmetry_group_IT_number 2
_symmetry_cell_setting 'triclinic'
loop_
_space_group_symop_operation_xyz
x,y,z
-x,-y,-z
loop_
_atom_site_type_symbol
_atom_site_label
_atom_site_fract_x
_atom_site_fract_y
_atom_site_fract_z
Si Si1 0.882927 0.305056 0.084360
Si Si2 0.320378 0.520170 0.117614
Si Si3 0.277582 0.888691 0.123971
Si Si4 0.852786 0.232527 0.490013
Si Si5 0.273673 0.548574 0.548944
Si Si6 0.378658 0.362778 0.674277
Si Si7 0.417843 0.137048 0.948946
Si Si8 0.885165 0.094974 0.089785
O O1 0.837349 0.396797 0.286030
O O2 0.868382 0.204805 0.137046
O O3 0.708504 0.187933 0.094644
O O4 0.100052 0.403824 0.775595
O O5 0.324418 0.524572 0.297536
O O6 0.496848 0.701926 0.986311
O O7 0.075134 0.412562 0.302427
O O8 0.363780 0.433675 0.899320
O O9 0.121151 0.770219 0.367999
O O10 0.500000 0.000000 0.000000
O O11 0.258181 0.992965 0.160727
O O12 0.637758 0.182614 0.693610
O O13 0.843816 0.107556 0.328414
O O14 0.482089 0.660023 0.468890
O O15 0.500000 0.500000 0.500000
O O16 0.136811 0.198468 0.817414
O O17 0.292154 0.065846 0.899067
#
# Coordination Sequence:
#
# PCOD9085741 Si02
#       8
#     2   2   2   2   2   2   2   2
#     4  10  20  37  64  93 122 158 209 266 312 361
#     4  11  23  39  64  95 125 167 215 261 311 379
#     4   9  19  35  57  91 130 163 197 257 324 371
#     4  10  19  35  62  94 127 164 214 263 309 374
#     4  11  22  39  64  92 123 162 214 262 307 368
#     4  11  24  43  64  89 130 173 213 258 317 380
#     4  10  21  37  61  94 133 160 209 261 324 372
#     4  10  21  40  64  91 127 172 207 257 323 376
#
# _framework density 23.14489
#
# number of rings (size 3 to 8) (size 9 to 14) (size 15 to 20)
#    0.000    1.750    2.500    1.875    0.000    5.000 
#    0.000    1.250    2.750    0.000    0.000    0.000 
#    0.000    0.000    0.000    0.000    0.000    0.000 
#
# Total GULP energy -89180.686781 kJ/mol
# GULP energy per Si atom -5573.792924 kJ/mol
# Density = 2.309221 g / cm^3
# Si number density = 23.144890 Si / 1000 Ang^3
#
#
#
# Elastic Constant Matrix: (Units=GPa)
#
#
# Indices 1 2 3 4 5 6 
#
# 1 63.5964 0.6562 15.3861 2.8175 0.6423 27.4060
# 2 0.6562 83.5539 -5.5532 -2.6469 -1.8232 17.1853
# 3 15.3861 -5.5532 39.7526 1.2237 10.5202 1.9441
# 4 2.8175 -2.6469 1.2237 14.5164 9.1988 0.7996
# 5 0.6423 -1.8232 10.5202 9.1988 25.7465 -7.8341
# 6 27.4060 17.1853 1.9441 0.7996 -7.8341 34.3153
#
#
#
# Elastic Compliance Matrix: (Units=1/GPa)
#
#
# Indices 1 2 3 4 5 6 
#
# 1 0.028854 0.004530 -0.007849 0.000754 -0.005409 -0.026121
# 2 0.004530 0.014759 0.002350 0.006171 -0.006090 -0.012677
# 3 -0.007849 0.002350 0.032697 0.009870 -0.016774 -0.000820
# 4 0.000754 0.006171 0.009870 0.097469 -0.043442 -0.016441
# 5 -0.005409 -0.006090 -0.016774 -0.043442 0.068518 0.024975
# 6 -0.026121 -0.012677 -0.000820 -0.016441 0.024975 0.062483
#
#
# Mechanical properties :
#
#
# Convention : Reuss Voigt Hill
#
# Bulk Modulus (GPa) = 13.44593 23.09792 18.27192
# Shear Modulus (GPa) = 15.08253 26.67656 20.87954
#
# Velocity S-wave (km/s) = 2.55553 3.39866 3.00680
# Velocity P-wave (km/s) = 3.81178 5.04010 4.46835
#
# Compressibility (1/GPa) = 0.07437197
#
# Stress axis : x y z
#
# Youngs Moduli (GPa) = 34.65713 67.75589 30.58356
#
# Poissons Ratio (x) = -0.30694 0.24006
# Poissons Ratio (y) = -0.15700 -0.07187
# Poissons Ratio (z) = 0.27204 -0.15923
#
# Static dielectric constant tensor:
#      x y z
#    x 1.936830 -0.004110 0.071830 
#    y -0.004110 1.943220 -0.052450 
#    z 0.071830 -0.052450 2.053050 
# 
# From -- ./inp_files/313782.got.cif
#   From: 2010.05.17/outbox.cif.g08.bks.cpg/sg2_157_cif.got.tgz:313782.got - 2010.06.03 11:33:40.
