data_PCOD9085345
_publ_section_title
;
Structure prediction by ZEFSAII (Michael W. Deem and Ramdas Pophale) SiO2 
 PCOD9085345
Probable space group: P -1
;
_chemical_formula_sum "Si O2"
_cell_formula_units_Z 16
_cell_length_a 24.577089
_cell_length_b 8.364530
_cell_length_c 14.378407
_cell_angle_alpha 55.816978
_cell_angle_beta 159.443035
_cell_angle_gamma 123.214953
_cell_volume 856.207508
_symmetry_space_group_name_H-M "P -1"
_symmetry_group_IT_number 2
_symmetry_cell_setting 'triclinic'
loop_
_space_group_symop_operation_xyz
x,y,z
-x,-y,-z
loop_
_atom_site_type_symbol
_atom_site_label
_atom_site_fract_x
_atom_site_fract_y
_atom_site_fract_z
Si Si1 0.842525 0.552375 0.181779
Si Si2 0.392608 0.177267 0.766874
Si Si3 0.112201 0.253831 0.007333
Si Si4 0.554901 0.584120 0.842278
Si Si5 0.546658 0.820867 0.937214
Si Si6 0.219973 0.940611 0.414432
Si Si7 0.395210 0.746088 0.184974
Si Si8 0.647815 0.437570 0.636837
O O1 0.864173 0.695634 0.080532
O O2 0.000000 0.500000 0.500000
O O3 0.714041 0.617913 0.027738
O O4 0.761847 0.354388 0.075497
O O5 0.501290 0.358448 0.845120
O O6 0.258792 0.101030 0.505877
O O7 0.353187 0.216853 0.798228
O O8 0.500000 0.000000 0.000000
O O9 0.932879 0.194189 0.761573
O O10 0.187057 0.442699 0.121681
O O11 0.195397 0.067875 0.240851
O O12 0.571319 0.683998 0.935148
O O13 0.409959 0.644767 0.527707
O O14 0.365143 0.810875 0.678342
O O15 0.575953 0.042115 0.878286
O O16 0.528537 0.602848 0.417877
O O17 0.379316 0.729713 0.275536
#
# Coordination Sequence:
#
# PCOD9085345 Si02
#       8
#     2   2   2   2   2   2   2   2
#     4  10  22  36  60  82 111 146 195 233 275 332
#     4  10  20  37  61  81 108 151 195 232 268 331
#     4  10  19  35  60  85 107 145 199 230 268 325
#     4  11  22  37  57  87 115 146 184 236 288 332
#     4  11  22  35  58  87 118 145 185 232 291 334
#     4  10  20  35  61  83 111 146 195 230 272 334
#     4   9  18  34  57  81 107 148 192 230 268 328
#     4   9  16  35  57  79 111 143 194 230 261 330
#
# _framework density 18.687058
#
# number of rings (size 3 to 8) (size 9 to 14) (size 15 to 20)
#    0.000    2.000    2.500    3.375    5.250    0.500 
#    0.000    1.250    0.000    0.000    0.000    0.000 
#    0.000    0.000    0.000    0.000    0.000    0.000 
#
# Total GULP energy -89149.745739 kJ/mol
# GULP energy per Si atom -5571.859109 kJ/mol
# Density = 1.864453 g / cm^3
# Si number density = 18.687058 Si / 1000 Ang^3
#
#
#
# Elastic Constant Matrix: (Units=GPa)
#
#
# Indices 1 2 3 4 5 6 
#
# 1 115.5696 33.3292 49.7624 12.7363 -28.5277 7.7066
# 2 33.3292 40.1349 30.2163 14.4349 -3.1150 21.1675
# 3 49.7624 30.2163 96.9503 19.7043 -15.8156 11.7150
# 4 12.7363 14.4349 19.7043 20.2236 4.2691 -0.0255
# 5 -28.5277 -3.1150 -15.8156 4.2691 28.7805 3.7989
# 6 7.7066 21.1675 11.7150 -0.0255 3.7989 31.9892
#
#
#
# Elastic Compliance Matrix: (Units=1/GPa)
#
#
# Indices 1 2 3 4 5 6 
#
# 1 0.016487 -0.011006 -0.002439 -0.003088 0.013932 0.002547
# 2 -0.011006 0.084228 -0.000554 -0.055532 0.013335 -0.054508
# 3 -0.002439 -0.000554 0.018031 -0.017971 0.011017 -0.006972
# 4 -0.003088 -0.055532 -0.017971 0.117657 -0.042901 0.049260
# 5 0.013932 0.013335 0.011017 -0.042901 0.065589 -0.024038
# 6 0.002547 -0.054508 -0.006972 0.049260 -0.024038 0.072162
#
#
# Mechanical properties :
#
#
# Convention : Reuss Voigt Hill
#
# Bulk Modulus (GPa) = 11.01956 53.25229 32.13593
# Shear Modulus (GPa) = 11.56330 25.48846 18.52588
#
# Velocity S-wave (km/s) = 2.49024 3.69719 3.15203
# Velocity P-wave (km/s) = 3.76538 6.83991 5.52098
#
# Compressibility (1/GPa) = 0.09074775
#
# Stress axis : x y z
#
# Youngs Moduli (GPa) = 60.65513 11.87250 55.45877
#
# Poissons Ratio (x) = 0.13067 0.13529
# Poissons Ratio (y) = 0.66756 0.03072
# Poissons Ratio (z) = 0.14797 0.00658
#
# Static dielectric constant tensor:
#      x y z
#    x 1.709770 0.014460 -0.053880 
#    y 0.014460 1.640600 0.007140 
#    z -0.053880 0.007140 1.687630 
# 
# From -- ./inp_files/269550.got.cif
#   From: 2010.05.17/outbox.cif.g08.bks.cpg/sg2_135_cif.got.tgz:269550.got - 2010.06.03 11:33:40.
