data_PCOD9085491
_publ_section_title
;
Structure prediction by ZEFSAII (Michael W. Deem and Ramdas Pophale) SiO2 
 PCOD9085491
Probable space group: P -1
;
_chemical_formula_sum "Si O2"
_cell_formula_units_Z 14
_cell_length_a 13.028048
_cell_length_b 9.850731
_cell_length_c 7.229821
_cell_angle_alpha 62.861093
_cell_angle_beta 62.211200
_cell_angle_gamma 50.039417
_cell_volume 612.127474
_symmetry_space_group_name_H-M "P -1"
_symmetry_group_IT_number 2
_symmetry_cell_setting 'triclinic'
loop_
_space_group_symop_operation_xyz
x,y,z
-x,-y,-z
loop_
_atom_site_type_symbol
_atom_site_label
_atom_site_fract_x
_atom_site_fract_y
_atom_site_fract_z
Si Si1 0.481007 0.364096 0.339628
Si Si2 0.261921 0.092298 0.032981
Si Si3 0.758181 0.686563 0.427388
Si Si4 0.779618 0.011419 0.232848
Si Si5 0.576748 0.277284 0.720370
Si Si6 0.123046 0.858922 0.615775
Si Si7 0.010160 0.628649 0.767433
O O1 0.356183 0.348586 0.382232
O O2 0.626368 0.192640 0.258321
O O3 0.482863 0.345568 0.574457
O O4 0.468304 0.555591 0.207391
O O5 0.397924 0.907225 0.100420
O O6 0.186329 0.033107 0.984278
O O7 0.148968 0.203732 0.216480
O O8 0.285336 0.221503 0.801008
O O9 0.903731 0.494840 0.401847
O O10 0.771720 0.841553 0.416026
O O11 0.875289 0.049244 0.252117
O O12 0.729651 0.213465 0.558169
O O13 0.101932 0.693898 0.744762
O O14 0.000000 0.000000 0.500000
O O15 0.000000 0.500000 0.000000
#
# Coordination Sequence:
#
# PCOD9085491 Si02
#       7
#     2   2   2   2   2   2   2
#     4  10  19  35  61  77 116 152 186 229 273 330
#     4   9  20  36  56  82 118 141 189 232 272 335
#     4   9  19  37  59  81 114 152 180 233 278 325
#     4   9  22  36  58  85 112 147 187 232 279 325
#     4  10  20  34  56  90 105 150 198 220 273 338
#     4  11  20  37  63  79 110 151 189 230 278 337
#     4  10  19  36  60  81 112 147 184 226 285 332
#
# _framework density 22.871051000000001
#
# number of rings (size 3 to 8) (size 9 to 14) (size 15 to 20)
#    0.857    1.429    2.857    0.429    0.000    1.714 
#    0.000    0.714    3.143    0.000    0.000    0.000 
#    0.000    0.000    0.000    0.000    0.000    0.000 
#
# Total GULP energy -78065.201348 kJ/mol
# GULP energy per Si atom -5576.085811 kJ/mol
# Density = 2.281900 g / cm^3
# Si number density = 22.871051 Si / 1000 Ang^3
#
#
#
# Elastic Constant Matrix: (Units=GPa)
#
#
# Indices 1 2 3 4 5 6 
#
# 1 62.8888 30.0087 17.0408 -6.7814 -1.8393 10.6541
# 2 30.0087 153.6672 12.7207 -3.3749 -1.0036 -1.0657
# 3 17.0408 12.7207 33.3733 -2.1832 0.8799 0.7964
# 4 -6.7814 -3.3749 -2.1832 21.0436 5.0098 -12.6689
# 5 -1.8393 -1.0036 0.8799 5.0098 30.0211 -5.6731
# 6 10.6541 -1.0657 0.7964 -12.6689 -5.6731 21.9108
#
#
#
# Elastic Compliance Matrix: (Units=1/GPa)
#
#
# Indices 1 2 3 4 5 6 
#
# 1 0.022020 -0.003608 -0.009666 -0.001212 -0.000429 -0.011344
# 2 -0.003608 0.007354 -0.000931 0.001813 0.000371 0.003290
# 3 -0.009666 -0.000931 0.035418 0.003905 -0.001314 0.005285
# 4 -0.001212 0.001813 0.003905 0.074430 -0.004537 0.042396
# 5 -0.000429 0.000371 -0.001314 -0.004537 0.035379 0.006811
# 6 -0.011344 0.003290 0.005285 0.042396 0.006811 0.077401
#
#
# Mechanical properties :
#
#
# Convention : Reuss Voigt Hill
#
# Bulk Modulus (GPa) = 27.48479 41.05221 34.26850
# Shear Modulus (GPa) = 17.09173 27.27238 22.18206
#
# Velocity S-wave (km/s) = 2.73666 3.45692 3.11766
# Velocity P-wave (km/s) = 4.69352 5.82427 5.28920
#
# Compressibility (1/GPa) = 0.03638376
#
# Stress axis : x y z
#
# Youngs Moduli (GPa) = 45.41247 135.97553 28.23401
#
# Poissons Ratio (x) = 0.49062 0.27291
# Poissons Ratio (y) = 0.16386 0.02627
# Poissons Ratio (z) = 0.43895 0.12653
#
# Static dielectric constant tensor:
#      x y z
#    x 1.822040 0.019860 0.034700 
#    y 0.019860 1.976500 -0.020880 
#    z 0.034700 -0.020880 1.881790 
# 
# From -- ./inp_files/294794.got.cif
#   From: 2010.05.17/outbox.cif.g08.bks.cpg/sg2_148_cif.got.tgz:294794.got - 2010.06.03 11:33:40.
