data_PCOD9085960
_publ_section_title
;
Structure prediction by ZEFSAII (Michael W. Deem and Ramdas Pophale) SiO2 
 PCOD9085960
Probable space group: P -1
;
_chemical_formula_sum "Si O2"
_cell_formula_units_Z 16
_cell_length_a 21.447503
_cell_length_b 17.098048
_cell_length_c 11.369215
_cell_angle_alpha 157.658799
_cell_angle_beta 152.509140
_cell_angle_gamma 27.742899
_cell_volume 680.259622
_symmetry_space_group_name_H-M "P -1"
_symmetry_group_IT_number 2
_symmetry_cell_setting 'triclinic'
loop_
_space_group_symop_operation_xyz
x,y,z
-x,-y,-z
loop_
_atom_site_type_symbol
_atom_site_label
_atom_site_fract_x
_atom_site_fract_y
_atom_site_fract_z
Si Si1 0.035869 0.911607 0.570731
Si Si2 0.087493 0.330267 0.252227
Si Si3 0.296632 0.457341 0.398930
Si Si4 0.162756 0.964904 0.190578
Si Si5 0.691406 0.524906 0.295450
Si Si6 0.736713 0.006067 0.341717
Si Si7 0.203180 0.391037 0.765796
Si Si8 0.556984 0.491220 0.764230
O O1 0.138356 0.655677 0.405941
O O2 0.883548 0.967534 0.460962
O O3 0.000000 0.000000 0.500000
O O4 0.114700 0.077540 0.975561
O O5 0.190631 0.356585 0.358912
O O6 0.131198 0.461812 0.614324
O O7 0.912745 0.448543 0.113676
O O8 0.373150 0.412113 0.594505
O O9 0.390181 0.537563 0.574512
O O10 0.296346 0.216284 0.032200
O O11 0.235922 0.958080 0.427711
O O12 0.193772 0.157171 0.445575
O O13 0.224237 0.734820 0.909084
O O14 0.000000 0.000000 0.000000
O O15 0.606990 0.538179 0.048176
O O16 0.615649 0.249945 0.461289
O O17 0.365184 0.382748 0.012033
#
# Coordination Sequence:
#
# PCOD9085960 Si02
#       8
#     2   2   2   2   2   2   2   2
#     4  12  26  41  62  94 130 170 215 268 324 380
#     4  10  19  36  62  93 123 162 211 268 313 371
#     4  12  25  43  64  95 135 172 212 267 330 381
#     4  11  20  35  65  98 124 161 222 270 313 375
#     4  10  21  39  66  98 129 167 213 267 324 380
#     4  11  24  42  67  94 126 172 221 266 317 386
#     4  10  19  35  65  93 125 162 212 265 315 370
#     4  10  23  44  66  96 132 171 213 262 322 397
#
# _framework density 23.520433000000001
#
# number of rings (size 3 to 8) (size 9 to 14) (size 15 to 20)
#    0.000    1.250    2.500    4.125    1.750    0.000 
#    0.000   13.125    0.000    0.000    0.000    0.000 
#    0.000    0.000    0.000    0.000    0.000    0.000 
#
# Total GULP energy -89169.133835 kJ/mol
# GULP energy per Si atom -5573.070865 kJ/mol
# Density = 2.346690 g / cm^3
# Si number density = 23.520433 Si / 1000 Ang^3
#
#
#
# Elastic Constant Matrix: (Units=GPa)
#
#
# Indices 1 2 3 4 5 6 
#
# 1 72.0354 -7.5821 -14.4387 -40.3415 24.7604 -22.0277
# 2 -7.5821 9.1514 -14.8368 -18.1208 6.0995 -10.1983
# 3 -14.4387 -14.8368 62.9002 -21.4274 15.6539 -12.4663
# 4 -40.3415 -18.1208 -21.4274 -0.6061 -1.1936 2.4182
# 5 24.7604 6.0995 15.6539 -1.1936 44.2270 -2.4184
# 6 -22.0277 -10.1983 -12.4663 2.4182 -2.4184 29.4031
#
#
#
# Elastic Compliance Matrix: (Units=1/GPa)
#
#
# Indices 1 2 3 4 5 6 
#
# 1 0.008012 -0.013254 -0.003512 -0.007958 -0.001606 0.000439
# 2 -0.013254 0.035963 -0.004476 -0.028491 0.003455 0.003273
# 3 -0.003512 -0.004476 0.010929 -0.010939 -0.001513 0.001225
# 4 -0.007958 -0.028491 -0.010939 0.013380 0.011489 -0.020637
# 5 -0.001606 0.003455 -0.001513 0.011489 0.023899 0.000375
# 6 0.000439 0.003273 0.001225 -0.020637 0.000375 0.037722
#
#
# Mechanical properties :
#
#
# Convention : Reuss Voigt Hill
#
# Bulk Modulus (GPa) = 80.51847 7.81909 44.16878
# Shear Modulus (GPa) = 28.32376 26.66777 27.49576
#
# Velocity S-wave (km/s) = 3.47395 3.37087 3.42280
# Velocity P-wave (km/s) = 7.09921 4.29906 5.86859
#
# Compressibility (1/GPa) = 0.01241951
#
# Stress axis : x y z
#
# Youngs Moduli (GPa) = 124.80831 27.80625 91.49799
#
# Poissons Ratio (x) = 0.36855 0.32132
# Poissons Ratio (y) = 1.65425 0.40959
# Poissons Ratio (z) = 0.43829 0.12447
#
# Static dielectric constant tensor:
#      x y z
#    x 2.046170 0.185580 0.038990 
#    y 0.185580 2.092190 0.044100 
#    z 0.038990 0.044100 1.963390 
# 
# From -- ./inp_files/405720.got.cif
#   From: 2010.05.17/outbox.cif.g08.bks.cpg/sg2_203_cif.got.tgz:405720.got - 2010.06.03 11:33:40.
