data_PCOD9085714
_publ_section_title
;
Structure prediction by ZEFSAII (Michael W. Deem and Ramdas Pophale) SiO2 
 PCOD9085714
Probable space group: P -1
;
_chemical_formula_sum "Si O2"
_cell_formula_units_Z 16
_cell_length_a 13.542470
_cell_length_b 9.990482
_cell_length_c 8.243773
_cell_angle_alpha 117.025217
_cell_angle_beta 115.805872
_cell_angle_gamma 45.682418
_cell_volume 698.606753
_symmetry_space_group_name_H-M "P -1"
_symmetry_group_IT_number 2
_symmetry_cell_setting 'triclinic'
loop_
_space_group_symop_operation_xyz
x,y,z
-x,-y,-z
loop_
_atom_site_type_symbol
_atom_site_label
_atom_site_fract_x
_atom_site_fract_y
_atom_site_fract_z
Si Si1 0.995339 0.680510 0.062737
Si Si2 0.411971 0.200594 0.449161
Si Si3 0.293395 0.500321 0.297071
Si Si4 0.149044 0.716203 0.656773
Si Si5 0.847039 0.897372 0.400211
Si Si6 0.160391 0.395598 0.596004
Si Si7 0.366350 0.741927 0.352972
Si Si8 0.859754 0.030543 0.966360
O O1 0.157218 0.592226 0.138572
O O2 0.087093 0.183334 0.074937
O O3 0.000000 0.500000 0.000000
O O4 0.912219 0.828568 0.232556
O O5 0.378376 0.275230 0.278687
O O6 0.258155 0.291763 0.453702
O O7 0.494342 0.283745 0.601141
O O8 0.500000 0.000000 0.500000
O O9 0.226102 0.616262 0.485540
O O10 0.384613 0.553053 0.309868
O O11 0.179756 0.556776 0.721252
O O12 0.981897 0.843997 0.569610
O O13 0.188955 0.836847 0.835394
O O14 0.802517 0.764314 0.338781
O O15 0.715470 0.110776 0.472776
O O16 0.000000 0.500000 0.500000
O O17 0.259065 0.855995 0.190616
O O18 0.000000 0.000000 0.000000
#
# Coordination Sequence:
#
# PCOD9085714 Si02
#       8
#     2   2   2   2   2   2   2   2
#     4  11  25  39  63  98 135 167 225 276 322 382
#     4  11  23  40  65 100 131 167 221 272 325 391
#     4  10  22  42  63  92 126 180 217 268 319 392
#     4   9  19  36  61  89 129 163 224 257 317 380
#     4  10  19  35  62  91 126 171 212 266 321 379
#     4   9  19  36  64  94 121 164 213 271 312 378
#     4  12  23  38  66  94 135 169 220 266 335 389
#     4  12  23  37  60  98 135 171 210 278 327 379
#
# _framework density 22.902729000000001
#
# number of rings (size 3 to 8) (size 9 to 14) (size 15 to 20)
#    0.000    1.500    3.750    1.875    3.500    3.000 
#    0.000    2.500    0.000    4.500    0.000    0.000 
#    0.000    0.000    0.000    0.000    0.000    0.000 
#
# Total GULP energy -89190.826519 kJ/mol
# GULP energy per Si atom -5574.426657 kJ/mol
# Density = 2.285060 g / cm^3
# Si number density = 22.902729 Si / 1000 Ang^3
#
#
#
# Elastic Constant Matrix: (Units=GPa)
#
#
# Indices 1 2 3 4 5 6 
#
# 1 83.1121 23.8210 30.6821 -11.1527 23.5293 27.0141
# 2 23.8210 115.5984 18.1878 -20.3436 -0.7309 34.3956
# 3 30.6821 18.1878 65.6508 -8.5370 7.2058 -1.5381
# 4 -11.1527 -20.3436 -8.5370 32.3838 0.6698 -11.1581
# 5 23.5293 -0.7309 7.2058 0.6698 30.4045 -0.7621
# 6 27.0141 34.3956 -1.5381 -11.1581 -0.7621 42.4516
#
#
#
# Elastic Compliance Matrix: (Units=1/GPa)
#
#
# Indices 1 2 3 4 5 6 
#
# 1 0.027868 0.002152 -0.011793 0.001387 -0.019248 -0.019886
# 2 0.002152 0.012791 -0.004213 0.003937 -0.000719 -0.010864
# 3 -0.011793 -0.004213 0.022217 0.003442 0.004002 0.012699
# 4 0.001387 0.003937 0.003442 0.036741 -0.002461 0.005665
# 5 -0.019248 -0.000719 0.004002 -0.002461 0.047204 0.013176
# 6 -0.019886 -0.010864 0.012699 0.005665 0.013176 0.047198
#
#
# Mechanical properties :
#
#
# Convention : Reuss Voigt Hill
#
# Bulk Modulus (GPa) = 28.43577 45.52700 36.98139
# Shear Modulus (GPa) = 21.41800 33.82601 27.62200
#
# Velocity S-wave (km/s) = 3.06138 3.84727 3.47660
# Velocity P-wave (km/s) = 4.99388 6.29737 5.68312
#
# Compressibility (1/GPa) = 0.03516697
#
# Stress axis : x y z
#
# Youngs Moduli (GPa) = 35.88404 78.18123 45.01142
#
# Poissons Ratio (x) = -0.16825 0.53082
# Poissons Ratio (y) = -0.07722 0.18963
# Poissons Ratio (z) = 0.42318 0.32937
#
# Static dielectric constant tensor:
#      x y z
#    x 2.099880 -0.030010 -0.185710 
#    y -0.030010 2.008740 0.030190 
#    z -0.185710 0.030190 1.964500 
# 
# From -- ./inp_files/442805.got.cif
#   From: 2010.05.17/outbox.cif.g08.bks.cpg/sg2_222_cif.got.tgz:442805.got - 2010.06.03 11:33:40.
