data_PCOD9085411
_publ_section_title
;
Structure prediction by ZEFSAII (Michael W. Deem and Ramdas Pophale) SiO2 
 PCOD9085411
Probable space group: P -1
;
_chemical_formula_sum "Si O2"
_cell_formula_units_Z 16
_cell_length_a 10.114800
_cell_length_b 8.804562
_cell_length_c 12.185752
_cell_angle_alpha 98.291031
_cell_angle_beta 130.781959
_cell_angle_gamma 55.910624
_cell_volume 636.496433
_symmetry_space_group_name_H-M "P -1"
_symmetry_group_IT_number 2
_symmetry_cell_setting 'triclinic'
loop_
_space_group_symop_operation_xyz
x,y,z
-x,-y,-z
loop_
_atom_site_type_symbol
_atom_site_label
_atom_site_fract_x
_atom_site_fract_y
_atom_site_fract_z
Si Si1 0.929940 0.285725 0.714618
Si Si2 0.497904 0.827792 0.442133
Si Si3 0.374915 0.768181 0.585295
Si Si4 0.172947 0.415402 0.754083
Si Si5 0.119962 0.086089 0.105223
Si Si6 0.810689 0.472527 0.899219
Si Si7 0.852423 0.772694 0.489110
Si Si8 0.370516 0.947836 0.000779
O O1 0.778166 0.293633 0.537043
O O2 0.823151 0.355426 0.785889
O O3 0.031427 0.403844 0.769413
O O4 0.139784 0.055058 0.821956
O O5 0.520637 0.709427 0.546297
O O6 0.691234 0.727634 0.448854
O O7 0.500000 0.000000 0.500000
O O8 0.262275 0.955796 0.271129
O O9 0.551743 0.663417 0.770531
O O10 0.236318 0.004333 0.538547
O O11 0.139315 0.295354 0.635115
O O12 0.436509 0.284152 0.905495
O O13 0.068820 0.624243 0.665531
O O14 0.287219 0.042289 0.089679
O O15 0.918579 0.314886 0.039322
O O16 0.000000 0.000000 0.000000
O O17 0.000000 0.500000 0.000000
O O18 0.500000 0.000000 0.000000
#
# Coordination Sequence:
#
# PCOD9085411 Si02
#       8
#     2   2   2   2   2   2   2   2
#     4  10  22  39  63  88 124 161 206 260 322 369
#     4  10  19  35  60  88 125 159 200 257 316 375
#     4  11  23  40  62  93 133 161 205 268 326 373
#     4  10  20  38  62  87 117 168 220 249 301 385
#     4  11  22  38  63  96 128 158 211 269 324 370
#     4  11  23  40  64  95 128 170 211 255 324 399
#     4  10  21  36  61  88 120 165 211 256 306 375
#     4   9  19  38  63  88 122 171 212 258 312 393
#
# _framework density 25.137613000000002
#
# number of rings (size 3 to 8) (size 9 to 14) (size 15 to 20)
#    0.000    1.750    1.250    4.125    1.750    2.500 
#    0.000    0.625    0.000    0.000    0.000    0.000 
#    0.000    0.000    0.000    0.000    0.000    0.000 
#
# Total GULP energy -89142.956047 kJ/mol
# GULP energy per Si atom -5571.434753 kJ/mol
# Density = 2.508040 g / cm^3
# Si number density = 25.137613 Si / 1000 Ang^3
#
#
#
# Elastic Constant Matrix: (Units=GPa)
#
#
# Indices 1 2 3 4 5 6 
#
# 1 55.5782 1.2380 -5.6783 2.5404 -6.2606 -4.0810
# 2 1.2380 103.4224 33.6776 -21.5603 15.1682 5.3616
# 3 -5.6783 33.6776 130.5834 -28.1346 21.1164 -4.4115
# 4 2.5404 -21.5603 -28.1346 55.8671 0.8770 4.6305
# 5 -6.2606 15.1682 21.1164 0.8770 33.2705 2.9218
# 6 -4.0810 5.3616 -4.4115 4.6305 2.9218 19.3038
#
#
#
# Elastic Compliance Matrix: (Units=1/GPa)
#
#
# Indices 1 2 3 4 5 6 
#
# 1 0.018866 -0.001453 0.000405 -0.001630 0.003618 0.004328
# 2 -0.001453 0.011998 -0.001668 0.004289 -0.004413 -0.004381
# 3 0.000405 -0.001668 0.010075 0.004279 -0.005910 0.002719
# 4 -0.001630 0.004289 0.004279 0.022289 -0.005115 -0.005130
# 5 0.003618 -0.004413 -0.005910 -0.005115 0.036962 -0.003727
# 6 0.004328 -0.004381 0.002719 -0.005130 -0.003727 0.056351
#
#
# Mechanical properties :
#
#
# Convention : Reuss Voigt Hill
#
# Bulk Modulus (GPa) = 28.16225 38.67318 33.41772
# Shear Modulus (GPa) = 28.76710 39.04472 33.90591
#
# Velocity S-wave (km/s) = 3.38655 3.94539 3.67660
# Velocity P-wave (km/s) = 5.14967 6.01438 5.59875
#
# Compressibility (1/GPa) = 0.03550852
#
# Stress axis : x y z
#
# Youngs Moduli (GPa) = 53.00474 83.34702 99.25420
#
# Poissons Ratio (x) = 0.12106 -0.04019
# Poissons Ratio (y) = 0.07699 0.16554
# Poissons Ratio (z) = -0.02146 0.13901
#
# Static dielectric constant tensor:
#      x y z
#    x 2.710460 -0.126910 -0.196450 
#    y -0.126910 1.919270 -0.071600 
#    z -0.196450 -0.071600 2.049910 
# 
# From -- ./inp_files/515791.got.cif
#   From: 2010.05.17/outbox.cif.g08.bks.cpg/sg2_258_cif.got.tgz:515791.got - 2010.06.03 11:33:40.
