data_PCOD9085925
_publ_section_title
;
Structure prediction by ZEFSAII (Michael W. Deem and Ramdas Pophale) SiO2 
 PCOD9085925
Probable space group: P -1
;
_chemical_formula_sum "Si O2"
_cell_formula_units_Z 16
_cell_length_a 12.174854
_cell_length_b 13.002110
_cell_length_c 10.710960
_cell_angle_alpha 148.405884
_cell_angle_beta 50.161421
_cell_angle_gamma 121.662576
_cell_volume 681.164261
_symmetry_space_group_name_H-M "P -1"
_symmetry_group_IT_number 2
_symmetry_cell_setting 'triclinic'
loop_
_space_group_symop_operation_xyz
x,y,z
-x,-y,-z
loop_
_atom_site_type_symbol
_atom_site_label
_atom_site_fract_x
_atom_site_fract_y
_atom_site_fract_z
Si Si1 0.411453 0.271658 0.063397
Si Si2 0.549710 0.897500 0.680696
Si Si3 0.931848 0.788967 0.971534
Si Si4 0.928640 0.279614 0.950454
Si Si5 0.852094 0.822994 0.518410
Si Si6 0.630688 0.394164 0.366745
Si Si7 0.406063 0.192226 0.722091
Si Si8 0.110591 0.177744 0.228965
O O1 0.359047 0.465662 0.375717
O O2 0.276562 0.130156 0.021148
O O3 0.438626 0.328076 0.958274
O O4 0.532347 0.129421 0.895938
O O5 0.691966 0.840662 0.597777
O O6 0.417186 0.818573 0.773513
O O7 0.557452 0.782559 0.423420
O O8 0.765503 0.827039 0.169361
O O9 0.006266 0.674866 0.914158
O O10 0.941473 0.706509 0.738027
O O11 0.012289 0.992477 0.117025
O O12 0.044958 0.297163 0.776298
O O13 0.899371 0.047123 0.725291
O O14 0.770874 0.380971 0.166213
O O15 0.877365 0.744991 0.559547
O O16 0.500000 0.500000 0.500000
O O17 0.500000 0.000000 0.500000
#
# Coordination Sequence:
#
# PCOD9085925 Si02
#       8
#     2   2   2   2   2   2   2   2
#     4  10  22  41  63  96 129 167 218 263 319 385
#     4  11  21  40  70  92 127 174 211 266 325 377
#     4   9  16  34  60  90 123 164 210 257 316 377
#     4  10  21  37  62  90 127 166 209 264 314 379
#     4  10  19  35  64  95 121 164 215 256 322 377
#     4  12  26  42  64  93 132 170 215 265 320 385
#     4   9  19  36  64  95 128 166 213 268 316 380
#     4   9  18  32  58  90 127 157 207 261 307 378
#
# _framework density 23.489194999999999
#
# number of rings (size 3 to 8) (size 9 to 14) (size 15 to 20)
#    0.000    2.000    1.250    3.000    0.000    3.000 
#    0.000    5.000    2.750    0.000    0.000    0.000 
#    0.000    0.000    0.000    0.000    0.000    0.000 
#
# Total GULP energy -89246.974817 kJ/mol
# GULP energy per Si atom -5577.935926 kJ/mol
# Density = 2.343573 g / cm^3
# Si number density = 23.489195 Si / 1000 Ang^3
#
#
#
# Elastic Constant Matrix: (Units=GPa)
#
#
# Indices 1 2 3 4 5 6 
#
# 1 133.6541 38.5199 49.6560 -15.8356 -5.3498 -24.1637
# 2 38.5199 84.2578 35.4184 -27.8929 -0.7482 -10.8748
# 3 49.6560 35.4184 100.6004 -18.1283 -4.1014 -13.4365
# 4 -15.8356 -27.8929 -18.1283 42.5874 -7.0213 8.8718
# 5 -5.3498 -0.7482 -4.1014 -7.0213 41.0983 -14.1999
# 6 -24.1637 -10.8748 -13.4365 8.8718 -14.1999 33.3826
#
#
#
# Elastic Compliance Matrix: (Units=1/GPa)
#
#
# Indices 1 2 3 4 5 6 
#
# 1 0.010932 -0.002623 -0.003367 -0.000006 0.003528 0.007206
# 2 -0.002623 0.017540 -0.003037 0.009312 0.001531 0.000769
# 3 -0.003367 -0.003037 0.013479 0.002365 0.002027 0.002232
# 4 -0.000006 0.009312 0.002365 0.031906 0.005043 -0.002353
# 5 0.003528 0.001531 0.002027 0.005043 0.031366 0.015870
# 6 0.007206 0.000769 0.002232 -0.002353 0.015870 0.043696
#
#
# Mechanical properties :
#
#
# Convention : Reuss Voigt Hill
#
# Bulk Modulus (GPa) = 41.84933 62.85562 52.35248
# Shear Modulus (GPa) = 28.58123 36.40821 32.49472
#
# Velocity S-wave (km/s) = 3.49202 3.94127 3.72343
# Velocity P-wave (km/s) = 5.84073 6.89413 6.38917
#
# Compressibility (1/GPa) = 0.02389525
#
# Stress axis : x y z
#
# Youngs Moduli (GPa) = 91.47215 57.01349 74.19062
#
# Poissons Ratio (x) = 0.14954 0.24984
# Poissons Ratio (y) = 0.23992 0.22534
# Poissons Ratio (z) = 0.30803 0.17317
#
# Static dielectric constant tensor:
#      x y z
#    x 1.931760 -0.014460 0.058680 
#    y -0.014460 1.909770 -0.004560 
#    z 0.058680 -0.004560 1.921120 
# 
# From -- ./inp_files/433430.got.cif
#   From: 2010.05.17/outbox.cif.g08.bks.cpg/sg2_217_cif.got.tgz:433430.got - 2010.06.03 11:33:40.
