data_PCOD9085032
_publ_section_title
;
Structure prediction by ZEFSAII (Michael W. Deem and Ramdas Pophale) SiO2 
 PCOD9085032
Probable space group: P -1
;
_chemical_formula_sum "Si O2"
_cell_formula_units_Z 16
_cell_length_a 7.705778
_cell_length_b 11.873529
_cell_length_c 9.502118
_cell_angle_alpha 96.078023
_cell_angle_beta 109.044487
_cell_angle_gamma 122.458715
_cell_volume 648.962179
_symmetry_space_group_name_H-M "P -1"
_symmetry_group_IT_number 2
_symmetry_cell_setting 'triclinic'
loop_
_space_group_symop_operation_xyz
x,y,z
-x,-y,-z
loop_
_atom_site_type_symbol
_atom_site_label
_atom_site_fract_x
_atom_site_fract_y
_atom_site_fract_z
Si Si1 0.464780 0.931680 0.192758
Si Si2 0.537957 0.289610 0.018035
Si Si3 0.321282 0.065324 0.485969
Si Si4 0.818849 0.785352 0.311039
Si Si5 0.341941 0.202814 0.234456
Si Si6 0.975236 0.549352 0.848132
Si Si7 0.508257 0.485214 0.664493
Si Si8 0.126346 0.864069 0.886518
O O1 0.414219 0.788638 0.096980
O O2 0.510115 0.943749 0.370175
O O3 0.690028 0.054914 0.180271
O O4 0.242260 0.914543 0.077516
O O5 0.339138 0.284049 0.881927
O O6 0.422071 0.184382 0.105196
O O7 0.794279 0.425209 0.152958
O O8 0.246534 0.135860 0.588825
O O9 0.425779 0.167536 0.390028
O O10 0.087472 0.907860 0.368903
O O11 0.738343 0.646398 0.359377
O O12 0.424018 0.363900 0.247126
O O13 0.070743 0.117195 0.178619
O O14 0.024365 0.698915 0.836740
O O15 0.696547 0.455519 0.740018
O O16 0.000000 0.500000 0.000000
O O17 0.500000 0.500000 0.500000
#
# Coordination Sequence:
#
# PCOD9085032 Si02
#       8
#     2   2   2   2   2   2   2   2
#     4   9  19  37  61  86 116 156 200 236 284 342
#     4  10  21  37  62  86 119 154 191 241 300 351
#     4  10  20  34  61  86 117 155 199 235 284 355
#     4  10  19  35  58  85 114 154 199 233 282 344
#     4  11  22  37  61  92 119 151 193 246 300 345
#     4  10  20  38  60  83 113 157 201 234 285 353
#     4  11  22  37  63  89 115 150 199 246 289 342
#     4   9  19  34  58  89 115 150 199 246 274 344
#
# _framework density 24.65475
#
# number of rings (size 3 to 8) (size 9 to 14) (size 15 to 20)
#    0.000    2.000    2.500    2.250    1.750    2.500 
#    0.000    0.625    2.750    7.500    0.000    0.000 
#    0.000    0.000    0.000    0.000    0.000    0.000 
#
# Total GULP energy -89123.140482 kJ/mol
# GULP energy per Si atom -5570.196280 kJ/mol
# Density = 2.459863 g / cm^3
# Si number density = 24.654750 Si / 1000 Ang^3
#
#
#
# Elastic Constant Matrix: (Units=GPa)
#
#
# Indices 1 2 3 4 5 6 
#
# 1 60.6745 14.8683 30.8992 -4.7250 11.6174 7.3306
# 2 14.8683 116.0495 21.7197 -8.8796 7.0210 13.9392
# 3 30.8992 21.7197 119.8154 -37.2661 5.2012 -1.1848
# 4 -4.7250 -8.8796 -37.2661 43.1944 0.5299 0.3883
# 5 11.6174 7.0210 5.2012 0.5299 28.6172 -9.7797
# 6 7.3306 13.9392 -1.1848 0.3883 -9.7797 27.0103
#
#
#
# Elastic Compliance Matrix: (Units=1/GPa)
#
#
# Indices 1 2 3 4 5 6 
#
# 1 0.023107 0.000051 -0.006416 -0.002754 -0.011880 -0.010841
# 2 0.000051 0.010064 -0.001398 0.000988 -0.004632 -0.006960
# 3 -0.006416 -0.001398 0.013533 0.010638 0.001464 0.003434
# 4 -0.002754 0.000988 0.010638 0.032256 -0.001795 -0.000409
# 5 -0.011880 -0.004632 0.001464 -0.001795 0.048638 0.023316
# 6 -0.010841 -0.006960 0.003434 -0.000409 0.023316 0.052155
#
#
# Mechanical properties :
#
#
# Convention : Reuss Voigt Hill
#
# Bulk Modulus (GPa) = 32.07536 47.94597 40.01067
# Shear Modulus (GPa) = 24.31037 35.03454 29.67245
#
# Velocity S-wave (km/s) = 3.14352 3.77371 3.47294
# Velocity P-wave (km/s) = 5.11993 6.20299 5.68730
#
# Compressibility (1/GPa) = 0.03117658
#
# Stress axis : x y z
#
# Youngs Moduli (GPa) = 43.27782 99.36368 73.89156
#
# Poissons Ratio (x) = -0.00502 0.47411
# Poissons Ratio (y) = -0.00219 0.10329
# Poissons Ratio (z) = 0.27768 0.13890
#
# Static dielectric constant tensor:
#      x y z
#    x 4.990740 -1.610590 -0.883550 
#    y -1.610590 2.940920 0.610950 
#    z -0.883550 0.610950 2.315340 
# 
# From -- ./inp_files/202120.got.cif
#   From: 2010.05.17/outbox.cif.g08.bks.cpg/sg2_102_cif.got.tgz:202120.got - 2010.06.03 11:33:40.
