data_PCOD9085553
_publ_section_title
;
Structure prediction by ZEFSAII (Michael W. Deem and Ramdas Pophale) SiO2 
 PCOD9085553
Probable space group: P -1
;
_chemical_formula_sum "Si O2"
_cell_formula_units_Z 15
_cell_length_a 9.227757
_cell_length_b 13.457234
_cell_length_c 8.073497
_cell_angle_alpha 47.908012
_cell_angle_beta 89.627538
_cell_angle_gamma 61.013623
_cell_volume 567.146337
_symmetry_space_group_name_H-M "P -1"
_symmetry_group_IT_number 2
_symmetry_cell_setting 'triclinic'
loop_
_space_group_symop_operation_xyz
x,y,z
-x,-y,-z
loop_
_atom_site_type_symbol
_atom_site_label
_atom_site_fract_x
_atom_site_fract_y
_atom_site_fract_z
Si Si1 0.891380 0.604669 0.050879
Si Si2 0.517129 0.563120 0.753681
Si Si3 0.164847 0.822241 0.840927
Si Si4 0.000000 0.000000 0.000000
Si Si5 0.184078 0.085983 0.439668
Si Si6 0.808003 0.875764 0.216052
Si Si7 0.247052 0.554336 0.587698
Si Si8 0.714511 0.645821 0.485930
O O1 0.765586 0.553075 0.154449
O O2 0.062746 0.509257 0.291255
O O3 0.777577 0.811083 0.794813
O O4 0.000000 0.500000 0.000000
O O5 0.333571 0.635744 0.569481
O O6 0.590196 0.670538 0.614612
O O7 0.500000 0.500000 0.000000
O O8 0.681223 0.373402 0.879865
O O9 0.032834 0.821190 0.713585
O O10 0.263507 0.887620 0.670942
O O11 0.040971 0.945908 0.859672
O O12 0.204476 0.970410 0.031714
O O13 0.209419 0.119169 0.590290
O O14 0.700828 0.805846 0.242179
O O15 0.034655 0.723880 0.350424
O O16 0.340825 0.419217 0.588840
#
# Coordination Sequence:
#
# PCOD9085553 Si02
#       8
#     2   2   2   1   2   2   2   2
#     4  11  18  35  62  92 119 158 212 262 301 357
#     4  12  24  41  64  89 127 168 204 256 312 380
#     4  10  22  38  60  95 120 161 204 254 317 360
#     4  10  22  38  64  88 126 156 200 256 310 366
#     4  10  19  35  61  87 121 150 209 263 291 362
#     4  10  20  37  61  92 117 159 208 261 303 356
#     4  11  23  35  60  91 126 163 203 256 319 363
#     4  11  22  36  59  90 124 155 214 257 306 358
#
# _framework density 26.448201999999998
#
# number of rings (size 3 to 8) (size 9 to 14) (size 15 to 20)
#    0.000    1.333    4.000    4.400    1.867    0.000 
#    0.000    0.667    0.000    4.000    0.000    0.000 
#    0.000    0.000    0.000    0.000    0.000    0.000 
#
# Total GULP energy -83565.863109 kJ/mol
# GULP energy per Si atom -5571.057541 kJ/mol
# Density = 2.638800 g / cm^3
# Si number density = 26.448202 Si / 1000 Ang^3
#
#
#
# Elastic Constant Matrix: (Units=GPa)
#
#
# Indices 1 2 3 4 5 6 
#
# 1 102.1141 3.9189 36.9008 -1.3466 -23.4862 7.6593
# 2 3.9189 47.3180 11.2627 14.0477 19.4036 -2.9071
# 3 36.9008 11.2627 116.3212 -4.1593 -38.9087 -2.4930
# 4 -1.3466 14.0477 -4.1593 34.4328 6.9546 -6.1436
# 5 -23.4862 19.4036 -38.9087 6.9546 5.9036 12.4634
# 6 7.6593 -2.9071 -2.4930 -6.1436 12.4634 27.1279
#
#
#
# Elastic Compliance Matrix: (Units=1/GPa)
#
#
# Indices 1 2 3 4 5 6 
#
# 1 0.010288 0.003206 -0.005719 -0.000357 -0.006357 -0.000247
# 2 0.003206 0.015125 0.003183 -0.011273 0.018793 -0.010179
# 3 -0.005719 0.003183 0.006584 0.003090 -0.011394 0.008495
# 4 -0.000357 -0.011273 0.003090 0.034834 0.001504 0.006374
# 5 -0.006357 0.018793 -0.011394 0.001504 -0.036074 0.019676
# 6 -0.000247 -0.010179 0.008495 0.006374 0.019676 0.029026
#
#
# Mechanical properties :
#
#
# Convention : Reuss Voigt Hill
#
# Bulk Modulus (GPa) = 29.99410 41.10202 35.54806
# Shear Modulus (GPa) = 71.88611 27.73758 49.81184
#
# Velocity S-wave (km/s) = 5.21910 3.24196 4.34449
# Velocity P-wave (km/s) = 6.90536 5.43949 6.21578
#
# Compressibility (1/GPa) = 0.03333989
#
# Stress axis : x y z
#
# Youngs Moduli (GPa) = 97.19883 66.11542 151.88089
#
# Poissons Ratio (x) = -0.21200 0.86854
# Poissons Ratio (y) = -0.31167 -0.48349
# Poissons Ratio (z) = 0.55583 -0.21047
#
# Static dielectric constant tensor:
#      x y z
#    x 1.971770 -0.383550 0.570020 
#    y -0.383550 1.102770 1.584150 
#    z 0.570020 1.584150 -0.196240 
# 
# From -- ./inp_files/195170.got.cif
#   From: 2010.05.17/outbox.cif.g08.bks.cpg/sg2_98_cif.got.tgz:195170.got - 2010.06.03 11:33:40.
