data_PCOD9085825
_publ_section_title
;
Structure prediction by ZEFSAII (Michael W. Deem and Ramdas Pophale) SiO2 
 PCOD9085825
Probable space group: P -1
;
_chemical_formula_sum "Si O2"
_cell_formula_units_Z 16
_cell_length_a 12.936353
_cell_length_b 8.010469
_cell_length_c 14.438992
_cell_angle_alpha 141.694812
_cell_angle_beta 126.934358
_cell_angle_gamma 42.403908
_cell_volume 624.608144
_symmetry_space_group_name_H-M "P -1"
_symmetry_group_IT_number 2
_symmetry_cell_setting 'triclinic'
loop_
_space_group_symop_operation_xyz
x,y,z
-x,-y,-z
loop_
_atom_site_type_symbol
_atom_site_label
_atom_site_fract_x
_atom_site_fract_y
_atom_site_fract_z
Si Si1 0.521447 0.251425 0.018408
Si Si2 0.260255 0.747797 0.320745
Si Si3 0.232261 0.338877 0.620348
Si Si4 0.010684 0.366272 0.227132
Si Si5 0.374984 0.652948 0.709867
Si Si6 0.532018 0.057297 0.749530
Si Si7 0.825261 0.356861 0.960817
Si Si8 0.785739 0.381196 0.550277
O O1 0.616215 0.131970 0.111533
O O2 0.508176 0.586900 0.137520
O O3 0.344159 0.376284 0.982082
O O4 0.586598 0.007421 0.863217
O O5 0.443638 0.571548 0.318409
O O6 0.181236 0.655150 0.158897
O O7 0.230993 0.683253 0.380655
O O8 0.187076 0.129000 0.445785
O O9 0.107535 0.579296 0.731118
O O10 0.299393 0.482930 0.648610
O O11 0.373690 0.090144 0.654291
O O12 0.060709 0.618430 0.380903
O O13 0.941960 0.404091 0.103610
O O14 0.141683 0.989808 0.140060
O O15 0.265809 0.794993 0.624063
O O16 0.656130 0.758186 0.628244
#
# Coordination Sequence:
#
# PCOD9085825 Si02
#       8
#     2   2   2   2   2   2   2   2
#     4   9  18  35  62  93 117 150 206 260 300 343
#     4  11  24  41  63  90 127 164 206 250 307 364
#     4  11  22  39  65  92 122 160 207 261 298 362
#     4  11  24  40  65  93 123 159 206 253 311 364
#     4  10  22  38  64  93 117 158 209 258 300 349
#     4  10  19  35  63  92 121 155 202 255 305 352
#     4  10  21  41  63  91 121 163 203 256 304 363
#     4  12  24  40  62  92 129 166 198 248 311 375
#
# _framework density 25.616061999999999
#
# number of rings (size 3 to 8) (size 9 to 14) (size 15 to 20)
#    0.000    1.500    3.750    1.500    1.750    3.000 
#    0.000    3.750    0.000    0.000    0.000    0.000 
#    0.000    0.000    0.000    0.000    0.000    0.000 
#
# Total GULP energy -89455.171289 kJ/mol
# GULP energy per Si atom -5590.948206 kJ/mol
# Density = 2.555776 g / cm^3
# Si number density = 25.616062 Si / 1000 Ang^3
#
#
#
# Elastic Constant Matrix: (Units=GPa)
#
#
# Indices 1 2 3 4 5 6 
#
# 1 112.6529 30.3605 27.5942 -13.2973 -13.7085 17.5739
# 2 30.3605 50.9269 53.7402 -22.7064 0.2393 11.8946
# 3 27.5942 53.7402 111.6267 -43.1255 -22.9898 6.8302
# 4 -13.2973 -22.7064 -43.1255 56.5418 13.4402 -6.0827
# 5 -13.7085 0.2393 -22.9898 13.4402 30.0478 -4.3474
# 6 17.5739 11.8946 6.8302 -6.0827 -4.3474 22.0652
#
#
#
# Elastic Compliance Matrix: (Units=1/GPa)
#
#
# Indices 1 2 3 4 5 6 
#
# 1 0.012449 -0.011261 0.003966 -0.001039 0.008742 -0.003636
# 2 -0.011261 0.075945 -0.038618 0.005403 -0.041572 -0.026717
# 3 0.003966 -0.038618 0.033688 0.006193 0.027189 0.014296
# 4 -0.001039 0.005403 0.006193 0.026255 -0.007261 0.001805
# 5 0.008742 -0.041572 0.027189 -0.007261 0.064208 0.017680
# 6 -0.003636 -0.026717 0.014296 0.001805 0.017680 0.062174
#
#
# Mechanical properties :
#
#
# Convention : Reuss Voigt Hill
#
# Bulk Modulus (GPa) = 33.05328 55.39959 44.22644
# Shear Modulus (GPa) = 13.27556 32.63175 22.95365
#
# Velocity S-wave (km/s) = 2.27898 3.57302 2.99668
# Velocity P-wave (km/s) = 4.45605 6.22059 5.41074
#
# Compressibility (1/GPa) = 0.03025418
#
# Stress axis : x y z
#
# Youngs Moduli (GPa) = 80.32918 13.16734 29.68454
#
# Poissons Ratio (x) = 0.14828 -0.11772
# Poissons Ratio (y) = 0.90462 1.14636
# Poissons Ratio (z) = -0.31855 0.50850
#
# Static dielectric constant tensor:
#      x y z
#    x 2.041010 0.057230 0.011910 
#    y 0.057230 2.063600 -0.057810 
#    z 0.011910 -0.057810 2.011060 
# 
# From -- ./inp_files/272692.got.cif
#   From: 2010.05.17/outbox.cif.g08.bks.cpg/sg2_137_cif.got.tgz:272692.got - 2010.06.03 11:33:40.
