data_PCOD9085011
_publ_section_title
;
Structure prediction by ZEFSAII (Michael W. Deem and Ramdas Pophale) SiO2 
 PCOD9085011
Probable space group: P -1
;
_chemical_formula_sum "Si O2"
_cell_formula_units_Z 16
_cell_length_a 9.131914
_cell_length_b 9.447910
_cell_length_c 10.990310
_cell_angle_alpha 66.359768
_cell_angle_beta 70.157782
_cell_angle_gamma 43.986039
_cell_volume 601.323353
_symmetry_space_group_name_H-M "P -1"
_symmetry_group_IT_number 2
_symmetry_cell_setting 'triclinic'
loop_
_space_group_symop_operation_xyz
x,y,z
-x,-y,-z
loop_
_atom_site_type_symbol
_atom_site_label
_atom_site_fract_x
_atom_site_fract_y
_atom_site_fract_z
Si Si1 0.907270 0.154937 0.360652
Si Si2 0.708092 0.512082 0.749432
Si Si3 0.204178 0.560398 0.980336
Si Si4 0.715111 0.015662 0.348349
Si Si5 0.058207 0.328056 0.387607
Si Si6 0.330508 0.263718 0.690744
Si Si7 0.751044 0.790700 0.005996
Si Si8 0.503103 0.415692 0.707783
O O1 0.665825 0.365449 0.390387
O O2 0.031815 0.234402 0.309866
O O3 0.879707 0.050623 0.294156
O O4 0.000000 0.000000 0.500000
O O5 0.871536 0.541808 0.687437
O O6 0.709550 0.366847 0.707707
O O7 0.497429 0.744425 0.690393
O O8 0.721664 0.437068 0.908782
O O9 0.216847 0.365158 0.047059
O O10 0.365373 0.490810 0.848624
O O11 0.955530 0.766619 0.955011
O O12 0.788714 0.866822 0.496697
O O13 0.666574 0.908480 0.305526
O O14 0.814096 0.529047 0.423968
O O15 0.222559 0.306867 0.836440
O O16 0.525655 0.239210 0.690408
O O17 0.500000 0.000000 0.000000
#
# Coordination Sequence:
#
# PCOD9085011 Si02
#       8
#     2   2   2   2   2   2   2   2
#     4   8  17  34  55  81 112 148 197 244 290 348
#     4  11  20  36  58  84 118 153 203 245 285 358
#     4  10  20  36  61  86 117 162 199 244 303 357
#     4  10  20  34  58  85 114 154 197 246 298 353
#     4  10  19  35  58  84 113 156 199 240 296 356
#     4  10  19  37  55  81 119 153 189 246 303 348
#     4  10  20  35  59  90 118 151 201 252 299 357
#     4   9  20  35  59  83 116 159 197 236 298 357
#
# _framework density 26.607980000000001
#
# number of rings (size 3 to 8) (size 9 to 14) (size 15 to 20)
#    0.000    2.250    1.250    1.875    1.750    0.000 
#    0.000    1.875    8.250    6.750    0.000    0.000 
#    0.000    0.000    0.000    0.000    0.000    0.000 
#
# Total GULP energy -89069.204355 kJ/mol
# GULP energy per Si atom -5566.825272 kJ/mol
# Density = 2.654742 g / cm^3
# Si number density = 26.607980 Si / 1000 Ang^3
#
#
#
# Elastic Constant Matrix: (Units=GPa)
#
#
# Indices 1 2 3 4 5 6 
#
# 1 226.0313 70.0358 38.3441 12.0867 20.9764 58.4754
# 2 70.0358 119.5416 5.0148 -16.6928 20.0664 2.6986
# 3 38.3441 5.0148 58.6350 -0.5093 0.7425 -0.9992
# 4 12.0867 -16.6928 -0.5093 31.7008 -0.8772 16.9070
# 5 20.9764 20.0664 0.7425 -0.8772 50.0509 3.2505
# 6 58.4754 2.6986 -0.9992 16.9070 3.2505 64.9508
#
#
#
# Elastic Compliance Matrix: (Units=1/GPa)
#
#
# Indices 1 2 3 4 5 6 
#
# 1 0.009100 -0.005034 -0.005651 -0.002295 -0.001271 -0.007410
# 2 -0.005034 0.012700 0.002347 0.007344 -0.003036 0.002281
# 3 -0.005651 0.002347 0.020633 0.001087 0.000816 0.004983
# 4 -0.002295 0.007344 0.001087 0.041012 -0.000704 -0.008863
# 5 -0.001271 -0.003036 0.000816 -0.000704 0.021680 0.000381
# 6 -0.007410 0.002281 0.004983 -0.008863 0.000381 0.024337
#
#
# Mechanical properties :
#
#
# Convention : Reuss Voigt Hill
#
# Bulk Modulus (GPa) = 38.82338 70.11081 54.46709
# Shear Modulus (GPa) = 32.31565 48.72806 40.52186
#
# Velocity S-wave (km/s) = 3.48876 4.28405 3.90670
# Velocity P-wave (km/s) = 5.55438 7.13285 6.39252
#
# Compressibility (1/GPa) = 0.02575767
#
# Stress axis : x y z
#
# Youngs Moduli (GPa) = 109.88759 78.74047 48.46579
#
# Poissons Ratio (x) = 0.39641 0.27386
# Poissons Ratio (y) = 0.55321 -0.11376
# Poissons Ratio (z) = 0.62093 -0.18481
#
# Static dielectric constant tensor:
#      x y z
#    x 2.241380 -0.011710 -0.043370 
#    y -0.011710 2.105130 0.059690 
#    z -0.043370 0.059690 2.143930 
# 
# From -- ./inp_files/492518.got.cif
#   From: 2010.05.17/outbox.cif.g08.bks.cpg/sg2_247_cif.got.tgz:492518.got - 2010.06.03 11:33:40.
