data_PCOD9085037
_publ_section_title
;
Structure prediction by ZEFSAII (Michael W. Deem and Ramdas Pophale) SiO2 
 PCOD9085037
Probable space group: P -1
;
_chemical_formula_sum "Si O2"
_cell_formula_units_Z 16
_cell_length_a 13.788935
_cell_length_b 16.202895
_cell_length_c 10.086300
_cell_angle_alpha 54.657225
_cell_angle_beta 122.145691
_cell_angle_gamma 154.348913
_cell_volume 795.370905
_symmetry_space_group_name_H-M "P -1"
_symmetry_group_IT_number 2
_symmetry_cell_setting 'triclinic'
loop_
_space_group_symop_operation_xyz
x,y,z
-x,-y,-z
loop_
_atom_site_type_symbol
_atom_site_label
_atom_site_fract_x
_atom_site_fract_y
_atom_site_fract_z
Si Si1 0.832011 0.678238 0.137764
Si Si2 0.835295 0.933743 0.539798
Si Si3 0.389906 0.918701 0.690375
Si Si4 0.530415 0.853915 0.242651
Si Si5 0.863473 0.109012 0.615939
Si Si6 0.034801 0.533187 0.151001
Si Si7 0.335603 0.244863 0.141424
Si Si8 0.217986 0.880473 0.074988
O O1 0.923893 0.699183 0.320904
O O2 0.601752 0.452438 0.135180
O O3 0.026757 0.809221 0.052018
O O4 0.771005 0.750557 0.032674
O O5 0.641851 0.839893 0.400100
O O6 0.736931 0.792550 0.721545
O O7 0.000000 0.000000 0.500000
O O8 0.938358 0.107426 0.536681
O O9 0.322757 0.950324 0.502336
O O10 0.190164 0.686355 0.751191
O O11 0.390369 0.987873 0.760952
O O12 0.628647 0.045676 0.761940
O O13 0.262235 0.645501 0.246768
O O14 0.618568 0.943347 0.076239
O O15 0.750416 0.932708 0.781634
O O16 0.091087 0.688624 0.095468
O O17 0.000000 0.500000 0.000000
#
# Coordination Sequence:
#
# PCOD9085037 Si02
#       8
#     2   2   2   2   2   2   2   2
#     4  11  22  40  59  83 114 154 191 226 280 339
#     4   9  19  38  61  84 110 143 186 236 281 327
#     4  10  20  37  57  85 116 148 187 236 288 326
#     4  10  19  35  58  85 118 146 180 241 288 323
#     4   9  22  38  62  78 117 151 183 230 288 333
#     4  11  19  35  56  85 116 150 186 230 289 331
#     4   9  22  41  60  81 117 148 186 238 281 327
#     4  11  22  34  58  88 116 148 191 231 274 342
#
# _framework density 20.116401
#
# number of rings (size 3 to 8) (size 9 to 14) (size 15 to 20)
#    0.750    1.250    2.500    1.875    1.750    1.500 
#    0.000    3.125    0.000    0.000    0.000    0.000 
#    0.000    0.000    0.000    0.000    0.000    0.000 
#
# Total GULP energy -89153.769248 kJ/mol
# GULP energy per Si atom -5572.110578 kJ/mol
# Density = 2.007061 g / cm^3
# Si number density = 20.116401 Si / 1000 Ang^3
#
#
#
# Elastic Constant Matrix: (Units=GPa)
#
#
# Indices 1 2 3 4 5 6 
#
# 1 27.9297 13.6270 8.5644 9.8591 -0.4867 6.5351
# 2 13.6270 98.4941 14.6173 16.9764 11.3260 2.2668
# 3 8.5644 14.6173 66.1008 26.2162 4.7429 1.6735
# 4 9.8591 16.9764 26.2162 35.3291 4.8730 3.4738
# 5 -0.4867 11.3260 4.7429 4.8730 27.4113 3.9245
# 6 6.5351 2.2668 1.6735 3.4738 3.9245 23.6127
#
#
#
# Elastic Compliance Matrix: (Units=1/GPa)
#
#
# Indices 1 2 3 4 5 6 
#
# 1 0.044513 -0.004896 -0.001353 -0.008798 0.006258 -0.011500
# 2 -0.004896 0.012000 -0.000249 -0.003737 -0.004557 0.001528
# 3 -0.001353 -0.000249 0.021537 -0.015465 -0.001089 0.001328
# 4 -0.008798 -0.003737 -0.015465 0.044733 -0.003589 -0.002095
# 5 0.006258 -0.004557 -0.001089 -0.003589 0.040361 -0.007398
# 6 -0.011500 0.001528 0.001328 -0.002095 -0.007398 0.046830
#
#
# Mechanical properties :
#
#
# Convention : Reuss Voigt Hill
#
# Bulk Modulus (GPa) = 15.37207 29.57134 22.47170
# Shear Modulus (GPa) = 20.43695 27.65167 24.04431
#
# Velocity S-wave (km/s) = 3.19083 3.71156 3.46100
# Velocity P-wave (km/s) = 4.60797 5.75322 5.21215
#
# Compressibility (1/GPa) = 0.06505304
#
# Stress axis : x y z
#
# Youngs Moduli (GPa) = 22.46511 83.33211 46.43244
#
# Poissons Ratio (x) = 0.40803 0.06284
# Poissons Ratio (y) = 0.11000 0.01156
# Poissons Ratio (z) = 0.03040 0.02074
#
# Static dielectric constant tensor:
#      x y z
#    x 1.719370 -0.006520 -0.014690 
#    y -0.006520 1.690410 -0.008820 
#    z -0.014690 -0.008820 1.735740 
# 
# From -- ./inp_files/436981.got.cif
#   From: 2010.05.17/outbox.cif.g08.bks.cpg/sg2_219_cif.got.tgz:436981.got - 2010.06.03 11:33:40.
