data_PCOD9085545
_publ_section_title
;
Structure prediction by ZEFSAII (Michael W. Deem and Ramdas Pophale) SiO2 
 PCOD9085545
Probable space group: P -1
;
_chemical_formula_sum "Si O2"
_cell_formula_units_Z 16
_cell_length_a 5.084161
_cell_length_b 17.887204
_cell_length_c 9.907121
_cell_angle_alpha 102.983658
_cell_angle_beta 73.418895
_cell_angle_gamma 64.532733
_cell_volume 714.013274
_symmetry_space_group_name_H-M "P -1"
_symmetry_group_IT_number 2
_symmetry_cell_setting 'triclinic'
loop_
_space_group_symop_operation_xyz
x,y,z
-x,-y,-z
loop_
_atom_site_type_symbol
_atom_site_label
_atom_site_fract_x
_atom_site_fract_y
_atom_site_fract_z
Si Si1 0.019853 0.831712 0.210548
Si Si2 0.573095 0.186223 0.620400
Si Si3 0.017758 0.122234 0.041703
Si Si4 0.284080 0.972651 0.602287
Si Si5 0.441254 0.475774 0.648903
Si Si6 0.169479 0.557390 0.990918
Si Si7 0.523514 0.919679 0.822836
Si Si8 0.899820 0.635934 0.331382
O O1 0.271986 0.783117 0.274615
O O2 0.696444 0.832889 0.290949
O O3 0.988697 0.930358 0.259959
O O4 0.089359 0.805421 0.032918
O O5 0.828765 0.087210 0.480960
O O6 0.397766 0.262780 0.563896
O O7 0.138807 0.136934 0.172528
O O8 0.733849 0.103194 0.092431
O O9 0.351178 0.028848 0.910469
O O10 0.517691 0.908673 0.660533
O O11 0.500000 0.000000 0.500000
O O12 0.500000 0.500000 0.500000
O O13 0.261069 0.557426 0.820487
O O14 0.780928 0.401831 0.640593
O O15 0.222114 0.432283 0.654823
O O16 0.500000 0.500000 0.000000
O O17 0.973825 0.637901 0.159755
O O18 0.000000 0.500000 0.000000
#
# Coordination Sequence:
#
# PCOD9085545 Si02
#       8
#     2   2   2   2   2   2   2   2
#     4  10  20  34  53  76 101 140 195 232 265 316
#     4  11  21  34  54  76 111 144 176 230 279 311
#     4   9  17  30  48  69  91 122 171 223 271 314
#     4   9  20  34  52  77 101 141 194 233 264 318
#     4  10  19  35  61  87 112 144 181 222 266 332
#     4   8  16  31  54  82 106 137 176 212 255 325
#     4   9  17  29  48  69  92 123 166 227 272 307
#     4  10  20  35  56  85 115 146 183 220 279 333
#
# _framework density 22.408548
#
# number of rings (size 3 to 8) (size 9 to 14) (size 15 to 20)
#    0.000    2.500    0.000    2.250    0.000    8.000 
#    0.000    0.000    8.250    0.000    0.000    0.000 
#    0.000    0.000    0.000    0.000    0.000    0.000 
#
# Total GULP energy -89101.642917 kJ/mol
# GULP energy per Si atom -5568.852682 kJ/mol
# Density = 2.235755 g / cm^3
# Si number density = 22.408548 Si / 1000 Ang^3
#
#
#
# Elastic Constant Matrix: (Units=GPa)
#
#
# Indices 1 2 3 4 5 6 
#
# 1 102.7924 -9.1444 2.0529 -7.0208 12.5311 -10.7911
# 2 -9.1444 34.9720 15.5166 1.0634 0.6083 -5.9626
# 3 2.0529 15.5166 105.6070 -28.3112 4.7841 3.4520
# 4 -7.0208 1.0634 -28.3112 27.5906 -2.5775 2.4346
# 5 12.5311 0.6083 4.7841 -2.5775 30.8132 -10.1869
# 6 -10.7911 -5.9626 3.4520 2.4346 -10.1869 25.3017
#
#
#
# Elastic Compliance Matrix: (Units=1/GPa)
#
#
# Indices 1 2 3 4 5 6 
#
# 1 0.010989 0.003744 -0.000322 0.001670 -0.002942 0.004268
# 2 0.003744 0.035946 -0.008654 -0.010239 0.002652 0.013302
# 3 -0.000322 -0.008654 0.015559 0.016558 -0.003088 -0.007136
# 4 0.001670 -0.010239 0.016558 0.054767 -0.001751 -0.009935
# 5 -0.002942 0.002652 -0.003088 -0.001751 0.039125 0.015713
# 6 0.004268 0.013302 -0.007136 -0.009935 0.015713 0.052734
#
#
# Mechanical properties :
#
#
# Convention : Reuss Voigt Hill
#
# Bulk Modulus (GPa) = 19.21987 28.91353 24.06670
# Shear Modulus (GPa) = 21.10356 32.40419 26.75387
#
# Velocity S-wave (km/s) = 3.07215 3.80684 3.45905
# Velocity P-wave (km/s) = 4.60215 5.67923 5.16882
#
# Compressibility (1/GPa) = 0.05202948
#
# Stress axis : x y z
#
# Youngs Moduli (GPa) = 91.00329 27.81944 64.27206
#
# Poissons Ratio (x) = -0.10417 0.02072
# Poissons Ratio (y) = -0.34075 0.55621
# Poissons Ratio (z) = 0.02934 0.24075
#
# Static dielectric constant tensor:
#      x y z
#    x 1.818240 -0.059150 0.048360 
#    y -0.059150 1.940050 0.066730 
#    z 0.048360 0.066730 2.041320 
# 
# From -- ./inp_files/83377.got.cif
#   From: 2010.05.17/outbox.cif.g08.bks.cpg/sg2_42_cif.got.tgz:83377.got - 2010.06.03 11:33:40.
