data_PCOD9085976
_publ_section_title
;
Structure prediction by ZEFSAII (Michael W. Deem and Ramdas Pophale) SiO2 
 PCOD9085976
Probable space group: P -1
;
_chemical_formula_sum "Si O2"
_cell_formula_units_Z 12
_cell_length_a 7.203603
_cell_length_b 7.957047
_cell_length_c 18.560858
_cell_angle_alpha 56.972023
_cell_angle_beta 134.557054
_cell_angle_gamma 92.638808
_cell_volume 525.252582
_symmetry_space_group_name_H-M "P -1"
_symmetry_group_IT_number 2
_symmetry_cell_setting 'triclinic'
loop_
_space_group_symop_operation_xyz
x,y,z
-x,-y,-z
loop_
_atom_site_type_symbol
_atom_site_label
_atom_site_fract_x
_atom_site_fract_y
_atom_site_fract_z
Si Si1 0.435354 0.896812 0.934751
Si Si2 0.109805 0.655765 0.131302
Si Si3 0.576197 0.524278 0.166832
Si Si4 0.291749 0.271847 0.175951
Si Si5 0.027014 0.379986 0.648479
Si Si6 0.482037 0.744841 0.319138
O O1 0.471147 0.658283 0.030621
O O2 0.735990 0.815658 0.986114
O O3 0.500000 0.000000 0.000000
O O4 0.121554 0.116953 0.762196
O O5 0.289585 0.691867 0.106725
O O6 0.231023 0.376342 0.216436
O O7 0.228182 0.704377 0.225130
O O8 0.589500 0.277729 0.229215
O O9 0.872232 0.509565 0.285940
O O10 0.335526 0.020618 0.236914
O O11 0.000000 0.500000 0.000000
O O12 0.266152 0.324595 0.660481
O O13 0.682359 0.565067 0.480689
#
# Coordination Sequence:
#
# PCOD9085976 Si02
#       6
#     2   2   2   2   2   2
#     4  10  19  35  66  88 115 155 201 241 294 344
#     4   9  21  39  63  88 115 158 193 249 290 340
#     4   8  20  37  59  90 117 150 201 245 286 345
#     4  10  21  35  62  91 112 158 199 241 292 346
#     4   9  19  35  57  94 115 157 196 239 295 354
#     4  10  20  37  62  87 122 155 199 232 304 356
#
# _framework density 22.846153000000001
#
# number of rings (size 3 to 8) (size 9 to 14) (size 15 to 20)
#    1.000    1.667    0.000    1.000    4.667    4.667 
#    0.000    6.667    3.667    4.000    0.000    0.000 
#    0.000    0.000    0.000    0.000    0.000    0.000 
#
# Total GULP energy -66936.030249 kJ/mol
# GULP energy per Si atom -5578.002521 kJ/mol
# Density = 2.279415 g / cm^3
# Si number density = 22.846153 Si / 1000 Ang^3
#
#
#
# Elastic Constant Matrix: (Units=GPa)
#
#
# Indices 1 2 3 4 5 6 
#
# 1 63.3701 8.5918 25.1128 0.0149 -4.1117 0.5531
# 2 8.5918 157.3819 69.7219 1.8292 -1.4300 6.4330
# 3 25.1128 69.7219 168.9139 2.0772 -16.9454 6.8480
# 4 0.0149 1.8292 2.0772 19.3185 -3.2759 6.1558
# 5 -4.1117 -1.4300 -16.9454 -3.2759 22.3854 -0.1632
# 6 0.5531 6.4330 6.8480 6.1558 -0.1632 11.7238
#
#
#
# Elastic Compliance Matrix: (Units=1/GPa)
#
#
# Indices 1 2 3 4 5 6 
#
# 1 0.016812 0.000162 -0.002457 0.000327 0.001289 0.000399
# 2 0.000162 0.007935 -0.003408 0.000037 -0.002055 -0.002419
# 3 -0.002457 -0.003408 0.008415 0.001596 0.005907 -0.003685
# 4 0.000327 0.000037 0.001596 0.064395 0.010442 -0.034635
# 5 0.001289 -0.002055 0.005907 0.010442 0.050725 -0.007160
# 6 0.000399 -0.002419 -0.003685 -0.034635 -0.007160 0.106843
#
#
# Mechanical properties :
#
#
# Convention : Reuss Voigt Hill
#
# Bulk Modulus (GPa) = 45.96499 66.27986 56.12242
# Shear Modulus (GPa) = 18.26266 29.76817 24.01542
#
# Velocity S-wave (km/s) = 2.83039 3.61360 3.24571
# Velocity P-wave (km/s) = 5.55378 6.81801 6.21811
#
# Compressibility (1/GPa) = 0.02175569
#
# Stress axis : x y z
#
# Youngs Moduli (GPa) = 59.48049 126.03056 118.84176
#
# Poissons Ratio (x) = -0.02048 0.29205
# Poissons Ratio (y) = -0.00966 0.40499
# Poissons Ratio (z) = 0.14617 0.42949
#
# Static dielectric constant tensor:
#      x y z
#    x 1.940340 0.003460 -0.009640 
#    y 0.003460 1.939310 0.032090 
#    z -0.009640 0.032090 1.839650 
# 
# From -- ./inp_files/326123.got.cif
#   From: 2010.05.17/outbox.cif.g08.bks.cpg/sg2_164_cif.got.tgz:326123.got - 2010.06.03 11:33:40.
