data_PCOD9085452
_publ_section_title
;
Structure prediction by ZEFSAII (Michael W. Deem and Ramdas Pophale) SiO2 
 PCOD9085452
Probable space group: P -1
;
_chemical_formula_sum "Si O2"
_cell_formula_units_Z 16
_cell_length_a 12.736726
_cell_length_b 11.728858
_cell_length_c 14.705194
_cell_angle_alpha 129.600398
_cell_angle_beta 29.242575
_cell_angle_gamma 113.257012
_cell_volume 747.052138
_symmetry_space_group_name_H-M "P -1"
_symmetry_group_IT_number 2
_symmetry_cell_setting 'triclinic'
loop_
_space_group_symop_operation_xyz
x,y,z
-x,-y,-z
loop_
_atom_site_type_symbol
_atom_site_label
_atom_site_fract_x
_atom_site_fract_y
_atom_site_fract_z
Si Si1 0.553365 0.341748 0.559004
Si Si2 0.552709 0.099459 0.281652
Si Si3 0.919128 0.903019 0.281480
Si Si4 0.987317 0.194866 0.286933
Si Si5 0.257369 0.242688 0.260625
Si Si6 0.339262 0.388819 0.451598
Si Si7 0.948003 0.606421 0.001081
Si Si8 0.207385 0.935409 0.235845
O O1 0.605410 0.202388 0.373135
O O2 0.504564 0.511118 0.631848
O O3 0.325327 0.353040 0.792913
O O4 0.781674 0.298965 0.426786
O O5 0.322112 0.078011 0.477906
O O6 0.481229 0.214303 0.304554
O O7 0.774401 0.929842 0.007616
O O8 0.968031 0.772326 0.097526
O O9 0.122247 0.847959 0.177221
O O10 0.898740 0.073384 0.344303
O O11 0.068432 0.294119 0.348506
O O12 0.237584 0.360880 0.418871
O O13 0.230828 0.088500 0.248632
O O14 0.528525 0.178787 0.986845
O O15 0.128076 0.500432 0.734853
O O16 0.000000 0.500000 0.000000
O O17 0.000000 0.000000 0.500000
#
# Coordination Sequence:
#
# PCOD9085452 Si02
#       8
#     2   2   2   2   2   2   2   2
#     4  11  26  40  63  94 127 167 201 252 318 375
#     4  11  22  38  67  95 118 156 211 263 312 361
#     4  10  21  37  63  90 124 159 204 260 308 362
#     4  11  24  43  60  90 131 167 204 246 313 379
#     4  10  23  36  58  91 123 165 210 248 300 371
#     4  12  23  40  66  91 129 159 211 263 306 357
#     4  11  24  40  62  96 124 154 209 258 315 367
#     4  10  19  35  60  91 121 160 206 260 305 351
#
# _framework density 21.417513
#
# number of rings (size 3 to 8) (size 9 to 14) (size 15 to 20)
#    0.000    1.250    2.500    5.250    3.500    3.500 
#    0.000    0.625    0.000    0.000    0.000    0.000 
#    0.000    0.000    0.000    0.000    0.000    0.000 
#
# Total GULP energy -89537.577910 kJ/mol
# GULP energy per Si atom -5596.098619 kJ/mol
# Density = 2.136877 g / cm^3
# Si number density = 21.417513 Si / 1000 Ang^3
#
#
#
# Elastic Constant Matrix: (Units=GPa)
#
#
# Indices 1 2 3 4 5 6 
#
# 1 110.2629 24.1949 54.5355 -6.7770 -8.8179 27.6345
# 2 24.1949 58.2944 35.8294 -11.5353 -0.6126 17.0525
# 3 54.5355 35.8294 118.7468 -15.7168 6.0241 15.1827
# 4 -6.7770 -11.5353 -15.7168 27.7307 2.1359 -2.7637
# 5 -8.8179 -0.6126 6.0241 2.1359 35.6168 3.1071
# 6 27.6345 17.0525 15.1827 -2.7637 3.1071 30.9693
#
#
#
# Elastic Compliance Matrix: (Units=1/GPa)
#
#
# Indices 1 2 3 4 5 6 
#
# 1 0.015326 0.000730 -0.006206 -0.001095 0.005946 -0.011730
# 2 0.000730 0.024857 -0.005720 0.005989 0.002195 -0.011220
# 3 -0.006206 -0.005720 0.013421 0.004344 -0.004422 0.002939
# 4 -0.001095 0.005989 0.004344 0.040956 -0.003319 -0.000463
# 5 0.005946 0.002195 -0.004422 -0.003319 0.031211 -0.007774
# 6 -0.011730 -0.011220 0.002939 -0.000463 -0.007774 0.048233
#
#
# Mechanical properties :
#
#
# Convention : Reuss Voigt Hill
#
# Bulk Modulus (GPa) = 32.03711 57.38043 44.70877
# Shear Modulus (GPa) = 24.17795 30.37964 27.27879
#
# Velocity S-wave (km/s) = 3.36354 3.77032 3.57272
# Velocity P-wave (km/s) = 5.48410 6.76781 6.15949
#
# Compressibility (1/GPa) = 0.03121380
#
# Stress axis : x y z
#
# Youngs Moduli (GPa) = 65.24697 40.23003 74.51203
#
# Poissons Ratio (x) = -0.02938 0.46241
# Poissons Ratio (y) = -0.04765 0.42617
# Poissons Ratio (z) = 0.40492 0.23010
#
# Static dielectric constant tensor:
#      x y z
#    x 1.793730 0.012180 -0.007240 
#    y 0.012180 1.757970 -0.003880 
#    z -0.007240 -0.003880 1.773180 
# 
# From -- ./inp_files/464703.got.cif
#   From: 2010.05.17/outbox.cif.g08.bks.cpg/sg2_233_cif.got.tgz:464703.got - 2010.06.03 11:33:40.
