data_PCOD9085868
_publ_section_title
;
Structure prediction by ZEFSAII (Michael W. Deem and Ramdas Pophale) SiO2 
 PCOD9085868
Probable space group: P -1
;
_chemical_formula_sum "Si O2"
_cell_formula_units_Z 16
_cell_length_a 13.680748
_cell_length_b 9.305011
_cell_length_c 11.329713
_cell_angle_alpha 104.300268
_cell_angle_beta 147.901746
_cell_angle_gamma 89.072326
_cell_volume 688.460999
_symmetry_space_group_name_H-M "P -1"
_symmetry_group_IT_number 2
_symmetry_cell_setting 'triclinic'
loop_
_space_group_symop_operation_xyz
x,y,z
-x,-y,-z
loop_
_atom_site_type_symbol
_atom_site_label
_atom_site_fract_x
_atom_site_fract_y
_atom_site_fract_z
Si Si1 0.816137 0.533840 0.060630
Si Si2 0.080988 0.170798 0.388831
Si Si3 0.453233 0.758320 0.108930
Si Si4 0.490292 0.373608 0.363010
Si Si5 0.101692 0.675629 0.580639
Si Si6 0.461681 0.943667 0.583790
Si Si7 0.094263 0.395305 0.224213
Si Si8 0.991123 0.108499 0.900473
O O1 0.010774 0.647221 0.352399
O O2 0.903755 0.445544 0.035836
O O3 0.666405 0.396484 0.964424
O O4 0.690207 0.631374 0.904265
O O5 0.315599 0.212683 0.658071
O O6 0.069266 0.289576 0.295817
O O7 0.980118 0.208896 0.407639
O O8 0.976107 0.991074 0.196008
O O9 0.439734 0.909246 0.196639
O O10 0.334488 0.733037 0.859097
O O11 0.500000 0.500000 0.500000
O O12 0.471314 0.203183 0.357772
O O13 0.701166 0.454230 0.529609
O O14 0.000000 0.500000 0.500000
O O15 0.226947 0.893009 0.347200
O O16 0.500000 0.000000 0.500000
O O17 0.105060 0.285079 0.103302
O O18 0.000000 0.000000 0.000000
#
# Coordination Sequence:
#
# PCOD9085868 Si02
#       8
#     2   2   2   2   2   2   2   2
#     4  11  23  42  65  97 129 165 214 261 317 377
#     4  10  19  35  63  99 130 166 213 262 305 372
#     4  10  20  38  63  93 125 165 213 257 308 368
#     4  12  27  41  63  94 131 170 205 265 331 374
#     4  10  21  36  63  99 125 168 216 260 307 368
#     4  11  24  41  62  90 123 163 213 264 312 386
#     4  11  21  40  61  93 136 165 206 263 316 379
#     4   9  21  35  62  94 125 164 205 254 315 375
#
# _framework density 23.240241999999999
#
# number of rings (size 3 to 8) (size 9 to 14) (size 15 to 20)
#    0.000    1.500    3.750    2.250    5.250    5.000 
#    0.000    0.625    0.000    3.750    0.000    0.000 
#    0.000    0.000    0.000    0.000    0.000    0.000 
#
# Total GULP energy -89522.718303 kJ/mol
# GULP energy per Si atom -5595.169894 kJ/mol
# Density = 2.318735 g / cm^3
# Si number density = 23.240242 Si / 1000 Ang^3
#
#
#
# Elastic Constant Matrix: (Units=GPa)
#
#
# Indices 1 2 3 4 5 6 
#
# 1 44.0676 27.1026 10.3265 3.6060 6.9688 -16.4397
# 2 27.1026 155.7959 65.7873 -19.5612 -2.7863 -12.4569
# 3 10.3265 65.7873 143.2941 -5.9096 1.4163 -0.6081
# 4 3.6060 -19.5612 -5.9096 35.0170 -11.9402 0.9309
# 5 6.9688 -2.7863 1.4163 -11.9402 31.9049 3.2215
# 6 -16.4397 -12.4569 -0.6081 0.9309 3.2215 33.8005
#
#
#
# Elastic Compliance Matrix: (Units=1/GPa)
#
#
# Indices 1 2 3 4 5 6 
#
# 1 0.037009 -0.007157 0.000288 -0.013509 -0.015516 0.017219
# 2 -0.007157 0.010390 -0.003990 0.007794 0.005612 -0.000473
# 3 0.000288 -0.003990 0.008750 -0.001137 -0.001121 -0.001035
# 4 -0.013509 0.007794 -0.001137 0.041010 0.019708 -0.006726
# 5 -0.015516 0.005612 -0.001121 0.019708 0.043678 -0.010204
# 6 0.017219 -0.000473 -0.001035 -0.006726 -0.010204 0.038925
#
#
# Mechanical properties :
#
#
# Convention : Reuss Voigt Hill
#
# Bulk Modulus (GPa) = 29.04411 61.06559 45.05485
# Shear Modulus (GPa) = 23.47908 36.14056 29.80982
#
# Velocity S-wave (km/s) = 3.18193 3.94774 3.58534
# Velocity P-wave (km/s) = 5.10138 6.86384 6.04716
#
# Compressibility (1/GPa) = 0.03443039
#
# Stress axis : x y z
#
# Youngs Moduli (GPa) = 27.02049 96.24930 114.28981
#
# Poissons Ratio (x) = 0.68881 -0.03290
# Poissons Ratio (y) = 0.19337 0.45605
# Poissons Ratio (z) = -0.00778 0.38406
#
# Static dielectric constant tensor:
#      x y z
#    x 1.874180 0.020410 0.001910 
#    y 0.020410 1.866900 0.011120 
#    z 0.001910 0.011120 1.889230 
# 
# From -- ./inp_files/447963.got.cif
#   From: 2010.05.17/outbox.cif.g08.bks.cpg/sg2_224_cif.got.tgz:447963.got - 2010.06.03 11:33:40.
