data_PCOD9085684
_publ_section_title
;
Structure prediction by ZEFSAII (Michael W. Deem and Ramdas Pophale) SiO2 
 PCOD9085684
Probable space group: P -1
;
_chemical_formula_sum "Si O2"
_cell_formula_units_Z 12
_cell_length_a 14.187524
_cell_length_b 10.337013
_cell_length_c 8.041162
_cell_angle_alpha 107.631896
_cell_angle_beta 135.732722
_cell_angle_gamma 45.716449
_cell_volume 541.519990
_symmetry_space_group_name_H-M "P -1"
_symmetry_group_IT_number 2
_symmetry_cell_setting 'triclinic'
loop_
_space_group_symop_operation_xyz
x,y,z
-x,-y,-z
loop_
_atom_site_type_symbol
_atom_site_label
_atom_site_fract_x
_atom_site_fract_y
_atom_site_fract_z
Si Si1 0.631310 0.424895 0.798359
Si Si2 0.753551 0.294482 0.378751
Si Si3 0.208405 0.410030 0.039882
Si Si4 0.425328 0.997485 0.229516
Si Si5 0.199468 0.434531 0.442074
Si Si6 0.134141 0.968725 0.893715
O O1 0.500000 0.500000 0.500000
O O2 0.470441 0.542410 0.787004
O O3 0.737247 0.491507 0.943811
O O4 0.778141 0.193028 0.919217
O O5 0.815093 0.401885 0.447156
O O6 0.799177 0.153945 0.239554
O O7 0.901423 0.152120 0.661965
O O8 0.219992 0.428968 0.262698
O O9 0.356304 0.176593 0.105934
O O10 0.993817 0.514095 0.759876
O O11 0.608550 0.773955 0.317231
O O12 0.500000 0.000000 0.500000
O O13 0.239401 0.037637 0.050029
#
# Coordination Sequence:
#
# PCOD9085684 Si02
#       6
#     2   2   2   2   2   2
#     4  12  23  40  63  99 124 158 210 273 305 352
#     4  11  23  42  66  90 127 171 210 244 316 381
#     4  10  21  36  58  93 125 148 211 260 305 360
#     4  10  19  35  62  89 116 161 208 248 301 367
#     4  10  19  37  63  86 119 171 200 248 310 374
#     4  11  24  41  67  90 126 172 209 249 309 386
#
# _framework density 22.159846999999999
#
# number of rings (size 3 to 8) (size 9 to 14) (size 15 to 20)
#    0.000    1.333    5.000    1.500    0.000    2.000 
#    0.000    1.667    0.000    0.000    0.000    0.000 
#    0.000    0.000    0.000    0.000    0.000    0.000 
#
# Total GULP energy -67108.371913 kJ/mol
# GULP energy per Si atom -5592.364326 kJ/mol
# Density = 2.210941 g / cm^3
# Si number density = 22.159847 Si / 1000 Ang^3
#
#
#
# Elastic Constant Matrix: (Units=GPa)
#
#
# Indices 1 2 3 4 5 6 
#
# 1 42.3105 2.8587 25.5414 14.1727 20.7184 12.3927
# 2 2.8587 73.9285 10.5242 -2.4233 5.9081 18.1254
# 3 25.5414 10.5242 71.9873 -4.5801 14.0870 10.8565
# 4 14.1727 -2.4233 -4.5801 52.4970 6.3173 8.4396
# 5 20.7184 5.9081 14.0870 6.3173 32.6995 4.6163
# 6 12.3927 18.1254 10.8565 8.4396 4.6163 32.6822
#
#
#
# Elastic Compliance Matrix: (Units=1/GPa)
#
#
# Indices 1 2 3 4 5 6 
#
# 1 0.048122 0.004023 -0.012207 -0.009413 -0.022615 -0.010798
# 2 0.004023 0.016388 -0.001474 0.001604 -0.003772 -0.010006
# 3 -0.012207 -0.001474 0.019322 0.005396 -0.001053 -0.002217
# 4 -0.009413 0.001604 0.005396 0.022984 -0.000386 -0.004994
# 5 -0.022615 -0.003772 -0.001053 -0.000386 0.045457 0.004696
# 6 -0.010798 -0.010006 -0.002217 -0.004994 0.004696 0.041604
#
#
# Mechanical properties :
#
#
# Convention : Reuss Voigt Hill
#
# Bulk Modulus (GPa) = 15.50000 29.56385 22.53193
# Shear Modulus (GPa) = 21.30399 33.52921 27.41660
#
# Velocity S-wave (km/s) = 3.10397 3.89403 3.52123
# Velocity P-wave (km/s) = 4.45601 5.79552 5.16934
#
# Compressibility (1/GPa) = 0.06451612
#
# Stress axis : x y z
#
# Youngs Moduli (GPa) = 20.78058 61.01962 51.75568
#
# Poissons Ratio (x) = -0.24549 0.63178
# Poissons Ratio (y) = -0.08360 0.07629
# Poissons Ratio (z) = 0.25367 0.08994
#
# Static dielectric constant tensor:
#      x y z
#    x 1.797670 -0.088770 -0.058050 
#    y -0.088770 1.657120 -0.053220 
#    z -0.058050 -0.053220 1.812870 
# 
# From -- ./inp_files/148546.got.cif
#   From: 2010.05.17/outbox.cif.g08.bks.cpg/sg2_75_cif.got.tgz:148546.got - 2010.06.03 11:33:40.
