data_PCOD9085945
_publ_section_title
;
Structure prediction by ZEFSAII (Michael W. Deem and Ramdas Pophale) SiO2 
 PCOD9085945
Probable space group: P -1
;
_chemical_formula_sum "Si O2"
_cell_formula_units_Z 12
_cell_length_a 7.338203
_cell_length_b 10.491382
_cell_length_c 9.502799
_cell_angle_alpha 50.107308
_cell_angle_beta 91.583078
_cell_angle_gamma 63.607663
_cell_volume 447.748260
_symmetry_space_group_name_H-M "P -1"
_symmetry_group_IT_number 2
_symmetry_cell_setting 'triclinic'
loop_
_space_group_symop_operation_xyz
x,y,z
-x,-y,-z
loop_
_atom_site_type_symbol
_atom_site_label
_atom_site_fract_x
_atom_site_fract_y
_atom_site_fract_z
Si Si1 0.988975 0.684786 0.556304
Si Si2 0.220837 0.695596 0.994638
Si Si3 0.405967 0.358001 0.465243
Si Si4 0.149092 0.877609 0.227045
Si Si5 0.277441 0.046669 0.382531
Si Si6 0.332651 0.354437 0.006777
O O1 0.781491 0.682845 0.502446
O O2 0.907260 0.842201 0.575017
O O3 0.081251 0.740687 0.390374
O O4 0.190453 0.467071 0.783088
O O5 0.281100 0.578508 0.229160
O O6 0.403299 0.742631 0.941537
O O7 0.254166 0.528650 0.002424
O O8 0.970663 0.915408 0.819692
O O9 0.574982 0.267516 0.667759
O O10 0.611765 0.194097 0.478791
O O11 0.000000 0.000000 0.000000
O O12 0.500000 0.000000 0.500000
O O13 0.271710 0.203523 0.159238
#
# Coordination Sequence:
#
# PCOD9085945 Si02
#       6
#     2   2   2   2   2   2
#     4  11  23  41  67  99 138 170 212 270 332 396
#     4  11  23  41  71 101 135 172 216 265 335 401
#     4  11  24  43  69 102 130 172 219 269 336 394
#     4  12  29  49  65  89 132 185 233 274 309 372
#     4  10  19  35  65 103 141 161 200 266 342 405
#     4  11  21  38  70 110 137 165 201 272 349 404
#
# _framework density 26.800773
#
# number of rings (size 3 to 8) (size 9 to 14) (size 15 to 20)
#    0.000    1.000    5.000    3.500    4.667    2.667 
#    0.000    0.833    0.000    0.000    0.000    0.000 
#    0.000    0.000    0.000    0.000    0.000    0.000 
#
# Total GULP energy -67126.624528 kJ/mol
# GULP energy per Si atom -5593.885377 kJ/mol
# Density = 2.673977 g / cm^3
# Si number density = 26.800773 Si / 1000 Ang^3
#
#
#
# Elastic Constant Matrix: (Units=GPa)
#
#
# Indices 1 2 3 4 5 6 
#
# 1 183.2372 9.8884 74.7960 -8.5513 -4.4740 1.5066
# 2 9.8884 41.0987 17.8815 -8.9257 -9.5069 -6.3802
# 3 74.7960 17.8815 227.9146 -18.0933 -5.9702 -10.8247
# 4 -8.5513 -8.9257 -18.0933 41.8332 -22.7188 11.3026
# 5 -4.4740 -9.5069 -5.9702 -22.7188 36.3513 -1.3065
# 6 1.5066 -6.3802 -10.8247 11.3026 -1.3065 30.9294
#
#
#
# Elastic Compliance Matrix: (Units=1/GPa)
#
#
# Indices 1 2 3 4 5 6 
#
# 1 0.006403 -0.000302 -0.002002 0.001479 0.001248 -0.001562
# 2 -0.000302 0.032828 -0.000606 0.016558 0.018845 0.001320
# 3 -0.002002 -0.000606 0.005416 0.002769 0.002249 0.000951
# 4 0.001479 0.016558 0.002769 0.052999 0.037606 -0.013466
# 5 0.001248 0.018845 0.002249 0.037606 0.056221 -0.006754
# 6 -0.001562 0.001320 0.000951 -0.013466 -0.006754 0.037649
#
#
# Mechanical properties :
#
#
# Convention : Reuss Voigt Hill
#
# Bulk Modulus (GPa) = 25.75478 73.04248 49.39863
# Shear Modulus (GPa) = 23.77811 45.13510 34.45660
#
# Velocity S-wave (km/s) = 2.98185 4.10823 3.58950
# Velocity P-wave (km/s) = 4.63528 7.05807 5.97086
#
# Compressibility (1/GPa) = 0.03882775
#
# Stress axis : x y z
#
# Youngs Moduli (GPa) = 156.17297 30.46180 184.64043
#
# Poissons Ratio (x) = 0.00921 0.36961
# Poissons Ratio (y) = 0.04722 0.11181
# Poissons Ratio (z) = 0.31262 0.01845
#
# Static dielectric constant tensor:
#      x y z
#    x 1.598140 -0.256270 0.003970 
#    y -0.256270 2.103270 0.033580 
#    z 0.003970 0.033580 2.092750 
# 
# From -- ./inp_files/174243.got.cif
#   From: 2010.05.17/outbox.cif.g08.bks.cpg/sg2_88_cif.got.tgz:174243.got - 2010.06.03 11:33:40.
