data_PCOD9085529
_publ_section_title
;
Structure prediction by ZEFSAII (Michael W. Deem and Ramdas Pophale) SiO2 
 PCOD9085529
Probable space group: P -1
;
_chemical_formula_sum "Si O2"
_cell_formula_units_Z 16
_cell_length_a 30.722502
_cell_length_b 9.036369
_cell_length_c 14.294041
_cell_angle_alpha 133.737637
_cell_angle_beta 159.625432
_cell_angle_gamma 34.688569
_cell_volume 720.293487
_symmetry_space_group_name_H-M "P -1"
_symmetry_group_IT_number 2
_symmetry_cell_setting 'triclinic'
loop_
_space_group_symop_operation_xyz
x,y,z
-x,-y,-z
loop_
_atom_site_type_symbol
_atom_site_label
_atom_site_fract_x
_atom_site_fract_y
_atom_site_fract_z
Si Si1 0.020429 0.901185 0.622004
Si Si2 0.588386 0.489567 0.309327
Si Si3 0.309583 0.313624 0.246315
Si Si4 0.249770 0.924418 0.708500
Si Si5 0.415066 0.536390 0.443127
Si Si6 0.727163 0.721737 0.228002
Si Si7 0.213562 0.988225 0.956360
Si Si8 0.634131 0.063863 0.352664
O O1 0.860971 0.065457 0.300362
O O2 0.162503 0.587078 0.727766
O O3 0.934539 0.921012 0.551885
O O4 0.104615 0.030149 0.844170
O O5 0.694548 0.521946 0.604112
O O6 0.686734 0.331863 0.342099
O O7 0.573138 0.291399 0.247354
O O8 0.399721 0.785099 0.028084
O O9 0.304737 0.453965 0.202636
O O10 0.500000 0.000000 0.500000
O O11 0.190025 0.251412 0.994329
O O12 0.245926 0.127330 0.725066
O O13 0.500000 0.500000 0.500000
O O14 0.312220 0.842787 0.415545
O O15 0.587853 0.292429 0.746047
O O16 0.761851 0.768654 0.423916
O O17 0.527711 0.876066 0.904420
#
# Coordination Sequence:
#
# PCOD9085529 Si02
#       8
#     2   2   2   2   2   2   2   2
#     4  11  21  37  59  78 120 149 187 229 283 348
#     4   9  19  36  60  83 114 142 190 235 279 332
#     4   9  18  35  57  80 108 150 187 223 274 338
#     4  10  20  34  57  91 111 145 185 239 283 325
#     4  10  19  35  61  86 112 138 190 243 275 321
#     4  10  20  33  56  83 113 144 186 234 279 332
#     4  10  22  37  57  80 109 157 191 217 287 342
#     4   9  18  35  56  83 111 144 185 230 283 329
#
# _framework density 22.213166999999999
#
# number of rings (size 3 to 8) (size 9 to 14) (size 15 to 20)
#    0.000    2.250    1.250    2.625    1.750    3.000 
#    2.250    0.625    2.750    2.250    0.000    0.000 
#    0.000    0.000    0.000    0.000    0.000    0.000 
#
# Total GULP energy -89185.583230 kJ/mol
# GULP energy per Si atom -5574.098952 kJ/mol
# Density = 2.216261 g / cm^3
# Si number density = 22.213167 Si / 1000 Ang^3
#
#
#
# Elastic Constant Matrix: (Units=GPa)
#
#
# Indices 1 2 3 4 5 6 
#
# 1 126.7188 45.8828 29.0937 11.0959 44.8325 -3.3951
# 2 45.8828 80.5303 22.9929 20.3955 30.6659 -0.6837
# 3 29.0937 22.9929 59.9417 11.4067 26.6352 6.5412
# 4 11.0959 20.3955 11.4067 35.1603 9.7396 10.9070
# 5 44.8325 30.6659 26.6352 9.7396 44.8414 4.5997
# 6 -3.3951 -0.6837 6.5412 10.9070 4.5997 24.8699
#
#
#
# Elastic Compliance Matrix: (Units=1/GPa)
#
#
# Indices 1 2 3 4 5 6 
#
# 1 0.013192 -0.002946 -0.000720 -0.000440 -0.011078 0.004151
# 2 -0.002946 0.020397 -0.001323 -0.010093 -0.008697 0.006542
# 3 -0.000720 -0.001323 0.023432 -0.002479 -0.011438 -0.003095
# 4 -0.000440 -0.010093 -0.002479 0.040193 0.001897 -0.017664
# 5 -0.011078 -0.008697 -0.011438 0.001897 0.046545 -0.008184
# 6 0.004151 0.006542 -0.003095 -0.017664 -0.008184 0.051030
#
#
# Mechanical properties :
#
#
# Convention : Reuss Voigt Hill
#
# Bulk Modulus (GPa) = 21.25673 51.45883 36.35778
# Shear Modulus (GPa) = 22.68097 32.25574 27.46835
#
# Velocity S-wave (km/s) = 3.19887 3.81478 3.52032
# Velocity P-wave (km/s) = 4.82015 6.52837 5.73818
#
# Compressibility (1/GPa) = 0.04704392
#
# Stress axis : x y z
#
# Youngs Moduli (GPa) = 75.80072 49.02569 42.67738
#
# Poissons Ratio (x) = 0.14442 0.03073
# Poissons Ratio (y) = 0.22329 0.05646
# Poissons Ratio (z) = 0.05458 0.06486
#
# Static dielectric constant tensor:
#      x y z
#    x 1.905880 -0.000080 -0.003670 
#    y -0.000080 1.864150 0.040390 
#    z -0.003670 0.040390 1.876440 
# 
# From -- ./inp_files/544887.got.cif
#   From: 2010.05.17/outbox.cif.g08.bks.cpg/sg2_273_cif.got.tgz:544887.got - 2010.06.03 11:33:40.
