data_PCOD9085707
_publ_section_title
;
Structure prediction by ZEFSAII (Michael W. Deem and Ramdas Pophale) SiO2 
 PCOD9085707
Probable space group: P -1
;
_chemical_formula_sum "Si O2"
_cell_formula_units_Z 16
_cell_length_a 18.653670
_cell_length_b 8.841657
_cell_length_c 15.688207
_cell_angle_alpha 50.267712
_cell_angle_beta 25.358500
_cell_angle_gamma 65.937900
_cell_volume 730.101160
_symmetry_space_group_name_H-M "P -1"
_symmetry_group_IT_number 2
_symmetry_cell_setting 'triclinic'
loop_
_space_group_symop_operation_xyz
x,y,z
-x,-y,-z
loop_
_atom_site_type_symbol
_atom_site_label
_atom_site_fract_x
_atom_site_fract_y
_atom_site_fract_z
Si Si1 0.493028 0.298033 0.203513
Si Si2 0.798357 0.649450 0.628062
Si Si3 0.261705 0.761858 0.246069
Si Si4 0.176015 0.077764 0.112835
Si Si5 0.776317 0.202311 0.348782
Si Si6 0.198991 0.331458 0.831681
Si Si7 0.683364 0.134381 0.666085
Si Si8 0.509292 0.463367 0.709576
O O1 0.343317 0.314293 0.293972
O O2 0.480834 0.385597 0.277130
O O3 0.419390 0.030585 0.381083
O O4 0.697146 0.473294 0.877731
O O5 0.859079 0.504761 0.553143
O O6 0.946922 0.895441 0.419384
O O7 0.209853 0.817378 0.375014
O O8 0.244748 0.910054 0.135942
O O9 0.498684 0.872465 0.955644
O O10 0.229122 0.183819 0.923341
O O11 0.288093 0.298614 0.973421
O O12 0.762555 0.423994 0.262056
O O13 0.796191 0.202438 0.430932
O O14 0.967713 0.212194 0.100736
O O15 0.345447 0.388208 0.576122
O O16 0.587996 0.295431 0.712847
#
# Coordination Sequence:
#
# PCOD9085707 Si02
#       8
#     2   2   2   2   2   2   2   2
#     4  11  22  39  65  95 120 160 203 262 306 355
#     4  11  22  38  62  95 132 151 202 254 318 368
#     4  10  19  35  62  90 128 159 195 250 305 374
#     4  11  23  40  61  91 127 167 197 250 315 370
#     4  10  20  40  67  88 121 159 209 263 293 359
#     4  10  22  42  64  88 118 169 212 245 304 361
#     4   9  18  36  62  93 118 159 207 241 304 366
#     4  10  22  40  64  89 123 164 210 252 293 367
#
# _framework density 21.914771999999999
#
# number of rings (size 3 to 8) (size 9 to 14) (size 15 to 20)
#    0.000    1.750    3.750    0.750    0.000    1.000 
#    2.250    0.625    0.000    0.000    0.000    0.000 
#    0.000    0.000    0.000    0.000    0.000    0.000 
#
# Total GULP energy -89264.418840 kJ/mol
# GULP energy per Si atom -5579.026177 kJ/mol
# Density = 2.186489 g / cm^3
# Si number density = 21.914772 Si / 1000 Ang^3
#
#
#
# Elastic Constant Matrix: (Units=GPa)
#
#
# Indices 1 2 3 4 5 6 
#
# 1 78.8330 27.0070 32.3540 -4.3799 7.3535 2.7975
# 2 27.0070 53.4851 17.6186 -7.4846 2.6127 16.7998
# 3 32.3540 17.6186 95.3337 -19.8789 5.4432 19.4865
# 4 -4.3799 -7.4846 -19.8789 17.3673 -9.2335 6.4481
# 5 7.3535 2.6127 5.4432 -9.2335 22.2934 -7.9617
# 6 2.7975 16.7998 19.4865 6.4481 -7.9617 29.8810
#
#
#
# Elastic Compliance Matrix: (Units=1/GPa)
#
#
# Indices 1 2 3 4 5 6 
#
# 1 0.023320 -0.018106 -0.015631 -0.032029 -0.006692 0.023318
# 2 -0.018106 0.043520 0.018506 0.053531 0.002163 -0.045816
# 3 -0.015631 0.018506 0.033457 0.060656 0.004731 -0.042588
# 4 -0.032029 0.053531 0.060656 0.198157 0.035894 -0.099851
# 5 -0.006692 0.002163 0.004731 0.035894 0.062378 0.005200
# 6 0.023318 -0.045816 -0.042588 -0.099851 0.005200 0.107748
#
#
# Mechanical properties :
#
#
# Convention : Reuss Voigt Hill
#
# Bulk Modulus (GPa) = 14.31955 42.40123 28.36039
# Shear Modulus (GPa) = 9.57267 23.95314 16.76290
#
# Velocity S-wave (km/s) = 2.09228 3.30966 2.76871
# Velocity P-wave (km/s) = 3.51926 5.83056 4.81563
#
# Compressibility (1/GPa) = 0.06983462
#
# Stress axis : x y z
#
# Youngs Moduli (GPa) = 42.88122 22.97810 29.88890
#
# Poissons Ratio (x) = 0.41604 0.46719
# Poissons Ratio (y) = 0.77640 -0.55311
# Poissons Ratio (z) = 0.67028 -0.42522
#
# Static dielectric constant tensor:
#      x y z
#    x 1.814480 -0.021750 -0.045260 
#    y -0.021750 1.821730 0.020820 
#    z -0.045260 0.020820 1.894740 
# 
# From -- ./inp_files/217515.got.cif
#   From: 2010.05.17/outbox.cif.g08.bks.cpg/sg2_109_cif.got.tgz:217515.got - 2010.06.03 11:33:40.
