data_PCOD9085806
_publ_section_title
;
Structure prediction by ZEFSAII (Michael W. Deem and Ramdas Pophale) SiO2 
 PCOD9085806
Probable space group: P -1
;
_chemical_formula_sum "Si O2"
_cell_formula_units_Z 16
_cell_length_a 9.379568
_cell_length_b 19.208964
_cell_length_c 7.225706
_cell_angle_alpha 40.586072
_cell_angle_beta 121.685317
_cell_angle_gamma 133.059692
_cell_volume 618.779001
_symmetry_space_group_name_H-M "P -1"
_symmetry_group_IT_number 2
_symmetry_cell_setting 'triclinic'
loop_
_space_group_symop_operation_xyz
x,y,z
-x,-y,-z
loop_
_atom_site_type_symbol
_atom_site_label
_atom_site_fract_x
_atom_site_fract_y
_atom_site_fract_z
Si Si1 0.065700 0.269794 0.673609
Si Si2 0.408524 0.352800 0.244714
Si Si3 0.592081 0.075363 0.183825
Si Si4 0.087969 0.515941 0.230115
Si Si5 0.453589 0.151593 0.590510
Si Si6 0.820613 0.993821 0.000789
Si Si7 0.474644 0.366541 0.695201
Si Si8 0.004565 0.291938 0.150423
O O1 0.058715 0.383098 0.536290
O O2 0.268918 0.273773 0.836548
O O3 0.894324 0.130004 0.859119
O O4 0.060152 0.296562 0.395737
O O5 0.508902 0.292734 0.313208
O O6 0.442477 0.335579 0.518049
O O7 0.181139 0.293655 0.161799
O O8 0.500000 0.500000 0.000000
O O9 0.792251 0.171877 0.221830
O O10 0.573731 0.942893 0.397969
O O11 0.379740 0.047758 0.166317
O O12 0.594310 0.139240 0.859042
O O13 0.317526 0.616079 0.161073
O O14 0.999294 0.583437 0.150094
O O15 0.000000 0.500000 0.000000
O O16 0.254241 0.094957 0.691541
O O17 0.000000 0.000000 0.000000
O O18 0.500000 0.500000 0.500000
#
# Coordination Sequence:
#
# PCOD9085806 Si02
#       8
#     2   2   2   2   2   2   2   2
#     4   9  19  33  57  90 121 159 203 254 323 371
#     4  11  23  40  63  90 122 168 220 258 317 387
#     4   9  21  40  63  85 123 174 204 253 324 370
#     4   9  18  34  59  86 122 160 199 259 319 371
#     4   9  21  43  62  81 131 165 207 259 316 380
#     4  10  19  35  63  90 113 159 212 258 303 376
#     4   9  18  37  60  85 128 163 200 266 324 370
#     4  10  20  36  58  86 127 161 203 260 321 368
#
# _framework density 25.857372999999999
#
# number of rings (size 3 to 8) (size 9 to 14) (size 15 to 20)
#    0.750    1.750    0.000    3.000    1.750    2.000 
#    4.500    1.250    2.750    0.000    0.000    0.000 
#    0.000    0.000    0.000    0.000    0.000    0.000 
#
# Total GULP energy -89395.642577 kJ/mol
# GULP energy per Si atom -5587.227661 kJ/mol
# Density = 2.579852 g / cm^3
# Si number density = 25.857373 Si / 1000 Ang^3
#
#
#
# Elastic Constant Matrix: (Units=GPa)
#
#
# Indices 1 2 3 4 5 6 
#
# 1 120.4251 45.9501 41.6411 12.6828 32.3176 3.8176
# 2 45.9501 154.0194 38.2409 13.2352 22.3655 18.4994
# 3 41.6411 38.2409 96.1792 -17.7803 38.3242 -7.7761
# 4 12.6828 13.2352 -17.7803 40.9114 -6.7614 6.9128
# 5 32.3176 22.3655 38.3242 -6.7614 46.9147 0.7510
# 6 3.8176 18.4994 -7.7761 6.9128 0.7510 42.4200
#
#
#
# Elastic Compliance Matrix: (Units=1/GPa)
#
#
# Indices 1 2 3 4 5 6 
#
# 1 0.012204 -0.001436 -0.003526 -0.005776 -0.005673 -0.000077
# 2 -0.001436 0.008607 -0.003418 -0.003323 -0.000741 -0.003696
# 3 -0.003526 -0.003418 0.019381 0.008146 -0.010667 0.004222
# 4 -0.005776 -0.003323 0.008146 0.031728 0.003510 -0.001771
# 5 -0.005673 -0.000741 -0.010667 0.003510 0.034833 -0.002310
# 6 -0.000077 -0.003696 0.004222 -0.001771 -0.002310 0.026296
#
#
# Mechanical properties :
#
#
# Convention : Reuss Voigt Hill
#
# Bulk Modulus (GPa) = 42.67880 69.14306 55.91093
# Shear Modulus (GPa) = 31.72178 42.36867 37.04522
#
# Velocity S-wave (km/s) = 3.50637 4.05230 3.78918
# Velocity P-wave (km/s) = 5.73883 6.97804 6.38855
#
# Compressibility (1/GPa) = 0.02343084
#
# Stress axis : x y z
#
# Youngs Moduli (GPa) = 81.93726 116.18544 51.59798
#
# Poissons Ratio (x) = 0.16686 0.18196
# Poissons Ratio (y) = 0.11767 0.17636
# Poissons Ratio (z) = 0.28895 0.39712
#
# Static dielectric constant tensor:
#      x y z
#    x 2.071560 -0.016800 -0.011940 
#    y -0.016800 2.064270 -0.068220 
#    z -0.011940 -0.068220 2.174330 
# 
# From -- ./inp_files/439460.got.cif
#   From: 2010.05.17/outbox.cif.g08.bks.cpg/sg2_220_cif.got.tgz:439460.got - 2010.06.03 11:33:40.
