data_PCOD9085368
_publ_section_title
;
Structure prediction by ZEFSAII (Michael W. Deem and Ramdas Pophale) SiO2 
 PCOD9085368
Probable space group: P -1
;
_chemical_formula_sum "Si O2"
_cell_formula_units_Z 16
_cell_length_a 15.520970
_cell_length_b 24.139140
_cell_length_c 9.518108
_cell_angle_alpha 134.429144
_cell_angle_beta 138.032444
_cell_angle_gamma 20.261884
_cell_volume 825.791537
_symmetry_space_group_name_H-M "P -1"
_symmetry_group_IT_number 2
_symmetry_cell_setting 'triclinic'
loop_
_space_group_symop_operation_xyz
x,y,z
-x,-y,-z
loop_
_atom_site_type_symbol
_atom_site_label
_atom_site_fract_x
_atom_site_fract_y
_atom_site_fract_z
Si Si1 0.258507 0.513830 0.796412
Si Si2 0.215321 0.118546 0.419341
Si Si3 0.176177 0.736640 0.013147
Si Si4 0.284444 0.035761 0.666861
Si Si5 0.033485 0.583606 0.360213
Si Si6 0.132461 0.276975 0.050085
Si Si7 0.321985 0.294691 0.079560
Si Si8 0.106146 0.029460 0.679377
O O1 0.231471 0.616738 0.893288
O O2 0.115655 0.538169 0.544025
O O3 0.108762 0.584828 0.888851
O O4 0.578425 0.340780 0.882338
O O5 0.255809 0.054072 0.499703
O O6 0.029538 0.292832 0.526740
O O7 0.070417 0.138129 0.169730
O O8 0.500000 0.000000 0.500000
O O9 0.095305 0.810783 0.197838
O O10 0.595767 0.868175 0.786840
O O11 0.154771 0.033697 0.589592
O O12 0.149474 0.185011 0.830047
O O13 0.266228 0.414080 0.260391
O O14 0.777382 0.675414 0.143465
O O15 0.152114 0.333065 0.054883
O O16 0.618147 0.114069 0.155253
O O17 0.000000 0.000000 0.500000
#
# Coordination Sequence:
#
# PCOD9085368 Si02
#       8
#     2   2   2   2   2   2   2   2
#     4  10  20  36  55  83 119 154 191 244 296 345
#     4  11  21  37  63  90 119 153 198 247 291 346
#     4  10  21  36  56  84 116 157 197 233 296 357
#     4  10  20  36  60  91 114 150 206 241 289 352
#     4  10  20  35  56  85 117 149 191 236 294 348
#     4  10  19  35  60  86 117 148 197 251 289 344
#     4  10  21  36  58  88 118 151 197 242 295 353
#     4  11  22  39  61  84 120 162 194 242 295 354
#
# _framework density 19.375349
#
# number of rings (size 3 to 8) (size 9 to 14) (size 15 to 20)
#    0.000    1.750    2.500    3.000    1.750    0.500 
#    0.000    6.250    0.000    0.000    0.000    0.000 
#    0.000    0.000    0.000    0.000    0.000    0.000 
#
# Total GULP energy -89166.116461 kJ/mol
# GULP energy per Si atom -5572.882279 kJ/mol
# Density = 1.933125 g / cm^3
# Si number density = 19.375349 Si / 1000 Ang^3
#
#
#
# Elastic Constant Matrix: (Units=GPa)
#
#
# Indices 1 2 3 4 5 6 
#
# 1 95.7592 34.9380 44.1054 -17.4763 -7.5766 -20.7538
# 2 34.9380 52.0667 12.2495 -3.8816 -5.7069 -11.4449
# 3 44.1054 12.2495 85.0028 -12.8784 -10.9463 -8.2038
# 4 -17.4763 -3.8816 -12.8784 27.9276 7.9380 2.4482
# 5 -7.5766 -5.7069 -10.9463 7.9380 18.5884 4.2970
# 6 -20.7538 -11.4449 -8.2038 2.4482 4.2970 33.9496
#
#
#
# Elastic Compliance Matrix: (Units=1/GPa)
#
#
# Indices 1 2 3 4 5 6 
#
# 1 0.020496 -0.010221 -0.007779 0.008513 -0.004660 0.007180
# 2 -0.010221 0.026587 0.001948 -0.003782 0.006139 0.002681
# 3 -0.007779 0.001948 0.016476 0.001135 0.006893 -0.001072
# 4 0.008513 -0.003782 0.001135 0.045774 -0.017284 0.003090
# 5 -0.004660 0.006139 0.006893 -0.017284 0.066680 -0.006307
# 6 0.007180 0.002681 -0.001072 0.003090 -0.006307 0.035065
#
#
# Mechanical properties :
#
#
# Convention : Reuss Voigt Hill
#
# Bulk Modulus (GPa) = 31.79153 46.15718 38.97435
# Shear Modulus (GPa) = 19.71087 25.52883 22.61985
#
# Velocity S-wave (km/s) = 3.19300 3.63380 3.42051
# Velocity P-wave (km/s) = 5.48065 6.44053 5.97988
#
# Compressibility (1/GPa) = 0.03145492
#
# Stress axis : x y z
#
# Youngs Moduli (GPa) = 48.78961 37.61297 60.69371
#
# Poissons Ratio (x) = 0.38445 0.47215
# Poissons Ratio (y) = 0.49868 -0.11825
# Poissons Ratio (z) = 0.37955 -0.07328
#
# Static dielectric constant tensor:
#      x y z
#    x 1.651160 0.025340 0.023000 
#    y 0.025340 1.801260 0.026540 
#    z 0.023000 0.026540 1.721510 
# 
# From -- ./inp_files/258156.got.cif
#   From: 2010.05.17/outbox.cif.g08.bks.cpg/sg2_130_cif.got.tgz:258156.got - 2010.06.03 11:33:40.
