data_PCOD9085603
_publ_section_title
;
Structure prediction by ZEFSAII (Michael W. Deem and Ramdas Pophale) SiO2 
 PCOD9085603
Probable space group: P -1
;
_chemical_formula_sum "Si O2"
_cell_formula_units_Z 16
_cell_length_a 7.789869
_cell_length_b 11.896159
_cell_length_c 14.200207
_cell_angle_alpha 134.996733
_cell_angle_beta 138.934268
_cell_angle_gamma 50.585539
_cell_volume 596.436239
_symmetry_space_group_name_H-M "P -1"
_symmetry_group_IT_number 2
_symmetry_cell_setting 'triclinic'
loop_
_space_group_symop_operation_xyz
x,y,z
-x,-y,-z
loop_
_atom_site_type_symbol
_atom_site_label
_atom_site_fract_x
_atom_site_fract_y
_atom_site_fract_z
Si Si1 0.285680 0.673437 0.533081
Si Si2 0.697534 0.651787 0.063268
Si Si3 0.216038 0.273660 0.407300
Si Si4 0.791389 0.902701 0.895313
Si Si5 0.397067 0.591830 0.725170
Si Si6 0.769066 0.309302 0.949967
Si Si7 0.301384 0.201781 0.602374
Si Si8 0.729872 0.963794 0.312806
O O1 0.500000 0.500000 0.500000
O O2 0.395974 0.704341 0.700302
O O3 0.215320 0.855923 0.563962
O O4 0.974175 0.659592 0.410912
O O5 0.420680 0.689277 0.034751
O O6 0.877965 0.783766 0.232492
O O7 0.615544 0.614533 0.903154
O O8 0.840149 0.481495 0.066488
O O9 0.262812 0.207076 0.281325
O O10 0.389517 0.408525 0.579892
O O11 0.266721 0.157028 0.452260
O O12 0.900549 0.349979 0.321427
O O13 0.509123 0.024064 0.855904
O O14 0.950994 0.815202 0.996861
O O15 0.000000 0.000000 0.000000
O O16 0.566904 0.272139 0.765351
O O17 0.329686 0.071035 0.622590
#
# Coordination Sequence:
#
# PCOD9085603 Si02
#       8
#     2   2   2   2   2   2   2   2
#     4  11  25  42  62  88 127 173 216 256 309 381
#     4  10  19  35  61  92 119 163 203 256 317 368
#     4  10  20  33  63  95 123 159 206 266 321 361
#     4  12  21  39  59  97 133 162 203 262 318 376
#     4  10  19  36  61  91 122 158 214 258 311 373
#     4  10  20  36  65  94 128 159 204 258 327 374
#     4  10  21  42  65  95 121 166 213 265 311 376
#     4  11  24  39  62  92 130 171 209 250 316 384
#
# _framework density 26.826003
#
# number of rings (size 3 to 8) (size 9 to 14) (size 15 to 20)
#    0.000    1.500    5.000    1.125    0.000    5.000 
#    0.000    0.000    0.000    8.250    0.000    0.000 
#    0.000    0.000    0.000    0.000    0.000    0.000 
#
# Total GULP energy -89134.014815 kJ/mol
# GULP energy per Si atom -5570.875926 kJ/mol
# Density = 2.676495 g / cm^3
# Si number density = 26.826003 Si / 1000 Ang^3
#
#
#
# Elastic Constant Matrix: (Units=GPa)
#
#
# Indices 1 2 3 4 5 6 
#
# 1 39.7021 24.6928 6.7752 4.4894 -2.7701 7.0718
# 2 24.6928 127.3778 33.8531 5.6236 12.1432 26.5430
# 3 6.7752 33.8531 137.9234 -0.9559 6.7837 0.9234
# 4 4.4894 5.6236 -0.9559 46.7008 -2.8446 4.5658
# 5 -2.7701 12.1432 6.7837 -2.8446 34.8873 -12.5100
# 6 7.0718 26.5430 0.9234 4.5658 -12.5100 45.1367
#
#
#
# Elastic Compliance Matrix: (Units=1/GPa)
#
#
# Indices 1 2 3 4 5 6 
#
# 1 0.029460 -0.006090 -0.000189 -0.001869 0.004487 0.000402
# 2 -0.006090 0.011993 -0.002244 -0.000559 -0.007125 -0.007970
# 3 -0.000189 -0.002244 0.007823 0.000324 -0.000348 0.001060
# 4 -0.001869 -0.000559 0.000324 0.021867 0.001325 -0.001230
# 5 0.004487 -0.007125 -0.000348 0.001325 0.036509 0.013479
# 6 0.000402 -0.007970 0.001060 -0.001230 0.013479 0.030617
#
#
# Mechanical properties :
#
#
# Convention : Reuss Voigt Hill
#
# Bulk Modulus (GPa) = 31.02768 48.40506 39.71637
# Shear Modulus (GPa) = 30.10977 41.32377 35.71677
#
# Velocity S-wave (km/s) = 3.35387 3.92910 3.65283
# Velocity P-wave (km/s) = 5.15648 6.21828 5.71211
#
# Compressibility (1/GPa) = 0.03222928
#
# Stress axis : x y z
#
# Youngs Moduli (GPa) = 33.94408 83.38511 127.83059
#
# Poissons Ratio (x) = 0.50781 0.02413
# Poissons Ratio (y) = 0.20672 0.28691
# Poissons Ratio (z) = 0.00641 0.18716
#
# Static dielectric constant tensor:
#      x y z
#    x 2.426430 0.048490 0.177720 
#    y 0.048490 2.262770 0.081720 
#    z 0.177720 0.081720 2.198910 
# 
# From -- ./inp_files/500905.got.cif
#   From: 2010.05.17/outbox.cif.g08.bks.cpg/sg2_251_cif.got.tgz:500905.got - 2010.06.03 11:33:40.
