data_PCOD9085134
_publ_section_title
;
Structure prediction by ZEFSAII (Michael W. Deem and Ramdas Pophale) SiO2 
 PCOD9085134
Probable space group: P -1
;
_chemical_formula_sum "Si O2"
_cell_formula_units_Z 16
_cell_length_a 15.749750
_cell_length_b 18.708742
_cell_length_c 8.920666
_cell_angle_alpha 157.290078
_cell_angle_beta 37.687796
_cell_angle_gamma 142.961007
_cell_volume 593.917612
_symmetry_space_group_name_H-M "P -1"
_symmetry_group_IT_number 2
_symmetry_cell_setting 'triclinic'
loop_
_space_group_symop_operation_xyz
x,y,z
-x,-y,-z
loop_
_atom_site_type_symbol
_atom_site_label
_atom_site_fract_x
_atom_site_fract_y
_atom_site_fract_z
Si Si1 0.721902 0.697319 0.348274
Si Si2 0.882798 0.015531 0.529084
Si Si3 0.964462 0.300986 0.571299
Si Si4 0.314766 0.840936 0.154088
Si Si5 0.568111 0.522868 0.617954
Si Si6 0.165840 0.194393 0.307401
Si Si7 0.905025 0.304354 0.327250
Si Si8 0.406865 0.957876 0.702520
O O1 0.578801 0.528359 0.179830
O O2 0.804660 0.651578 0.292555
O O3 0.800677 0.801751 0.292008
O O4 0.668566 0.869819 0.837151
O O5 0.775795 0.110915 0.766958
O O6 0.034130 0.035729 0.270282
O O7 0.918630 0.145842 0.879871
O O8 0.801409 0.164010 0.561595
O O9 0.976638 0.336641 0.451514
O O10 0.076089 0.211360 0.319062
O O11 0.000000 0.500000 0.000000
O O12 0.470099 0.998881 0.257740
O O13 0.351053 0.634266 0.738152
O O14 0.500000 0.500000 0.500000
O O15 0.677642 0.734732 0.858350
O O16 0.728812 0.233289 0.464188
O O17 0.000000 0.500000 0.500000
O O18 0.500000 0.000000 0.500000
#
# Coordination Sequence:
#
# PCOD9085134 Si02
#       8
#     2   2   2   2   2   2   2   2
#     4   9  20  35  54  86 113 147 192 232 289 335
#     4  10  22  36  58  85 117 147 188 239 289 335
#     4  11  20  35  59  86 111 149 196 231 276 341
#     4  10  19  35  61  83 110 151 198 226 284 344
#     4   9  18  31  54  85 108 144 191 234 273 339
#     4  10  19  35  59  81 115 152 189 231 278 348
#     4  11  23  35  53  89 116 142 187 241 293 324
#     4  10  20  37  58  80 116 149 192 240 278 335
#
# _framework density 26.939765000000001
#
# number of rings (size 3 to 8) (size 9 to 14) (size 15 to 20)
#    0.000    2.000    2.500    1.875    0.000    4.500 
#    0.000    2.500    2.750    0.000    0.000    4.375 
#    0.000    0.000    0.000    0.000    0.000    0.000 
#
# Total GULP energy -89124.908139 kJ/mol
# GULP energy per Si atom -5570.306759 kJ/mol
# Density = 2.687845 g / cm^3
# Si number density = 26.939765 Si / 1000 Ang^3
#
#
#
# Elastic Constant Matrix: (Units=GPa)
#
#
# Indices 1 2 3 4 5 6 
#
# 1 176.2229 76.2212 44.6764 7.5865 3.1462 -24.5416
# 2 76.2212 284.1147 44.6706 3.3649 13.8061 12.1029
# 3 44.6764 44.6706 91.3727 5.8509 -10.6163 1.2665
# 4 7.5865 3.3649 5.8509 36.0187 -1.4725 10.3625
# 5 3.1462 13.8061 -10.6163 -1.4725 33.7354 -5.7468
# 6 -24.5416 12.1029 1.2665 10.3625 -5.7468 52.7612
#
#
#
# Elastic Compliance Matrix: (Units=1/GPa)
#
#
# Indices 1 2 3 4 5 6 
#
# 1 0.007964 -0.001833 -0.002937 -0.002372 -0.000231 0.004636
# 2 -0.001833 0.004473 -0.001601 0.000778 -0.002516 -0.002267
# 3 -0.002937 -0.001601 0.013839 -0.001111 0.005142 -0.000553
# 4 -0.002372 0.000778 -0.001111 0.030449 -0.000357 -0.007274
# 5 -0.000231 -0.002516 0.005142 -0.000357 0.032979 0.004008
# 6 0.004636 -0.002267 -0.000553 -0.007274 0.004008 0.023508
#
#
# Mechanical properties :
#
#
# Convention : Reuss Voigt Hill
#
# Bulk Modulus (GPa) = 73.88933 98.09407 85.99170
# Shear Modulus (GPa) = 38.32435 50.24586 44.28510
#
# Velocity S-wave (km/s) = 3.77582 4.32339 4.05885
# Velocity P-wave (km/s) = 6.81882 7.83669 7.34540
#
# Compressibility (1/GPa) = 0.01353375
#
# Stress axis : x y z
#
# Youngs Moduli (GPa) = 125.56625 223.57467 72.25886
#
# Poissons Ratio (x) = 0.40980 0.21222
# Poissons Ratio (y) = 0.23016 0.11569
# Poissons Ratio (z) = 0.36879 0.35797
#
# Static dielectric constant tensor:
#      x y z
#    x 2.228350 0.032780 -0.126760 
#    y 0.032780 2.155210 0.072960 
#    z -0.126760 0.072960 2.251500 
# 
# From -- ./inp_files/266741.got.cif
#   From: 2010.05.17/outbox.cif.g08.bks.cpg/sg2_134_cif.got.tgz:266741.got - 2010.06.03 11:33:40.
