data_PCOD9085921
_publ_section_title
;
Structure prediction by ZEFSAII (Michael W. Deem and Ramdas Pophale) SiO2 
 PCOD9085921
Probable space group: P -1
;
_chemical_formula_sum "Si O2"
_cell_formula_units_Z 15
_cell_length_a 16.616324
_cell_length_b 15.798754
_cell_length_c 8.925900
_cell_angle_alpha 68.529478
_cell_angle_beta 42.777725
_cell_angle_gamma 32.804418
_cell_volume 630.606027
_symmetry_space_group_name_H-M "P -1"
_symmetry_group_IT_number 2
_symmetry_cell_setting 'triclinic'
loop_
_space_group_symop_operation_xyz
x,y,z
-x,-y,-z
loop_
_atom_site_type_symbol
_atom_site_label
_atom_site_fract_x
_atom_site_fract_y
_atom_site_fract_z
Si Si1 0.906975 0.966353 0.503662
Si Si2 0.968943 0.240776 0.240795
Si Si3 0.903753 0.282072 0.830111
Si Si4 0.456458 0.679281 0.015198
Si Si5 0.176749 0.284743 0.385036
Si Si6 0.466279 0.119337 0.389781
Si Si7 0.082000 0.542164 0.669435
Si Si8 0.500000 0.500000 0.500000
O O1 0.973485 0.849405 0.621584
O O2 0.878073 0.938098 0.402140
O O3 0.168907 0.853224 0.215937
O O4 0.638358 0.206967 0.773516
O O5 0.951554 0.360979 0.218003
O O6 0.684703 0.401845 0.457392
O O7 0.238208 0.035662 0.902649
O O8 0.031299 0.294968 0.643338
O O9 0.653148 0.460142 0.935225
O O10 0.763746 0.348470 0.129908
O O11 0.657616 0.601629 0.692952
O O12 0.424046 0.132373 0.260564
O O13 0.000000 0.500000 0.500000
O O14 0.181128 0.271426 0.206920
O O15 0.201205 0.359363 0.659538
O O16 0.500000 0.000000 0.500000
#
# Coordination Sequence:
#
# PCOD9085921 Si02
#       8
#     2   2   2   2   2   2   2   1
#     4  11  20  36  67  95 117 169 218 259 317 386
#     4  12  23  42  67  94 129 176 216 266 333 389
#     4  11  21  41  62  94 130 167 206 269 328 387
#     4  10  19  35  64  94 121 156 215 269 312 378
#     4   9  20  40  67  96 124 170 227 273 308 380
#     4  11  24  43  64  93 139 175 212 271 338 390
#     4  10  21  40  69  97 126 169 224 273 319 388
#     4  12  26  40  64  96 142 170 204 270 352 400
#
# _framework density 23.786643000000002
#
# number of rings (size 3 to 8) (size 9 to 14) (size 15 to 20)
#    0.000    1.333    5.333    2.000    0.000    1.067 
#    0.000    4.000    0.000    0.000    0.000    0.000 
#    0.000    0.000    0.000    0.000    0.000    0.000 
#
# Total GULP energy -83518.074845 kJ/mol
# GULP energy per Si atom -5567.871656 kJ/mol
# Density = 2.373250 g / cm^3
# Si number density = 23.786643 Si / 1000 Ang^3
#
#
#
# Elastic Constant Matrix: (Units=GPa)
#
#
# Indices 1 2 3 4 5 6 
#
# 1 75.0437 25.4370 18.2330 8.0905 -14.5420 -1.3804
# 2 25.4370 74.7782 7.7507 5.6717 5.5451 3.9287
# 3 18.2330 7.7507 67.4566 -2.3508 1.3692 10.5834
# 4 8.0905 5.6717 -2.3508 32.3148 2.0851 -3.5724
# 5 -14.5420 5.5451 1.3692 2.0851 37.7885 16.7130
# 6 -1.3804 3.9287 10.5834 -3.5724 16.7130 32.7371
#
#
#
# Elastic Compliance Matrix: (Units=1/GPa)
#
#
# Indices 1 2 3 4 5 6 
#
# 1 0.018831 -0.006173 -0.004348 -0.004855 0.009702 -0.002543
# 2 -0.006173 0.015897 -0.000124 -0.000927 -0.004736 0.000189
# 3 -0.004348 -0.000124 0.016933 0.001732 0.000062 -0.005485
# 4 -0.004855 -0.000927 0.001732 0.033560 -0.006429 0.006291
# 5 0.009702 -0.004736 0.000062 -0.006429 0.040210 -0.020273
# 6 -0.002543 0.000189 -0.005485 0.006291 -0.020273 0.043226
#
#
# Mechanical properties :
#
#
# Convention : Reuss Voigt Hill
#
# Bulk Modulus (GPa) = 32.92428 35.56886 34.24657
# Shear Modulus (GPa) = 24.99109 31.62524 28.30817
#
# Velocity S-wave (km/s) = 3.24487 3.65024 3.45351
# Velocity P-wave (km/s) = 5.28303 5.72288 5.50735
#
# Compressibility (1/GPa) = 0.03037273
#
# Stress axis : x y z
#
# Youngs Moduli (GPa) = 53.10389 62.90465 59.05457
#
# Poissons Ratio (x) = 0.38829 0.25676
# Poissons Ratio (y) = 0.32779 0.00732
# Poissons Ratio (z) = 0.23089 0.00779
#
# Static dielectric constant tensor:
#      x y z
#    x 1.949340 0.043490 0.027160 
#    y 0.043490 1.947680 0.005400 
#    z 0.027160 0.005400 1.906590 
# 
# From -- ./inp_files/315045.got.cif
#   From: 2010.05.17/outbox.cif.g08.bks.cpg/sg2_158_cif.got.tgz:315045.got - 2010.06.03 11:33:40.
