data_PCOD9085063
_publ_section_title
;
Structure prediction by ZEFSAII (Michael W. Deem and Ramdas Pophale) SiO2 
 PCOD9085063
Probable space group: P -1
;
_chemical_formula_sum "Si O2"
_cell_formula_units_Z 16
_cell_length_a 11.759786
_cell_length_b 12.072288
_cell_length_c 12.374285
_cell_angle_alpha 50.690171
_cell_angle_beta 97.659525
_cell_angle_gamma 56.999227
_cell_volume 770.313514
_symmetry_space_group_name_H-M "P -1"
_symmetry_group_IT_number 2
_symmetry_cell_setting 'triclinic'
loop_
_space_group_symop_operation_xyz
x,y,z
-x,-y,-z
loop_
_atom_site_type_symbol
_atom_site_label
_atom_site_fract_x
_atom_site_fract_y
_atom_site_fract_z
Si Si1 0.403523 0.040724 0.314755
Si Si2 0.497882 0.639760 0.642753
Si Si3 0.158981 0.804125 0.423213
Si Si4 0.213933 0.826979 0.180537
Si Si5 0.781030 0.795056 0.571820
Si Si6 0.082308 0.260134 0.979497
Si Si7 0.928867 0.237838 0.360568
Si Si8 0.204537 0.636487 0.967278
O O1 0.520310 0.769743 0.508201
O O2 0.574088 0.986168 0.362890
O O3 0.286143 0.168546 0.335091
O O4 0.241572 0.191808 0.107498
O O5 0.270277 0.825381 0.480672
O O6 0.624384 0.390962 0.749646
O O7 0.584777 0.563604 0.821248
O O8 0.242912 0.715356 0.367626
O O9 0.184269 0.651864 0.606358
O O10 0.924068 0.085089 0.210082
O O11 0.197555 0.012554 0.088073
O O12 0.000000 0.000000 0.000000
O O13 0.943896 0.507287 0.739920
O O14 0.891160 0.833845 0.560666
O O15 0.931742 0.333451 0.998612
O O16 0.800546 0.401084 0.135575
O O17 0.000000 0.000000 0.500000
#
# Coordination Sequence:
#
# PCOD9085063 Si02
#       8
#     2   2   2   2   2   2   2   2
#     4  11  21  33  58  92 115 151 196 238 295 340
#     4  12  20  36  61  94 114 149 199 246 287 331
#     4  10  21  36  55  86 119 152 190 233 292 346
#     4  11  20  36  64  89 114 150 196 252 287 327
#     4  11  22  36  58  84 123 151 190 241 292 350
#     4  11  20  36  56  89 119 149 191 245 292 334
#     4  10  21  39  58  81 122 160 185 233 294 358
#     4  10  19  35  58  87 120 149 190 240 291 340
#
# _framework density 20.770765000000001
#
# number of rings (size 3 to 8) (size 9 to 14) (size 15 to 20)
#    0.000    1.250    7.500    1.500    0.000    0.500 
#    0.000    2.500    0.000    3.750    0.000    0.000 
#    0.000    0.000    0.000    0.000    0.000    0.000 
#
# Total GULP energy -89280.380676 kJ/mol
# GULP energy per Si atom -5580.023792 kJ/mol
# Density = 2.072349 g / cm^3
# Si number density = 20.770765 Si / 1000 Ang^3
#
#
#
# Elastic Constant Matrix: (Units=GPa)
#
#
# Indices 1 2 3 4 5 6 
#
# 1 69.3710 27.1353 19.6437 12.7086 4.4750 6.0458
# 2 27.1353 68.3803 14.9701 -3.0686 -8.7940 13.0879
# 3 19.6437 14.9701 66.0554 11.9834 15.8100 4.0778
# 4 12.7086 -3.0686 11.9834 35.9906 13.7991 -3.0915
# 5 4.4750 -8.7940 15.8100 13.7991 31.9318 4.1747
# 6 6.0458 13.0879 4.0778 -3.0915 4.1747 14.1085
#
#
#
# Elastic Compliance Matrix: (Units=1/GPa)
#
#
# Indices 1 2 3 4 5 6 
#
# 1 0.019354 -0.006859 -0.002833 -0.006715 0.000042 -0.002596
# 2 -0.006859 0.024514 -0.005224 -0.000913 0.013639 -0.022528
# 3 -0.002833 -0.005224 0.019805 -0.001756 -0.010488 0.003054
# 4 -0.006715 -0.000913 -0.001756 0.038969 -0.017633 0.017988
# 5 0.000042 0.013639 -0.010488 -0.017633 0.051643 -0.028784
# 6 -0.002596 -0.022528 0.003054 0.017988 -0.028784 0.104466
#
#
# Mechanical properties :
#
#
# Convention : Reuss Voigt Hill
#
# Bulk Modulus (GPa) = 29.54893 36.36721 32.95807
# Shear Modulus (GPa) = 16.67425 25.87669 21.27547
#
# Velocity S-wave (km/s) = 2.83640 3.53345 3.20394
# Velocity P-wave (km/s) = 4.99840 5.84755 5.43957
#
# Compressibility (1/GPa) = 0.03384218
#
# Stress axis : x y z
#
# Youngs Moduli (GPa) = 51.66874 40.79232 50.49123
#
# Poissons Ratio (x) = 0.27980 0.14303
# Poissons Ratio (y) = 0.35440 0.26376
# Poissons Ratio (z) = 0.14637 0.21310
#
# Static dielectric constant tensor:
#      x y z
#    x 1.768600 -0.005630 -0.012190 
#    y -0.005630 1.803820 -0.013780 
#    z -0.012190 -0.013780 1.787420 
# 
# From -- ./inp_files/427590.got.cif
#   From: 2010.05.17/outbox.cif.g08.bks.cpg/sg2_214_cif.got.tgz:427590.got - 2010.06.03 11:33:40.
