data_PCOD9085820
_publ_section_title
;
Structure prediction by ZEFSAII (Michael W. Deem and Ramdas Pophale) SiO2 
 PCOD9085820
Probable space group: P -1
;
_chemical_formula_sum "Si O2"
_cell_formula_units_Z 16
_cell_length_a 13.361591
_cell_length_b 9.088220
_cell_length_c 20.934124
_cell_angle_alpha 143.879523
_cell_angle_beta 147.067672
_cell_angle_gamma 30.199505
_cell_volume 662.873707
_symmetry_space_group_name_H-M "P -1"
_symmetry_group_IT_number 2
_symmetry_cell_setting 'triclinic'
loop_
_space_group_symop_operation_xyz
x,y,z
-x,-y,-z
loop_
_atom_site_type_symbol
_atom_site_label
_atom_site_fract_x
_atom_site_fract_y
_atom_site_fract_z
Si Si1 0.589528 0.155506 0.999973
Si Si2 0.791167 0.850929 0.699914
Si Si3 0.989934 0.353053 0.868237
Si Si4 0.428453 0.453285 0.513826
Si Si5 0.464960 0.744831 0.759775
Si Si6 0.617924 0.528096 0.256901
Si Si7 0.119441 0.091013 0.376236
Si Si8 0.075159 0.033620 0.983844
O O1 0.814465 0.862445 0.052333
O O2 0.667364 0.149813 0.967175
O O3 0.554807 0.409568 0.119445
O O4 0.409644 0.072851 0.867027
O O5 0.577527 0.115777 0.718597
O O6 0.986229 0.884459 0.837948
O O7 0.788755 0.558062 0.608094
O O8 0.781338 0.912187 0.640977
O O9 0.737136 0.531346 0.823008
O O10 0.982332 0.109654 0.736278
O O11 0.019498 0.608663 0.947842
O O12 0.500000 0.500000 0.500000
O O13 0.389101 0.691439 0.632124
O O14 0.647691 0.113905 0.532385
O O15 0.412029 0.606419 0.741347
O O16 0.876101 0.426594 0.362740
O O17 0.000000 0.000000 0.000000
#
# Coordination Sequence:
#
# PCOD9085820 Si02
#       8
#     2   2   2   2   2   2   2   2
#     4  10  19  36  65  96 127 159 217 267 318 388
#     4  12  23  43  68  95 130 172 222 264 320 385
#     4   9  17  35  61  90 124 162 215 256 311 380
#     4  11  26  44  67  92 131 181 215 264 326 388
#     4  10  19  35  63  91 127 168 209 260 316 378
#     4  11  20  38  70 105 123 160 220 276 321 374
#     4  10  22  42  68  96 124 170 223 268 312 383
#     4  11  22  35  62  95 133 174 204 267 327 384
#
# _framework density 24.137328
#
# number of rings (size 3 to 8) (size 9 to 14) (size 15 to 20)
#    0.000    1.500    5.000    3.000    5.250    1.500 
#    0.000    1.250    5.500    0.000    0.000    0.000 
#    0.000    0.000    0.000    0.000    0.000    0.000 
#
# Total GULP energy -89132.397764 kJ/mol
# GULP energy per Si atom -5570.774860 kJ/mol
# Density = 2.408239 g / cm^3
# Si number density = 24.137328 Si / 1000 Ang^3
#
#
#
# Elastic Constant Matrix: (Units=GPa)
#
#
# Indices 1 2 3 4 5 6 
#
# 1 113.5643 7.7046 28.5823 22.3515 -14.2699 29.6438
# 2 7.7046 29.7282 -16.7774 7.5265 -1.6477 -12.9538
# 3 28.5823 -16.7774 97.6484 21.2336 16.3118 7.9866
# 4 22.3515 7.5265 21.2336 5.5943 2.8634 -0.7008
# 5 -14.2699 -1.6477 16.3118 2.8634 33.9733 -0.3643
# 6 29.6438 -12.9538 7.9866 -0.7008 -0.3643 34.7506
#
#
#
# Elastic Compliance Matrix: (Units=1/GPa)
#
#
# Indices 1 2 3 4 5 6 
#
# 1 0.015050 -0.027813 -0.015625 0.029200 0.009811 -0.018924
# 2 -0.027813 0.042658 0.001211 0.061867 -0.014976 0.040440
# 3 -0.015625 0.001211 0.006368 0.045033 -0.013217 0.013086
# 4 0.029200 0.061867 0.045033 -0.199350 0.010273 -0.016110
# 5 0.009811 -0.014976 -0.013217 0.010273 0.038199 -0.010306
# 6 -0.018924 0.040440 0.013086 -0.016110 -0.010306 0.056553
#
#
# Mechanical properties :
#
#
# Convention : Reuss Voigt Hill
#
# Bulk Modulus (GPa) = -49.07336 31.10666 -8.98335
# Shear Modulus (GPa) = 134.63189 29.62573 82.12881
#
# Velocity S-wave (km/s) = 7.47653 3.50720 5.83948
# Velocity P-wave (km/s) = 7.35910 5.41442 6.46035
#
# Compressibility (1/GPa) = -0.02037765
#
# Stress axis : x y z
#
# Youngs Moduli (GPa) = 66.44397 23.44236 157.04600
#
# Poissons Ratio (x) = 0.65201 2.45380
# Poissons Ratio (y) = 1.84803 -0.19026
# Poissons Ratio (z) = 1.03817 -0.02840
#
# Static dielectric constant tensor:
#      x y z
#    x 1.944780 -0.052520 -0.034890 
#    y -0.052520 2.064100 0.075380 
#    z -0.034890 0.075380 2.075340 
# 
# From -- ./inp_files/593843.got.cif
#   From: 2010.05.17/outbox.cif.g08.bks.cpg/sg2_297_cif.got.tgz:593843.got - 2010.06.03 11:33:40.
