data_PCOD9085705
_publ_section_title
;
Structure prediction by ZEFSAII (Michael W. Deem and Ramdas Pophale) SiO2 
 PCOD9085705
Probable space group: P -1
;
_chemical_formula_sum "Si O2"
_cell_formula_units_Z 16
_cell_length_a 7.258527
_cell_length_b 19.914650
_cell_length_c 6.800236
_cell_angle_alpha 56.527435
_cell_angle_beta 72.670065
_cell_angle_gamma 49.729275
_cell_volume 622.962480
_symmetry_space_group_name_H-M "P -1"
_symmetry_group_IT_number 2
_symmetry_cell_setting 'triclinic'
loop_
_space_group_symop_operation_xyz
x,y,z
-x,-y,-z
loop_
_atom_site_type_symbol
_atom_site_label
_atom_site_fract_x
_atom_site_fract_y
_atom_site_fract_z
Si Si1 0.132033 0.930505 0.261305
Si Si2 0.985055 0.583312 0.234734
Si Si3 0.254323 0.670704 0.177155
Si Si4 0.078237 0.254336 0.483972
Si Si5 0.375297 0.448014 0.060690
Si Si6 0.398805 0.290233 0.576706
Si Si7 0.919968 0.836020 0.720366
Si Si8 0.452188 0.977419 0.263310
O O1 0.376929 0.824865 0.289416
O O2 0.225248 0.974215 0.314044
O O3 0.991510 0.894826 0.472920
O O4 0.000000 0.000000 0.000000
O O5 0.150599 0.609872 0.241486
O O6 0.093526 0.534517 0.066607
O O7 0.000000 0.500000 0.500000
O O8 0.712734 0.677235 0.221921
O O9 0.162602 0.702879 0.379527
O O10 0.524330 0.600436 0.109627
O O11 0.097905 0.779085 0.941100
O O12 0.203927 0.297474 0.479691
O O13 0.026741 0.260253 0.260332
O O14 0.300407 0.133312 0.601612
O O15 0.454656 0.358394 0.333792
O O16 0.500000 0.500000 0.000000
O O17 0.646628 0.923328 0.736660
O O18 0.500000 0.000000 0.000000
#
# Coordination Sequence:
#
# PCOD9085705 Si02
#       8
#     2   2   2   2   2   2   2   2
#     4  11  24  39  62  93 129 171 212 255 314 369
#     4   8  16  32  62  92 118 160 205 249 323 373
#     4  10  19  35  62  90 125 157 208 256 312 374
#     4  10  22  38  60  88 127 170 209 252 316 366
#     4   9  16  32  64  96 116 163 206 257 324 372
#     4   9  18  37  60  92 130 162 207 262 304 381
#     4  12  23  40  62  89 129 168 211 260 313 370
#     4  11  22  42  62  85 125 167 217 260 304 371
#
# _framework density 25.683731000000002
#
# number of rings (size 3 to 8) (size 9 to 14) (size 15 to 20)
#    0.000    2.000    2.500    1.500    0.000    0.000 
#    0.000    1.250    0.000   24.000    0.000    0.000 
#    0.000    0.000    0.000    0.000    0.000    0.000 
#
# Total GULP energy -89331.872712 kJ/mol
# GULP energy per Si atom -5583.242045 kJ/mol
# Density = 2.562527 g / cm^3
# Si number density = 25.683731 Si / 1000 Ang^3
#
#
#
# Elastic Constant Matrix: (Units=GPa)
#
#
# Indices 1 2 3 4 5 6 
#
# 1 73.6249 33.2519 39.8841 13.8549 -13.8584 14.4647
# 2 33.2519 198.4747 58.8484 47.4451 -8.0226 -16.6507
# 3 39.8841 58.8484 75.4055 14.4144 -18.4482 -0.3968
# 4 13.8549 47.4451 14.4144 62.6262 -0.6608 -11.8723
# 5 -13.8584 -8.0226 -18.4482 -0.6608 31.9919 4.7417
# 6 14.4647 -16.6507 -0.3968 -11.8723 4.7417 43.7839
#
#
#
# Elastic Compliance Matrix: (Units=1/GPa)
#
#
# Indices 1 2 3 4 5 6 
#
# 1 0.022643 -0.000583 -0.009420 -0.004144 0.005555 -0.009513
# 2 -0.000583 0.007867 -0.005474 -0.004173 -0.001849 0.002204
# 3 -0.009420 -0.005474 0.024471 0.000791 0.008595 0.000536
# 4 -0.004144 -0.004173 0.000791 0.020927 -0.002808 0.005768
# 5 0.005555 -0.001849 0.008595 -0.002808 0.039205 -0.007468
# 6 -0.009513 0.002204 0.000536 0.005768 -0.007468 0.029198
#
#
# Mechanical properties :
#
#
# Convention : Reuss Voigt Hill
#
# Bulk Modulus (GPa) = 41.62306 67.94154 54.78230
# Shear Modulus (GPa) = 27.28130 42.04847 34.66488
#
# Velocity S-wave (km/s) = 3.26268 4.05058 3.67779
# Velocity P-wave (km/s) = 5.51676 6.95606 6.27780
#
# Compressibility (1/GPa) = 0.02402514
#
# Stress axis : x y z
#
# Youngs Moduli (GPa) = 44.16296 127.11584 40.86505
#
# Poissons Ratio (x) = 0.07415 0.38497
# Poissons Ratio (y) = 0.02576 0.22370
# Poissons Ratio (z) = 0.41603 0.69585
#
# Static dielectric constant tensor:
#      x y z
#    x 2.180280 0.032070 0.058040 
#    y 0.032070 2.097830 0.078310 
#    z 0.058040 0.078310 2.068480 
# 
# From -- ./inp_files/52424.got.cif
#   From: 2010.05.17/outbox.cif.g08.bks.cpg/sg2_27_cif.got.tgz:52424.got - 2010.06.03 11:33:40.
