data_PCOD9085214
_publ_section_title
;
Structure prediction by ZEFSAII (Michael W. Deem and Ramdas Pophale) SiO2 
 PCOD9085214
Probable space group: P -1
;
_chemical_formula_sum "Si O2"
_cell_formula_units_Z 16
_cell_length_a 8.795648
_cell_length_b 17.638736
_cell_length_c 11.781690
_cell_angle_alpha 147.560613
_cell_angle_beta 124.636740
_cell_angle_gamma 54.340239
_cell_volume 784.305675
_symmetry_space_group_name_H-M "P -1"
_symmetry_group_IT_number 2
_symmetry_cell_setting 'triclinic'
loop_
_space_group_symop_operation_xyz
x,y,z
-x,-y,-z
loop_
_atom_site_type_symbol
_atom_site_label
_atom_site_fract_x
_atom_site_fract_y
_atom_site_fract_z
Si Si1 0.966032 0.810897 0.222225
Si Si2 0.564831 0.935572 0.123644
Si Si3 0.520151 0.491120 0.797217
Si Si4 0.527205 0.212171 0.311824
Si Si5 0.032677 0.804542 0.514595
Si Si6 0.635713 0.288026 0.804026
Si Si7 0.121212 0.479811 0.140719
Si Si8 0.618939 0.936219 0.580014
O O1 0.780539 0.922155 0.238651
O O2 0.990226 0.813376 0.371888
O O3 0.159858 0.822040 0.258271
O O4 0.927513 0.651904 0.979306
O O5 0.483568 0.086353 0.213888
O O6 0.441990 0.947555 0.199579
O O7 0.553357 0.807360 0.870761
O O8 0.457421 0.369411 0.539549
O O9 0.629264 0.395543 0.828962
O O10 0.663487 0.551366 0.853224
O O11 0.384970 0.621427 0.973387
O O12 0.757610 0.170118 0.348439
O O13 0.843412 0.898971 0.609307
O O14 0.062034 0.640437 0.369031
O O15 0.463806 0.207681 0.614546
O O16 0.000000 0.500000 0.000000
O O17 0.500000 0.000000 0.500000
#
# Coordination Sequence:
#
# PCOD9085214 Si02
#       8
#     2   2   2   2   2   2   2   2
#     4  11  20  35  59  91 117 152 197 245 295 344
#     4  11  24  39  61  84 122 159 196 238 299 357
#     4  10  19  35  59  86 117 148 199 241 290 345
#     4  10  22  44  60  83 117 163 198 235 297 363
#     4  10  20  36  60  83 119 151 197 244 288 347
#     4  11  21  33  61  91 114 150 197 249 290 331
#     4   9  16  32  54  85 114 147 187 242 293 335
#     4  12  24  36  59  93 122 149 196 253 289 342
#
# _framework density 20.400209
#
# number of rings (size 3 to 8) (size 9 to 14) (size 15 to 20)
#    0.000    1.500    6.250    1.500    3.500    1.500 
#    0.000    3.125    0.000    0.000    0.000    0.000 
#    0.000    0.000    0.000    0.000    0.000    0.000 
#
# Total GULP energy -89248.561847 kJ/mol
# GULP energy per Si atom -5578.035115 kJ/mol
# Density = 2.035378 g / cm^3
# Si number density = 20.400209 Si / 1000 Ang^3
#
#
#
# Elastic Constant Matrix: (Units=GPa)
#
#
# Indices 1 2 3 4 5 6 
#
# 1 39.5442 13.0762 27.4611 -3.8127 -18.1599 -11.5900
# 2 13.0762 41.7117 13.1066 -6.1544 -9.1490 -7.2280
# 3 27.4611 13.1066 119.3915 -5.6699 -22.7553 -3.1930
# 4 -3.8127 -6.1544 -5.6699 22.9546 0.3933 3.9112
# 5 -18.1599 -9.1490 -22.7553 0.3933 34.6229 12.0375
# 6 -11.5900 -7.2280 -3.1930 3.9112 12.0375 28.7763
#
#
#
# Elastic Compliance Matrix: (Units=1/GPa)
#
#
# Indices 1 2 3 4 5 6 
#
# 1 0.039679 -0.006173 -0.005758 0.001883 0.012485 0.008313
# 2 -0.006173 0.028053 -0.000802 0.005817 0.002694 0.002553
# 3 -0.005758 -0.000802 0.010760 0.002037 0.005119 -0.003745
# 4 0.001883 0.005817 0.002037 0.046907 0.005496 -0.006229
# 5 0.012485 0.002694 0.005119 0.005496 0.043910 -0.012842
# 6 0.008313 0.002553 -0.003745 -0.006229 -0.012842 0.044544
#
#
# Mechanical properties :
#
#
# Convention : Reuss Voigt Hill
#
# Bulk Modulus (GPa) = 18.85799 34.21502 26.53650
# Shear Modulus (GPa) = 19.45575 27.07098 23.26337
#
# Velocity S-wave (km/s) = 3.09156 3.64675 3.38057
# Velocity P-wave (km/s) = 4.69124 5.87707 5.31732
#
# Compressibility (1/GPa) = 0.05302793
#
# Stress axis : x y z
#
# Youngs Moduli (GPa) = 25.20202 35.64700 92.93361
#
# Poissons Ratio (x) = 0.22005 0.53508
# Poissons Ratio (y) = 0.15557 0.07450
# Poissons Ratio (z) = 0.14510 0.02858
#
# Static dielectric constant tensor:
#      x y z
#    x 1.742560 0.023400 0.024270 
#    y 0.023400 1.700570 0.051620 
#    z 0.024270 0.051620 1.779160 
# 
# From -- ./inp_files/185991.got.cif
#   From: 2010.05.17/outbox.cif.g08.bks.cpg/sg2_93_cif.got.tgz:185991.got - 2010.06.03 11:33:40.
