data_PCOD9085718
_publ_section_title
;
Structure prediction by ZEFSAII (Michael W. Deem and Ramdas Pophale) SiO2 
 PCOD9085718
Probable space group: P -1
;
_chemical_formula_sum "Si O2"
_cell_formula_units_Z 12
_cell_length_a 11.099501
_cell_length_b 8.656194
_cell_length_c 11.570781
_cell_angle_alpha 73.888199
_cell_angle_beta 125.597229
_cell_angle_gamma 139.161284
_cell_volume 562.721635
_symmetry_space_group_name_H-M "P -1"
_symmetry_group_IT_number 2
_symmetry_cell_setting 'triclinic'
loop_
_space_group_symop_operation_xyz
x,y,z
-x,-y,-z
loop_
_atom_site_type_symbol
_atom_site_label
_atom_site_fract_x
_atom_site_fract_y
_atom_site_fract_z
Si Si1 0.690519 0.960864 0.127382
Si Si2 0.569660 0.047007 0.831023
Si Si3 0.935502 0.855844 0.375094
Si Si4 0.867080 0.437742 0.747258
Si Si5 0.564548 0.733919 0.517161
Si Si6 0.713910 0.343764 0.435994
O O1 0.517338 0.884285 0.144992
O O2 0.915041 0.265258 0.188390
O O3 0.768425 0.843878 0.220736
O O4 0.582691 0.904280 0.953874
O O5 0.373301 0.848696 0.668646
O O6 0.814956 0.268366 0.855168
O O7 0.846090 0.605353 0.406004
O O8 0.000000 0.000000 0.500000
O O9 0.171895 0.029943 0.405808
O O10 0.626764 0.333971 0.651691
O O11 0.843323 0.369681 0.612477
O O12 0.500000 0.500000 0.500000
O O13 0.504317 0.751950 0.605536
#
# Coordination Sequence:
#
# PCOD9085718 Si02
#       6
#     2   2   2   2   2   2
#     4  11  24  40  65  84 121 167 195 240 301 359
#     4  11  25  42  55  92 128 157 195 241 303 358
#     4  12  19  39  64  91 114 154 206 246 290 352
#     4  10  21  38  64  87 114 160 197 244 292 354
#     4  10  19  35  62  92 111 148 203 246 293 333
#     4  10  24  37  63  93 120 151 201 254 291 346
#
# _framework density 21.324930999999999
#
# number of rings (size 3 to 8) (size 9 to 14) (size 15 to 20)
#    1.000    0.333    5.000    2.000    0.000    2.667 
#    0.000    0.833    0.000    0.000    0.000    0.000 
#    0.000    0.000    0.000    0.000    0.000    0.000 
#
# Total GULP energy -66870.866586 kJ/mol
# GULP energy per Si atom -5572.572215 kJ/mol
# Density = 2.127639 g / cm^3
# Si number density = 21.324931 Si / 1000 Ang^3
#
#
#
# Elastic Constant Matrix: (Units=GPa)
#
#
# Indices 1 2 3 4 5 6 
#
# 1 68.4207 16.1046 8.9253 -11.5370 0.6984 18.6370
# 2 16.1046 103.4063 3.0892 -13.2392 -14.7274 17.1604
# 3 8.9253 3.0892 68.0401 -10.0790 -12.4125 4.8436
# 4 -11.5370 -13.2392 -10.0790 26.0591 1.0731 -6.5480
# 5 0.6984 -14.7274 -12.4125 1.0731 30.5478 -0.6538
# 6 18.6370 17.1604 4.8436 -6.5480 -0.6538 34.3235
#
#
#
# Elastic Compliance Matrix: (Units=1/GPa)
#
#
# Indices 1 2 3 4 5 6 
#
# 1 0.018134 -0.001039 -0.001337 0.004992 -0.001810 -0.008220
# 2 -0.001039 0.012085 0.001803 0.004944 0.006309 -0.004669
# 3 -0.001337 0.001803 0.017216 0.006355 0.007645 -0.001247
# 4 0.004992 0.004944 0.006355 0.046117 0.003291 0.002781
# 5 -0.001810 0.006309 0.007645 0.003291 0.038769 -0.001884
# 6 -0.008220 -0.004669 -0.001247 0.002781 -0.001884 0.036603
#
#
# Mechanical properties :
#
#
# Convention : Reuss Voigt Hill
#
# Bulk Modulus (GPa) = 21.60315 32.90058 27.25187
# Shear Modulus (GPa) = 26.95440 32.30263 29.62852
#
# Velocity S-wave (km/s) = 3.55911 3.89624 3.73149
# Velocity P-wave (km/s) = 5.20021 5.97517 5.60111
#
# Compressibility (1/GPa) = 0.04628954
#
# Stress axis : x y z
#
# Youngs Moduli (GPa) = 55.14578 82.74789 58.08703
#
# Poissons Ratio (x) = 0.08595 0.07766
# Poissons Ratio (y) = 0.05728 -0.10475
# Poissons Ratio (z) = 0.07373 -0.14922
#
# Static dielectric constant tensor:
#      x y z
#    x 1.781810 0.088280 -0.066250 
#    y 0.088280 1.900350 -0.145790 
#    z -0.066250 -0.145790 1.907200 
# 
# From -- ./inp_files/416939.got.cif
#   From: 2010.05.17/outbox.cif.g08.bks.cpg/sg2_209_cif.got.tgz:416939.got - 2010.06.03 11:33:40.
