data_PCOD9085003
_publ_section_title
;
Structure prediction by ZEFSAII (Michael W. Deem and Ramdas Pophale) SiO2 
 PCOD9085003
Probable space group: P -1
;
_chemical_formula_sum "Si O2"
_cell_formula_units_Z 16
_cell_length_a 5.482642
_cell_length_b 19.234336
_cell_length_c 21.982544
_cell_angle_alpha 158.795431
_cell_angle_beta 88.017803
_cell_angle_gamma 103.968939
_cell_volume 683.472228
_symmetry_space_group_name_H-M "P -1"
_symmetry_group_IT_number 2
_symmetry_cell_setting 'triclinic'
loop_
_space_group_symop_operation_xyz
x,y,z
-x,-y,-z
loop_
_atom_site_type_symbol
_atom_site_label
_atom_site_fract_x
_atom_site_fract_y
_atom_site_fract_z
Si Si1 0.658469 0.812949 0.370189
Si Si2 0.633605 0.343508 0.009584
Si Si3 0.779696 0.385358 0.691029
Si Si4 0.283259 0.553652 0.579151
Si Si5 0.148130 0.961876 0.023851
Si Si6 0.642746 0.348918 0.880380
Si Si7 0.294124 0.208846 0.016080
Si Si8 0.132166 0.519425 0.683177
O O1 0.617276 0.565304 0.178912
O O2 0.515323 0.825990 0.444786
O O3 0.469551 0.792317 0.296670
O O4 0.000000 0.000000 0.500000
O O5 0.399597 0.163753 0.915356
O O6 0.959409 0.471818 0.143354
O O7 0.569989 0.232904 0.853085
O O8 0.716580 0.570771 0.819746
O O9 0.916051 0.345788 0.597478
O O10 0.500000 0.500000 0.500000
O O11 0.184079 0.436728 0.551784
O O12 0.000000 0.500000 0.500000
O O13 0.501537 0.837696 0.817639
O O14 0.043250 0.693931 0.805724
O O15 0.011424 0.983905 0.105803
O O16 0.000000 0.000000 0.000000
O O17 0.500000 0.500000 0.000000
O O18 0.000000 0.500000 0.000000
O O19 0.555580 0.304916 0.141301
#
# Coordination Sequence:
#
# PCOD9085003 Si02
#       8
#     2   2   2   2   2   2   2   2
#     4  10  20  34  57  92 124 160 205 258 312 379
#     4   9  18  35  57  85 116 161 203 257 314 366
#     4   9  18  35  59  86 117 158 216 260 310 371
#     4  12  27  41  62  96 137 165 199 267 342 382
#     4  11  21  39  67  93 119 162 226 264 304 380
#     4  10  19  35  58  83 116 153 196 247 304 358
#     4   9  19  34  64  86 113 154 225 262 299 364
#     4  10  21  39  66  89 117 172 223 262 307 387
#
# _framework density 23.409877999999999
#
# number of rings (size 3 to 8) (size 9 to 14) (size 15 to 20)
#    0.000    2.000    2.500    1.125    3.500    0.500 
#    0.000    1.250    0.000    0.000    0.000    0.000 
#    0.000    0.000    0.000    0.000    0.000    0.000 
#
# Total GULP energy -89281.998752 kJ/mol
# GULP energy per Si atom -5580.124922 kJ/mol
# Density = 2.335660 g / cm^3
# Si number density = 23.409878 Si / 1000 Ang^3
#
#
#
# Elastic Constant Matrix: (Units=GPa)
#
#
# Indices 1 2 3 4 5 6 
#
# 1 98.7957 64.4197 26.7372 -5.4274 15.3298 8.9625
# 2 64.4197 223.0327 51.3275 -17.2410 21.4550 41.1585
# 3 26.7372 51.3275 61.5815 -1.5010 13.3260 15.5585
# 4 -5.4274 -17.2410 -1.5010 39.9233 6.1147 2.5083
# 5 15.3298 21.4550 13.3260 6.1147 42.1051 5.2758
# 6 8.9625 41.1585 15.5585 2.5083 5.2758 68.8462
#
#
#
# Elastic Compliance Matrix: (Units=1/GPa)
#
#
# Indices 1 2 3 4 5 6 
#
# 1 0.013229 -0.003021 -0.002877 0.000724 -0.002585 0.000906
# 2 -0.003021 0.007077 -0.003425 0.002933 -0.001464 -0.003058
# 3 -0.002877 -0.003425 0.021697 -0.000343 -0.003751 -0.002181
# 4 0.000724 0.002933 -0.000343 0.027364 -0.005328 -0.002359
# 5 -0.002585 -0.001464 -0.003751 -0.005328 0.027379 0.000156
# 6 0.000906 -0.003058 -0.002181 -0.002359 0.000156 0.016802
#
#
# Mechanical properties :
#
#
# Convention : Reuss Voigt Hill
#
# Bulk Modulus (GPa) = 42.81787 74.26430 58.54109
# Shear Modulus (GPa) = 35.71879 46.23663 40.97771
#
# Velocity S-wave (km/s) = 3.91039 4.44902 4.18837
# Velocity P-wave (km/s) = 6.22241 7.62785 6.96069
#
# Compressibility (1/GPa) = 0.02335473
#
# Stress axis : x y z
#
# Youngs Moduli (GPa) = 75.58870 141.31188 46.08860
#
# Poissons Ratio (x) = 0.42697 0.13262
# Poissons Ratio (y) = 0.22839 0.15787
# Poissons Ratio (z) = 0.21750 0.48405
#
# Static dielectric constant tensor:
#      x y z
#    x 1.959700 0.084550 -0.042330 
#    y 0.084550 1.940950 -0.020440 
#    z -0.042330 -0.020440 1.881980 
# 
# From -- ./inp_files/54778.got.cif
#   From: 2010.05.17/outbox.cif.g08.bks.cpg/sg2_28_cif.got.tgz:54778.got - 2010.06.03 11:33:40.
