data_PCOD9085299
_publ_section_title
;
Structure prediction by ZEFSAII (Michael W. Deem and Ramdas Pophale) SiO2 
 PCOD9085299
Probable space group: P -1
;
_chemical_formula_sum "Si O2"
_cell_formula_units_Z 16
_cell_length_a 10.570447
_cell_length_b 14.342785
_cell_length_c 5.427023
_cell_angle_alpha 93.821097
_cell_angle_beta 107.467315
_cell_angle_gamma 51.805045
_cell_volume 609.006209
_symmetry_space_group_name_H-M "P -1"
_symmetry_group_IT_number 2
_symmetry_cell_setting 'triclinic'
loop_
_space_group_symop_operation_xyz
x,y,z
-x,-y,-z
loop_
_atom_site_type_symbol
_atom_site_label
_atom_site_fract_x
_atom_site_fract_y
_atom_site_fract_z
Si Si1 0.136634 0.661896 0.631012
Si Si2 0.826180 0.745989 0.818783
Si Si3 0.079611 0.846198 0.268031
Si Si4 0.697214 0.127975 0.326628
Si Si5 0.999293 0.438825 0.736426
Si Si6 0.558532 0.742697 0.418847
Si Si7 0.636912 0.312204 0.962537
Si Si8 0.708690 0.993120 0.919646
O O1 0.007719 0.690072 0.784079
O O2 0.143305 0.574747 0.422491
O O3 0.047957 0.788645 0.463313
O O4 0.319007 0.618613 0.829995
O O5 0.734312 0.712175 0.582959
O O6 0.707992 0.888821 0.804747
O O7 0.848976 0.696777 0.102388
O O8 0.148768 0.915451 0.411372
O O9 0.243629 0.727816 0.211491
O O10 0.911375 0.926583 0.022117
O O11 0.525137 0.243912 0.364916
O O12 0.727394 0.184011 0.127262
O O13 0.674683 0.034425 0.194955
O O14 0.000000 0.500000 0.500000
O O15 0.000000 0.500000 0.000000
O O16 0.538084 0.660749 0.219838
O O17 0.427836 0.881255 0.274214
#
# Coordination Sequence:
#
# PCOD9085299 Si02
#       8
#     2   2   2   2   2   2   2   2
#     4  11  21  41  72  96 131 166 229 281 344 389
#     4  12  25  43  65 100 135 179 221 285 334 411
#     4  10  19  35  59  92 128 181 229 281 315 384
#     4   9  21  34  55  86 136 185 229 271 314 385
#     4  12  26  47  74 106 130 167 222 293 353 408
#     4  10  24  39  58  94 144 186 224 258 335 397
#     4   9  19  40  60  93 129 182 228 273 323 395
#     4  11  21  35  56  93 135 183 230 263 326 391
#
# _framework density 26.272307999999999
#
# number of rings (size 3 to 8) (size 9 to 14) (size 15 to 20)
#    0.000    1.500    3.750    0.750    1.750    7.000 
#    0.000    0.000    0.000    1.500    0.000    0.000 
#    0.000    0.000    0.000    0.000    0.000    0.000 
#
# Total GULP energy -89182.436847 kJ/mol
# GULP energy per Si atom -5573.902303 kJ/mol
# Density = 2.621251 g / cm^3
# Si number density = 26.272308 Si / 1000 Ang^3
#
#
#
# Elastic Constant Matrix: (Units=GPa)
#
#
# Indices 1 2 3 4 5 6 
#
# 1 77.7286 31.6549 65.3562 -5.1054 25.9392 26.5770
# 2 31.6549 79.5774 60.7752 23.3160 14.9096 19.2244
# 3 65.3562 60.7752 176.6454 14.2021 29.8886 29.3737
# 4 -5.1054 23.3160 14.2021 70.7144 17.8553 8.3459
# 5 25.9392 14.9096 29.8886 17.8553 62.2094 1.1477
# 6 26.5770 19.2244 29.3737 8.3459 1.1477 19.7783
#
#
#
# Elastic Compliance Matrix: (Units=1/GPa)
#
#
# Indices 1 2 3 4 5 6 
#
# 1 0.044514 -0.001592 -0.004315 0.016394 -0.019748 -0.057631
# 2 -0.001592 0.020203 -0.004404 -0.004698 -0.000549 -0.008942
# 3 -0.004315 -0.004404 0.009808 0.000155 -0.001820 -0.004446
# 4 0.016394 -0.004698 0.000155 0.022998 -0.011892 -0.026707
# 5 -0.019748 -0.000549 -0.001820 -0.011892 0.028116 0.033159
# 6 -0.057631 -0.008942 -0.004446 -0.026707 0.033159 0.152643
#
#
# Mechanical properties :
#
#
# Convention : Reuss Voigt Hill
#
# Bulk Modulus (GPa) = 18.55230 72.16933 45.36082
# Shear Modulus (GPa) = 15.77918 42.28474 29.03196
#
# Velocity S-wave (km/s) = 2.45338 4.01618 3.32782
# Velocity P-wave (km/s) = 3.88616 7.00255 5.66295
#
# Compressibility (1/GPa) = 0.05390168
#
# Stress axis : x y z
#
# Youngs Moduli (GPa) = 22.46462 49.49770 101.96074
#
# Poissons Ratio (x) = 0.07882 0.43998
# Poissons Ratio (y) = 0.03577 0.44905
# Poissons Ratio (z) = 0.09694 0.21800
#
# Static dielectric constant tensor:
#      x y z
#    x 2.115490 -0.006430 -0.048820 
#    y -0.006430 2.131930 0.071430 
#    z -0.048820 0.071430 2.156460 
# 
# From -- ./inp_files/77988.got.cif
#   From: 2010.05.17/outbox.cif.g08.bks.cpg/sg2_39_cif.got.tgz:77988.got - 2010.06.03 11:33:40.
