data_PCOD9085280
_publ_section_title
;
Structure prediction by ZEFSAII (Michael W. Deem and Ramdas Pophale) SiO2 
 PCOD9085280
Probable space group: P -1
;
_chemical_formula_sum "Si O2"
_cell_formula_units_Z 16
_cell_length_a 12.077014
_cell_length_b 13.719886
_cell_length_c 10.202489
_cell_angle_alpha 32.923240
_cell_angle_beta 51.495343
_cell_angle_gamma 62.320840
_cell_volume 712.291717
_symmetry_space_group_name_H-M "P -1"
_symmetry_group_IT_number 2
_symmetry_cell_setting 'triclinic'
loop_
_space_group_symop_operation_xyz
x,y,z
-x,-y,-z
loop_
_atom_site_type_symbol
_atom_site_label
_atom_site_fract_x
_atom_site_fract_y
_atom_site_fract_z
Si Si1 0.641134 0.940944 0.237619
Si Si2 0.613182 0.300231 0.727097
Si Si3 0.893363 0.425900 0.517677
Si Si4 0.118084 0.187015 0.945731
Si Si5 0.874402 0.074731 0.092329
Si Si6 0.858115 0.514255 0.925574
Si Si7 0.452854 0.613376 0.615526
Si Si8 0.039690 0.215545 0.236912
O O1 0.776222 0.942308 0.038114
O O2 0.543240 0.756835 0.482424
O O3 0.570295 0.113390 0.048702
O O4 0.721443 0.962790 0.295014
O O5 0.782521 0.357630 0.560957
O O6 0.536875 0.453423 0.682515
O O7 0.581904 0.292076 0.604227
O O8 0.863253 0.624045 0.359494
O O9 0.863671 0.274070 0.820017
O O10 0.052703 0.449371 0.314845
O O11 0.952579 0.100453 0.145613
O O12 0.153712 0.245984 0.000592
O O13 0.000000 0.000000 0.000000
O O14 0.898857 0.695897 0.775479
O O15 0.689555 0.465240 0.112979
O O16 0.920765 0.342300 0.139910
O O17 0.000000 0.000000 0.500000
#
# Coordination Sequence:
#
# PCOD9085280 Si02
#       8
#     2   2   2   2   2   2   2   2
#     4  10  21  35  56  82 116 146 197 240 283 325
#     4  10  21  33  57  82 113 156 194 236 277 340
#     4  10  19  39  59  87 116 145 191 247 284 338
#     4  10  19  35  59  91 107 148 198 240 289 324
#     4   9  20  34  60  88 107 145 199 253 276 323
#     4  10  23  36  55  88 121 151 184 228 297 348
#     4  11  21  36  53  81 123 156 189 226 290 351
#     4  10  22  35  58  85 121 152 186 234 287 347
#
# _framework density 22.462706000000001
#
# number of rings (size 3 to 8) (size 9 to 14) (size 15 to 20)
#    0.000    2.000    1.250    3.000    8.750    1.000 
#    0.000    0.000    0.000    6.000    0.000    0.000 
#    0.000    0.000    0.000    0.000    0.000    0.000 
#
# Total GULP energy -89232.030812 kJ/mol
# GULP energy per Si atom -5577.001926 kJ/mol
# Density = 2.241158 g / cm^3
# Si number density = 22.462706 Si / 1000 Ang^3
#
#
#
# Elastic Constant Matrix: (Units=GPa)
#
#
# Indices 1 2 3 4 5 6 
#
# 1 68.6664 19.0507 25.1781 -6.0746 -23.8975 7.8144
# 2 19.0507 54.5541 29.6446 -19.1727 -8.4115 -0.7626
# 3 25.1781 29.6446 81.6424 -24.0206 -22.4423 -4.9853
# 4 -6.0746 -19.1727 -24.0206 43.8432 -3.1818 -7.1494
# 5 -23.8975 -8.4115 -22.4423 -3.1818 32.8097 -3.9363
# 6 7.8144 -0.7626 -4.9853 -7.1494 -3.9363 22.1363
#
#
#
# Elastic Compliance Matrix: (Units=1/GPa)
#
#
# Indices 1 2 3 4 5 6 
#
# 1 0.021589 -0.004726 -0.001982 -0.000258 0.012399 -0.006109
# 2 -0.004726 0.025963 -0.004601 0.009058 0.001511 0.004721
# 3 -0.001982 -0.004601 0.024344 0.014534 0.017088 0.013756
# 4 -0.000258 0.009058 0.014534 0.039212 0.018228 0.019582
# 5 0.012399 0.001511 0.017088 0.018228 0.055180 0.015223
# 6 -0.006109 0.004721 0.013756 0.019582 0.015223 0.059623
#
#
# Mechanical properties :
#
#
# Convention : Reuss Voigt Hill
#
# Bulk Modulus (GPa) = 20.29364 39.17887 29.73625
# Shear Modulus (GPa) = 18.87103 28.49049 23.68076
#
# Velocity S-wave (km/s) = 2.90160 3.56525 3.25041
# Velocity P-wave (km/s) = 4.50330 5.86750 5.23007
#
# Compressibility (1/GPa) = 0.04927652
#
# Stress axis : x y z
#
# Youngs Moduli (GPa) = 46.32030 38.51584 41.07785
#
# Poissons Ratio (x) = 0.18203 0.08144
# Poissons Ratio (y) = 0.21891 0.18901
# Poissons Ratio (z) = 0.09183 0.17722
#
# Static dielectric constant tensor:
#      x y z
#    x 1.925450 0.025810 0.019320 
#    y 0.025810 1.833190 -0.015290 
#    z 0.019320 -0.015290 1.905240 
# 
# From -- ./inp_files/432250.got.cif
#   From: 2010.05.17/outbox.cif.g08.bks.cpg/sg2_217_cif.got.tgz:432250.got - 2010.06.03 11:33:40.
