data_PCOD9085841
_publ_section_title
;
Structure prediction by ZEFSAII (Michael W. Deem and Ramdas Pophale) SiO2 
 PCOD9085841
Probable space group: P -1
;
_chemical_formula_sum "Si O2"
_cell_formula_units_Z 16
_cell_length_a 8.174750
_cell_length_b 23.464511
_cell_length_c 20.749361
_cell_angle_alpha 17.576806
_cell_angle_beta 145.686578
_cell_angle_gamma 140.152482
_cell_volume 673.014572
_symmetry_space_group_name_H-M "P -1"
_symmetry_group_IT_number 2
_symmetry_cell_setting 'triclinic'
loop_
_space_group_symop_operation_xyz
x,y,z
-x,-y,-z
loop_
_atom_site_type_symbol
_atom_site_label
_atom_site_fract_x
_atom_site_fract_y
_atom_site_fract_z
Si Si1 0.057982 0.683825 0.405989
Si Si2 0.314130 0.319869 0.830802
Si Si3 0.239828 0.132112 0.696533
Si Si4 0.661380 0.081011 0.305291
Si Si5 0.874763 0.050745 0.005720
Si Si6 0.658549 0.672338 0.951353
Si Si7 0.392986 0.765455 0.632467
Si Si8 0.208219 0.499851 0.364864
O O1 0.308024 0.539928 0.610428
O O2 0.767380 0.686094 0.264335
O O3 0.096326 0.898578 0.203713
O O4 0.000994 0.593385 0.553111
O O5 0.564031 0.187282 0.091920
O O6 0.017324 0.244912 0.844283
O O7 0.181433 0.019246 0.865251
O O8 0.277242 0.348501 0.494450
O O9 0.933394 0.152806 0.538297
O O10 0.563748 0.054703 0.864535
O O11 0.552609 0.229997 0.166943
O O12 0.490726 0.901200 0.462093
O O13 0.000000 0.000000 0.500000
O O14 0.596757 0.766416 0.760202
O O15 0.610063 0.450539 0.161405
O O16 0.997436 0.676797 0.078070
O O17 0.500000 0.500000 0.500000
#
# Coordination Sequence:
#
# PCOD9085841 Si02
#       8
#     2   2   2   2   2   2   2   2
#     4  10  22  36  57  86 119 164 198 244 314 368
#     4  11  22  39  58  83 126 163 200 257 304 379
#     4   9  19  33  62  93 117 155 200 252 319 370
#     4  12  26  41  64  95 129 177 217 259 326 383
#     4  10  19  36  58  90 119 152 199 252 317 365
#     4  10  23  43  68  92 128 172 216 273 320 374
#     4  10  22  45  67  91 130 168 220 270 316 384
#     4  10  19  35  63  94 122 158 204 260 321 368
#
# _framework density 23.773631999999999
#
# number of rings (size 3 to 8) (size 9 to 14) (size 15 to 20)
#    0.000    1.750    2.500    1.500    0.000    3.500 
#    0.000    3.750    0.000    0.000    0.000    0.000 
#    0.000    0.000    0.000    0.000    0.000    0.000 
#
# Total GULP energy -89300.405189 kJ/mol
# GULP energy per Si atom -5581.275324 kJ/mol
# Density = 2.371952 g / cm^3
# Si number density = 23.773632 Si / 1000 Ang^3
#
#
#
# Elastic Constant Matrix: (Units=GPa)
#
#
# Indices 1 2 3 4 5 6 
#
# 1 51.6584 13.8371 35.6355 3.9862 7.1711 -3.2382
# 2 13.8371 66.0643 50.8640 13.4824 11.6489 -2.5170
# 3 35.6355 50.8640 161.4657 30.5538 8.7236 -7.6601
# 4 3.9862 13.4824 30.5538 63.2387 -3.5986 4.7406
# 5 7.1711 11.6489 8.7236 -3.5986 36.9697 7.5725
# 6 -3.2382 -2.5170 -7.6601 4.7406 7.5725 30.8252
#
#
#
# Elastic Compliance Matrix: (Units=1/GPa)
#
#
# Indices 1 2 3 4 5 6 
#
# 1 0.023408 -0.000633 -0.004799 0.000626 -0.003556 0.001992
# 2 -0.000633 0.021231 -0.005719 -0.002208 -0.005846 0.002022
# 3 -0.004799 -0.005719 0.009813 -0.003394 -0.000337 0.002072
# 4 0.000626 -0.002208 -0.003394 0.018482 0.004162 -0.004823
# 5 -0.003556 -0.005846 -0.000337 0.004162 0.031998 -0.009436
# 6 0.001992 0.002022 0.002072 -0.004823 -0.009436 0.036390
#
#
# Mechanical properties :
#
#
# Convention : Reuss Voigt Hill
#
# Bulk Modulus (GPa) = 31.10397 53.31798 42.21097
# Shear Modulus (GPa) = 28.67965 38.13016 33.40491
#
# Velocity S-wave (km/s) = 3.47704 4.00920 3.75257
# Velocity P-wave (km/s) = 5.40662 6.62628 6.04728
#
# Compressibility (1/GPa) = 0.03215024
#
# Stress axis : x y z
#
# Youngs Moduli (GPa) = 42.72062 47.10144 101.91063
#
# Poissons Ratio (x) = 0.02983 0.48902
# Poissons Ratio (y) = 0.02705 0.58280
# Poissons Ratio (z) = 0.20500 0.26936
#
# Static dielectric constant tensor:
#      x y z
#    x 1.905260 -0.015140 0.031210 
#    y -0.015140 1.929040 -0.005470 
#    z 0.031210 -0.005470 1.971670 
# 
# From -- ./inp_files/591959.got.cif
#   From: 2010.05.17/outbox.cif.g08.bks.cpg/sg2_296_cif.got.tgz:591959.got - 2010.06.03 11:33:40.
