data_PCOD9085614
_publ_section_title
;
Structure prediction by ZEFSAII (Michael W. Deem and Ramdas Pophale) SiO2 
 PCOD9085614
Probable space group: P -1
;
_chemical_formula_sum "Si O2"
_cell_formula_units_Z 16
_cell_length_a 20.781242
_cell_length_b 12.010777
_cell_length_c 9.094956
_cell_angle_alpha 127.956414
_cell_angle_beta 138.757532
_cell_angle_gamma 28.578114
_cell_volume 708.475099
_symmetry_space_group_name_H-M "P -1"
_symmetry_group_IT_number 2
_symmetry_cell_setting 'triclinic'
loop_
_space_group_symop_operation_xyz
x,y,z
-x,-y,-z
loop_
_atom_site_type_symbol
_atom_site_label
_atom_site_fract_x
_atom_site_fract_y
_atom_site_fract_z
Si Si1 0.845594 0.885882 0.748992
Si Si2 0.598090 0.754660 0.538931
Si Si3 0.882297 0.575318 0.737839
Si Si4 0.967591 0.011357 0.227707
Si Si5 0.604616 0.273793 0.289463
Si Si6 0.476289 0.338421 0.394959
Si Si7 0.956855 0.767843 0.539239
Si Si8 0.293475 0.655413 0.706736
O O1 0.803977 0.805837 0.720705
O O2 0.949061 0.714402 0.646235
O O3 0.667853 0.142036 0.599445
O O4 0.947153 0.893429 0.003612
O O5 0.776574 0.594752 0.670234
O O6 0.574634 0.737664 0.655986
O O7 0.589712 0.614577 0.327829
O O8 0.500000 0.000000 0.500000
O O9 0.951057 0.412315 0.582786
O O10 0.000000 0.500000 0.000000
O O11 0.130122 0.822793 0.456378
O O12 0.798862 0.214806 0.194486
O O13 0.982958 0.139753 0.269832
O O14 0.470744 0.343993 0.211907
O O15 0.613173 0.417412 0.503467
O O16 0.605611 0.328431 0.169550
O O17 0.768603 0.994570 0.352810
#
# Coordination Sequence:
#
# PCOD9085614 Si02
#       8
#     2   2   2   2   2   2   2   2
#     4  11  22  36  61  93 122 161 206 250 305 369
#     4  11  20  38  59  84 123 168 198 247 308 366
#     4  12  25  40  63  92 122 164 210 250 304 370
#     4  10  19  35  61  93 120 152 202 257 308 355
#     4   8  17  33  61  82 115 156 199 242 304 356
#     4   9  18  36  56  89 118 162 197 244 307 366
#     4  10  21  40  62  88 124 159 201 259 309 357
#     4   9  18  33  59  88 120 157 197 255 305 352
#
# _framework density 22.583715000000002
#
# number of rings (size 3 to 8) (size 9 to 14) (size 15 to 20)
#    0.000    2.000    2.500    1.500    3.500    0.000 
#    0.000    5.000    0.000    3.000    0.000    0.000 
#    0.000    0.000    0.000    0.000    0.000    0.000 
#
# Total GULP energy -89122.063795 kJ/mol
# GULP energy per Si atom -5570.128987 kJ/mol
# Density = 2.253231 g / cm^3
# Si number density = 22.583715 Si / 1000 Ang^3
#
#
#
# Elastic Constant Matrix: (Units=GPa)
#
#
# Indices 1 2 3 4 5 6 
#
# 1 194.5072 16.6939 21.8799 4.0891 -15.3848 6.0049
# 2 16.6939 67.4738 0.7312 1.9688 -5.9856 6.4208
# 3 21.8799 0.7312 53.1304 11.4199 2.5718 0.3145
# 4 4.0891 1.9688 11.4199 12.7211 6.5544 -5.8995
# 5 -15.3848 -5.9856 2.5718 6.5544 16.0739 1.3142
# 6 6.0049 6.4208 0.3145 -5.8995 1.3142 44.9688
#
#
#
# Elastic Compliance Matrix: (Units=1/GPa)
#
#
# Indices 1 2 3 4 5 6 
#
# 1 0.006215 -0.000446 -0.001773 -0.005486 0.008444 -0.001720
# 2 -0.000446 0.016562 0.001936 -0.011448 0.010437 -0.004126
# 3 -0.001773 0.001936 0.025155 -0.027561 0.006566 -0.004023
# 4 -0.005486 -0.011448 -0.027561 0.154586 -0.070174 0.024891
# 5 0.008444 0.010437 0.006566 -0.070174 0.102962 -0.014879
# 6 -0.001720 -0.004126 -0.004023 0.024891 -0.014879 0.026785
#
#
# Mechanical properties :
#
#
# Convention : Reuss Voigt Hill
#
# Bulk Modulus (GPa) = 21.11190 43.74683 32.42937
# Shear Modulus (GPa) = 14.34226 33.13984 23.74105
#
# Velocity S-wave (km/s) = 2.52280 3.83485 3.24581
# Velocity P-wave (km/s) = 4.22547 6.24669 5.33271
#
# Compressibility (1/GPa) = 0.04736665
#
# Stress axis : x y z
#
# Youngs Moduli (GPa) = 160.89567 60.37788 39.75365
#
# Poissons Ratio (x) = 0.02691 0.07047
# Poissons Ratio (y) = 0.07170 -0.07694
# Poissons Ratio (z) = 0.28523 -0.11686
#
# Static dielectric constant tensor:
#      x y z
#    x 1.801430 -0.124200 -0.002280 
#    y -0.124200 1.754940 0.018330 
#    z -0.002280 0.018330 1.767910 
# 
# From -- ./inp_files/346290.got.cif
#   From: 2010.05.17/outbox.cif.g08.bks.cpg/sg2_174_cif.got.tgz:346290.got - 2010.06.03 11:33:40.
