data_PCOD9085559
_publ_section_title
;
Structure prediction by ZEFSAII (Michael W. Deem and Ramdas Pophale) SiO2 
 PCOD9085559
Probable space group: P -1
;
_chemical_formula_sum "Si O2"
_cell_formula_units_Z 16
_cell_length_a 13.360317
_cell_length_b 10.875673
_cell_length_c 14.917300
_cell_angle_alpha 57.717908
_cell_angle_beta 134.036751
_cell_angle_gamma 148.111510
_cell_volume 814.117866
_symmetry_space_group_name_H-M "P -1"
_symmetry_group_IT_number 2
_symmetry_cell_setting 'triclinic'
loop_
_space_group_symop_operation_xyz
x,y,z
-x,-y,-z
loop_
_atom_site_type_symbol
_atom_site_label
_atom_site_fract_x
_atom_site_fract_y
_atom_site_fract_z
Si Si1 0.925411 0.531772 0.078935
Si Si2 0.815130 0.739168 0.026287
Si Si3 0.475388 0.559511 0.758803
Si Si4 0.205125 0.049974 0.791486
Si Si5 0.329150 0.885030 0.056047
Si Si6 0.105723 0.999315 0.274662
Si Si7 0.011986 0.344030 0.539056
Si Si8 0.840781 0.220255 0.280275
O O1 0.830713 0.601657 0.034842
O O2 0.967562 0.454599 0.216243
O O3 0.151397 0.746960 0.079863
O O4 0.758218 0.311227 0.991379
O O5 0.582579 0.625536 0.898944
O O6 0.901714 0.791760 0.160211
O O7 0.000000 0.000000 0.000000
O O8 0.372280 0.317304 0.765449
O O9 0.675350 0.773750 0.733483
O O10 0.268196 0.498938 0.648396
O O11 0.136471 0.902808 0.719325
O O12 0.992051 0.948920 0.747153
O O13 0.314842 0.024538 0.938589
O O14 0.577990 0.052025 0.179082
O O15 0.135491 0.884503 0.401395
O O16 0.000000 0.500000 0.500000
O O17 0.930017 0.266627 0.416283
#
# Coordination Sequence:
#
# PCOD9085559 Si02
#       8
#     2   2   2   2   2   2   2   2
#     4  10  20  36  59  90 119 148 192 238 289 342
#     4  10  19  35  61  88 113 147 190 238 290 338
#     4  10  22  40  61  85 117 151 188 243 290 334
#     4  10  21  38  60  89 116 144 193 243 287 341
#     4  10  20  35  61  90 118 151 186 238 293 339
#     4  10  23  40  61  87 115 151 193 239 289 340
#     4  11  26  42  58  84 117 155 198 233 278 348
#     4  11  23  38  58  85 119 157 191 233 284 340
#
# _framework density 19.653174
#
# number of rings (size 3 to 8) (size 9 to 14) (size 15 to 20)
#    0.000    1.750    0.000    5.250    0.000   10.500 
#    0.000    1.250    0.000    0.000    0.000    0.000 
#    0.000    0.000    0.000    0.000    0.000    0.000 
#
# Total GULP energy -89392.563666 kJ/mol
# GULP energy per Si atom -5587.035229 kJ/mol
# Density = 1.960844 g / cm^3
# Si number density = 19.653174 Si / 1000 Ang^3
#
#
#
# Elastic Constant Matrix: (Units=GPa)
#
#
# Indices 1 2 3 4 5 6 
#
# 1 94.5079 63.7812 73.5705 -7.0893 12.9176 -1.7542
# 2 63.7812 111.4213 56.3367 -19.0392 8.8049 10.9424
# 3 73.5705 56.3367 148.7810 -10.5143 -13.1463 -8.2912
# 4 -7.0893 -19.0392 -10.5143 20.9832 2.1916 -1.6223
# 5 12.9176 8.8049 -13.1463 2.1916 31.2569 -10.3273
# 6 -1.7542 10.9424 -8.2912 -1.6223 -10.3273 37.2412
#
#
#
# Elastic Compliance Matrix: (Units=1/GPa)
#
#
# Indices 1 2 3 4 5 6 
#
# 1 0.027602 -0.008860 -0.012003 -0.003423 -0.014710 -0.002997
# 2 -0.008860 0.018988 -0.002906 0.012841 -0.006407 -0.007861
# 3 -0.012003 -0.002906 0.015523 0.000139 0.014903 0.007883
# 4 -0.003423 0.012841 0.000139 0.058731 -0.007383 -0.003392
# 5 -0.014710 -0.006407 0.014903 -0.007383 0.052892 0.018853
# 6 -0.002997 -0.007861 0.007883 -0.003392 0.018853 0.035856
#
#
# Mechanical properties :
#
#
# Convention : Reuss Voigt Hill
#
# Bulk Modulus (GPa) = 68.60279 82.45412 75.52845
# Shear Modulus (GPa) = 19.08486 28.63105 23.85795
#
# Velocity S-wave (km/s) = 3.11960 3.82097 3.48796
# Velocity P-wave (km/s) = 6.92520 7.84296 7.39833
#
# Compressibility (1/GPa) = 0.01457667
#
# Stress axis : x y z
#
# Youngs Moduli (GPa) = 36.22868 52.66429 64.42093
#
# Poissons Ratio (x) = 0.46659 0.77325
# Poissons Ratio (y) = 0.32097 0.18719
# Poissons Ratio (z) = 0.43486 0.15303
#
# Static dielectric constant tensor:
#      x y z
#    x 1.693150 0.008030 -0.004590 
#    y 0.008030 1.695390 0.002420 
#    z -0.004590 0.002420 1.685050 
# 
# From -- ./inp_files/532413.got.cif
#   From: 2010.05.17/outbox.cif.g08.bks.cpg/sg2_267_cif.got.tgz:532413.got - 2010.06.03 11:33:40.
