data_PCOD9085602
_publ_section_title
;
Structure prediction by ZEFSAII (Michael W. Deem and Ramdas Pophale) SiO2 
 PCOD9085602
Probable space group: P -1
;
_chemical_formula_sum "Si O2"
_cell_formula_units_Z 16
_cell_length_a 8.203115
_cell_length_b 9.421044
_cell_length_c 9.622665
_cell_angle_alpha 113.662515
_cell_angle_beta 82.915782
_cell_angle_gamma 81.768368
_cell_volume 660.574452
_symmetry_space_group_name_H-M "P -1"
_symmetry_group_IT_number 2
_symmetry_cell_setting 'triclinic'
loop_
_space_group_symop_operation_xyz
x,y,z
-x,-y,-z
loop_
_atom_site_type_symbol
_atom_site_label
_atom_site_fract_x
_atom_site_fract_y
_atom_site_fract_z
Si Si1 0.056316 0.691280 0.109295
Si Si2 0.301338 0.762302 0.761565
Si Si3 0.403572 0.021748 0.690118
Si Si4 0.529401 0.677049 0.459443
Si Si5 0.612250 0.461177 0.105249
Si Si6 0.059807 0.162139 0.094156
Si Si7 0.772919 0.006557 0.741211
Si Si8 0.153565 0.238747 0.595145
O O1 0.996301 0.660967 0.259203
O O2 0.143103 0.843440 0.185229
O O3 0.198091 0.550707 0.974280
O O4 0.929341 0.745313 0.013750
O O5 0.319183 0.938683 0.790878
O O6 0.413229 0.652078 0.590869
O O7 0.375025 0.705313 0.881245
O O8 0.109832 0.744260 0.773065
O O9 0.455668 0.866868 0.523596
O O10 0.576765 0.057506 0.742488
O O11 0.267888 0.150337 0.675970
O O12 0.533596 0.585892 0.280360
O O13 0.727035 0.666525 0.463673
O O14 0.500000 0.500000 0.000000
O O15 0.204368 0.107497 0.170238
O O16 0.000000 0.000000 0.000000
O O17 0.870752 0.897739 0.562600
#
# Coordination Sequence:
#
# PCOD9085602 Si02
#       8
#     2   2   2   2   2   2   2   2
#     4  10  23  37  59  87 125 158 191 243 309 349
#     4   9  20  40  63  82 114 162 200 240 297 343
#     4   9  20  35  65  89 119 148 199 247 298 336
#     4   9  21  38  62  81 122 153 206 232 292 344
#     4  11  24  40  61  88 117 156 206 245 292 355
#     4   9  18  36  53  86 123 151 185 243 299 356
#     4  10  19  35  61  92 119 153 202 240 295 358
#     4  11  21  39  62  92 121 156 195 251 295 352
#
# _framework density 24.221346
#
# number of rings (size 3 to 8) (size 9 to 14) (size 15 to 20)
#    0.750    1.500    0.000    3.750    3.500    1.500 
#    2.250    6.250    0.000    6.750    0.000    0.000 
#    0.000    0.000    0.000    0.000    0.000    0.000 
#
# Total GULP energy -89202.789427 kJ/mol
# GULP energy per Si atom -5575.174339 kJ/mol
# Density = 2.416622 g / cm^3
# Si number density = 24.221346 Si / 1000 Ang^3
#
#
#
# Elastic Constant Matrix: (Units=GPa)
#
#
# Indices 1 2 3 4 5 6 
#
# 1 22.8307 8.0767 34.3549 1.1979 -0.8469 -2.0361
# 2 8.0767 52.9326 17.1705 -8.0246 11.2201 -6.8922
# 3 34.3549 17.1705 162.4072 3.8627 -21.1129 -0.2410
# 4 1.1979 -8.0246 3.8627 25.2897 -11.7179 4.6430
# 5 -0.8469 11.2201 -21.1129 -11.7179 54.2706 -6.7021
# 6 -2.0361 -6.8922 -0.2410 4.6430 -6.7021 32.8404
#
#
#
# Elastic Compliance Matrix: (Units=1/GPa)
#
#
# Indices 1 2 3 4 5 6 
#
# 1 0.067187 -0.005224 -0.014067 -0.005113 -0.004095 0.002853
# 2 -0.005224 0.022299 -0.001886 0.005272 -0.003942 0.002792
# 3 -0.014067 -0.001886 0.009847 0.000526 0.004060 -0.000441
# 4 -0.005113 0.005272 0.000526 0.046039 0.008483 -0.003984
# 5 -0.004095 -0.003942 0.004060 0.008483 0.022888 0.002420
# 6 0.002853 0.002792 -0.000441 -0.003984 0.002420 0.032267
#
#
# Mechanical properties :
#
#
# Convention : Reuss Voigt Hill
#
# Bulk Modulus (GPa) = 17.55033 39.70830 28.62932
# Shear Modulus (GPa) = 19.09315 34.38469 26.73892
#
# Velocity S-wave (km/s) = 2.81067 3.77185 3.32616
# Velocity P-wave (km/s) = 4.21838 5.94968 5.15720
#
# Compressibility (1/GPa) = 0.05697897
#
# Stress axis : x y z
#
# Youngs Moduli (GPa) = 14.88389 44.84419 101.55331
#
# Poissons Ratio (x) = 0.23428 1.42851
# Poissons Ratio (y) = 0.07776 0.19156
# Poissons Ratio (z) = 0.20937 0.08459
#
# Static dielectric constant tensor:
#      x y z
#    x 2.035180 0.047930 -0.109470 
#    y 0.047930 2.043110 0.030460 
#    z -0.109470 0.030460 2.016970 
# 
# From -- ./inp_files/189279.got.cif
#   From: 2010.05.17/outbox.cif.g08.bks.cpg/sg2_95_cif.got.tgz:189279.got - 2010.06.03 11:33:40.
