data_PCOD9085797
_publ_section_title
;
Structure prediction by ZEFSAII (Michael W. Deem and Ramdas Pophale) SiO2 
 PCOD9085797
Probable space group: P -1
;
_chemical_formula_sum "Si O2"
_cell_formula_units_Z 14
_cell_length_a 9.311082
_cell_length_b 25.538908
_cell_length_c 9.484143
_cell_angle_alpha 122.427416
_cell_angle_beta 132.222658
_cell_angle_gamma 29.187680
_cell_volume 806.484065
_symmetry_space_group_name_H-M "P -1"
_symmetry_group_IT_number 2
_symmetry_cell_setting 'triclinic'
loop_
_space_group_symop_operation_xyz
x,y,z
-x,-y,-z
loop_
_atom_site_type_symbol
_atom_site_label
_atom_site_fract_x
_atom_site_fract_y
_atom_site_fract_z
Si Si1 0.195852 0.402825 0.593677
Si Si2 0.754807 0.225509 0.489105
Si Si3 0.789629 0.975948 0.649480
Si Si4 0.433791 0.764396 0.913571
Si Si5 0.645759 0.595715 0.989476
Si Si6 0.765892 0.401733 0.422615
Si Si7 0.223251 0.216140 0.685590
O O1 0.532969 0.291712 0.575565
O O2 0.000000 0.500000 0.500000
O O3 0.960806 0.406065 0.481386
O O4 0.284981 0.412953 0.813376
O O5 0.516956 0.280701 0.272143
O O6 0.987297 0.102432 0.452841
O O7 0.994976 0.222037 0.613876
O O8 0.062109 0.892617 0.833294
O O9 0.500000 0.000000 0.500000
O O10 0.584006 0.092917 0.696882
O O11 0.452817 0.706538 0.959967
O O12 0.699300 0.747841 0.105261
O O13 0.432107 0.591096 0.803783
O O14 0.000000 0.500000 0.000000
O O15 0.500000 0.500000 0.500000
O O16 0.025994 0.293507 0.531858
#
# Coordination Sequence:
#
# PCOD9085797 Si02
#       7
#     2   2   2   2   2   2   2
#     4  12  25  39  59  86 124 150 191 250 300 341
#     4   9  21  36  57  90 121 146 193 246 292 332
#     4   8  17  34  60  87 120 151 198 240 283 343
#     4  10  19  35  63  89 115 152 202 235 287 346
#     4  12  22  39  62  86 115 156 201 238 289 355
#     4  12  23  39  63  87 114 157 198 240 291 354
#     4  11  18  37  65  88 114 159 202 235 287 351
#
# _framework density 17.359300999999999
#
# number of rings (size 3 to 8) (size 9 to 14) (size 15 to 20)
#    0.857    0.571    4.286    2.143    0.000    1.714 
#    0.000    0.714    0.000    4.286    0.000    0.000 
#    0.000    0.000    0.000    0.000    0.000    0.000 
#
# Total GULP energy -78005.901908 kJ/mol
# GULP energy per Si atom -5571.850136 kJ/mol
# Density = 1.731979 g / cm^3
# Si number density = 17.359301 Si / 1000 Ang^3
#
#
#
# Elastic Constant Matrix: (Units=GPa)
#
#
# Indices 1 2 3 4 5 6 
#
# 1 105.0059 53.7488 59.3500 5.9181 7.8027 -8.2599
# 2 53.7488 115.7247 37.4143 -0.5455 -13.7635 -6.4488
# 3 59.3500 37.4143 173.4017 10.6056 10.4603 -5.7650
# 4 5.9181 -0.5455 10.6056 29.0428 2.9231 -6.2556
# 5 7.8027 -13.7635 10.4603 2.9231 37.3561 2.9754
# 6 -8.2599 -6.4488 -5.7650 -6.2556 2.9754 28.8818
#
#
#
# Elastic Compliance Matrix: (Units=1/GPa)
#
#
# Indices 1 2 3 4 5 6 
#
# 1 0.015384 -0.006461 -0.003440 -0.000972 -0.004758 0.002550
# 2 -0.006461 0.012723 -0.000975 0.001391 0.006164 0.000465
# 3 -0.003440 -0.000975 0.007363 -0.001842 -0.001561 0.000030
# 4 -0.000972 0.001391 -0.001842 0.037281 -0.002321 0.007979
# 5 -0.004758 0.006164 -0.001561 -0.002321 0.030971 -0.003989
# 6 0.002550 0.000465 0.000030 0.007979 -0.003989 0.037602
#
#
# Mechanical properties :
#
#
# Convention : Reuss Voigt Hill
#
# Bulk Modulus (GPa) = 72.90535 77.23984 75.07259
# Shear Modulus (GPa) = 29.82432 35.29742 32.56087
#
# Velocity S-wave (km/s) = 4.14945 4.51415 4.33564
# Velocity P-wave (km/s) = 8.06512 8.47121 8.27066
#
# Compressibility (1/GPa) = 0.01371641
#
# Stress axis : x y z
#
# Youngs Moduli (GPa) = 65.00371 78.59755 135.82107
#
# Poissons Ratio (x) = 0.50783 0.46723
# Poissons Ratio (y) = 0.42000 0.13246
# Poissons Ratio (z) = 0.22362 0.07665
#
# Static dielectric constant tensor:
#      x y z
#    x 1.551510 0.014770 0.009940 
#    y 0.014770 1.638060 0.003650 
#    z 0.009940 0.003650 1.596020 
# 
# From -- ./inp_files/220193.got.cif
#   From: 2010.05.17/outbox.cif.g08.bks.cpg/sg2_111_cif.got.tgz:220193.got - 2010.06.03 11:33:40.
