data_PCOD9085920
_publ_section_title
;
Structure prediction by ZEFSAII (Michael W. Deem and Ramdas Pophale) SiO2 
 PCOD9085920
Probable space group: P -1
;
_chemical_formula_sum "Si O2"
_cell_formula_units_Z 16
_cell_length_a 16.158229
_cell_length_b 14.591181
_cell_length_c 9.882741
_cell_angle_alpha 125.534221
_cell_angle_beta 35.929653
_cell_angle_gamma 143.012537
_cell_volume 808.260827
_symmetry_space_group_name_H-M "P -1"
_symmetry_group_IT_number 2
_symmetry_cell_setting 'triclinic'
loop_
_space_group_symop_operation_xyz
x,y,z
-x,-y,-z
loop_
_atom_site_type_symbol
_atom_site_label
_atom_site_fract_x
_atom_site_fract_y
_atom_site_fract_z
Si Si1 0.224291 0.775148 0.585456
Si Si2 0.458753 0.158527 0.203043
Si Si3 0.787101 0.863834 0.723379
Si Si4 0.802674 0.197196 0.669187
Si Si5 0.448334 0.713225 0.536730
Si Si6 0.645380 0.912638 0.208525
Si Si7 0.092783 0.655264 0.928464
Si Si8 0.855627 0.645176 0.439537
O O1 0.167434 0.760111 0.492216
O O2 0.426980 0.817519 0.360132
O O3 0.074421 0.639731 0.777129
O O4 0.266414 0.919723 0.721191
O O5 0.361218 0.160708 0.204949
O O6 0.494780 0.268220 0.367902
O O7 0.314406 0.984202 0.306701
O O8 0.659040 0.210244 0.936957
O O9 0.763846 0.717119 0.636661
O O10 0.762266 0.910792 0.939567
O O11 0.000000 0.000000 0.500000
O O12 0.002663 0.301226 0.576173
O O13 0.621829 0.826666 0.301418
O O14 0.322370 0.761627 0.740667
O O15 0.310759 0.539276 0.515996
O O16 0.000000 0.500000 0.000000
O O17 0.996252 0.708627 0.175351
#
# Coordination Sequence:
#
# PCOD9085920 Si02
#       8
#     2   2   2   2   2   2   2   2
#     4  10  19  35  64  94 119 159 213 257 303 367
#     4  11  22  38  64  93 129 160 216 261 308 375
#     4  12  24  40  60  94 128 164 207 266 319 369
#     4  11  21  37  64 101 120 162 217 262 303 372
#     4  10  21  41  64  89 124 171 206 258 313 376
#     4  10  21  37  61  93 124 161 207 260 316 368
#     4   9  19  37  61  92 124 163 199 255 312 363
#     4  11  23  40  64  90 131 167 204 255 327 373
#
# _framework density 19.795590000000001
#
# number of rings (size 3 to 8) (size 9 to 14) (size 15 to 20)
#    0.000    1.500    5.000    0.750    0.000    1.000 
#    0.000   11.875    0.000    0.000    0.000    0.000 
#    0.000    0.000    0.000    0.000    0.000    0.000 
#
# Total GULP energy -89329.631773 kJ/mol
# GULP energy per Si atom -5583.101986 kJ/mol
# Density = 1.975053 g / cm^3
# Si number density = 19.795590 Si / 1000 Ang^3
#
#
#
# Elastic Constant Matrix: (Units=GPa)
#
#
# Indices 1 2 3 4 5 6 
#
# 1 92.3074 22.1881 31.8179 2.0638 31.8516 0.5536
# 2 22.1881 76.3105 27.9966 6.4122 9.1907 -3.2261
# 3 31.8179 27.9966 122.0329 13.5066 33.4093 -9.5626
# 4 2.0638 6.4122 13.5066 23.9308 -2.5857 1.2535
# 5 31.8516 9.1907 33.4093 -2.5857 39.1162 2.9152
# 6 0.5536 -3.2261 -9.5626 1.2535 2.9152 23.4955
#
#
#
# Elastic Compliance Matrix: (Units=1/GPa)
#
#
# Indices 1 2 3 4 5 6 
#
# 1 0.015870 -0.002981 0.000369 -0.002213 -0.012763 0.001069
# 2 -0.002981 0.015050 -0.002568 -0.002293 0.000850 0.001109
# 3 0.000369 -0.002568 0.013631 -0.008760 -0.012455 0.007199
# 4 -0.002213 -0.002293 -0.008760 0.049444 0.013700 -0.008166
# 5 -0.012763 0.000850 -0.012455 0.013700 0.048148 -0.011356
# 6 0.001069 0.001109 0.007199 -0.008166 -0.011356 0.047463
#
#
# Mechanical properties :
#
#
# Convention : Reuss Voigt Hill
#
# Bulk Modulus (GPa) = 29.24732 50.51733 39.88232
# Shear Modulus (GPa) = 23.65590 31.21836 27.43713
#
# Velocity S-wave (km/s) = 3.46064 3.97550 3.72697
# Velocity P-wave (km/s) = 5.54750 6.82991 6.22184
#
# Compressibility (1/GPa) = 0.03419117
#
# Stress axis : x y z
#
# Youngs Moduli (GPa) = 63.01213 66.44358 73.36276
#
# Poissons Ratio (x) = 0.19810 -0.02708
# Poissons Ratio (y) = 0.18787 0.18837
# Poissons Ratio (z) = -0.02326 0.17061
#
# Static dielectric constant tensor:
#      x y z
#    x 1.739860 -0.052050 -0.002780 
#    y -0.052050 1.771720 0.006990 
#    z -0.002780 0.006990 1.720360 
# 
# From -- ./inp_files/313795.got.cif
#   From: 2010.05.17/outbox.cif.g08.bks.cpg/sg2_157_cif.got.tgz:313795.got - 2010.06.03 11:33:40.
