data_PCOD9085146
_publ_section_title
;
Structure prediction by ZEFSAII (Michael W. Deem and Ramdas Pophale) SiO2 
 PCOD9085146
Probable space group: P -1
;
_chemical_formula_sum "Si O2"
_cell_formula_units_Z 16
_cell_length_a 12.457806
_cell_length_b 11.025938
_cell_length_c 14.633314
_cell_angle_alpha 58.990727
_cell_angle_beta 31.085762
_cell_angle_gamma 80.604555
_cell_volume 692.152630
_symmetry_space_group_name_H-M "P -1"
_symmetry_group_IT_number 2
_symmetry_cell_setting 'triclinic'
loop_
_space_group_symop_operation_xyz
x,y,z
-x,-y,-z
loop_
_atom_site_type_symbol
_atom_site_label
_atom_site_fract_x
_atom_site_fract_y
_atom_site_fract_z
Si Si1 0.038005 0.184086 0.920053
Si Si2 0.577408 0.801683 0.051166
Si Si3 0.399400 0.665935 0.569356
Si Si4 0.025052 0.848597 0.810503
Si Si5 0.762213 0.108372 0.655810
Si Si6 0.526313 0.030692 0.262492
Si Si7 0.828366 0.462327 0.022747
Si Si8 0.645450 0.574057 0.962510
O O1 0.354093 0.335851 0.615310
O O2 0.945103 0.155574 0.102917
O O3 0.000000 0.000000 0.000000
O O4 0.831808 0.183153 0.008293
O O5 0.782476 0.848832 0.963523
O O6 0.515588 0.636533 0.099709
O O7 0.734777 0.980183 0.803483
O O8 0.325360 0.777512 0.284133
O O9 0.477035 0.843075 0.392493
O O10 0.346288 0.670723 0.714300
O O11 0.112862 0.502906 0.797360
O O12 0.302466 0.007822 0.498273
O O13 0.925930 0.657975 0.913804
O O14 0.552659 0.976699 0.780819
O O15 0.053808 0.243321 0.347740
O O16 0.680492 0.442756 0.045045
O O17 0.500000 0.500000 0.000000
#
# Coordination Sequence:
#
# PCOD9085146 Si02
#       8
#     2   2   2   2   2   2   2   2
#     4  10  20  32  53  86 114 146 190 245 295 345
#     4  10  22  39  67  91 115 165 209 246 309 364
#     4   9  17  35  58  79 114 151 192 235 290 363
#     4  10  19  35  59  82 116 155 196 244 299 364
#     4  11  21  42  66  87 122 163 206 250 304 372
#     4  10  19  36  58  86 121 151 193 249 304 353
#     4   9  19  37  58  80 113 162 196 236 302 361
#     4  11  23  42  63  90 126 158 204 259 307 354
#
# _framework density 23.116287
#
# number of rings (size 3 to 8) (size 9 to 14) (size 15 to 20)
#    0.000    2.000    3.750    2.250    0.000    1.000 
#    9.000    3.750    0.000    0.000    0.000    0.000 
#    0.000    0.000    0.000    0.000    0.000    0.000 
#
# Total GULP energy -89429.690841 kJ/mol
# GULP energy per Si atom -5589.355678 kJ/mol
# Density = 2.306367 g / cm^3
# Si number density = 23.116287 Si / 1000 Ang^3
#
#
#
# Elastic Constant Matrix: (Units=GPa)
#
#
# Indices 1 2 3 4 5 6 
#
# 1 114.7677 18.2964 4.2932 -0.3686 -19.5200 12.1306
# 2 18.2964 63.9775 22.6759 14.4244 -14.8773 6.6754
# 3 4.2932 22.6759 61.3694 14.9798 -9.2504 7.2082
# 4 -0.3686 14.4244 14.9798 32.4039 -0.1155 0.5472
# 5 -19.5200 -14.8773 -9.2504 -0.1155 31.0729 -0.3125
# 6 12.1306 6.6754 7.2082 0.5472 -0.3125 35.4474
#
#
#
# Elastic Compliance Matrix: (Units=1/GPa)
#
#
# Indices 1 2 3 4 5 6 
#
# 1 0.010316 -0.001699 0.001093 0.000447 0.005960 -0.003387
# 2 -0.001699 0.021457 -0.004552 -0.007399 0.007800 -0.002351
# 3 0.001093 -0.004552 0.020862 -0.007528 0.004654 -0.003602
# 4 0.000447 -0.007399 -0.007528 0.037584 -0.005342 0.002144
# 5 0.005960 0.007800 0.004654 -0.005342 0.040986 -0.004011
# 6 -0.003387 -0.002351 -0.003602 0.002144 -0.004011 0.030477
#
#
# Mechanical properties :
#
#
# Convention : Reuss Voigt Hill
#
# Bulk Modulus (GPa) = 23.62898 36.73841 30.18370
# Shear Modulus (GPa) = 26.86663 32.77479 29.82071
#
# Velocity S-wave (km/s) = 3.41286 3.76948 3.59560
# Velocity P-wave (km/s) = 5.07682 5.90531 5.50667
#
# Compressibility (1/GPa) = 0.04232090
#
# Stress axis : x y z
#
# Youngs Moduli (GPa) = 96.93280 46.60508 47.93335
#
# Poissons Ratio (x) = 0.07919 -0.05241
# Poissons Ratio (y) = 0.16470 0.21817
# Poissons Ratio (z) = -0.10598 0.21213
#
# Static dielectric constant tensor:
#      x y z
#    x 1.843150 -0.007720 -0.039290 
#    y -0.007720 1.978570 -0.012420 
#    z -0.039290 -0.012420 1.883870 
# 
# From -- ./inp_files/519567.got.cif
#   From: 2010.05.17/outbox.cif.g08.bks.cpg/sg2_260_cif.got.tgz:519567.got - 2010.06.03 11:33:40.
