data_PCOD9085130
_publ_section_title
;
Structure prediction by ZEFSAII (Michael W. Deem and Ramdas Pophale) SiO2 
 PCOD9085130
Probable space group: P -1
;
_chemical_formula_sum "Si O2"
_cell_formula_units_Z 16
_cell_length_a 14.165413
_cell_length_b 8.793369
_cell_length_c 13.846383
_cell_angle_alpha 100.289307
_cell_angle_beta 46.909948
_cell_angle_gamma 137.194433
_cell_volume 650.363098
_symmetry_space_group_name_H-M "P -1"
_symmetry_group_IT_number 2
_symmetry_cell_setting 'triclinic'
loop_
_space_group_symop_operation_xyz
x,y,z
-x,-y,-z
loop_
_atom_site_type_symbol
_atom_site_label
_atom_site_fract_x
_atom_site_fract_y
_atom_site_fract_z
Si Si1 0.708729 0.326382 0.786892
Si Si2 0.198598 0.739871 0.003687
Si Si3 0.731074 0.694428 0.254710
Si Si4 0.690941 0.805195 0.654095
Si Si5 0.892922 0.144439 0.089179
Si Si6 0.793318 0.749204 0.760265
Si Si7 0.965599 0.600946 0.432453
Si Si8 0.905679 0.702663 0.299910
O O1 0.713362 0.508679 0.836285
O O2 0.797650 0.412532 0.621816
O O3 0.928001 0.448156 0.692552
O O4 0.431859 0.984115 0.938752
O O5 0.103073 0.470871 0.021761
O O6 0.975904 0.617954 0.185926
O O7 0.257562 0.890981 0.878776
O O8 0.524086 0.415338 0.297416
O O9 0.716739 0.619014 0.365871
O O10 0.981849 0.859751 0.065634
O O11 0.761696 0.907237 0.235425
O O12 0.635055 0.637046 0.765021
O O13 0.936874 0.004660 0.447573
O O14 0.785063 0.059061 0.666175
O O15 0.845409 0.942446 0.817722
O O16 0.835817 0.574210 0.440774
#
# Coordination Sequence:
#
# PCOD9085130 Si02
#       8
#     2   2   2   2   2   2   2   2
#     4  10  19  35  61  79 107 156 188 214 277 347
#     4  10  20  36  57  82 113 149 184 228 278 327
#     4  10  19  35  59  81 108 148 187 227 278 329
#     4   9  17  34  58  77 106 150 183 216 274 339
#     4   9  20  35  54  81 113 148 189 223 269 345
#     4   9  19  34  53  82 111 138 183 230 268 325
#     4   9  20  37  57  86 114 139 186 235 272 329
#     4  10  22  36  53  85 120 139 180 244 276 310
#
# _framework density 24.601641999999998
#
# number of rings (size 3 to 8) (size 9 to 14) (size 15 to 20)
#    0.000    2.500    0.000    2.250    0.000    2.500 
#    0.000    2.500    0.000   24.750    0.000    0.000 
#    0.000    0.000    0.000    0.000    0.000    0.000 
#
# Total GULP energy -89372.978908 kJ/mol
# GULP energy per Si atom -5585.811182 kJ/mol
# Density = 2.454565 g / cm^3
# Si number density = 24.601642 Si / 1000 Ang^3
#
#
#
# Elastic Constant Matrix: (Units=GPa)
#
#
# Indices 1 2 3 4 5 6 
#
# 1 152.5435 31.0554 21.0484 -11.5950 11.4074 20.6785
# 2 31.0554 79.6943 0.2025 0.3620 7.9052 -10.1268
# 3 21.0484 0.2025 49.7422 -6.3003 4.3997 -5.9837
# 4 -11.5950 0.3620 -6.3003 19.3573 -0.5497 -5.9586
# 5 11.4074 7.9052 4.3997 -0.5497 26.5953 -3.9643
# 6 20.6785 -10.1268 -5.9837 -5.9586 -3.9643 41.2327
#
#
#
# Elastic Compliance Matrix: (Units=1/GPa)
#
#
# Indices 1 2 3 4 5 6 
#
# 1 0.009164 -0.004061 -0.004053 0.002275 -0.002920 -0.006133
# 2 -0.004061 0.015099 0.002548 -0.000143 -0.002295 0.005873
# 3 -0.004053 0.002548 0.023736 0.007355 -0.001751 0.006997
# 4 0.002275 -0.000143 0.007355 0.057982 0.000285 0.008298
# 5 -0.002920 -0.002295 -0.001751 0.000285 0.040514 0.004583
# 6 -0.006133 0.005873 0.006997 0.008298 0.004583 0.031426
#
#
# Mechanical properties :
#
#
# Convention : Reuss Voigt Hill
#
# Bulk Modulus (GPa) = 27.12316 42.95474 35.03895
# Shear Modulus (GPa) = 24.83352 32.74865 28.79109
#
# Velocity S-wave (km/s) = 3.18059 3.65246 3.42466
# Velocity P-wave (km/s) = 4.95349 5.94014 5.46911
#
# Compressibility (1/GPa) = 0.03686886
#
# Stress axis : x y z
#
# Youngs Moduli (GPa) = 109.12059 66.23158 42.12962
#
# Poissons Ratio (x) = 0.26895 0.17073
# Poissons Ratio (y) = 0.44312 -0.10736
# Poissons Ratio (z) = 0.44222 -0.16878
#
# Static dielectric constant tensor:
#      x y z
#    x 2.024850 -0.010730 0.064630 
#    y -0.010730 1.957720 0.059590 
#    z 0.064630 0.059590 2.005780 
# 
# From -- ./inp_files/529899.got.cif
#   From: 2010.05.17/outbox.cif.g08.bks.cpg/sg2_265_cif.got.tgz:529899.got - 2010.06.03 11:33:40.
