data_PCOD9085560
_publ_section_title
;
Structure prediction by ZEFSAII (Michael W. Deem and Ramdas Pophale) SiO2 
 PCOD9085560
Probable space group: P -1
;
_chemical_formula_sum "Si O2"
_cell_formula_units_Z 14
_cell_length_a 10.085342
_cell_length_b 13.783716
_cell_length_c 9.119396
_cell_angle_alpha 84.549579
_cell_angle_beta 62.916607
_cell_angle_gamma 45.882290
_cell_volume 759.888574
_symmetry_space_group_name_H-M "P -1"
_symmetry_group_IT_number 2
_symmetry_cell_setting 'triclinic'
loop_
_space_group_symop_operation_xyz
x,y,z
-x,-y,-z
loop_
_atom_site_type_symbol
_atom_site_label
_atom_site_fract_x
_atom_site_fract_y
_atom_site_fract_z
Si Si1 0.837430 0.356772 0.440626
Si Si2 0.792411 0.594201 0.979881
Si Si3 0.987165 0.370310 0.658968
Si Si4 0.471284 0.172284 0.491541
Si Si5 0.518594 0.637402 0.361386
Si Si6 0.763561 0.885086 0.231149
Si Si7 0.255490 0.155885 0.077610
O O1 0.715479 0.481534 0.362108
O O2 0.688842 0.333728 0.544202
O O3 0.861587 0.406415 0.569845
O O4 0.080237 0.213512 0.281987
O O5 0.734678 0.732145 0.950650
O O6 0.864702 0.500322 0.813832
O O7 0.602218 0.632979 0.162150
O O8 0.000000 0.500000 0.000000
O O9 0.232213 0.295403 0.516068
O O10 0.043626 0.243755 0.739129
O O11 0.525080 0.246247 0.534166
O O12 0.420557 0.111271 0.646199
O O13 0.654366 0.038707 0.312600
O O14 0.828181 0.845014 0.036242
O O15 0.500000 0.000000 0.000000
#
# Coordination Sequence:
#
# PCOD9085560 Si02
#       7
#     2   2   2   2   2   2   2
#     4  11  25  37  58  97 128 154 197 268 308 344
#     4  12  19  41  66  85 114 171 210 238 298 371
#     4  10  19  35  61  88 115 157 213 245 287 369
#     4   9  17  34  62  82 110 160 205 240 287 365
#     4  11  22  41  61  88 129 162 198 252 316 359
#     4   9  18  35  61  85 114 157 208 247 292 351
#     4  12  23  38  61  95 124 156 207 259 299 360
#
# _framework density 18.423753999999999
#
# number of rings (size 3 to 8) (size 9 to 14) (size 15 to 20)
#    0.857    0.571    5.714    0.857    0.000    4.000 
#    0.000    3.571    0.000    0.000    0.000    0.000 
#    0.000    0.000    0.000    0.000    0.000    0.000 
#
# Total GULP energy -78113.035973 kJ/mol
# GULP energy per Si atom -5579.502570 kJ/mol
# Density = 1.838182 g / cm^3
# Si number density = 18.423754 Si / 1000 Ang^3
#
#
#
# Elastic Constant Matrix: (Units=GPa)
#
#
# Indices 1 2 3 4 5 6 
#
# 1 76.7667 39.1524 51.9979 14.5956 8.0969 4.5284
# 2 39.1524 81.6975 32.5478 25.5114 -11.6611 8.2285
# 3 51.9979 32.5478 89.1180 19.2679 0.8931 6.2935
# 4 14.5956 25.5114 19.2679 27.0806 5.9830 11.2406
# 5 8.0969 -11.6611 0.8931 5.9830 26.0323 1.4955
# 6 4.5284 8.2285 6.2935 11.2406 1.4955 25.4139
#
#
#
# Elastic Compliance Matrix: (Units=1/GPa)
#
#
# Indices 1 2 3 4 5 6 
#
# 1 0.030378 -0.015438 -0.014694 0.013466 -0.018862 -0.001622
# 2 -0.015438 0.030965 0.003829 -0.030808 0.025397 0.003909
# 3 -0.014694 0.003829 0.021052 -0.013161 0.008503 0.001486
# 4 0.013466 -0.030808 -0.013161 0.086508 -0.035965 -0.025311
# 5 -0.018862 0.025397 0.008503 -0.035965 0.063331 0.005213
# 6 -0.001622 0.003909 0.001486 -0.025311 0.005213 0.048892
#
#
# Mechanical properties :
#
#
# Convention : Reuss Voigt Hill
#
# Bulk Modulus (GPa) = 33.57077 54.99759 44.28418
# Shear Modulus (GPa) = 14.54915 23.96432 19.25674
#
# Velocity S-wave (km/s) = 2.81320 3.61048 3.23648
# Velocity P-wave (km/s) = 5.36779 6.87728 6.16888
#
# Compressibility (1/GPa) = 0.02978782
#
# Stress axis : x y z
#
# Youngs Moduli (GPa) = 32.91832 32.29463 47.50185
#
# Poissons Ratio (x) = 0.49856 0.69801
# Poissons Ratio (y) = 0.50819 -0.18188
# Poissons Ratio (z) = 0.48372 -0.12365
#
# Static dielectric constant tensor:
#      x y z
#    x 1.609280 -0.012800 -0.004650 
#    y -0.012800 1.660790 -0.005610 
#    z -0.004650 -0.005610 1.640100 
# 
# From -- ./inp_files/270134.got.cif
#   From: 2010.05.17/outbox.cif.g08.bks.cpg/sg2_136_cif.got.tgz:270134.got - 2010.06.03 11:33:40.
