data_PCOD9085332
_publ_section_title
;
Structure prediction by ZEFSAII (Michael W. Deem and Ramdas Pophale) SiO2 
 PCOD9085332
Probable space group: P -1
;
_chemical_formula_sum "Si O2"
_cell_formula_units_Z 15
_cell_length_a 15.247320
_cell_length_b 6.904681
_cell_length_c 6.910705
_cell_angle_alpha 58.988374
_cell_angle_beta 55.201159
_cell_angle_gamma 81.851951
_cell_volume 499.903120
_symmetry_space_group_name_H-M "P -1"
_symmetry_group_IT_number 2
_symmetry_cell_setting 'triclinic'
loop_
_space_group_symop_operation_xyz
x,y,z
-x,-y,-z
loop_
_atom_site_type_symbol
_atom_site_label
_atom_site_fract_x
_atom_site_fract_y
_atom_site_fract_z
Si Si1 0.618942 0.132994 0.401169
Si Si2 0.751279 0.930913 0.072823
Si Si3 0.829299 0.288057 0.298041
Si Si4 0.892984 0.847649 0.611502
Si Si5 0.431276 0.288963 0.013783
Si Si6 0.682323 0.495549 0.637697
Si Si7 0.500000 0.500000 0.500000
Si Si8 0.967155 0.230191 0.832647
O O1 0.728395 0.271739 0.291728
O O2 0.538276 0.305434 0.417154
O O3 0.654419 0.069724 0.174457
O O4 0.576079 0.926170 0.721962
O O5 0.725818 0.749507 0.372147
O O6 0.858163 0.131321 0.898354
O O7 0.810595 0.783866 0.923157
O O8 0.779258 0.373051 0.514751
O O9 0.837163 0.027511 0.473579
O O10 0.936941 0.373837 0.982104
O O11 0.000000 0.000000 0.500000
O O12 0.934330 0.681820 0.489867
O O13 0.364547 0.451017 0.125745
O O14 0.562972 0.389637 0.735782
O O15 0.396548 0.282139 0.838792
O O16 0.000000 0.000000 0.000000
#
# Coordination Sequence:
#
# PCOD9085332 Si02
#       8
#     2   2   2   2   2   2   1   2
#     4  10  22  40  59  88 120 170 194 247 295 341
#     4   9  19  36  59  85 118 151 204 241 296 358
#     4  10  19  35  60  82 120 152 198 242 296 358
#     4   9  18  35  60  86 111 148 196 246 302 354
#     4  10  23  41  58  83 129 159 202 246 296 342
#     4  10  21  39  54  86 119 159 197 246 298 348
#     4  12  22  36  62  86 118 158 218 240 284 358
#     4   8  16  34  58  82 110 153 190 242 308 352
#
# _framework density 30.005811000000001
#
# number of rings (size 3 to 8) (size 9 to 14) (size 15 to 20)
#    0.000    2.400    1.333    0.400    1.867    1.067 
#    0.000    8.667    0.000    0.000    0.000    0.000 
#    0.000    0.000    0.000    0.000    0.000    0.000 
#
# Total GULP energy -83507.797120 kJ/mol
# GULP energy per Si atom -5567.186475 kJ/mol
# Density = 2.993752 g / cm^3
# Si number density = 30.005811 Si / 1000 Ang^3
#
#
#
# Elastic Constant Matrix: (Units=GPa)
#
#
# Indices 1 2 3 4 5 6 
#
# 1 31.2114 26.5510 20.4880 19.7312 -11.8560 -22.5114
# 2 26.5510 233.4343 113.2202 83.4527 -9.5671 -20.2891
# 3 20.4880 113.2202 253.6950 80.3023 6.7053 -3.1062
# 4 19.7312 83.4527 80.3023 86.3350 2.2216 -3.5938
# 5 -11.8560 -9.5671 6.7053 2.2216 31.5264 6.5310
# 6 -22.5114 -20.2891 -3.1062 -3.5938 6.5310 38.7936
#
#
#
# Elastic Compliance Matrix: (Units=1/GPa)
#
#
# Indices 1 2 3 4 5 6 
#
# 1 0.084818 0.003275 -0.002383 -0.019131 0.025491 0.044677
# 2 0.003275 0.007524 -0.001629 -0.006404 0.003371 0.004544
# 3 -0.002383 -0.001629 0.005995 -0.003476 -0.002062 -0.001729
# 4 -0.019131 -0.006404 -0.003476 0.025119 -0.007874 -0.011076
# 5 0.025491 0.003371 -0.002062 -0.007874 0.041526 0.008669
# 6 0.044677 0.004544 -0.001729 -0.011076 0.008669 0.051456
#
#
# Mechanical properties :
#
#
# Convention : Reuss Voigt Hill
#
# Bulk Modulus (GPa) = 10.32374 93.20656 51.76515
# Shear Modulus (GPa) = 19.98418 55.20310 37.59364
#
# Velocity S-wave (km/s) = 2.58352 4.29388 3.54344
# Velocity P-wave (km/s) = 3.51390 7.46415 5.83356
#
# Compressibility (1/GPa) = 0.09686415
#
# Stress axis : x y z
#
# Youngs Moduli (GPa) = 11.78994 132.91166 166.81873
#
# Poissons Ratio (x) = -0.43535 0.39751
# Poissons Ratio (y) = -0.03862 0.27170
# Poissons Ratio (z) = 0.02809 0.21648
#
# Static dielectric constant tensor:
#      x y z
#    x 1.588520 0.026970 -0.270960 
#    y 0.026970 2.406510 0.028660 
#    z -0.270960 0.028660 2.181960 
# 
# From -- ./inp_files/342425.got.cif
#   From: 2010.05.17/outbox.cif.g08.bks.cpg/sg2_172_cif.got.tgz:342425.got - 2010.06.03 11:33:40.
