data_PCOD9085568
_publ_section_title
;
Structure prediction by ZEFSAII (Michael W. Deem and Ramdas Pophale) SiO2 
 PCOD9085568
Probable space group: P -1
;
_chemical_formula_sum "Si O2"
_cell_formula_units_Z 14
_cell_length_a 8.201627
_cell_length_b 7.605619
_cell_length_c 12.316368
_cell_angle_alpha 92.104053
_cell_angle_beta 74.029192
_cell_angle_gamma 124.392190
_cell_volume 602.642538
_symmetry_space_group_name_H-M "P -1"
_symmetry_group_IT_number 2
_symmetry_cell_setting 'triclinic'
loop_
_space_group_symop_operation_xyz
x,y,z
-x,-y,-z
loop_
_atom_site_type_symbol
_atom_site_label
_atom_site_fract_x
_atom_site_fract_y
_atom_site_fract_z
Si Si1 0.066739 0.552003 0.153932
Si Si2 0.778411 0.768053 0.557862
Si Si3 0.687362 0.974504 0.954532
Si Si4 0.206028 0.903840 0.833945
Si Si5 0.556615 0.976385 0.611694
Si Si6 0.990356 0.617888 0.401252
Si Si7 0.780246 0.695982 0.806057
O O1 0.133651 0.787592 0.118234
O O2 0.967004 0.504483 0.290976
O O3 0.249410 0.514037 0.137355
O O4 0.895247 0.343191 0.111847
O O5 0.771735 0.682584 0.677879
O O6 0.800246 0.634282 0.459251
O O7 0.587952 0.786627 0.590576
O O8 0.000000 0.000000 0.500000
O O9 0.655854 0.786440 0.879985
O O10 0.741267 0.952445 0.066993
O O11 0.500000 0.000000 0.000000
O O12 0.020087 0.879250 0.799658
O O13 0.393755 0.964381 0.723666
O O14 0.779788 0.160152 0.628602
O O15 0.500000 0.000000 0.500000
O O16 0.000000 0.500000 0.500000
#
# Coordination Sequence:
#
# PCOD9085568 Si02
#       7
#     2   2   2   2   2   2   2
#     4  10  23  39  65  88 125 162 208 254 308 365
#     4  10  19  35  61  88 121 162 203 251 306 367
#     4  12  23  41  65  92 121 163 210 255 315 369
#     4  10  22  42  60  89 127 158 209 259 303 373
#     4  11  22  38  63  92 125 162 203 257 312 370
#     4  11  19  38  62  88 124 163 206 252 307 365
#     4  10  22  40  64  88 123 164 209 251 317 363
#
# _framework density 23.231020999999998
#
# number of rings (size 3 to 8) (size 9 to 14) (size 15 to 20)
#    0.857    0.571    1.429    6.857    0.000    0.571 
#    0.000    4.286    0.000    0.000    0.000    0.000 
#    0.000    0.000    0.000    0.000    0.000    0.000 
#
# Total GULP energy -78063.405313 kJ/mol
# GULP energy per Si atom -5575.957522 kJ/mol
# Density = 2.317815 g / cm^3
# Si number density = 23.231021 Si / 1000 Ang^3
#
#
#
# Elastic Constant Matrix: (Units=GPa)
#
#
# Indices 1 2 3 4 5 6 
#
# 1 73.6949 -11.5202 9.4372 3.0378 -10.2497 -14.3674
# 2 -11.5202 39.9929 6.7285 13.8862 -6.6906 -5.0541
# 3 9.4372 6.7285 91.8442 10.8027 -13.7261 -4.6814
# 4 3.0378 13.8862 10.8027 32.1340 -3.3719 -2.7096
# 5 -10.2497 -6.6906 -13.7261 -3.3719 38.6840 10.6150
# 6 -14.3674 -5.0541 -4.6814 -2.7096 10.6150 34.3590
#
#
#
# Elastic Compliance Matrix: (Units=1/GPa)
#
#
# Indices 1 2 3 4 5 6 
#
# 1 0.016817 0.007681 -0.001032 -0.003653 0.003254 0.006728
# 2 0.007681 0.033737 -0.000583 -0.014131 0.004934 0.005456
# 3 -0.001032 -0.000583 0.011958 -0.003310 0.003657 -0.000279
# 4 -0.003653 -0.014131 -0.003310 0.038517 -0.001037 -0.000699
# 5 0.003254 0.004934 0.003657 -0.001037 0.030688 -0.006978
# 6 0.006728 0.005456 -0.000279 -0.000699 -0.006978 0.034783
#
#
# Mechanical properties :
#
#
# Convention : Reuss Voigt Hill
#
# Bulk Modulus (GPa) = 13.39692 23.86923 18.63307
# Shear Modulus (GPa) = 27.89415 34.42783 31.16099
#
# Velocity S-wave (km/s) = 3.46891 3.85382 3.66642
# Velocity P-wave (km/s) = 4.67160 5.48631 5.09526
#
# Compressibility (1/GPa) = 0.07464403
#
# Stress axis : x y z
#
# Youngs Moduli (GPa) = 59.46320 29.64144 83.62302
#
# Poissons Ratio (x) = -0.22767 0.08628
# Poissons Ratio (y) = -0.45673 0.04877
# Poissons Ratio (z) = 0.06136 0.01729
#
# Static dielectric constant tensor:
#      x y z
#    x 1.892070 -0.016490 -0.024310 
#    y -0.016490 1.974060 -0.004190 
#    z -0.024310 -0.004190 1.861000 
# 
# From -- ./inp_files/326609.got.cif
#   From: 2010.05.17/outbox.cif.g08.bks.cpg/sg2_164_cif.got.tgz:326609.got - 2010.06.03 11:33:40.
