data_PCOD9085108
_publ_section_title
;
Structure prediction by ZEFSAII (Michael W. Deem and Ramdas Pophale) SiO2 
 PCOD9085108
Probable space group: P -1
;
_chemical_formula_sum "Si O2"
_cell_formula_units_Z 14
_cell_length_a 17.146390
_cell_length_b 16.245642
_cell_length_c 6.540228
_cell_angle_alpha 98.464047
_cell_angle_beta 101.414414
_cell_angle_gamma 18.647593
_cell_volume 566.249244
_symmetry_space_group_name_H-M "P -1"
_symmetry_group_IT_number 2
_symmetry_cell_setting 'triclinic'
loop_
_space_group_symop_operation_xyz
x,y,z
-x,-y,-z
loop_
_atom_site_type_symbol
_atom_site_label
_atom_site_fract_x
_atom_site_fract_y
_atom_site_fract_z
Si Si1 0.693393 0.048706 0.656425
Si Si2 0.209274 0.997991 0.863815
Si Si3 0.244641 0.304229 0.975767
Si Si4 0.705327 0.563287 0.833371
Si Si5 0.195402 0.483494 0.687678
Si Si6 0.701898 0.279064 0.222259
Si Si7 0.216229 0.845769 0.303900
O O1 0.918484 0.774271 0.575278
O O2 0.417027 0.286641 0.578713
O O3 0.723339 0.116852 0.661362
O O4 0.748163 0.986043 0.909719
O O5 0.426167 0.808903 0.751943
O O6 0.252861 0.858863 0.886402
O O7 0.927527 0.290286 0.752947
O O8 0.268821 0.363584 0.146761
O O9 0.213422 0.374529 0.758000
O O10 0.000000 0.500000 0.000000
O O11 0.500000 0.000000 0.000000
O O12 0.755077 0.504060 0.086181
O O13 0.421369 0.591964 0.186027
O O14 0.745480 0.222743 0.468854
O O15 0.926805 0.115350 0.206620
#
# Coordination Sequence:
#
# PCOD9085108 Si02
#       7
#     2   2   2   2   2   2   2
#     4  10  17  31  47  64  93 124 149 192 230 270
#     4  10  17  31  47  64  93 124 149 192 230 270
#     4  10  16  26  44  68 100 126 142 176 232 276
#     4   8  17  27  42  67  93 123 143 185 222 272
#     4   8  17  27  42  67  93 123 143 185 222 272
#     4  10  21  34  47  66  91 120 159 202 233 265
#     4  10  21  34  47  66  91 120 159 202 233 265
#
# _framework density 24.724091999999999
#
# number of rings (size 3 to 8) (size 9 to 14) (size 15 to 20)
#    0.857    1.714    0.000    3.429    0.000    1.143 
#    0.000    0.000    0.000    0.000    0.000    0.000 
#    0.000   22.857    0.000    0.000    0.000    0.000 
#
# Total GULP energy -78235.987009 kJ/mol
# GULP energy per Si atom -5588.284786 kJ/mol
# Density = 2.466782 g / cm^3
# Si number density = 24.724092 Si / 1000 Ang^3
#
#
#
# Elastic Constant Matrix: (Units=GPa)
#
#
# Indices 1 2 3 4 5 6 
#
# 1 164.9939 113.7559 12.2742 2.3451 -25.7025 -21.8294
# 2 113.7559 285.9378 20.6421 -10.1319 -24.8914 -16.2798
# 3 12.2742 20.6421 46.1802 10.9182 1.4525 -6.2648
# 4 2.3451 -10.1319 10.9182 33.7284 -10.4899 -7.9112
# 5 -25.7025 -24.8914 1.4525 -10.4899 36.3751 4.2709
# 6 -21.8294 -16.2798 -6.2648 -7.9112 4.2709 53.8904
#
#
#
# Elastic Compliance Matrix: (Units=1/GPa)
#
#
# Indices 1 2 3 4 5 6 
#
# 1 0.009246 -0.003051 -0.001073 0.000737 0.004412 0.002457
# 2 -0.003051 0.005238 -0.002361 0.003403 0.002460 0.000377
# 3 -0.001073 -0.002361 0.025887 -0.010896 -0.006643 0.000788
# 4 0.000737 0.003403 -0.010896 0.039669 0.014165 0.004761
# 5 0.004412 0.002460 -0.006643 0.014165 0.036532 0.000943
# 6 0.002457 0.000377 0.000788 0.004761 0.000943 0.020381
#
#
# Mechanical properties :
#
#
# Convention : Reuss Voigt Hill
#
# Bulk Modulus (GPa) = 36.49675 87.82847 62.16261
# Shear Modulus (GPa) = 31.43533 48.16143 39.79838
#
# Velocity S-wave (km/s) = 3.56960 4.41835 4.01646
# Velocity P-wave (km/s) = 5.63765 7.85046 6.83421
#
# Compressibility (1/GPa) = 0.02739970
#
# Stress axis : x y z
#
# Youngs Moduli (GPa) = 108.15415 190.92744 38.62961
#
# Poissons Ratio (x) = 0.58248 0.04147
# Poissons Ratio (y) = 0.32995 0.09121
# Poissons Ratio (z) = 0.11610 0.45081
#
# Static dielectric constant tensor:
#      x y z
#    x 1.867500 -0.055840 -0.036800 
#    y -0.055840 1.993990 -0.017110 
#    z -0.036800 -0.017110 2.177110 
# 
# From -- ./inp_files/368702.got.cif
#   From: 2010.05.17/outbox.cif.g08.bks.cpg/sg2_185_cif.got.tgz:368702.got - 2010.06.03 11:33:40.
