data_PCOD9086406
_publ_section_title
;
Structure prediction by ZEFSAII (Michael W. Deem and Ramdas Pophale) SiO2 
 PCOD9086406
Probable space group: P -1
;
_chemical_formula_sum "Si O2"
_cell_formula_units_Z 16
_cell_length_a 15.354196
_cell_length_b 5.227813
_cell_length_c 10.630537
_cell_angle_alpha 69.219184
_cell_angle_beta 96.957355
_cell_angle_gamma 109.477632
_cell_volume 752.129265
_symmetry_space_group_name_H-M "P -1"
_symmetry_group_IT_number 2
_symmetry_cell_setting 'triclinic'
loop_
_space_group_symop_operation_xyz
x,y,z
-x,-y,-z
loop_
_atom_site_type_symbol
_atom_site_label
_atom_site_fract_x
_atom_site_fract_y
_atom_site_fract_z
Si Si1 0.423328 0.539380 0.778238
Si Si2 0.528469 0.108213 0.843544
Si Si3 0.183209 0.760101 0.821106
Si Si4 0.093950 0.569484 0.424388
Si Si5 0.966146 0.562870 0.831373
Si Si6 0.233508 0.419762 0.661000
Si Si7 0.303865 0.034995 0.027676
Si Si8 0.865747 0.956624 0.846682
O O1 0.471204 0.852667 0.787839
O O2 0.344519 0.544200 0.663924
O O3 0.498167 0.391086 0.769642
O O4 0.368472 0.321499 0.918336
O O5 0.634989 0.122925 0.857242
O O6 0.500000 0.000000 0.000000
O O7 0.200705 0.526327 0.769346
O O8 0.074953 0.684203 0.841030
O O9 0.210789 0.076829 0.707963
O O10 0.247626 0.824798 0.944437
O O11 0.063241 0.381635 0.325433
O O12 0.175052 0.514034 0.528039
O O13 0.129734 0.889435 0.315123
O O14 0.000000 0.500000 0.500000
O O15 0.932585 0.218429 0.893561
O O16 0.908706 0.703194 0.885995
O O17 0.232882 0.115608 0.093280
#
# Coordination Sequence:
#
# PCOD9086406 Si02
#       8
#     2   2   2   2   2   2   2   2
#     4  10  21  36  57  89 107 144 183 232 289 330
#     4  10  19  36  58  83 112 144 182 226 289 337
#     4  11  22  35  56  86 111 153 184 231 285 321
#     4  10  21  39  60  80 112 153 194 235 268 322
#     4  10  22  38  52  85 111 153 194 220 280 324
#     4  11  21  34  60  85 113 141 193 238 277 325
#     4  10  22  38  59  84 122 144 184 234 278 354
#     4  10  24  37  55  85 111 161 187 223 284 325
#
# _framework density 21.272938
#
# number of rings (size 3 to 8) (size 9 to 14) (size 15 to 20)
#    0.750    1.000    1.250    5.250    1.750    8.000 
#    0.000    0.000    0.000    1.500    0.000    0.000 
#    0.000    0.000    0.000    0.000    0.000    0.000 
#
# Total GULP energy -89351.299591 kJ/mol
# GULP energy per Si atom -5584.456224 kJ/mol
# Density = 2.122452 g / cm^3
# Si number density = 21.272938 Si / 1000 Ang^3
#
#
#
# Elastic Constant Matrix: (Units=GPa)
#
#
# Indices 1 2 3 4 5 6 
#
# 1 96.7989 18.0148 35.3627 22.4614 24.1228 -11.2730
# 2 18.0148 67.8775 12.2074 10.6612 6.0579 -9.0934
# 3 35.3627 12.2074 83.1623 7.8847 31.2042 1.0568
# 4 22.4614 10.6612 7.8847 19.2505 -0.5091 -2.3213
# 5 24.1228 6.0579 31.2042 -0.5091 42.7615 5.3981
# 6 -11.2730 -9.0934 1.0568 -2.3213 5.3981 26.3480
#
#
#
# Elastic Compliance Matrix: (Units=1/GPa)
#
#
# Indices 1 2 3 4 5 6 
#
# 1 0.020013 0.000812 -0.002550 -0.021930 -0.010974 0.009261
# 2 0.000812 0.017272 -0.000874 -0.009496 -0.003157 0.006153
# 3 -0.002550 -0.000874 0.017994 -0.004231 -0.011605 -0.000109
# 4 -0.021930 -0.009496 -0.004231 0.083945 0.018936 -0.008974
# 5 -0.010974 -0.003157 -0.011605 0.018936 0.040219 -0.011891
# 6 0.009261 0.006153 -0.000109 -0.008974 -0.011891 0.045690
#
#
# Mechanical properties :
#
#
# Convention : Reuss Voigt Hill
#
# Bulk Modulus (GPa) = 19.97799 42.11204 31.04502
# Shear Modulus (GPa) = 20.23948 29.82226 25.03087
#
# Velocity S-wave (km/s) = 3.08785 3.74824 3.43396
# Velocity P-wave (km/s) = 4.70370 6.21059 5.50891
#
# Compressibility (1/GPa) = 0.05005508
#
# Stress axis : x y z
#
# Youngs Moduli (GPa) = 49.96683 57.89799 55.57320
#
# Poissons Ratio (x) = -0.04699 0.14171
# Poissons Ratio (y) = -0.04056 0.04856
# Poissons Ratio (z) = 0.12741 0.05059
#
# Static dielectric constant tensor:
#      x y z
#    x 1.776850 0.001040 0.005120 
#    y 0.001040 1.768880 -0.010460 
#    z 0.005120 -0.010460 1.805340 
# 
# From -- ./inp_files/441109.got.cif
#   From: 2010.05.17/outbox.cif.g08.bks.cpg/sg2_221_cif.got.tgz:441109.got - 2010.06.03 11:33:40.
