data_PCOD9086263
_publ_section_title
;
Structure prediction by ZEFSAII (Michael W. Deem and Ramdas Pophale) SiO2 
 PCOD9086263
Probable space group: P -1
;
_chemical_formula_sum "Si O2"
_cell_formula_units_Z 14
_cell_length_a 13.874660
_cell_length_b 5.823447
_cell_length_c 9.225055
_cell_angle_alpha 127.303002
_cell_angle_beta 94.021434
_cell_angle_gamma 70.370395
_cell_volume 549.509533
_symmetry_space_group_name_H-M "P -1"
_symmetry_group_IT_number 2
_symmetry_cell_setting 'triclinic'
loop_
_space_group_symop_operation_xyz
x,y,z
-x,-y,-z
loop_
_atom_site_type_symbol
_atom_site_label
_atom_site_fract_x
_atom_site_fract_y
_atom_site_fract_z
Si Si1 0.287066 0.694439 0.614949
Si Si2 0.179143 0.251293 0.444692
Si Si3 0.429465 0.687013 0.880066
Si Si4 0.255446 0.655936 0.030118
Si Si5 0.649496 0.605484 0.802480
Si Si6 0.898426 0.976834 0.102304
Si Si7 0.003951 0.454026 0.285483
O O1 0.258751 0.405595 0.561031
O O2 0.382454 0.720332 0.724867
O O3 0.308264 0.603972 0.414643
O O4 0.182784 0.980577 0.760856
O O5 0.099283 0.262451 0.569429
O O6 0.099999 0.458592 0.391736
O O7 0.239379 0.943059 0.246909
O O8 0.552342 0.526263 0.820959
O O9 0.362766 0.532472 0.905140
O O10 0.401139 0.022742 0.083215
O O11 0.266504 0.417144 0.070855
O O12 0.169074 0.806078 0.955741
O O13 0.976765 0.151191 0.215507
O O14 0.957723 0.640073 0.909301
#
# Coordination Sequence:
#
# PCOD9086263 Si02
#       7
#     2   2   2   2   2   2   2
#     4  10  19  36  57  82 112 148 185 228 276 334
#     4   9  16  30  57  83 110 147 187 221 280 330
#     4  10  22  40  57  81 113 153 184 227 282 332
#     4  10  19  36  58  85 113 147 186 232 273 331
#     4  11  22  38  59  82 115 145 188 235 277 325
#     4   8  16  30  56  83 109 147 189 219 276 330
#     4   8  14  28  54  84 105 148 188 217 270 341
#
# _framework density 25.477266
#
# number of rings (size 3 to 8) (size 9 to 14) (size 15 to 20)
#    0.000    2.571    1.429    0.857    0.000    0.000 
#    7.714    0.714    0.000   32.571    0.000    0.000 
#    0.000    0.000    0.000    0.000    0.000    0.000 
#
# Total GULP energy -78035.796962 kJ/mol
# GULP energy per Si atom -5573.985497 kJ/mol
# Density = 2.541928 g / cm^3
# Si number density = 25.477266 Si / 1000 Ang^3
#
#
#
# Elastic Constant Matrix: (Units=GPa)
#
#
# Indices 1 2 3 4 5 6 
#
# 1 95.9194 11.2318 39.9547 -3.8332 -10.5923 -9.5238
# 2 11.2318 29.2322 34.5350 -25.6239 -8.7951 -18.3640
# 3 39.9547 34.5350 204.6575 -10.8256 -20.1479 -8.1234
# 4 -3.8332 -25.6239 -10.8256 37.8346 -0.5826 7.0973
# 5 -10.5923 -8.7951 -20.1479 -0.5826 55.7780 3.7489
# 6 -9.5238 -18.3640 -8.1234 7.0973 3.7489 0.1059
#
#
#
# Elastic Compliance Matrix: (Units=1/GPa)
#
#
# Indices 1 2 3 4 5 6 
#
# 1 0.011536 -0.006551 -0.001310 -0.003344 0.000752 -0.001530
# 2 -0.006551 0.013489 -0.002270 0.021832 0.005282 -0.074250
# 3 -0.001310 -0.002270 0.005866 -0.001536 0.000937 0.008312
# 4 -0.003344 0.021832 -0.001536 0.047972 0.005423 -0.039716
# 5 0.000752 0.005282 0.000937 0.005423 0.019728 -0.006385
# 6 -0.001530 -0.074250 0.008312 -0.039716 -0.006385 -0.045023
#
#
# Mechanical properties :
#
#
# Convention : Reuss Voigt Hill
#
# Bulk Modulus (GPa) = 94.07586 55.69469 74.88527
# Shear Modulus (GPa) = 64.62179 35.01620 49.81900
#
# Velocity S-wave (km/s) = 5.04178 3.71133 4.42682
# Velocity P-wave (km/s) = 8.42011 6.34612 7.45559
#
# Compressibility (1/GPa) = 0.01062972
#
# Stress axis : x y z
#
# Youngs Moduli (GPa) = 86.68706 74.13320 170.47485
#
# Poissons Ratio (x) = 0.48561 0.22337
# Poissons Ratio (y) = 0.56785 0.38694
# Poissons Ratio (z) = 0.11358 0.16827
#
# Static dielectric constant tensor:
#      x y z
#    x 1.997750 0.019450 -0.036970 
#    y 0.019450 2.198140 -0.028510 
#    z -0.036970 -0.028510 2.012020 
# 
# From -- ./inp_files/140852.got.cif
#   From: 2010.05.17/outbox.cif.g08.bks.cpg/sg2_71_cif.got.tgz:140852.got - 2010.06.03 11:33:40.
