data_PCOD9086147
_publ_section_title
;
Structure prediction by ZEFSAII (Michael W. Deem and Ramdas Pophale) SiO2 
 PCOD9086147
Probable space group: P -1
;
_chemical_formula_sum "Si O2"
_cell_formula_units_Z 16
_cell_length_a 11.420687
_cell_length_b 9.172609
_cell_length_c 12.086907
_cell_angle_alpha 117.180268
_cell_angle_beta 131.691295
_cell_angle_gamma 92.195140
_cell_volume 720.974267
_symmetry_space_group_name_H-M "P -1"
_symmetry_group_IT_number 2
_symmetry_cell_setting 'triclinic'
loop_
_space_group_symop_operation_xyz
x,y,z
-x,-y,-z
loop_
_atom_site_type_symbol
_atom_site_label
_atom_site_fract_x
_atom_site_fract_y
_atom_site_fract_z
Si Si1 0.344075 0.399517 0.214267
Si Si2 0.875829 0.844059 0.614248
Si Si3 0.230123 0.911812 0.227941
Si Si4 0.207174 0.559360 0.007238
Si Si5 0.183332 0.195594 0.830394
Si Si6 0.753618 0.562358 0.608825
Si Si7 0.599162 0.787868 0.238800
Si Si8 0.372200 0.849517 0.529768
O O1 0.289873 0.541206 0.170344
O O2 0.553763 0.504486 0.415947
O O3 0.228806 0.325784 0.228162
O O4 0.296389 0.248848 0.034690
O O5 0.888888 0.685906 0.638601
O O6 0.692237 0.756432 0.394686
O O7 0.875524 0.987183 0.757571
O O8 0.030560 0.975867 0.669606
O O9 0.138159 0.706721 0.035330
O O10 0.299752 0.872108 0.373829
O O11 0.409968 0.062749 0.324104
O O12 0.381416 0.658635 0.070060
O O13 0.098455 0.336017 0.826401
O O14 0.315069 0.243359 0.826791
O O15 0.730815 0.362670 0.560966
O O16 0.645333 0.004718 0.350303
#
# Coordination Sequence:
#
# PCOD9086147 Si02
#       8
#     2   2   2   2   2   2   2   2
#     4   9  19  31  54  76 101 134 167 215 249 307
#     4  11  21  31  55  79 107 136 167 211 256 314
#     4   9  16  31  50  82 102 124 173 216 262 291
#     4   9  17  33  53  77  99 129 167 220 253 288
#     4  10  21  35  49  79 107 140 170 206 254 307
#     4  11  18  34  53  79 102 134 173 210 265 301
#     4  10  19  36  56  76  99 138 180 212 243 300
#     4   9  17  29  55  77 100 130 173 222 246 292
#
# _framework density 22.192191000000001
#
# number of rings (size 3 to 8) (size 9 to 14) (size 15 to 20)
#    0.750    1.500    2.500    3.000    0.000    1.000 
#    0.000    1.250    0.000    4.500    0.000    0.000 
#    0.000    0.000    0.000    0.000    0.000    0.000 
#
# Total GULP energy -89211.343848 kJ/mol
# GULP energy per Si atom -5575.708990 kJ/mol
# Density = 2.214168 g / cm^3
# Si number density = 22.192191 Si / 1000 Ang^3
#
#
#
# Elastic Constant Matrix: (Units=GPa)
#
#
# Indices 1 2 3 4 5 6 
#
# 1 60.7971 16.1937 14.9949 -8.1589 -3.8970 9.5895
# 2 16.1937 121.0139 10.4344 12.4342 -3.3245 14.4011
# 3 14.9949 10.4344 42.5496 -0.1378 -7.0834 3.7025
# 4 -8.1589 12.4342 -0.1378 21.2266 1.7079 0.1209
# 5 -3.8970 -3.3245 -7.0834 1.7079 19.2668 5.9959
# 6 9.5895 14.4011 3.7025 0.1209 5.9959 25.3788
#
#
#
# Elastic Compliance Matrix: (Units=1/GPa)
#
#
# Indices 1 2 3 4 5 6 
#
# 1 0.020940 -0.002411 -0.005714 0.009227 0.002905 -0.006441
# 2 -0.002411 0.010116 -0.000613 -0.007097 0.003374 -0.005503
# 3 -0.005714 -0.000613 0.027735 -0.002471 0.010394 -0.003983
# 4 0.009227 -0.007097 -0.002471 0.055253 -0.005789 0.002005
# 5 0.002905 0.003374 0.010394 -0.005789 0.063474 -0.019497
# 6 -0.006441 -0.005503 -0.003983 0.002005 -0.019497 0.050137
#
#
# Mechanical properties :
#
#
# Convention : Reuss Voigt Hill
#
# Bulk Modulus (GPa) = 24.20543 34.17850 29.19196
# Shear Modulus (GPa) = 19.31220 25.35695 22.33457
#
# Velocity S-wave (km/s) = 2.95316 3.38391 3.17585
# Velocity P-wave (km/s) = 4.74964 5.54097 5.16050
#
# Compressibility (1/GPa) = 0.04131305
#
# Stress axis : x y z
#
# Youngs Moduli (GPa) = 47.75521 98.85529 36.05551
#
# Poissons Ratio (x) = 0.23836 0.20603
# Poissons Ratio (y) = 0.11515 0.02212
# Poissons Ratio (z) = 0.27289 0.06064
#
# Static dielectric constant tensor:
#      x y z
#    x 1.833120 -0.016130 0.043290 
#    y -0.016130 1.844920 0.054550 
#    z 0.043290 0.054550 1.884830 
# 
# From -- ./inp_files/417865.got.cif
#   From: 2010.05.17/outbox.cif.g08.bks.cpg/sg2_209_cif.got.tgz:417865.got - 2010.06.03 11:33:40.
