data_PCOD9086708
_publ_section_title
;
Structure prediction by ZEFSAII (Michael W. Deem and Ramdas Pophale) SiO2 
 PCOD9086708
Probable space group: P -1
;
_chemical_formula_sum "Si O2"
_cell_formula_units_Z 15
_cell_length_a 10.143418
_cell_length_b 9.287075
_cell_length_c 12.176045
_cell_angle_alpha 104.895973
_cell_angle_beta 137.531630
_cell_angle_gamma 51.352875
_cell_volume 557.938911
_symmetry_space_group_name_H-M "P -1"
_symmetry_group_IT_number 2
_symmetry_cell_setting 'triclinic'
loop_
_space_group_symop_operation_xyz
x,y,z
-x,-y,-z
loop_
_atom_site_type_symbol
_atom_site_label
_atom_site_fract_x
_atom_site_fract_y
_atom_site_fract_z
Si Si1 0.723274 0.348947 0.373894
Si Si2 0.656270 0.947858 0.769357
Si Si3 0.500000 0.500000 0.500000
Si Si4 0.310205 0.872180 0.841076
Si Si5 0.845430 0.741697 0.065517
Si Si6 0.621233 0.119698 0.574273
Si Si7 0.060957 0.493641 0.349605
Si Si8 0.475706 0.336600 0.859128
O O1 0.571605 0.400758 0.402646
O O2 0.836166 0.148975 0.343135
O O3 0.935617 0.364983 0.541428
O O4 0.528294 0.531907 0.205612
O O5 0.783428 0.956317 0.738790
O O6 0.537149 0.146100 0.803466
O O7 0.846540 0.771823 0.942108
O O8 0.443841 0.939187 0.587834
O O9 0.666480 0.270109 0.612245
O O10 0.592424 0.767528 0.940410
O O11 0.334650 0.754340 0.938858
O O12 0.209407 0.079121 0.865367
O O13 0.075588 0.551515 0.244083
O O14 0.331293 0.272513 0.483337
O O15 0.811476 0.528527 0.236061
#
# Coordination Sequence:
#
# PCOD9086708 Si02
#       8
#     2   2   1   2   2   2   2   2
#     4  11  20  34  57  86 116 153 192 242 282 347
#     4  10  19  36  60  83 110 158 200 227 279 354
#     4  10  20  34  52  84 116 150 188 236 282 336
#     4   9  19  34  56  84 115 154 192 229 295 345
#     4   9  19  36  56  84 117 150 189 243 285 350
#     4  10  21  36  59  86 113 157 197 237 280 350
#     4  10  21  35  58  89 118 144 190 246 299 325
#     4  10  19  37  61  87 116 148 194 247 284 339
#
# _framework density 26.884664000000001
#
# number of rings (size 3 to 8) (size 9 to 14) (size 15 to 20)
#    0.000    2.133    2.667    2.400    0.000    1.067 
#    0.000    2.667    0.000    3.200    0.000    0.000 
#    0.000    0.000    0.000    0.000    0.000    0.000 
#
# Total GULP energy -83628.950655 kJ/mol
# GULP energy per Si atom -5575.263377 kJ/mol
# Density = 2.682347 g / cm^3
# Si number density = 26.884664 Si / 1000 Ang^3
#
#
#
# Elastic Constant Matrix: (Units=GPa)
#
#
# Indices 1 2 3 4 5 6 
#
# 1 83.5137 27.2790 34.1679 -2.2852 -23.3886 7.5270
# 2 27.2790 51.0320 64.4845 22.8732 -18.0158 24.4159
# 3 34.1679 64.4845 143.9729 -2.1837 -57.7031 -1.3280
# 4 -2.2852 22.8732 -2.1837 60.5781 12.0828 -20.1241
# 5 -23.3886 -18.0158 -57.7031 12.0828 50.1876 -9.5712
# 6 7.5270 24.4159 -1.3280 -20.1241 -9.5712 27.0035
#
#
#
# Elastic Compliance Matrix: (Units=1/GPa)
#
#
# Indices 1 2 3 4 5 6 
#
# 1 0.014062 0.001474 -0.002716 -0.002918 0.003454 -0.006337
# 2 0.001474 -0.020257 0.014373 0.017778 0.012587 0.036323
# 3 -0.002716 0.014373 0.004006 -0.013349 0.008065 -0.019131
# 4 -0.002918 0.017778 -0.013349 0.006839 -0.015054 -0.016157
# 5 0.003454 0.012587 0.008065 -0.015054 0.037036 -0.010039
# 6 -0.006337 0.036323 -0.019131 -0.016157 -0.010039 -0.010583
#
#
# Mechanical properties :
#
#
# Convention : Reuss Voigt Hill
#
# Bulk Modulus (GPa) = 41.53915 58.93126 50.23521
# Shear Modulus (GPa) = 388.64288 37.72633 213.18460
#
# Velocity S-wave (km/s) = 12.03633 3.75008 8.91449
# Velocity P-wave (km/s) = 14.44467 6.38110 11.16618
#
# Compressibility (1/GPa) = 0.02407367
#
# Stress axis : x y z
#
# Youngs Moduli (GPa) = 71.11223 -49.36462 249.59784
#
# Poissons Ratio (x) = 0.07279 0.67795
# Poissons Ratio (y) = -0.10485 -3.58744
# Poissons Ratio (z) = 0.19315 0.70951
#
# Static dielectric constant tensor:
#      x y z
#    x 1.862760 -0.069750 -0.151970 
#    y -0.069750 2.069980 -0.069740 
#    z -0.151970 -0.069740 2.018780 
# 
# From -- ./inp_files/417672.got.cif
#   From: 2010.05.17/outbox.cif.g08.bks.cpg/sg2_209_cif.got.tgz:417672.got - 2010.06.03 11:33:40.
