data_PCOD9086579
_publ_section_title
;
Structure prediction by ZEFSAII (Michael W. Deem and Ramdas Pophale) SiO2 
 PCOD9086579
Probable space group: P -1
;
_chemical_formula_sum "Si O2"
_cell_formula_units_Z 16
_cell_length_a 11.685935
_cell_length_b 8.591400
_cell_length_c 7.408014
_cell_angle_alpha 104.908608
_cell_angle_beta 94.947947
_cell_angle_gamma 94.994377
_cell_volume 711.413663
_symmetry_space_group_name_H-M "P -1"
_symmetry_group_IT_number 2
_symmetry_cell_setting 'triclinic'
loop_
_space_group_symop_operation_xyz
x,y,z
-x,-y,-z
loop_
_atom_site_type_symbol
_atom_site_label
_atom_site_fract_x
_atom_site_fract_y
_atom_site_fract_z
Si Si1 0.687929 0.631271 0.039813
Si Si2 0.612383 0.119345 0.283416
Si Si3 0.628609 0.894550 0.874924
Si Si4 0.944479 0.147580 0.123471
Si Si5 0.829262 0.778378 0.654308
Si Si6 0.716134 0.481312 0.341489
Si Si7 0.873578 0.429723 0.027941
Si Si8 0.806397 0.943997 0.343540
O O1 0.637040 0.546434 0.190525
O O2 0.769178 0.503135 0.930347
O O3 0.777140 0.782495 0.170820
O O4 0.605668 0.723446 0.931313
O O5 0.474843 0.098086 0.276837
O O6 0.663803 0.306622 0.349490
O O7 0.684966 0.013045 0.389628
O O8 0.630302 0.040323 0.062631
O O9 0.751424 0.880045 0.798743
O O10 0.876472 0.238329 0.991537
O O11 0.055989 0.263143 0.244309
O O12 0.873313 0.079639 0.267395
O O13 0.000000 0.000000 0.000000
O O14 0.746992 0.620166 0.532343
O O15 0.863453 0.887210 0.514826
O O16 0.835386 0.470098 0.240718
O O17 0.000000 0.500000 0.000000
#
# Coordination Sequence:
#
# PCOD9086579 Si02
#       8
#     2   2   2   2   2   2   2   2
#     4   8  18  36  57  82 118 150 195 234 291 337
#     4  10  20  41  64  84 116 156 202 242 290 344
#     4  10  21  38  64  89 113 155 201 246 285 349
#     4  12  23  37  63  87 118 157 197 238 288 353
#     4  11  24  37  57  87 122 153 195 241 300 343
#     4   9  21  39  56  85 117 156 188 245 295 343
#     4  10  19  36  59  84 117 158 191 238 290 347
#     4  10  19  40  55  85 121 154 191 241 290 347
#
# _framework density 22.49043
#
# number of rings (size 3 to 8) (size 9 to 14) (size 15 to 20)
#    0.750    1.250    1.250    3.375    0.000    2.000 
#    0.000    2.500    0.000    0.000    0.000    0.000 
#    0.000    0.000    0.000    0.000    0.000    0.000 
#
# Total GULP energy -89165.622124 kJ/mol
# GULP energy per Si atom -5572.851383 kJ/mol
# Density = 2.243924 g / cm^3
# Si number density = 22.490430 Si / 1000 Ang^3
#
#
#
# Elastic Constant Matrix: (Units=GPa)
#
#
# Indices 1 2 3 4 5 6 
#
# 1 61.4313 10.9830 2.3341 2.7489 7.4716 -7.2501
# 2 10.9830 113.0207 9.9283 7.3961 5.3179 -13.4863
# 3 2.3341 9.9283 27.0659 -1.9059 -0.0693 3.3398
# 4 2.7489 7.3961 -1.9059 24.5680 -3.5031 2.4178
# 5 7.4716 5.3179 -0.0693 -3.5031 24.7645 -5.0454
# 6 -7.2501 -13.4863 3.3398 2.4178 -5.0454 37.7473
#
#
#
# Elastic Compliance Matrix: (Units=1/GPa)
#
#
# Indices 1 2 3 4 5 6 
#
# 1 0.017545 -0.000801 -0.001772 -0.002839 -0.004966 0.002759
# 2 -0.000801 0.010111 -0.004398 -0.003920 -0.001708 0.003870
# 3 -0.001772 -0.004398 0.039784 0.005332 0.001201 -0.005613
# 4 -0.002839 -0.003920 0.005332 0.044045 0.007069 -0.004294
# 5 -0.004966 -0.001708 0.001201 0.007069 0.044015 0.003760
# 6 0.002759 0.003870 -0.005613 -0.004294 0.003760 0.029679
#
#
# Mechanical properties :
#
#
# Convention : Reuss Voigt Hill
#
# Bulk Modulus (GPa) = 18.69210 27.55653 23.12431
# Shear Modulus (GPa) = 23.04641 29.30082 26.17361
#
# Velocity S-wave (km/s) = 3.20460 3.61337 3.41510
# Velocity P-wave (km/s) = 4.69274 5.44864 5.08476
#
# Compressibility (1/GPa) = 0.05349853
#
# Stress axis : x y z
#
# Youngs Moduli (GPa) = 56.99476 98.90427 25.13577
#
# Poissons Ratio (x) = 0.07919 0.04455
# Poissons Ratio (y) = 0.04563 0.11054
# Poissons Ratio (z) = 0.10102 0.43496
#
# Static dielectric constant tensor:
#      x y z
#    x 1.879730 -0.026760 -0.004270 
#    y -0.026760 1.880860 -0.021130 
#    z -0.004270 -0.021130 1.836520 
# 
# From -- ./inp_files/245100.got.cif
#   From: 2010.05.17/outbox.cif.g08.bks.cpg/sg2_123_cif.got.tgz:245100.got - 2010.06.03 11:33:40.
