data_PCOD9086736
_publ_section_title
;
Structure prediction by ZEFSAII (Michael W. Deem and Ramdas Pophale) SiO2 
 PCOD9086736
Probable space group: P -1
;
_chemical_formula_sum "Si O2"
_cell_formula_units_Z 16
_cell_length_a 11.710768
_cell_length_b 8.134694
_cell_length_c 8.197664
_cell_angle_alpha 71.479822
_cell_angle_beta 54.887827
_cell_angle_gamma 85.605387
_cell_volume 600.054428
_symmetry_space_group_name_H-M "P -1"
_symmetry_group_IT_number 2
_symmetry_cell_setting 'triclinic'
loop_
_space_group_symop_operation_xyz
x,y,z
-x,-y,-z
loop_
_atom_site_type_symbol
_atom_site_label
_atom_site_fract_x
_atom_site_fract_y
_atom_site_fract_z
Si Si1 0.017289 0.294872 0.560778
Si Si2 0.396661 0.815460 0.473733
Si Si3 0.378932 0.583205 0.847729
Si Si4 0.373813 0.085600 0.157114
Si Si5 0.662567 0.583830 0.753957
Si Si6 0.285226 0.217424 0.880761
Si Si7 0.014914 0.260654 0.916704
Si Si8 0.887715 0.324762 0.331043
O O1 0.186081 0.309603 0.436706
O O2 0.956361 0.204184 0.804977
O O3 0.000000 0.500000 0.500000
O O4 0.953023 0.233118 0.459052
O O5 0.372208 0.760956 0.698749
O O6 0.559260 0.802531 0.306455
O O7 0.280371 0.683805 0.509993
O O8 0.354368 0.993143 0.377572
O O9 0.544883 0.558582 0.720549
O O10 0.293363 0.420066 0.872123
O O11 0.318468 0.571626 0.085495
O O12 0.410892 0.288096 0.105370
O O13 0.262764 0.095592 0.099477
O O14 0.500000 0.000000 0.000000
O O15 0.160223 0.189733 0.863803
O O16 0.047871 0.472549 0.801549
O O17 0.920784 0.232927 0.164129
#
# Coordination Sequence:
#
# PCOD9086736 Si02
#       8
#     2   2   2   2   2   2   2   2
#     4  10  22  35  59  90 126 160 198 249 312 366
#     4  11  21  34  60  88 115 160 204 248 303 369
#     4  10  20  32  60  89 118 148 200 266 306 351
#     4   9  21  39  57  84 123 169 199 243 313 371
#     4  10  21  38  56  89 123 155 202 257 305 358
#     4  10  19  36  60  85 119 152 204 250 309 362
#     4  10  20  37  60  87 123 162 194 250 318 357
#     4  10  21  35  57  90 122 155 203 253 300 362
#
# _framework density 26.664249000000002
#
# number of rings (size 3 to 8) (size 9 to 14) (size 15 to 20)
#    0.000    2.000    1.250    2.625    7.000    0.500 
#    0.000    2.500    0.000    1.500    0.000    0.000 
#    0.000    0.000    0.000    0.000    0.000    0.000 
#
# Total GULP energy -89324.060035 kJ/mol
# GULP energy per Si atom -5582.753752 kJ/mol
# Density = 2.660356 g / cm^3
# Si number density = 26.664249 Si / 1000 Ang^3
#
#
#
# Elastic Constant Matrix: (Units=GPa)
#
#
# Indices 1 2 3 4 5 6 
#
# 1 156.6542 26.4598 79.1082 1.8611 33.1400 -29.4391
# 2 26.4598 30.8166 21.7558 -3.0055 2.4451 -16.9524
# 3 79.1082 21.7558 139.1813 -12.3897 49.6436 -20.2676
# 4 1.8611 -3.0055 -12.3897 31.9695 -17.8113 3.5116
# 5 33.1400 2.4451 49.6436 -17.8113 60.1672 -7.2452
# 6 -29.4391 -16.9524 -20.2676 3.5116 -7.2452 27.6368
#
#
#
# Elastic Compliance Matrix: (Units=1/GPa)
#
#
# Indices 1 2 3 4 5 6 
#
# 1 0.010945 -0.003177 -0.004063 -0.005039 -0.003254 0.006517
# 2 -0.003177 0.053749 -0.005264 0.005036 0.008695 0.027364
# 3 -0.004063 -0.005264 0.013375 0.000171 -0.008534 -0.000007
# 4 -0.005039 0.005036 0.000171 0.040262 0.013912 -0.003621
# 5 -0.003254 0.008695 -0.008534 0.013912 0.029406 0.001550
# 6 0.006517 0.027364 -0.000007 -0.003621 0.001550 0.060772
#
#
# Mechanical properties :
#
#
# Convention : Reuss Voigt Hill
#
# Bulk Modulus (GPa) = 18.84653 64.58884 41.71769
# Shear Modulus (GPa) = 19.90413 37.24326 28.57369
#
# Velocity S-wave (km/s) = 2.73513 3.74136 3.27710
# Velocity P-wave (km/s) = 4.13013 6.55281 5.47710
#
# Compressibility (1/GPa) = 0.05306016
#
# Stress axis : x y z
#
# Youngs Moduli (GPa) = 91.36610 18.60513 74.76425
#
# Poissons Ratio (x) = 0.05911 0.30379
# Poissons Ratio (y) = 0.29027 0.39356
# Poissons Ratio (z) = 0.37125 0.09794
#
# Static dielectric constant tensor:
#      x y z
#    x 2.196200 0.057020 0.005040 
#    y 0.057020 2.100860 0.014050 
#    z 0.005040 0.014050 2.206920 
# 
# From -- ./inp_files/251854.got.cif
#   From: 2010.05.17/outbox.cif.g08.bks.cpg/sg2_126_cif.got.tgz:251854.got - 2010.06.03 11:33:40.
