data_PCOD9086766
_publ_section_title
;
Structure prediction by ZEFSAII (Michael W. Deem and Ramdas Pophale) SiO2 
 PCOD9086766
Probable space group: P -1
;
_chemical_formula_sum "Si O2"
_cell_formula_units_Z 16
_cell_length_a 18.260018
_cell_length_b 7.900580
_cell_length_c 10.734649
_cell_angle_alpha 59.030214
_cell_angle_beta 125.130796
_cell_angle_gamma 145.826846
_cell_volume 708.904274
_symmetry_space_group_name_H-M "P -1"
_symmetry_group_IT_number 2
_symmetry_cell_setting 'triclinic'
loop_
_space_group_symop_operation_xyz
x,y,z
-x,-y,-z
loop_
_atom_site_type_symbol
_atom_site_label
_atom_site_fract_x
_atom_site_fract_y
_atom_site_fract_z
Si Si1 0.517016 0.443242 0.399491
Si Si2 0.715751 0.654896 0.869951
Si Si3 0.759231 0.070747 0.264132
Si Si4 0.627636 0.856727 0.963217
Si Si5 0.088558 0.841149 0.973836
Si Si6 0.905081 0.957448 0.330825
Si Si7 0.433688 0.828438 0.294249
Si Si8 0.293473 0.635169 0.785462
O O1 0.500000 0.500000 0.500000
O O2 0.391269 0.340003 0.244614
O O3 0.531029 0.235146 0.523291
O O4 0.655474 0.755971 0.355971
O O5 0.688848 0.484249 0.783371
O O6 0.688947 0.468947 0.034174
O O7 0.869392 0.996735 0.914220
O O8 0.798589 0.327587 0.285221
O O9 0.673524 0.012257 0.084868
O O10 0.872425 0.114248 0.301982
O O11 0.760980 0.965548 0.004880
O O12 0.500000 0.500000 0.000000
O O13 0.595002 0.987103 0.794284
O O14 0.029328 0.898154 0.795997
O O15 0.000000 0.500000 0.000000
O O16 0.770669 0.605387 0.296090
O O17 0.000000 0.000000 0.500000
O O18 0.563602 0.039882 0.247145
#
# Coordination Sequence:
#
# PCOD9086766 Si02
#       8
#     2   2   2   2   2   2   2   2
#     4  10  20  33  57  95 130 156 196 263 327 376
#     4  10  19  36  60  86 122 163 199 253 315 379
#     4  11  20  39  63  87 128 163 214 265 319 383
#     4  11  22  38  65  97 122 166 221 256 315 392
#     4  10  23  42  62  86 126 168 208 261 323 379
#     4  10  25  43  61  89 121 165 223 265 317 385
#     4  11  20  34  60  96 125 156 206 264 320 372
#     4  11  20  37  67  90 121 169 213 262 323 381
#
# _framework density 22.570042000000001
#
# number of rings (size 3 to 8) (size 9 to 14) (size 15 to 20)
#    0.000    1.500    3.750    4.125    0.000    2.500 
#    0.000    5.000    0.000    0.000    0.000    0.000 
#    0.000    0.000    0.000    0.000    0.000    0.000 
#
# Total GULP energy -89295.090315 kJ/mol
# GULP energy per Si atom -5580.943145 kJ/mol
# Density = 2.251867 g / cm^3
# Si number density = 22.570042 Si / 1000 Ang^3
#
#
#
# Elastic Constant Matrix: (Units=GPa)
#
#
# Indices 1 2 3 4 5 6 
#
# 1 68.3132 6.7065 16.0463 -0.3575 20.2772 -27.0740
# 2 6.7065 96.3558 34.0134 2.4134 4.9656 -25.4972
# 3 16.0463 34.0134 171.3394 -4.8966 28.0437 -10.0309
# 4 -0.3575 2.4134 -4.8966 32.3992 -9.8592 3.4094
# 5 20.2772 4.9656 28.0437 -9.8592 36.0194 -9.9381
# 6 -27.0740 -25.4972 -10.0309 3.4094 -9.9381 27.6106
#
#
#
# Elastic Compliance Matrix: (Units=1/GPa)
#
#
# Indices 1 2 3 4 5 6 
#
# 1 0.030632 0.008000 -0.001008 -0.007074 -0.010029 0.034322
# 2 0.008000 0.017121 -0.003037 -0.003831 0.000894 0.023346
# 3 -0.001008 -0.003037 0.007255 -0.000044 -0.005543 -0.003147
# 4 -0.007074 -0.003831 -0.000044 0.035648 0.011317 -0.010818
# 5 -0.010029 0.000894 -0.005543 0.011317 0.041382 0.002475
# 6 0.034322 0.023346 -0.003147 -0.010818 0.002475 0.092516
#
#
# Mechanical properties :
#
#
# Convention : Reuss Voigt Hill
#
# Bulk Modulus (GPa) = 15.89364 49.94896 32.92130
# Shear Modulus (GPa) = 21.04226 37.82197 29.43211
#
# Velocity S-wave (km/s) = 3.05669 4.09805 3.61506
# Velocity P-wave (km/s) = 4.41758 6.67613 5.66064
#
# Compressibility (1/GPa) = 0.06291824
#
# Stress axis : x y z
#
# Youngs Moduli (GPa) = 32.64541 58.40718 137.82813
#
# Poissons Ratio (x) = -0.46726 0.13897
# Poissons Ratio (y) = -0.26116 0.41858
# Poissons Ratio (z) = 0.03292 0.17738
#
# Static dielectric constant tensor:
#      x y z
#    x 1.965680 0.054350 0.040270 
#    y 0.054350 2.176760 0.097230 
#    z 0.040270 0.097230 1.911320 
# 
# From -- ./inp_files/469850.got.cif
#   From: 2010.05.17/outbox.cif.g08.bks.cpg/sg2_235_cif.got.tgz:469850.got - 2010.06.03 11:33:40.
