data_PCOD9086222
_publ_section_title
;
Structure prediction by ZEFSAII (Michael W. Deem and Ramdas Pophale) SiO2 
 PCOD9086222
Probable space group: P -1
;
_chemical_formula_sum "Si O2"
_cell_formula_units_Z 14
_cell_length_a 5.970643
_cell_length_b 27.101655
_cell_length_c 9.108390
_cell_angle_alpha 151.191339
_cell_angle_beta 124.495736
_cell_angle_gamma 56.944967
_cell_volume 580.846615
_symmetry_space_group_name_H-M "P -1"
_symmetry_group_IT_number 2
_symmetry_cell_setting 'triclinic'
loop_
_space_group_symop_operation_xyz
x,y,z
-x,-y,-z
loop_
_atom_site_type_symbol
_atom_site_label
_atom_site_fract_x
_atom_site_fract_y
_atom_site_fract_z
Si Si1 0.878948 0.359847 0.732413
Si Si2 0.339255 0.893258 0.276034
Si Si3 0.870865 0.966922 0.687250
Si Si4 0.781854 0.543376 0.663903
Si Si5 0.744903 0.163244 0.337147
Si Si6 0.612828 0.681909 0.714819
Si Si7 0.133823 0.233524 0.223214
O O1 0.817878 0.275102 0.610944
O O2 0.590324 0.391308 0.625311
O O3 0.051205 0.300189 0.510920
O O4 0.038356 0.441026 0.085581
O O5 0.601010 0.922696 0.537058
O O6 0.214240 0.994771 0.406549
O O7 0.473201 0.800699 0.976655
O O8 0.086889 0.839417 0.097372
O O9 0.129961 0.881335 0.579194
O O10 0.900357 0.075411 0.059604
O O11 0.500000 0.500000 0.500000
O O12 0.671965 0.650420 0.820459
O O13 0.000000 0.500000 0.500000
O O14 0.421625 0.169317 0.209409
O O15 0.849584 0.688572 0.703322
#
# Coordination Sequence:
#
# PCOD9086222 Si02
#       7
#     2   2   2   2   2   2   2
#     4  10  23  47  71  97 141 186 225 287 364 426
#     4  10  20  38  59  93 136 186 229 289 337 409
#     4  10  19  36  56  93 142 178 241 290 325 398
#     4  12  31  50  76 115 138 174 237 300 363 446
#     4  10  20  38  59  93 136 186 229 289 337 409
#     4  10  23  47  71  97 141 186 225 287 364 426
#     4  10  20  40  70  94 130 198 232 270 362 414
#
# _framework density 24.102751000000001
#
# number of rings (size 3 to 8) (size 9 to 14) (size 15 to 20)
#    0.000    1.714    4.286    0.857    8.000    2.286 
#    0.000    0.000    0.000    0.000    0.000    0.000 
#    0.000    0.000    0.000    0.000    0.000    0.000 
#
# Total GULP energy -78046.434831 kJ/mol
# GULP energy per Si atom -5574.745345 kJ/mol
# Density = 2.404789 g / cm^3
# Si number density = 24.102751 Si / 1000 Ang^3
#
#
#
# Elastic Constant Matrix: (Units=GPa)
#
#
# Indices 1 2 3 4 5 6 
#
# 1 103.8971 16.3181 36.6903 -2.8613 19.0472 -2.1532
# 2 16.3181 66.2320 -7.3722 -3.7905 13.0287 4.0926
# 3 36.6903 -7.3722 85.9905 -20.6343 11.3636 -3.2002
# 4 -2.8613 -3.7905 -20.6343 31.7081 -7.2397 4.0602
# 5 19.0472 13.0287 11.3636 -7.2397 41.6912 -8.4882
# 6 -2.1532 4.0926 -3.2002 4.0602 -8.4882 18.2512
#
#
#
# Elastic Compliance Matrix: (Units=1/GPa)
#
#
# Indices 1 2 3 4 5 6 
#
# 1 0.012992 -0.003428 -0.006349 -0.004285 -0.003802 0.000373
# 2 -0.003428 0.018413 0.004655 0.004473 -0.006229 -0.007609
# 3 -0.006349 0.004655 0.017610 0.011294 -0.001812 -0.002060
# 4 -0.004285 0.004473 0.011294 0.040654 0.003088 -0.007136
# 5 -0.003802 -0.006229 -0.001812 0.003088 0.031689 0.014681
# 6 0.000373 -0.007609 -0.002060 -0.007136 0.014681 0.064595
#
#
# Mechanical properties :
#
#
# Convention : Reuss Voigt Hill
#
# Bulk Modulus (GPa) = 25.79371 38.59911 32.19641
# Shear Modulus (GPa) = 23.90946 32.36231 28.13588
#
# Velocity S-wave (km/s) = 3.15299 3.66824 3.42033
# Velocity P-wave (km/s) = 4.89693 5.83013 5.38379
#
# Compressibility (1/GPa) = 0.03876914
#
# Stress axis : x y z
#
# Youngs Moduli (GPa) = 76.96874 54.31041 56.78535
#
# Poissons Ratio (x) = 0.18619 0.36055
# Poissons Ratio (y) = 0.26386 -0.26431
# Poissons Ratio (z) = 0.48871 -0.25279
#
# Static dielectric constant tensor:
#      x y z
#    x 2.029110 -0.001740 -0.008520 
#    y -0.001740 2.068390 -0.016990 
#    z -0.008520 -0.016990 1.964250 
# 
# From -- ./inp_files/143198.got.cif
#   From: 2010.05.17/outbox.cif.g08.bks.cpg/sg2_72_cif.got.tgz:143198.got - 2010.06.03 11:33:40.
