data_PCOD9086066
_publ_section_title
;
Structure prediction by ZEFSAII (Michael W. Deem and Ramdas Pophale) SiO2 
 PCOD9086066
Probable space group: P -1
;
_chemical_formula_sum "Si O2"
_cell_formula_units_Z 15
_cell_length_a 14.313242
_cell_length_b 13.368832
_cell_length_c 13.519978
_cell_angle_alpha 62.845399
_cell_angle_beta 29.005122
_cell_angle_gamma 43.194033
_cell_volume 719.352084
_symmetry_space_group_name_H-M "P -1"
_symmetry_group_IT_number 2
_symmetry_cell_setting 'triclinic'
loop_
_space_group_symop_operation_xyz
x,y,z
-x,-y,-z
loop_
_atom_site_type_symbol
_atom_site_label
_atom_site_fract_x
_atom_site_fract_y
_atom_site_fract_z
Si Si1 0.869426 0.626446 0.192102
Si Si2 0.384708 0.573983 0.685203
Si Si3 0.406248 0.913925 0.628595
Si Si4 0.369982 0.240118 0.852436
Si Si5 0.500000 0.000000 0.000000
Si Si6 0.785109 0.239696 0.568468
Si Si7 0.311320 0.901560 0.126292
Si Si8 0.971247 0.974220 0.884336
O O1 0.696342 0.715368 0.413941
O O2 0.638806 0.754493 0.259654
O O3 0.121650 0.607600 0.948539
O O4 0.043842 0.433014 0.098915
O O5 0.500000 0.500000 0.500000
O O6 0.646642 0.420324 0.587746
O O7 0.229161 0.763736 0.745727
O O8 0.137209 0.009752 0.757095
O O9 0.500000 0.000000 0.500000
O O10 0.281621 0.939801 0.839599
O O11 0.615432 0.223383 0.664300
O O12 0.438860 0.092867 0.905715
O O13 0.615827 0.826354 0.907397
O O14 0.737792 0.199583 0.735094
O O15 0.130702 0.075786 0.287811
O O16 0.176457 0.961159 0.116102
#
# Coordination Sequence:
#
# PCOD9086066 Si02
#       8
#     2   2   2   2   1   2   2   2
#     4  10  20  35  58  82 122 150 197 245 307 346
#     4  11  20  33  57  92 117 150 191 251 305 360
#     4  11  24  41  59  89 117 164 211 253 289 346
#     4   9  19  32  53  88 108 153 177 248 299 354
#     4  10  20  30  54  86 124 140 190 230 300 370
#     4   9  19  32  52  80 123 144 182 230 309 360
#     4  10  19  36  52  85 119 158 184 238 302 364
#     4  11  23  39  64  86 120 160 207 246 294 360
#
# _framework density 20.852096
#
# number of rings (size 3 to 8) (size 9 to 14) (size 15 to 20)
#    0.000    1.867    2.667    1.600    3.733    0.000 
#    0.000    0.000    0.000   12.000    0.000    0.000 
#    0.000    0.000    0.000    0.000    0.000    0.000 
#
# Total GULP energy -83512.800206 kJ/mol
# GULP energy per Si atom -5567.520014 kJ/mol
# Density = 2.080464 g / cm^3
# Si number density = 20.852096 Si / 1000 Ang^3
#
#
#
# Elastic Constant Matrix: (Units=GPa)
#
#
# Indices 1 2 3 4 5 6 
#
# 1 106.6060 37.0118 36.6162 -15.2982 8.2853 -18.2332
# 2 37.0118 95.6992 45.1796 -15.3248 15.3997 -21.3633
# 3 36.6162 45.1796 123.4856 -8.2902 19.0118 0.6040
# 4 -15.2982 -15.3248 -8.2902 27.6884 8.8198 -3.0746
# 5 8.2853 15.3997 19.0118 8.8198 36.7562 -7.1568
# 6 -18.2332 -21.3633 0.6040 -3.0746 -7.1568 34.7824
#
#
#
# Elastic Compliance Matrix: (Units=1/GPa)
#
#
# Indices 1 2 3 4 5 6 
#
# 1 0.012902 -0.000782 -0.002869 0.007051 -0.001494 0.006649
# 2 -0.000782 0.018052 -0.004844 0.011028 -0.005461 0.010613
# 3 -0.002869 -0.004844 0.011400 -0.000108 -0.004278 -0.005567
# 4 0.007051 0.011028 -0.000108 0.052642 -0.016502 0.011729
# 5 -0.001494 -0.005461 -0.004278 -0.016502 0.036386 0.001965
# 6 0.006649 0.010613 -0.005567 0.011729 0.001965 0.040292
#
#
# Mechanical properties :
#
#
# Convention : Reuss Voigt Hill
#
# Bulk Modulus (GPa) = 39.42327 62.60065 51.01196
# Shear Modulus (GPa) = 25.36541 33.64429 29.50485
#
# Velocity S-wave (km/s) = 3.49154 4.02116 3.76567
# Velocity P-wave (km/s) = 5.93310 7.18652 6.58968
#
# Compressibility (1/GPa) = 0.02536573
#
# Stress axis : x y z
#
# Youngs Moduli (GPa) = 77.50526 55.39429 87.72208
#
# Poissons Ratio (x) = 0.04330 0.25167
# Poissons Ratio (y) = 0.06058 0.42491
# Poissons Ratio (z) = 0.22236 0.26832
#
# Static dielectric constant tensor:
#      x y z
#    x 1.947650 0.034010 -0.196460 
#    y 0.034010 1.824180 0.035900 
#    z -0.196460 0.035900 2.057610 
# 
# From -- ./inp_files/455603.got.cif
#   From: 2010.05.17/outbox.cif.g08.bks.cpg/sg2_228_cif.got.tgz:455603.got - 2010.06.03 11:33:40.
