data_PCOD9086694
_publ_section_title
;
Structure prediction by ZEFSAII (Michael W. Deem and Ramdas Pophale) SiO2 
 PCOD9086694
Probable space group: P -1
;
_chemical_formula_sum "Si O2"
_cell_formula_units_Z 16
_cell_length_a 8.242316
_cell_length_b 19.650140
_cell_length_c 10.522453
_cell_angle_alpha 129.164853
_cell_angle_beta 42.661001
_cell_angle_gamma 102.011766
_cell_volume 781.648896
_symmetry_space_group_name_H-M "P -1"
_symmetry_group_IT_number 2
_symmetry_cell_setting 'triclinic'
loop_
_space_group_symop_operation_xyz
x,y,z
-x,-y,-z
loop_
_atom_site_type_symbol
_atom_site_label
_atom_site_fract_x
_atom_site_fract_y
_atom_site_fract_z
Si Si1 0.484896 0.200786 0.731762
Si Si2 0.106972 0.119324 0.813875
Si Si3 0.270385 0.260608 0.639191
Si Si4 0.888141 0.471021 0.156022
Si Si5 0.349293 0.049897 0.320696
Si Si6 0.638072 0.335027 0.364371
Si Si7 0.916236 0.970412 0.796577
Si Si8 0.943055 0.588290 0.731576
O O1 0.328037 0.138501 0.784802
O O2 0.400724 0.223380 0.658997
O O3 0.342516 0.309918 0.006478
O O4 0.806178 0.134284 0.482667
O O5 0.238690 0.059998 0.538037
O O6 0.993485 0.057214 0.882722
O O7 0.859157 0.229843 0.050619
O O8 0.282942 0.163250 0.453105
O O9 0.459710 0.300096 0.510969
O O10 0.964868 0.356281 0.942068
O O11 0.588520 0.566323 0.461826
O O12 0.043280 0.451362 0.178422
O O13 0.000000 0.500000 0.000000
O O14 0.209595 0.013429 0.253698
O O15 0.675753 0.981683 0.040660
O O16 0.826127 0.376384 0.369879
O O17 0.000000 0.500000 0.500000
#
# Coordination Sequence:
#
# PCOD9086694 Si02
#       8
#     2   2   2   2   2   2   2   2
#     4   9  21  37  58  82 113 155 189 230 290 358
#     4  10  20  37  58  82 112 151 196 234 282 350
#     4   9  18  38  55  82 112 145 196 234 281 352
#     4   9  19  36  61  83 109 154 197 230 285 359
#     4  10  22  36  57  82 115 147 189 248 286 338
#     4  10  19  36  60  81 110 154 193 237 283 351
#     4  11  21  38  55  83 117 147 191 240 295 337
#     4  10  21  37  56  88 121 143 193 247 297 342
#
# _framework density 20.469546000000001
#
# number of rings (size 3 to 8) (size 9 to 14) (size 15 to 20)
#    0.000    2.250    1.250    1.875    0.000    4.000 
#    4.500    8.125    0.000    0.000    0.000    0.000 
#    0.000    0.000    0.000    0.000    0.000    0.000 
#
# Total GULP energy -89159.824701 kJ/mol
# GULP energy per Si atom -5572.489044 kJ/mol
# Density = 2.042296 g / cm^3
# Si number density = 20.469546 Si / 1000 Ang^3
#
#
#
# Elastic Constant Matrix: (Units=GPa)
#
#
# Indices 1 2 3 4 5 6 
#
# 1 36.1037 14.2678 41.3353 6.4832 1.6341 9.8573
# 2 14.2678 73.9947 14.2486 4.7340 -7.5187 7.6030
# 3 41.3353 14.2486 165.6014 16.5123 -23.7698 6.6795
# 4 6.4832 4.7340 16.5123 30.5001 -2.6496 2.5062
# 5 1.6341 -7.5187 -23.7698 -2.6496 39.1602 4.8053
# 6 9.8573 7.6030 6.6795 2.5062 4.8053 15.8534
#
#
#
# Elastic Compliance Matrix: (Units=1/GPa)
#
#
# Indices 1 2 3 4 5 6 
#
# 1 0.050396 -0.005965 -0.012211 -0.002215 -0.008299 -0.020464
# 2 -0.005965 0.015525 0.001109 -0.000905 0.004508 -0.005427
# 3 -0.012211 0.001109 0.010142 -0.002597 0.006554 0.001211
# 4 -0.002215 -0.000905 -0.002597 0.035143 0.001085 -0.002979
# 5 -0.008299 0.004508 0.006554 0.001085 0.031981 -0.009629
# 6 -0.020464 -0.005427 0.001211 -0.002979 -0.009629 0.081284
#
#
# Mechanical properties :
#
#
# Convention : Reuss Voigt Hill
#
# Bulk Modulus (GPa) = 23.84945 46.15591 35.00268
# Shear Modulus (GPa) = 18.34312 30.82595 24.58454
#
# Velocity S-wave (km/s) = 2.99677 3.88486 3.46935
# Velocity P-wave (km/s) = 4.86319 6.53608 5.76069
#
# Compressibility (1/GPa) = 0.04192970
#
# Stress axis : x y z
#
# Youngs Moduli (GPa) = 19.84266 64.41385 98.59988
#
# Poissons Ratio (x) = 0.38423 1.20400
# Poissons Ratio (y) = 0.11836 -0.10937
# Poissons Ratio (z) = 0.24230 -0.07145
#
# Static dielectric constant tensor:
#      x y z
#    x 1.708550 0.019030 -0.015180 
#    y 0.019030 1.785200 -0.020980 
#    z -0.015180 -0.020980 1.792670 
# 
# From -- ./inp_files/405501.got.cif
#   From: 2010.05.17/outbox.cif.g08.bks.cpg/sg2_203_cif.got.tgz:405501.got - 2010.06.03 11:33:40.
