data_PCOD9086214
_publ_section_title
;
Structure prediction by ZEFSAII (Michael W. Deem and Ramdas Pophale) SiO2 
 PCOD9086214
Probable space group: P -1
;
_chemical_formula_sum "Si O2"
_cell_formula_units_Z 16
_cell_length_a 10.831925
_cell_length_b 19.185910
_cell_length_c 6.099850
_cell_angle_alpha 60.949237
_cell_angle_beta 119.876252
_cell_angle_gamma 136.138654
_cell_volume 744.603025
_symmetry_space_group_name_H-M "P -1"
_symmetry_group_IT_number 2
_symmetry_cell_setting 'triclinic'
loop_
_space_group_symop_operation_xyz
x,y,z
-x,-y,-z
loop_
_atom_site_type_symbol
_atom_site_label
_atom_site_fract_x
_atom_site_fract_y
_atom_site_fract_z
Si Si1 0.553046 0.390920 0.343474
Si Si2 0.044225 0.842816 0.427298
Si Si3 0.703088 0.554475 0.873246
Si Si4 0.903992 0.025526 0.100021
Si Si5 0.707220 0.100325 0.059129
Si Si6 0.904010 0.531110 0.716000
Si Si7 0.775747 0.833642 0.511982
Si Si8 0.963709 0.294115 0.730603
O O1 0.445347 0.427679 0.305117
O O2 0.740500 0.438841 0.563203
O O3 0.414382 0.268473 0.417774
O O4 0.602814 0.443263 0.068495
O O5 0.222264 0.875310 0.666164
O O6 0.996232 0.762222 0.322012
O O7 0.886349 0.803119 0.526663
O O8 0.081009 0.939706 0.188459
O O9 0.805965 0.561932 0.736967
O O10 0.861942 0.637396 0.058215
O O11 0.815670 0.067944 0.085569
O O12 0.102796 0.090834 0.293244
O O13 0.776723 0.905810 0.228375
O O14 0.782977 0.205866 0.842673
O O15 0.500000 0.000000 0.000000
O O16 0.043691 0.626965 0.533383
O O17 0.000000 0.500000 0.000000
#
# Coordination Sequence:
#
# PCOD9086214 Si02
#       8
#     2   2   2   2   2   2   2   2
#     4  10  21  36  62  91 116 155 204 249 296 355
#     4  10  19  36  61  84 115 153 199 240 297 355
#     4  10  21  41  63  88 117 153 205 255 293 357
#     4   9  20  35  56  84 122 155 192 241 305 349
#     4  10  21  38  55  87 115 155 202 248 282 350
#     4  11  24  42  58  89 125 160 198 245 307 369
#     4  10  19  36  56  89 121 152 190 246 302 355
#     4  10  21  38  63  86 110 161 197 248 304 349
#
# _framework density 21.487960999999999
#
# number of rings (size 3 to 8) (size 9 to 14) (size 15 to 20)
#    0.000    2.000    0.000    4.500    0.000    7.000 
#    9.000    0.000    0.000    0.000    0.000    0.000 
#    0.000    0.000    0.000    0.000    0.000    0.000 
#
# Total GULP energy -89364.029171 kJ/mol
# GULP energy per Si atom -5585.251823 kJ/mol
# Density = 2.143905 g / cm^3
# Si number density = 21.487961 Si / 1000 Ang^3
#
#
#
# Elastic Constant Matrix: (Units=GPa)
#
#
# Indices 1 2 3 4 5 6 
#
# 1 13.3652 8.7341 9.8349 -1.5638 -9.5048 5.7399
# 2 8.7341 157.6252 68.5101 -33.9203 -7.4668 27.7050
# 3 9.8349 68.5101 124.1660 -34.6975 5.6596 20.9542
# 4 -1.5638 -33.9203 -34.6975 40.1310 -5.2840 -11.6273
# 5 -9.5048 -7.4668 5.6596 -5.2840 30.1683 1.6704
# 6 5.7399 27.7050 20.9542 -11.6273 1.6704 28.6810
#
#
#
# Elastic Compliance Matrix: (Units=1/GPa)
#
#
# Indices 1 2 3 4 5 6 
#
# 1 0.118586 0.003121 -0.009794 -0.002494 0.040807 -0.022980
# 2 0.003121 0.010079 -0.003824 0.004247 0.005280 -0.006152
# 3 -0.009794 -0.003824 0.013262 0.006889 -0.005262 -0.000936
# 4 -0.002494 0.004247 0.006889 0.036767 0.005082 0.005973
# 5 0.040807 0.005280 -0.005262 0.005082 0.049756 -0.010260
# 6 -0.022980 -0.006152 -0.000936 0.005973 -0.010260 0.049111
#
#
# Mechanical properties :
#
#
# Convention : Reuss Voigt Hill
#
# Bulk Modulus (GPa) = 8.26897 52.14610 30.20753
# Shear Modulus (GPa) = 14.75510 33.66787 24.21148
#
# Velocity S-wave (km/s) = 2.62328 3.96261 3.36035
# Velocity P-wave (km/s) = 3.60998 6.72730 5.39855
#
# Compressibility (1/GPa) = 0.12093412
#
# Stress axis : x y z
#
# Youngs Moduli (GPa) = 8.43268 99.22007 75.40203
#
# Poissons Ratio (x) = -0.30971 0.73849
# Poissons Ratio (y) = -0.02632 0.28832
# Poissons Ratio (z) = 0.08259 0.37940
#
# Static dielectric constant tensor:
#      x y z
#    x 1.798690 -0.019010 -0.001630 
#    y -0.019010 1.799050 -0.023550 
#    z -0.001630 -0.023550 1.820840 
# 
# From -- ./inp_files/80658.got.cif
#   From: 2010.05.17/outbox.cif.g08.bks.cpg/sg2_41_cif.got.tgz:80658.got - 2010.06.03 11:33:40.
