data_PCOD9086076
_publ_section_title
;
Structure prediction by ZEFSAII (Michael W. Deem and Ramdas Pophale) SiO2 
 PCOD9086076
Probable space group: P -1
;
_chemical_formula_sum "Si O2"
_cell_formula_units_Z 16
_cell_length_a 21.507266
_cell_length_b 8.321901
_cell_length_c 21.464403
_cell_angle_alpha 35.081736
_cell_angle_beta 18.622027
_cell_angle_gamma 41.999392
_cell_volume 694.039095
_symmetry_space_group_name_H-M "P -1"
_symmetry_group_IT_number 2
_symmetry_cell_setting 'triclinic'
loop_
_space_group_symop_operation_xyz
x,y,z
-x,-y,-z
loop_
_atom_site_type_symbol
_atom_site_label
_atom_site_fract_x
_atom_site_fract_y
_atom_site_fract_z
Si Si1 0.493983 0.676341 0.085404
Si Si2 0.118249 0.983502 0.120242
Si Si3 0.435228 0.453068 0.410511
Si Si4 0.829185 0.362457 0.289332
Si Si5 0.098420 0.192303 0.289279
Si Si6 0.833605 0.619821 0.416284
Si Si7 0.749159 0.385537 0.222676
Si Si8 0.337659 0.929578 0.044440
O O1 0.313083 0.492225 0.352066
O O2 0.451210 0.711485 0.041843
O O3 0.703213 0.616395 0.930410
O O4 0.500000 0.000000 0.000000
O O5 0.016275 0.820432 0.210251
O O6 0.938086 0.103429 0.288032
O O7 0.237660 0.831760 0.104573
O O8 0.255950 0.274027 0.875397
O O9 0.302904 0.528405 0.568968
O O10 0.299549 0.274643 0.543714
O O11 0.604939 0.307122 0.326588
O O12 0.530139 0.757008 0.192280
O O13 0.717186 0.272193 0.359007
O O14 0.020153 0.605897 0.015270
O O15 0.168557 0.001842 0.229065
O O16 0.934648 0.373765 0.367106
O O17 0.000000 0.000000 0.500000
#
# Coordination Sequence:
#
# PCOD9086076 Si02
#       8
#     2   2   2   2   2   2   2   2
#     4  10  19  36  53  78 109 148 187 226 252 337
#     4   9  21  37  55  85 115 140 176 241 272 319
#     4  11  19  33  62  86 102 148 189 222 261 338
#     4   9  18  39  65  77 110 147 181 217 282 334
#     4  11  19  36  59  75 103 158 187 223 269 319
#     4  12  22  35  55  85 118 138 185 236 277 299
#     4   8  19  39  61  81 109 143 187 215 270 352
#     4  10  19  38  56  80 111 145 200 215 261 341
#
# _framework density 23.053457000000002
#
# number of rings (size 3 to 8) (size 9 to 14) (size 15 to 20)
#    0.750    1.250    5.000    1.125    0.000    0.500 
#    4.500    1.875    0.000    0.000    0.000    0.000 
#    0.000    0.000    0.000    0.000    0.000    0.000 
#
# Total GULP energy -89222.594773 kJ/mol
# GULP energy per Si atom -5576.412173 kJ/mol
# Density = 2.300099 g / cm^3
# Si number density = 23.053457 Si / 1000 Ang^3
#
#
#
# Elastic Constant Matrix: (Units=GPa)
#
#
# Indices 1 2 3 4 5 6 
#
# 1 165.7908 10.3520 26.0297 1.0669 -35.0833 -12.5051
# 2 10.3520 22.4798 11.3862 3.6118 -2.2746 -5.5534
# 3 26.0297 11.3862 61.7303 8.5917 -5.0272 1.3796
# 4 1.0669 3.6118 8.5917 19.5572 8.1698 -8.9390
# 5 -35.0833 -2.2746 -5.0272 8.1698 47.8739 6.6422
# 6 -12.5051 -5.5534 1.3796 -8.9390 6.6422 35.8269
#
#
#
# Elastic Compliance Matrix: (Units=1/GPa)
#
#
# Indices 1 2 3 4 5 6 
#
# 1 0.007735 -0.001280 -0.002554 -0.000568 0.005230 0.001488
# 2 -0.001280 0.051734 -0.008867 -0.002191 -0.000061 0.007379
# 3 -0.002554 -0.008867 0.020880 -0.011495 0.002756 -0.006449
# 4 -0.000568 -0.002191 -0.011495 0.073656 -0.017278 0.021486
# 5 0.005230 -0.000061 0.002756 -0.017278 0.029064 -0.007990
# 6 0.001488 0.007379 -0.006449 0.021486 -0.007990 0.036666
#
#
# Mechanical properties :
#
#
# Convention : Reuss Voigt Hill
#
# Bulk Modulus (GPa) = 18.19955 38.39297 28.29626
# Shear Modulus (GPa) = 18.97859 34.13379 26.55619
#
# Velocity S-wave (km/s) = 2.87233 3.85208 3.39771
# Velocity P-wave (km/s) = 4.34880 6.03943 5.26245
#
# Compressibility (1/GPa) = 0.05494642
#
# Stress axis : x y z
#
# Youngs Moduli (GPa) = 129.27804 19.32961 47.89158
#
# Poissons Ratio (x) = 0.02475 0.12231
# Poissons Ratio (y) = 0.16553 0.42468
# Poissons Ratio (z) = 0.33015 0.17140
#
# Static dielectric constant tensor:
#      x y z
#    x 1.928260 -0.022450 -0.050570 
#    y -0.022450 1.901320 -0.027660 
#    z -0.050570 -0.027660 1.882230 
# 
# From -- ./inp_files/212144.got.cif
#   From: 2010.05.17/outbox.cif.g08.bks.cpg/sg2_107_cif.got.tgz:212144.got - 2010.06.03 11:33:40.
