data_PCOD9086802
_publ_section_title
;
Structure prediction by ZEFSAII (Michael W. Deem and Ramdas Pophale) SiO2 
 PCOD9086802
Probable space group: P -1
;
_chemical_formula_sum "Si O2"
_cell_formula_units_Z 16
_cell_length_a 9.207136
_cell_length_b 17.041595
_cell_length_c 22.899484
_cell_angle_alpha 149.572002
_cell_angle_beta 150.464098
_cell_angle_gamma 34.360423
_cell_volume 855.296151
_symmetry_space_group_name_H-M "P -1"
_symmetry_group_IT_number 2
_symmetry_cell_setting 'triclinic'
loop_
_space_group_symop_operation_xyz
x,y,z
-x,-y,-z
loop_
_atom_site_type_symbol
_atom_site_label
_atom_site_fract_x
_atom_site_fract_y
_atom_site_fract_z
Si Si1 0.073534 0.066221 0.212242
Si Si2 0.931323 0.824981 0.509197
Si Si3 0.483274 0.167829 0.326853
Si Si4 0.822300 0.648864 0.992393
Si Si5 0.747338 0.122304 0.726014
Si Si6 0.701498 0.032729 0.957735
Si Si7 0.863962 0.482221 0.536126
Si Si8 0.631715 0.431533 0.303250
O O1 0.348887 0.079394 0.274130
O O2 0.872042 0.250090 0.274156
O O3 0.188502 0.969976 0.249139
O O4 0.840310 0.996474 0.047848
O O5 0.617341 0.798003 0.359106
O O6 0.164588 0.835785 0.546355
O O7 0.102372 0.673522 0.512860
O O8 0.845656 0.988813 0.623067
O O9 0.256541 0.350693 0.363565
O O10 0.472495 0.082356 0.205975
O O11 0.522075 0.782065 0.001547
O O12 0.055273 0.752025 0.126234
O O13 0.679143 0.581106 0.843219
O O14 0.000000 0.500000 0.000000
O O15 0.000000 0.000000 0.000000
O O16 0.626756 0.498000 0.409356
O O17 0.194846 0.472290 0.616175
#
# Coordination Sequence:
#
# PCOD9086802 Si02
#       8
#     2   2   2   2   2   2   2   2
#     4   9  19  37  59  86 118 150 200 242 288 349
#     4  11  22  37  56  87 123 154 195 239 294 349
#     4  10  20  37  60  86 115 159 191 238 300 347
#     4  11  22  39  61  87 118 156 199 241 297 352
#     4  11  23  37  58  87 118 156 194 247 289 345
#     4   9  19  37  62  88 115 153 194 242 295 346
#     4  10  19  36  60  88 120 149 196 243 285 350
#     4   9  19  35  60  89 116 153 195 242 288 340
#
# _framework density 18.706970999999999
#
# number of rings (size 3 to 8) (size 9 to 14) (size 15 to 20)
#    0.000    2.000    2.500    1.875    0.000    3.500 
#    0.000    2.500    0.000    4.500    0.000    0.000 
#    0.000    0.000    0.000    0.000    0.000    0.000 
#
# Total GULP energy -89218.100759 kJ/mol
# GULP energy per Si atom -5576.131297 kJ/mol
# Density = 1.866439 g / cm^3
# Si number density = 18.706971 Si / 1000 Ang^3
#
#
#
# Elastic Constant Matrix: (Units=GPa)
#
#
# Indices 1 2 3 4 5 6 
#
# 1 50.0343 30.0147 23.0899 -11.4182 15.1923 5.5306
# 2 30.0147 67.8942 28.3478 -8.6789 8.2699 10.9692
# 3 23.0899 28.3478 106.8469 -7.5684 13.9604 7.9664
# 4 -11.4182 -8.6789 -7.5684 26.9456 -3.9441 2.6215
# 5 15.1923 8.2699 13.9604 -3.9441 33.6780 2.6685
# 6 5.5306 10.9692 7.9664 2.6215 2.6685 25.3830
#
#
#
# Elastic Compliance Matrix: (Units=1/GPa)
#
#
# Indices 1 2 3 4 5 6 
#
# 1 0.032726 -0.011041 -0.002121 0.008388 -0.010071 -0.001501
# 2 -0.011041 0.022049 -0.003010 0.002458 0.001625 -0.006603
# 3 -0.002121 -0.003010 0.011156 0.001024 -0.002685 -0.001562
# 4 0.008388 0.002458 0.001024 0.042610 0.000788 -0.007695
# 5 -0.010071 0.001625 -0.002685 0.000788 0.035157 -0.001442
# 6 -0.001501 -0.006603 -0.001562 -0.007695 -0.001442 0.044014
#
#
# Mechanical properties :
#
#
# Convention : Reuss Voigt Hill
#
# Bulk Modulus (GPa) = 29.77201 43.07558 36.42379
# Shear Modulus (GPa) = 21.62156 26.75621 24.18888
#
# Velocity S-wave (km/s) = 3.40340 3.78601 3.59979
# Velocity P-wave (km/s) = 5.60300 6.49525 6.06555
#
# Compressibility (1/GPa) = 0.03358860
#
# Stress axis : x y z
#
# Youngs Moduli (GPa) = 30.55647 45.35260 89.63857
#
# Poissons Ratio (x) = 0.50072 0.19013
# Poissons Ratio (y) = 0.33736 0.26981
# Poissons Ratio (z) = 0.06481 0.13651
#
# Static dielectric constant tensor:
#      x y z
#    x 1.650930 -0.012220 0.017000 
#    y -0.012220 1.602460 0.007410 
#    z 0.017000 0.007410 1.719480 
# 
# From -- ./inp_files/270492.got.cif
#   From: 2010.05.17/outbox.cif.g08.bks.cpg/sg2_136_cif.got.tgz:270492.got - 2010.06.03 11:33:40.
