data_PCOD9086944
_publ_section_title
;
Structure prediction by ZEFSAII (Michael W. Deem and Ramdas Pophale) SiO2 
 PCOD9086944
Probable space group: P -1
;
_chemical_formula_sum "Si O2"
_cell_formula_units_Z 16
_cell_length_a 11.964229
_cell_length_b 8.406297
_cell_length_c 23.342986
_cell_angle_alpha 78.946457
_cell_angle_beta 153.763970
_cell_angle_gamma 115.768632
_cell_volume 810.549694
_symmetry_space_group_name_H-M "P -1"
_symmetry_group_IT_number 2
_symmetry_cell_setting 'triclinic'
loop_
_space_group_symop_operation_xyz
x,y,z
-x,-y,-z
loop_
_atom_site_type_symbol
_atom_site_label
_atom_site_fract_x
_atom_site_fract_y
_atom_site_fract_z
Si Si1 0.222103 0.873643 0.789552
Si Si2 0.867787 0.730467 0.967571
Si Si3 0.914629 0.887433 0.755029
Si Si4 0.843654 0.510740 0.371138
Si Si5 0.800206 0.453883 0.582809
Si Si6 0.584718 0.699062 0.189451
Si Si7 0.855326 0.998178 0.027824
Si Si8 0.204836 0.347820 0.833903
O O1 0.156562 0.882738 0.825639
O O2 0.901374 0.674676 0.630102
O O3 0.333997 0.084049 0.797283
O O4 0.505127 0.860585 0.904326
O O5 0.528905 0.678284 0.794903
O O6 0.768931 0.504674 0.945009
O O7 0.112670 0.869770 0.020912
O O8 0.944101 0.857036 0.052234
O O9 0.568880 0.723770 0.581669
O O10 0.930899 0.853824 0.831994
O O11 0.015519 0.114635 0.782450
O O12 0.814941 0.695721 0.340474
O O13 0.000000 0.500000 0.500000
O O14 0.037787 0.524606 0.404883
O O15 0.962069 0.401188 0.708610
O O16 0.657839 0.643082 0.166025
O O17 0.500000 0.500000 0.000000
#
# Coordination Sequence:
#
# PCOD9086944 Si02
#       8
#     2   2   2   2   2   2   2   2
#     4  11  21  38  55  81 123 156 184 241 292 347
#     4   9  19  36  59  85 110 142 207 243 279 336
#     4  11  23  35  57  88 117 152 196 232 291 353
#     4   9  17  36  60  80 111 149 190 238 287 333
#     4  11  21  37  58  84 119 154 191 235 291 342
#     4   8  19  34  54  86 112 147 186 239 284 341
#     4  11  20  36  61  84 110 157 197 242 290 337
#     4  10  19  36  61  85 115 148 194 242 283 340
#
# _framework density 19.739692000000002
#
# number of rings (size 3 to 8) (size 9 to 14) (size 15 to 20)
#    0.750    1.250    1.250    3.375    0.000    1.500 
#    0.000    0.625    0.000    0.000    0.000    0.000 
#    0.000    0.000    0.000    0.000    0.000    0.000 
#
# Total GULP energy -89137.632388 kJ/mol
# GULP energy per Si atom -5571.102024 kJ/mol
# Density = 1.969476 g / cm^3
# Si number density = 19.739692 Si / 1000 Ang^3
#
#
#
# Elastic Constant Matrix: (Units=GPa)
#
#
# Indices 1 2 3 4 5 6 
#
# 1 99.7524 27.9873 33.6089 -1.9456 -3.3591 -0.7719
# 2 27.9873 71.2287 21.4090 27.1373 -11.2524 -1.6534
# 3 33.6089 21.4090 115.3332 14.6244 -5.3919 -1.2198
# 4 -1.9456 27.1373 14.6244 33.3828 6.0428 -2.8289
# 5 -3.3591 -11.2524 -5.3919 6.0428 22.5330 -1.0447
# 6 -0.7719 -1.6534 -1.2198 -2.8289 -1.0447 16.1442
#
#
#
# Elastic Compliance Matrix: (Units=1/GPa)
#
#
# Indices 1 2 3 4 5 6 
#
# 1 0.014284 -0.010163 -0.004162 0.012306 -0.007195 0.001018
# 2 -0.010163 0.034358 0.002074 -0.034095 0.025229 -0.001152
# 3 -0.004162 0.002074 0.010684 -0.007526 0.004982 -0.000176
# 4 0.012306 -0.034095 -0.007526 0.068570 -0.035091 0.006272
# 5 -0.007195 0.025229 0.004982 -0.035091 0.066544 0.000774
# 6 0.001018 -0.001152 -0.000176 0.006272 0.000774 0.063008
#
#
# Mechanical properties :
#
#
# Convention : Reuss Voigt Hill
#
# Bulk Modulus (GPa) = 28.71537 50.25830 39.48683
# Shear Modulus (GPa) = 17.03249 27.96596 22.49923
#
# Velocity S-wave (km/s) = 2.94063 3.76804 3.37975
# Velocity P-wave (km/s) = 5.10963 6.66683 5.93948
#
# Compressibility (1/GPa) = 0.03482456
#
# Stress axis : x y z
#
# Youngs Moduli (GPa) = 70.00784 29.10543 93.60113
#
# Poissons Ratio (x) = 0.29580 0.38956
# Poissons Ratio (y) = 0.71149 -0.19417
# Poissons Ratio (z) = 0.29137 -0.06038
#
# Static dielectric constant tensor:
#      x y z
#    x 1.709860 0.004760 0.007240 
#    y 0.004760 1.755510 -0.004310 
#    z 0.007240 -0.004310 1.703560 
# 
# From -- ./inp_files/609837.got.cif
#   From: 2010.05.17/outbox.cif.g08.bks.cpg/sg2_305_cif.got.tgz:609837.got - 2010.06.03 11:33:40.
