data_PCOD9086949
_publ_section_title
;
Structure prediction by ZEFSAII (Michael W. Deem and Ramdas Pophale) SiO2 
 PCOD9086949
Probable space group: P -1
;
_chemical_formula_sum "Si O2"
_cell_formula_units_Z 12
_cell_length_a 11.482376
_cell_length_b 16.425100
_cell_length_c 8.296342
_cell_angle_alpha 39.494932
_cell_angle_beta 55.882607
_cell_angle_gamma 30.558950
_cell_volume 479.285912
_symmetry_space_group_name_H-M "P -1"
_symmetry_group_IT_number 2
_symmetry_cell_setting 'triclinic'
loop_
_space_group_symop_operation_xyz
x,y,z
-x,-y,-z
loop_
_atom_site_type_symbol
_atom_site_label
_atom_site_fract_x
_atom_site_fract_y
_atom_site_fract_z
Si Si1 0.892897 0.222533 0.862725
Si Si2 0.449349 0.872681 0.910340
Si Si3 0.892013 0.463417 0.035391
Si Si4 0.341946 0.064049 0.169734
Si Si5 0.489155 0.696823 0.486740
Si Si6 0.882442 0.188330 0.570812
O O1 0.738316 0.446301 0.724296
O O2 0.773721 0.271110 0.710439
O O3 0.926777 0.068804 0.173234
O O4 0.161102 0.073003 0.833349
O O5 0.527185 0.736781 0.220350
O O6 0.605253 0.695998 0.914377
O O7 0.538549 0.952446 0.745245
O O8 0.069455 0.319458 0.965861
O O9 0.956518 0.278028 0.345370
O O10 0.000000 0.500000 0.000000
O O11 0.375660 0.887445 0.399139
O O12 0.500000 0.000000 0.000000
O O13 0.303122 0.720358 0.559569
#
# Coordination Sequence:
#
# PCOD9086949 Si02
#       6
#     2   2   2   2   2   2
#     4  10  20  33  62  92 116 149 189 236 284 342
#     4   9  19  36  61  88 113 152 195 233 280 338
#     4  10  20  38  61  83 115 152 197 238 279 339
#     4   9  20  38  61  82 114 157 193 232 293 340
#     4  10  19  36  61  85 119 155 183 235 289 341
#     4  10  21  34  60  89 117 150 193 233 284 341
#
# _framework density 25.037248999999999
#
# number of rings (size 3 to 8) (size 9 to 14) (size 15 to 20)
#    0.000    2.333    1.667    0.500    4.667    1.333 
#    0.000    4.167   11.000    0.000    0.000    0.000 
#    0.000    0.000    0.000    0.000    0.000    0.000 
#
# Total GULP energy -66978.575111 kJ/mol
# GULP energy per Si atom -5581.547926 kJ/mol
# Density = 2.498026 g / cm^3
# Si number density = 25.037249 Si / 1000 Ang^3
#
#
#
# Elastic Constant Matrix: (Units=GPa)
#
#
# Indices 1 2 3 4 5 6 
#
# 1 98.8098 35.2565 58.0371 -19.1108 -30.2190 -19.6832
# 2 35.2565 117.4115 51.3475 -42.8729 -11.5229 2.5373
# 3 58.0371 51.3475 109.9835 -37.7806 -32.3228 -9.5903
# 4 -19.1108 -42.8729 -37.7806 55.1258 7.2868 -11.4213
# 5 -30.2190 -11.5229 -32.3228 7.2868 39.9286 2.5691
# 6 -19.6832 2.5373 -9.5903 -11.4213 2.5691 27.8208
#
#
#
# Elastic Compliance Matrix: (Units=1/GPa)
#
#
# Indices 1 2 3 4 5 6 
#
# 1 0.019500 -0.002001 -0.004131 0.003903 0.009268 0.013301
# 2 -0.002001 0.013003 -0.002868 0.007572 -0.001443 -0.000349
# 3 -0.004131 -0.002868 0.019435 0.009897 0.009508 0.007223
# 4 0.003903 0.007572 0.009897 0.035501 0.005413 0.019557
# 5 0.009268 -0.001443 0.009508 0.005413 0.037792 0.008699
# 6 0.013301 -0.000349 0.007223 0.019557 0.008699 0.055102
#
#
# Mechanical properties :
#
#
# Convention : Reuss Voigt Hill
#
# Bulk Modulus (GPa) = 29.46671 68.38744 48.92707
# Shear Modulus (GPa) = 23.84954 36.67928 30.26441
#
# Velocity S-wave (km/s) = 3.08971 3.83167 3.48052
# Velocity P-wave (km/s) = 4.95208 6.85195 5.97797
#
# Compressibility (1/GPa) = 0.03393661
#
# Stress axis : x y z
#
# Youngs Moduli (GPa) = 51.28157 76.90448 51.45345
#
# Poissons Ratio (x) = 0.15392 0.21257
# Poissons Ratio (y) = 0.10264 0.14758
# Poissons Ratio (z) = 0.21186 0.22057
#
# Static dielectric constant tensor:
#      x y z
#    x 2.069300 -0.011030 -0.005460 
#    y -0.011030 2.113880 0.011910 
#    z -0.005460 0.011910 1.990980 
# 
# From -- ./inp_files/361869.got.cif
#   From: 2010.05.17/outbox.cif.g08.bks.cpg/sg2_181_cif.got.tgz:361869.got - 2010.06.03 11:33:40.
