data_PCOD9086130
_publ_section_title
;
Structure prediction by ZEFSAII (Michael W. Deem and Ramdas Pophale) SiO2 
 PCOD9086130
Probable space group: P -1
;
_chemical_formula_sum "Si O2"
_cell_formula_units_Z 16
_cell_length_a 13.856530
_cell_length_b 12.215818
_cell_length_c 13.701044
_cell_angle_alpha 120.097985
_cell_angle_beta 159.183804
_cell_angle_gamma 61.038229
_cell_volume 712.135718
_symmetry_space_group_name_H-M "P -1"
_symmetry_group_IT_number 2
_symmetry_cell_setting 'triclinic'
loop_
_space_group_symop_operation_xyz
x,y,z
-x,-y,-z
loop_
_atom_site_type_symbol
_atom_site_label
_atom_site_fract_x
_atom_site_fract_y
_atom_site_fract_z
Si Si1 0.780833 0.513489 0.214404
Si Si2 0.817246 0.394286 0.728671
Si Si3 0.169651 0.697954 0.999061
Si Si4 0.642003 0.615268 0.552021
Si Si5 0.112014 0.127340 0.853439
Si Si6 0.932807 0.135826 0.195660
Si Si7 0.668680 0.038328 0.270937
Si Si8 0.360662 0.220497 0.770366
O O1 0.840994 0.413626 0.141893
O O2 0.747617 0.659502 0.217223
O O3 0.000000 0.500000 0.500000
O O4 0.500000 0.500000 0.000000
O O5 0.726323 0.464672 0.573047
O O6 0.548812 0.367249 0.525428
O O7 0.993835 0.264736 0.831351
O O8 0.000000 0.500000 0.000000
O O9 0.138151 0.829039 0.967484
O O10 0.920496 0.685225 0.832512
O O11 0.448894 0.665319 0.304501
O O12 0.954083 0.100211 0.589166
O O13 0.053655 0.011393 0.822497
O O14 0.436203 0.121604 0.146081
O O15 0.203743 0.207182 0.513094
O O16 0.682960 0.204628 0.051069
O O17 0.722117 0.904190 0.311478
O O18 0.500000 0.000000 0.000000
#
# Coordination Sequence:
#
# PCOD9086130 Si02
#       8
#     2   2   2   2   2   2   2   2
#     4  12  21  34  57  90 129 174 214 247 315 388
#     4  11  25  50  72  90 136 165 232 277 349 391
#     4  12  22  39  64  96 134 163 222 270 328 389
#     4  11  26  41  67  95 123 170 208 291 329 383
#     4  10  24  40  72  93 121 185 215 256 347 393
#     4  10  20  39  61  89 128 163 208 255 316 397
#     4  10  22  39  62  97 134 162 217 271 311 390
#     4  10  19  36  55  84 126 176 205 247 310 378
#
# _framework density 22.467625000000002
#
# number of rings (size 3 to 8) (size 9 to 14) (size 15 to 20)
#    0.000    1.250    3.750    1.875    3.500    2.000 
#    0.000    1.250    0.000    0.000    0.000    0.000 
#    0.000    0.000    0.000    0.000    0.000    0.000 
#
# Total GULP energy -89240.888019 kJ/mol
# GULP energy per Si atom -5577.555501 kJ/mol
# Density = 2.241649 g / cm^3
# Si number density = 22.467625 Si / 1000 Ang^3
#
#
#
# Elastic Constant Matrix: (Units=GPa)
#
#
# Indices 1 2 3 4 5 6 
#
# 1 41.1308 21.7698 9.0284 -2.2175 0.8147 11.7283
# 2 21.7698 128.7455 26.2070 -39.8147 -0.0920 -7.8258
# 3 9.0284 26.2070 119.0823 -14.9319 1.9417 -0.7784
# 4 -2.2175 -39.8147 -14.9319 26.8312 6.3957 -5.4571
# 5 0.8147 -0.0920 1.9417 6.3957 40.3760 -10.0924
# 6 11.7283 -7.8258 -0.7784 -5.4571 -10.0924 25.2840
#
#
#
# Elastic Compliance Matrix: (Units=1/GPa)
#
#
# Indices 1 2 3 4 5 6 
#
# 1 0.042975 -0.018466 -0.003316 -0.031643 -0.004312 -0.034302
# 2 -0.018466 0.024941 0.001251 0.041289 0.000152 0.025296
# 3 -0.003316 0.001251 0.009374 0.007698 -0.000702 0.003595
# 4 -0.031643 0.041289 0.007698 0.111496 -0.004845 0.049825
# 5 -0.004312 0.000152 -0.000702 -0.004845 0.028771 0.012464
# 6 -0.034302 0.025296 0.003595 0.049825 0.012464 0.079131
#
#
# Mechanical properties :
#
#
# Convention : Reuss Voigt Hill
#
# Bulk Modulus (GPa) = 27.60237 44.77434 36.18835
# Shear Modulus (GPa) = 14.29286 33.96180 24.12733
#
# Velocity S-wave (km/s) = 2.52494 3.89213 3.28055
# Velocity P-wave (km/s) = 4.56208 6.33797 5.52189
#
# Compressibility (1/GPa) = 0.03622877
#
# Stress axis : x y z
#
# Youngs Moduli (GPa) = 23.26954 40.09410 106.68046
#
# Poissons Ratio (x) = 0.74036 0.35377
# Poissons Ratio (y) = 0.42969 -0.13348
# Poissons Ratio (z) = 0.07716 -0.05017
#
# Static dielectric constant tensor:
#      x y z
#    x 1.986170 -0.009350 -0.202360 
#    y -0.009350 1.892320 0.056440 
#    z -0.202360 0.056440 2.109590 
# 
# From -- ./inp_files/532569.got.cif
#   From: 2010.05.17/outbox.cif.g08.bks.cpg/sg2_267_cif.got.tgz:532569.got - 2010.06.03 11:33:40.
