data_PCOD9086927
_publ_section_title
;
Structure prediction by ZEFSAII (Michael W. Deem and Ramdas Pophale) SiO2 
 PCOD9086927
Probable space group: P -1
;
_chemical_formula_sum "Si O2"
_cell_formula_units_Z 16
_cell_length_a 14.069874
_cell_length_b 13.073483
_cell_length_c 9.796029
_cell_angle_alpha 147.229788
_cell_angle_beta 106.404799
_cell_angle_gamma 56.279969
_cell_volume 740.092141
_symmetry_space_group_name_H-M "P -1"
_symmetry_group_IT_number 2
_symmetry_cell_setting 'triclinic'
loop_
_space_group_symop_operation_xyz
x,y,z
-x,-y,-z
loop_
_atom_site_type_symbol
_atom_site_label
_atom_site_fract_x
_atom_site_fract_y
_atom_site_fract_z
Si Si1 0.400482 0.594105 0.447231
Si Si2 0.526237 0.650795 0.086894
Si Si3 0.936310 0.789666 0.651502
Si Si4 0.822577 0.415288 0.665333
Si Si5 0.004828 0.718854 0.896964
Si Si6 0.252434 0.063096 0.473166
Si Si7 0.765427 0.919517 0.209564
Si Si8 0.808009 0.438516 0.992172
O O1 0.500000 0.500000 0.500000
O O2 0.279965 0.610931 0.461077
O O3 0.349313 0.853537 0.662231
O O4 0.458668 0.421341 0.145956
O O5 0.661248 0.568925 0.095018
O O6 0.400657 0.919651 0.353921
O O7 0.500000 0.500000 0.000000
O O8 0.053380 0.709154 0.513434
O O9 0.940668 0.556136 0.413923
O O10 0.956551 0.848226 0.876695
O O11 0.809850 0.972639 0.719254
O O12 0.761293 0.696833 0.962912
O O13 0.850234 0.321963 0.728451
O O14 0.108845 0.715441 0.017594
O O15 0.889703 0.829072 0.077053
O O16 0.232788 0.001090 0.546552
O O17 0.181783 0.345608 0.769291
#
# Coordination Sequence:
#
# PCOD9086927 Si02
#       8
#     2   2   2   2   2   2   2   2
#     4  11  25  41  58  85 120 155 196 242 287 345
#     4  11  22  39  55  82 117 152 195 239 284 342
#     4   9  18  34  59  89 118 146 190 242 290 343
#     4   9  20  40  61  86 115 152 196 236 289 349
#     4   9  18  34  59  90 116 146 190 243 292 340
#     4  10  19  36  61  84 113 156 193 235 288 344
#     4  10  20  39  62  85 116 154 193 237 293 342
#     4   9  19  36  60  85 113 150 196 238 284 349
#
# _framework density 21.618929999999999
#
# number of rings (size 3 to 8) (size 9 to 14) (size 15 to 20)
#    0.000    2.250    1.250    1.125    1.750    4.500 
#    2.250    2.500    0.000    0.000    0.000    0.000 
#    0.000    0.000    0.000    0.000    0.000    0.000 
#
# Total GULP energy -89355.111213 kJ/mol
# GULP energy per Si atom -5584.694451 kJ/mol
# Density = 2.156972 g / cm^3
# Si number density = 21.618930 Si / 1000 Ang^3
#
#
#
# Elastic Constant Matrix: (Units=GPa)
#
#
# Indices 1 2 3 4 5 6 
#
# 1 74.4552 54.0962 -1.4065 -26.4101 6.3359 -1.6277
# 2 54.0962 175.1954 28.0802 -36.7290 10.0332 -27.6750
# 3 -1.4065 28.0802 37.5047 0.7904 5.4811 -3.9702
# 4 -26.4101 -36.7290 0.7904 30.3600 2.6590 13.0257
# 5 6.3359 10.0332 5.4811 2.6590 24.8516 -1.1049
# 6 -1.6277 -27.6750 -3.9702 13.0257 -1.1049 29.9600
#
#
#
# Elastic Compliance Matrix: (Units=1/GPa)
#
#
# Indices 1 2 3 4 5 6 
#
# 1 0.025791 -0.005756 0.004637 0.021651 -0.008170 -0.013016
# 2 -0.005756 0.011073 -0.007736 0.006084 -0.001673 0.006184
# 3 0.004637 -0.007736 0.033438 -0.005703 -0.004831 -0.000161
# 4 0.021651 0.006084 -0.005703 0.071663 -0.015528 -0.025689
# 5 -0.008170 -0.001673 -0.004831 -0.015528 0.045983 0.005818
# 6 -0.013016 0.006184 -0.000161 -0.025689 0.005818 0.049745
#
#
# Mechanical properties :
#
#
# Convention : Reuss Voigt Hill
#
# Bulk Modulus (GPa) = 19.01413 49.85502 34.43457
# Shear Modulus (GPa) = 18.31945 30.79334 24.55640
#
# Velocity S-wave (km/s) = 2.91414 3.77818 3.37393
# Velocity P-wave (km/s) = 4.48744 6.49182 5.58036
#
# Compressibility (1/GPa) = 0.05259248
#
# Stress axis : x y z
#
# Youngs Moduli (GPa) = 38.77291 90.30817 29.90607
#
# Poissons Ratio (x) = 0.51981 -0.13866
# Poissons Ratio (y) = 0.22318 0.23134
# Poissons Ratio (z) = -0.17977 0.69859
#
# Static dielectric constant tensor:
#      x y z
#    x 1.764780 0.011090 0.038990 
#    y 0.011090 1.809080 0.017750 
#    z 0.038990 0.017750 1.835290 
# 
# From -- ./inp_files/185080.got.cif
#   From: 2010.05.17/outbox.cif.g08.bks.cpg/sg2_93_cif.got.tgz:185080.got - 2010.06.03 11:33:40.
