data_PCOD9086102
_publ_section_title
;
Structure prediction by ZEFSAII (Michael W. Deem and Ramdas Pophale) SiO2 
 PCOD9086102
Probable space group: P -1
;
_chemical_formula_sum "Si O2"
_cell_formula_units_Z 14
_cell_length_a 21.144038
_cell_length_b 8.139153
_cell_length_c 15.494778
_cell_angle_alpha 133.900262
_cell_angle_beta 160.680006
_cell_angle_gamma 45.091673
_cell_volume 620.598849
_symmetry_space_group_name_H-M "P -1"
_symmetry_group_IT_number 2
_symmetry_cell_setting 'triclinic'
loop_
_space_group_symop_operation_xyz
x,y,z
-x,-y,-z
loop_
_atom_site_type_symbol
_atom_site_label
_atom_site_fract_x
_atom_site_fract_y
_atom_site_fract_z
Si Si1 0.811792 0.630183 0.218557
Si Si2 0.428138 0.374876 0.259977
Si Si3 0.567314 0.668157 0.077912
Si Si4 0.281490 0.039145 0.476712
Si Si5 0.161272 0.864197 0.532338
Si Si6 0.012724 0.542899 0.778285
Si Si7 0.159112 0.654907 0.263225
O O1 0.958662 0.438063 0.281522
O O2 0.895616 0.857417 0.431728
O O3 0.643487 0.699642 0.953004
O O4 0.720198 0.552022 0.158770
O O5 0.618271 0.478076 0.522179
O O6 0.518372 0.151742 0.355038
O O7 0.225868 0.536799 0.091130
O O8 0.375776 0.790989 0.823426
O O9 0.500000 0.500000 0.000000
O O10 0.654444 0.849524 0.312607
O O11 0.171054 0.257500 0.357678
O O12 0.126803 0.879452 0.240447
O O13 0.163706 0.765733 0.403680
O O14 0.026843 0.714802 0.353820
O O15 0.000000 0.500000 0.000000
#
# Coordination Sequence:
#
# PCOD9086102 Si02
#       7
#     2   2   2   2   2   2   2
#     4  10  19  36  54  84 126 155 174 246 302 358
#     4   8  19  37  59  77 125 148 192 241 303 334
#     4  12  19  32  57  90 121 152 188 237 296 366
#     4  10  19  37  58  84 123 150 197 234 296 347
#     4  12  18  35  59  87 120 160 193 240 298 351
#     4  10  21  34  59  93 120 151 189 243 302 362
#     4  10  21  40  64  78 111 168 209 239 293 338
#
# _framework density 22.558855999999999
#
# number of rings (size 3 to 8) (size 9 to 14) (size 15 to 20)
#    1.714    0.000    5.714    0.857    0.000    0.571 
#    0.000    2.143    0.000    0.000    0.000    0.000 
#    0.000    0.000    0.000    0.000    0.000    0.000 
#
# Total GULP energy -77940.099303 kJ/mol
# GULP energy per Si atom -5567.149950 kJ/mol
# Density = 2.250751 g / cm^3
# Si number density = 22.558856 Si / 1000 Ang^3
#
#
#
# Elastic Constant Matrix: (Units=GPa)
#
#
# Indices 1 2 3 4 5 6 
#
# 1 76.3210 20.6247 10.2931 10.4582 -1.9678 -7.0137
# 2 20.6247 77.3531 47.1210 -8.1339 -4.0060 5.2981
# 3 10.2931 47.1210 134.5369 9.9257 -1.1940 -3.9640
# 4 10.4582 -8.1339 9.9257 48.2965 1.9868 4.8400
# 5 -1.9678 -4.0060 -1.1940 1.9868 32.1743 10.8349
# 6 -7.0137 5.2981 -3.9640 4.8400 10.8349 20.8203
#
#
#
# Elastic Compliance Matrix: (Units=1/GPa)
#
#
# Indices 1 2 3 4 5 6 
#
# 1 0.016525 -0.007161 0.001988 -0.006148 -0.003061 0.010790
# 2 -0.007161 0.022005 -0.008140 0.008149 0.006492 -0.014835
# 3 0.001988 -0.008140 0.010661 -0.004607 -0.002642 0.007217
# 4 -0.006148 0.008149 -0.004607 0.025488 0.003128 -0.012575
# 5 -0.003061 0.006492 -0.002642 0.003128 0.039683 -0.024564
# 6 0.010790 -0.014835 0.007217 -0.012575 -0.024564 0.072520
#
#
# Mechanical properties :
#
#
# Convention : Reuss Voigt Hill
#
# Bulk Modulus (GPa) = 44.31700 49.36538 46.84119
# Shear Modulus (GPa) = 22.62148 34.26972 28.44560
#
# Velocity S-wave (km/s) = 3.17010 3.90182 3.55484
# Velocity P-wave (km/s) = 5.75214 6.49842 6.13663
#
# Compressibility (1/GPa) = 0.02256470
#
# Stress axis : x y z
#
# Youngs Moduli (GPa) = 60.51515 45.44432 93.80122
#
# Poissons Ratio (x) = 0.32544 -0.18650
# Poissons Ratio (y) = 0.43337 0.76354
# Poissons Ratio (z) = -0.12032 0.36991
#
# Static dielectric constant tensor:
#      x y z
#    x 1.888730 0.005050 0.008370 
#    y 0.005050 1.905760 -0.031460 
#    z 0.008370 -0.031460 1.853230 
# 
# From -- ./inp_files/578978.got.cif
#   From: 2010.05.17/outbox.cif.g08.bks.cpg/sg2_290_cif.got.tgz:578978.got - 2010.06.03 11:33:40.
