data_PCOD9086281
_publ_section_title
;
Structure prediction by ZEFSAII (Michael W. Deem and Ramdas Pophale) SiO2 
 PCOD9086281
Probable space group: P -1
;
_chemical_formula_sum "Si O2"
_cell_formula_units_Z 14
_cell_length_a 8.528383
_cell_length_b 15.959482
_cell_length_c 4.949571
_cell_angle_alpha 64.480133
_cell_angle_beta 81.341560
_cell_angle_gamma 99.174856
_cell_volume 581.717341
_symmetry_space_group_name_H-M "P -1"
_symmetry_group_IT_number 2
_symmetry_cell_setting 'triclinic'
loop_
_space_group_symop_operation_xyz
x,y,z
-x,-y,-z
loop_
_atom_site_type_symbol
_atom_site_label
_atom_site_fract_x
_atom_site_fract_y
_atom_site_fract_z
Si Si1 0.592425 0.609164 0.921521
Si Si2 0.801652 0.408050 0.424120
Si Si3 0.635977 0.065189 0.669039
Si Si4 0.363626 0.121376 0.374775
Si Si5 0.001621 0.069951 0.655335
Si Si6 0.517474 0.719365 0.288664
Si Si7 0.164550 0.469029 0.283499
O O1 0.545533 0.685160 0.627195
O O2 0.773355 0.608820 0.791779
O O3 0.500000 0.500000 0.000000
O O4 0.572041 0.643734 0.177440
O O5 0.678550 0.307064 0.644534
O O6 0.748277 0.485814 0.526496
O O7 0.980654 0.416174 0.474944
O O8 0.818404 0.444677 0.060161
O O9 0.534230 0.138750 0.477904
O O10 0.828319 0.103066 0.662220
O O11 0.660414 0.990661 0.534595
O O12 0.500000 0.000000 0.000000
O O13 0.190540 0.136793 0.509790
O O14 0.398657 0.179997 0.004267
O O15 0.000000 0.000000 0.500000
O O16 0.000000 0.000000 0.000000
#
# Coordination Sequence:
#
# PCOD9086281 Si02
#       7
#     2   2   2   2   2   2   2
#     4  12  22  39  61  85 116 166 202 242 302 370
#     4  10  19  36  57  83 112 155 192 256 286 355
#     4  10  20  41  70  87 122 171 205 243 315 389
#     4  10  24  40  61  98 125 162 207 261 314 366
#     4  10  20  38  65  92 123 160 206 247 302 382
#     4  12  24  38  61  89 124 151 203 263 299 347
#     4  10  20  35  59  80 111 154 209 229 301 360
#
# _framework density 24.066672000000001
#
# number of rings (size 3 to 8) (size 9 to 14) (size 15 to 20)
#    0.000    1.429    4.286    1.286    2.000    0.000 
#    2.571    1.429    0.000    0.000    0.000    0.000 
#    0.000    0.000    0.000    0.000    0.000    0.000 
#
# Total GULP energy -77969.843562 kJ/mol
# GULP energy per Si atom -5569.274540 kJ/mol
# Density = 2.401190 g / cm^3
# Si number density = 24.066672 Si / 1000 Ang^3
#
#
#
# Elastic Constant Matrix: (Units=GPa)
#
#
# Indices 1 2 3 4 5 6 
#
# 1 162.6530 8.7064 17.9359 -13.5464 -20.9678 -11.6731
# 2 8.7064 57.4767 1.0009 3.7937 1.3843 -8.1796
# 3 17.9359 1.0009 90.2113 -0.6232 -3.6865 8.7836
# 4 -13.5464 3.7937 -0.6232 41.4825 -2.5586 1.6816
# 5 -20.9678 1.3843 -3.6865 -2.5586 39.0465 2.3182
# 6 -11.6731 -8.1796 8.7836 1.6816 2.3182 27.9843
#
#
#
# Elastic Compliance Matrix: (Units=1/GPa)
#
#
# Indices 1 2 3 4 5 6 
#
# 1 0.007268 -0.000940 -0.001532 0.002558 0.003795 0.002770
# 2 -0.000940 0.018531 -0.000641 -0.002340 -0.001703 0.005507
# 3 -0.001532 -0.000641 0.011868 -0.000040 0.000591 -0.004598
# 4 0.002558 -0.002340 -0.000040 0.025409 0.003201 -0.001396
# 5 0.003795 -0.001703 0.000591 0.003201 0.028070 -0.001618
# 6 0.002770 0.005507 -0.004598 -0.001396 -0.001618 0.040160
#
#
# Mechanical properties :
#
#
# Convention : Reuss Voigt Hill
#
# Bulk Modulus (GPa) = 31.80399 40.62523 36.21461
# Shear Modulus (GPa) = 33.78065 40.54918 37.16492
#
# Velocity S-wave (km/s) = 3.75057 4.10917 3.93396
# Velocity P-wave (km/s) = 5.65679 6.27938 5.97620
#
# Compressibility (1/GPa) = 0.03144259
#
# Stress axis : x y z
#
# Youngs Moduli (GPa) = 137.58314 53.96330 84.25837
#
# Poissons Ratio (x) = 0.05075 0.12905
# Poissons Ratio (y) = 0.12939 0.05397
# Poissons Ratio (z) = 0.21072 0.03457
#
# Static dielectric constant tensor:
#      x y z
#    x 2.142190 -0.001280 0.014420 
#    y -0.001280 2.038590 0.058040 
#    z 0.014420 0.058040 1.980940 
# 
# From -- ./inp_files/46221.got.cif
#   From: 2010.05.17/outbox.cif.g08.bks.cpg/sg2_24_cif.got.tgz:46221.got - 2010.06.03 11:33:40.
