data_PCOD9086144
_publ_section_title
;
Structure prediction by ZEFSAII (Michael W. Deem and Ramdas Pophale) SiO2 
 PCOD9086144
Probable space group: P -1
;
_chemical_formula_sum "Si O2"
_cell_formula_units_Z 16
_cell_length_a 6.580724
_cell_length_b 5.246243
_cell_length_c 24.022391
_cell_angle_alpha 120.228867
_cell_angle_beta 112.407461
_cell_angle_gamma 93.099169
_cell_volume 630.280556
_symmetry_space_group_name_H-M "P -1"
_symmetry_group_IT_number 2
_symmetry_cell_setting 'triclinic'
loop_
_space_group_symop_operation_xyz
x,y,z
-x,-y,-z
loop_
_atom_site_type_symbol
_atom_site_label
_atom_site_fract_x
_atom_site_fract_y
_atom_site_fract_z
Si Si1 0.176266 0.590256 0.859340
Si Si2 0.160693 0.324039 0.527493
Si Si3 0.532806 0.879799 0.776917
Si Si4 0.084661 0.659554 0.653823
Si Si5 0.303202 0.721084 0.272048
Si Si6 0.224747 0.980985 0.399506
Si Si7 0.060001 0.653613 0.082260
Si Si8 0.358286 0.217530 0.914462
O O1 0.317086 0.358954 0.867645
O O2 0.975004 0.441066 0.777462
O O3 0.034745 0.585245 0.902854
O O4 0.382501 0.886445 0.893162
O O5 0.242410 0.538431 0.613064
O O6 0.000000 0.500000 0.500000
O O7 0.000000 0.000000 0.500000
O O8 0.317156 0.225328 0.486693
O O9 0.259783 0.811524 0.737380
O O10 0.584280 0.553911 0.752938
O O11 0.637558 0.047410 0.748275
O O12 0.678390 0.136204 0.863507
O O13 0.892595 0.354111 0.622113
O O14 0.964626 0.886250 0.636131
O O15 0.377845 0.913978 0.358304
O O16 0.908516 0.882797 0.100906
O O17 0.000000 0.500000 0.000000
O O18 0.500000 0.500000 0.000000
#
# Coordination Sequence:
#
# PCOD9086144 Si02
#       8
#     2   2   2   2   2   2   2   2
#     4   9  19  36  54  73 105 139 172 218 279 318
#     4   8  16  32  55  79 114 146 177 226 280 316
#     4  11  22  39  57  81 116 152 178 231 293 330
#     4  10  20  37  58  87 113 144 189 234 271 325
#     4  11  20  39  58  78 114 155 182 220 282 342
#     4  10  20  36  59  86 110 149 193 227 265 331
#     4   9  21  38  55  76 105 143 181 223 276 335
#     4  10  19  36  56  76 100 136 182 218 277 325
#
# _framework density 25.385522999999999
#
# number of rings (size 3 to 8) (size 9 to 14) (size 15 to 20)
#    0.750    1.500    1.250    1.875    0.000    0.500 
#    4.500    1.250    0.000    0.000    0.000    0.000 
#    0.000    0.000    0.000    0.000    0.000    0.000 
#
# Total GULP energy -89273.099926 kJ/mol
# GULP energy per Si atom -5579.568745 kJ/mol
# Density = 2.532774 g / cm^3
# Si number density = 25.385523 Si / 1000 Ang^3
#
#
#
# Elastic Constant Matrix: (Units=GPa)
#
#
# Indices 1 2 3 4 5 6 
#
# 1 38.0308 19.3851 -7.8864 3.9052 5.8003 8.8979
# 2 19.3851 125.8317 37.7543 9.1279 -2.8785 12.9820
# 3 -7.8864 37.7543 71.8585 6.2092 -7.4270 6.0069
# 4 3.9052 9.1279 6.2092 28.9163 2.6268 -0.3706
# 5 5.8003 -2.8785 -7.4270 2.6268 32.3388 -5.8677
# 6 8.8979 12.9820 6.0069 -0.3706 -5.8677 44.0999
#
#
#
# Elastic Compliance Matrix: (Units=1/GPa)
#
#
# Indices 1 2 3 4 5 6 
#
# 1 0.034125 -0.006689 0.007530 -0.003663 -0.005916 -0.006760
# 2 -0.006689 0.011076 -0.006289 -0.001316 0.000671 -0.000976
# 3 0.007530 -0.006289 0.018731 -0.003288 0.002307 -0.001940
# 4 -0.003663 -0.001316 -0.003288 0.036482 -0.002908 0.001494
# 5 -0.005916 0.000671 0.002307 -0.002908 0.033743 0.005147
# 6 -0.006760 -0.000976 -0.001940 0.001494 0.005147 0.025289
#
#
# Mechanical properties :
#
#
# Convention : Reuss Voigt Hill
#
# Bulk Modulus (GPa) = 18.85468 37.13633 27.99550
# Shear Modulus (GPa) = 26.59282 33.50221 30.04752
#
# Velocity S-wave (km/s) = 3.24011 3.63676 3.44415
# Velocity P-wave (km/s) = 4.63047 5.68290 5.18346
#
# Compressibility (1/GPa) = 0.05303724
#
# Stress axis : x y z
#
# Youngs Moduli (GPa) = 29.30391 90.28622 53.38638
#
# Poissons Ratio (x) = 0.60388 -0.40198
# Poissons Ratio (y) = 0.19600 0.33573
# Poissons Ratio (z) = -0.22065 0.56778
#
# Static dielectric constant tensor:
#      x y z
#    x 2.065460 0.062620 -0.039870 
#    y 0.062620 2.248310 0.133500 
#    z -0.039870 0.133500 2.192950 
# 
# From -- ./inp_files/616290.got.cif
#   From: 2010.05.17/outbox.cif.g08.bks.cpg/sg2_309_cif.got.tgz:616290.got - 2010.06.03 11:33:40.
