data_PCOD9086159
_publ_section_title
;
Structure prediction by ZEFSAII (Michael W. Deem and Ramdas Pophale) SiO2 
 PCOD9086159
Probable space group: P -1
;
_chemical_formula_sum "Si O2"
_cell_formula_units_Z 12
_cell_length_a 5.497685
_cell_length_b 22.727403
_cell_length_c 7.417409
_cell_angle_alpha 143.730890
_cell_angle_beta 111.752123
_cell_angle_gamma 68.725054
_cell_volume 505.758479
_symmetry_space_group_name_H-M "P -1"
_symmetry_group_IT_number 2
_symmetry_cell_setting 'triclinic'
loop_
_space_group_symop_operation_xyz
x,y,z
-x,-y,-z
loop_
_atom_site_type_symbol
_atom_site_label
_atom_site_fract_x
_atom_site_fract_y
_atom_site_fract_z
Si Si1 0.779839 0.697365 0.826997
Si Si2 0.975889 0.840456 0.646298
Si Si3 0.544938 0.802639 0.673022
Si Si4 0.649036 0.340457 0.146295
Si Si5 0.667663 0.011896 0.754689
Si Si6 0.448661 0.488101 0.745304
O O1 0.611845 0.750005 0.750020
O O2 0.600710 0.714823 0.998760
O O3 0.796651 0.576979 0.505973
O O4 0.072644 0.724868 0.960507
O O5 0.246422 0.785175 0.501247
O O6 0.786739 0.775134 0.539505
O O7 0.102803 0.913947 0.007688
O O8 0.808655 0.910710 0.629695
O O9 0.521608 0.923025 0.994034
O O10 0.663042 0.413944 0.507682
O O11 0.588914 0.410714 0.129706
O O12 0.500000 0.000000 0.500000
O O13 0.500000 0.500000 0.000000
#
# Coordination Sequence:
#
# PCOD9086159 Si02
#       6
#     2   2   2   2   2   2
#     4  10  19  36  56  79 111 147 178 228 286 319
#     4   9  20  36  56  79 110 143 187 222 274 333
#     4  10  19  36  56  79 111 147 178 228 286 319
#     4   9  20  36  56  79 110 143 187 222 274 333
#     4   9  20  36  58  82 107 147 188 227 271 334
#     4   9  20  36  58  82 107 147 188 227 271 334
#
# _framework density 23.726742000000002
#
# number of rings (size 3 to 8) (size 9 to 14) (size 15 to 20)
#    2.000    0.667    0.000    2.000    0.000    1.333 
#    0.000    3.333    0.000    0.000    0.000    0.000 
#    0.000    0.000    0.000    0.000    0.000    0.000 
#
# Total GULP energy -66841.718422 kJ/mol
# GULP energy per Si atom -5570.143202 kJ/mol
# Density = 2.367274 g / cm^3
# Si number density = 23.726742 Si / 1000 Ang^3
#
#
#
# Elastic Constant Matrix: (Units=GPa)
#
#
# Indices 1 2 3 4 5 6 
#
# 1 127.1800 41.3795 57.7046 -6.0110 -56.0898 -14.3573
# 2 41.3795 123.4289 37.1903 -32.2100 -0.7587 -6.4490
# 3 57.7046 37.1903 98.8226 -34.0517 40.2011 0.2843
# 4 -6.0110 -32.2100 -34.0517 40.8276 8.8881 1.2424
# 5 -56.0898 -0.7587 40.2011 8.8881 -39.1215 -12.8928
# 6 -14.3573 -6.4490 0.2843 1.2424 -12.8928 35.2725
#
#
#
# Elastic Compliance Matrix: (Units=1/GPa)
#
#
# Indices 1 2 3 4 5 6 
#
# 1 0.005295 -0.001667 0.000629 0.001402 -0.006414 -0.000548
# 2 -0.001667 0.010973 -0.001491 0.006763 0.001623 0.001695
# 3 0.000629 -0.001491 0.008519 0.004208 0.007955 0.002674
# 4 0.001402 0.006763 0.004208 0.031655 0.008173 0.003646
# 5 -0.006414 0.001623 0.007955 0.008173 -0.004897 -0.004456
# 6 -0.000548 0.001695 0.002674 0.003646 -0.004456 0.026659
#
#
# Mechanical properties :
#
#
# Convention : Reuss Voigt Hill
#
# Bulk Modulus (GPa) = 50.68362 69.10894 59.89628
# Shear Modulus (GPa) = 55.65506 21.60619 38.63063
#
# Velocity S-wave (km/s) = 4.84846 3.02093 4.03941
# Velocity P-wave (km/s) = 7.26300 6.43104 6.85965
#
# Compressibility (1/GPa) = 0.01973024
#
# Stress axis : x y z
#
# Youngs Moduli (GPa) = 188.84326 91.12916 117.38607
#
# Poissons Ratio (x) = 0.15191 -0.07386
# Poissons Ratio (y) = 0.31480 0.17502
# Poissons Ratio (z) = -0.11883 0.13587
#
# Static dielectric constant tensor:
#      x y z
#    x 1.944290 -0.003310 0.012130 
#    y -0.003310 1.864640 0.018480 
#    z 0.012130 0.018480 1.984180 
# 
# From -- ./inp_files/13720.got.cif
#   From: 2010.05.17/outbox.cif.g08.bks.cpg/sg2_7_cif.got.tgz:13720.got - 2010.06.03 11:33:40.
