data_PCOD9086897
_publ_section_title
;
Structure prediction by ZEFSAII (Michael W. Deem and Ramdas Pophale) SiO2 
 PCOD9086897
Probable space group: P -1
;
_chemical_formula_sum "Si O2"
_cell_formula_units_Z 14
_cell_length_a 10.724746
_cell_length_b 7.592419
_cell_length_c 12.594657
_cell_angle_alpha 56.671377
_cell_angle_beta 134.875826
_cell_angle_gamma 98.510380
_cell_volume 555.237539
_symmetry_space_group_name_H-M "P -1"
_symmetry_group_IT_number 2
_symmetry_cell_setting 'triclinic'
loop_
_space_group_symop_operation_xyz
x,y,z
-x,-y,-z
loop_
_atom_site_type_symbol
_atom_site_label
_atom_site_fract_x
_atom_site_fract_y
_atom_site_fract_z
Si Si1 0.038365 0.714677 0.496609
Si Si2 0.467603 0.372318 0.900929
Si Si3 0.179659 0.514336 0.981609
Si Si4 0.542261 0.056894 0.840589
Si Si5 0.175985 0.228481 0.439256
Si Si6 0.939528 0.014549 0.129802
Si Si7 0.279961 0.059579 0.328353
O O1 0.265836 0.596889 0.698891
O O2 0.000000 0.500000 0.500000
O O3 0.915185 0.822312 0.492083
O O4 0.949454 0.893266 0.289099
O O5 0.490361 0.229862 0.852235
O O6 0.645448 0.449729 0.984436
O O7 0.474907 0.179418 0.055612
O O8 0.002806 0.546640 0.785671
O O9 0.118780 0.715941 0.967995
O O10 0.231089 0.283035 0.152696
O O11 0.387578 0.196229 0.612705
O O12 0.764615 0.995034 0.968615
O O13 0.212391 0.078015 0.405352
O O14 0.160126 0.921119 0.253410
O O15 0.500000 0.000000 0.500000
#
# Coordination Sequence:
#
# PCOD9086897 Si02
#       7
#     2   2   2   2   2   2   2
#     4  12  21  37  65 102 132 160 202 262 324 375
#     4  10  20  37  62  92 135 163 199 258 321 366
#     4  10  23  43  65  88 128 172 212 259 308 373
#     4  10  19  36  60  97 127 163 202 258 319 373
#     4  11  23  39  66  95 128 165 213 259 314 379
#     4  10  21  40  68  91 133 164 203 266 321 364
#     4  11  25  48  66  87 124 172 218 262 308 370
#
# _framework density 25.214431999999999
#
# number of rings (size 3 to 8) (size 9 to 14) (size 15 to 20)
#    0.000    1.429    2.857    4.286    0.000    6.857 
#    0.000    7.143    0.000    0.000    0.000    0.000 
#    0.000    0.000    0.000    0.000    0.000    0.000 
#
# Total GULP energy -78136.062224 kJ/mol
# GULP energy per Si atom -5581.147302 kJ/mol
# Density = 2.515704 g / cm^3
# Si number density = 25.214432 Si / 1000 Ang^3
#
#
#
# Elastic Constant Matrix: (Units=GPa)
#
#
# Indices 1 2 3 4 5 6 
#
# 1 102.4602 42.9029 52.4182 18.8849 16.8435 18.9309
# 2 42.9029 73.5375 52.1511 17.9000 -4.7015 14.3971
# 3 52.4182 52.1511 220.4986 30.4272 15.9676 37.6178
# 4 18.8849 17.9000 30.4272 35.7833 15.2180 6.9359
# 5 16.8435 -4.7015 15.9676 15.2180 57.2497 10.4890
# 6 18.9309 14.3971 37.6178 6.9359 10.4890 42.8605
#
#
#
# Elastic Compliance Matrix: (Units=1/GPa)
#
#
# Indices 1 2 3 4 5 6 
#
# 1 0.014575 -0.007447 -0.000927 -0.001101 -0.003988 -0.001968
# 2 -0.007447 0.022662 -0.002605 -0.007809 0.007324 -0.002566
# 3 -0.000927 -0.002605 0.006436 -0.002815 -0.000284 -0.003839
# 4 -0.001101 -0.007809 -0.002815 0.038808 -0.010176 0.001790
# 5 -0.003988 0.007324 -0.000284 -0.010176 0.022831 -0.004390
# 6 -0.001968 -0.002566 -0.003839 0.001790 -0.004390 0.029217
#
#
# Mechanical properties :
#
#
# Convention : Reuss Voigt Hill
#
# Bulk Modulus (GPa) = 46.05252 76.82674 61.43963
# Shear Modulus (GPa) = 30.53947 43.78029 37.15988
#
# Velocity S-wave (km/s) = 3.48399 4.17144 3.84312
# Velocity P-wave (km/s) = 5.87267 7.33053 6.64172
#
# Compressibility (1/GPa) = 0.02171434
#
# Stress axis : x y z
#
# Youngs Moduli (GPa) = 68.61238 44.12705 155.38730
#
# Poissons Ratio (x) = 0.32863 0.14402
# Poissons Ratio (y) = 0.51098 0.40472
# Poissons Ratio (z) = 0.06359 0.11493
#
# Static dielectric constant tensor:
#      x y z
#    x 2.115090 -0.021100 0.135580 
#    y -0.021100 1.969310 0.040880 
#    z 0.135580 0.040880 2.026050 
# 
# From -- ./inp_files/515107.got.cif
#   From: 2010.05.17/outbox.cif.g08.bks.cpg/sg2_258_cif.got.tgz:515107.got - 2010.06.03 11:33:40.
