data_PCOD9086806
_publ_section_title
;
Structure prediction by ZEFSAII (Michael W. Deem and Ramdas Pophale) SiO2 
 PCOD9086806
Probable space group: P -1
;
_chemical_formula_sum "Si O2"
_cell_formula_units_Z 16
_cell_length_a 7.776534
_cell_length_b 15.065775
_cell_length_c 10.794396
_cell_angle_alpha 138.790946
_cell_angle_beta 100.718100
_cell_angle_gamma 105.505794
_cell_volume 636.323528
_symmetry_space_group_name_H-M "P -1"
_symmetry_group_IT_number 2
_symmetry_cell_setting 'triclinic'
loop_
_space_group_symop_operation_xyz
x,y,z
-x,-y,-z
loop_
_atom_site_type_symbol
_atom_site_label
_atom_site_fract_x
_atom_site_fract_y
_atom_site_fract_z
Si Si1 0.943315 0.786061 0.695555
Si Si2 0.127959 0.686211 0.778639
Si Si3 0.616877 0.939104 0.081239
Si Si4 0.448449 0.561655 0.429328
Si Si5 0.744913 0.950410 0.508541
Si Si6 0.292146 0.812429 0.427531
Si Si7 0.238542 0.221970 0.902515
Si Si8 0.044769 0.561373 0.322764
O O1 0.981298 0.746590 0.797541
O O2 0.955390 0.656928 0.474339
O O3 0.696661 0.726387 0.591140
O O4 0.168004 0.973531 0.885533
O O5 0.000000 0.500000 0.500000
O O6 0.135753 0.641638 0.874818
O O7 0.360622 0.828769 0.890311
O O8 0.612381 0.805257 0.024249
O O9 0.651015 0.080648 0.325895
O O10 0.500000 0.500000 0.500000
O O11 0.276174 0.603672 0.450528
O O12 0.331972 0.410648 0.151822
O O13 0.514999 0.848101 0.445618
O O14 0.741203 0.819349 0.279563
O O15 0.765090 0.096191 0.580183
O O16 0.977461 0.065262 0.735139
O O17 0.095719 0.620378 0.249425
#
# Coordination Sequence:
#
# PCOD9086806 Si02
#       8
#     2   2   2   2   2   2   2   2
#     4  10  22  41  61  91 136 175 221 267 316 396
#     4  10  19  36  60  88 133 175 211 260 322 390
#     4  10  21  37  68  91 124 175 217 272 331 385
#     4  12  25  42  65 100 138 176 216 263 337 398
#     4   9  20  42  68  90 132 167 225 277 323 383
#     4   9  20  40  67  93 120 171 223 270 325 395
#     4  10  22  40  65  94 129 175 212 276 332 382
#     4  10  22  39  65  92 135 174 209 275 322 397
#
# _framework density 25.144439999999999
#
# number of rings (size 3 to 8) (size 9 to 14) (size 15 to 20)
#    0.000    2.000    1.250    1.875    5.250    0.000 
#    2.250    1.875    0.000    0.000    0.000    0.000 
#    0.000    0.000    0.000    0.000    0.000    0.000 
#
# Total GULP energy -89293.781462 kJ/mol
# GULP energy per Si atom -5580.861341 kJ/mol
# Density = 2.508721 g / cm^3
# Si number density = 25.144440 Si / 1000 Ang^3
#
#
#
# Elastic Constant Matrix: (Units=GPa)
#
#
# Indices 1 2 3 4 5 6 
#
# 1 122.9392 7.5971 25.2240 4.8014 9.7377 19.7782
# 2 7.5971 92.8097 4.5232 15.7815 -2.3694 25.5759
# 3 25.2240 4.5232 74.2583 -4.8409 -13.8870 9.1101
# 4 4.8014 15.7815 -4.8409 23.7739 12.2624 13.4713
# 5 9.7377 -2.3694 -13.8870 12.2624 39.9055 4.1224
# 6 19.7782 25.5759 9.1101 13.4713 4.1224 38.8483
#
#
#
# Elastic Compliance Matrix: (Units=1/GPa)
#
#
# Indices 1 2 3 4 5 6 
#
# 1 0.009748 0.000252 -0.003332 0.001570 -0.003539 -0.004516
# 2 0.000252 0.014089 0.000208 -0.007142 0.003804 -0.007380
# 3 -0.003332 0.000208 0.016394 0.003023 0.006012 -0.003971
# 4 0.001570 -0.007142 0.003023 0.066818 -0.018426 -0.018021
# 5 -0.003539 0.003804 0.006012 -0.018426 0.033832 0.000687
# 6 -0.004516 -0.007380 -0.003971 -0.018021 0.000687 0.040006
#
#
# Mechanical properties :
#
#
# Convention : Reuss Voigt Hill
#
# Bulk Modulus (GPa) = 28.99774 40.52177 34.75975
# Shear Modulus (GPa) = 25.23626 37.34972 31.29299
#
# Velocity S-wave (km/s) = 3.17148 3.85828 3.53162
# Velocity P-wave (km/s) = 4.99686 5.99992 5.52121
#
# Compressibility (1/GPa) = 0.03448545
#
# Stress axis : x y z
#
# Youngs Moduli (GPa) = 102.58846 70.97651 60.99755
#
# Poissons Ratio (x) = -0.01786 0.20324
# Poissons Ratio (y) = -0.02581 -0.01266
# Poissons Ratio (z) = 0.34181 -0.01473
#
# Static dielectric constant tensor:
#      x y z
#    x 1.971230 0.009940 -0.023740 
#    y 0.009940 2.145620 0.033590 
#    z -0.023740 0.033590 2.062230 
# 
# From -- ./inp_files/402376.got.cif
#   From: 2010.05.17/outbox.cif.g08.bks.cpg/sg2_202_cif.got.tgz:402376.got - 2010.06.03 11:33:40.
