data_PCOD9086526
_publ_section_title
;
Structure prediction by ZEFSAII (Michael W. Deem and Ramdas Pophale) SiO2 
 PCOD9086526
Probable space group: P -1
;
_chemical_formula_sum "Si O2"
_cell_formula_units_Z 14
_cell_length_a 6.788689
_cell_length_b 15.764174
_cell_length_c 19.870208
_cell_angle_alpha 20.658272
_cell_angle_beta 52.859607
_cell_angle_gamma 45.211125
_cell_volume 519.216097
_symmetry_space_group_name_H-M "P -1"
_symmetry_group_IT_number 2
_symmetry_cell_setting 'triclinic'
loop_
_space_group_symop_operation_xyz
x,y,z
-x,-y,-z
loop_
_atom_site_type_symbol
_atom_site_label
_atom_site_fract_x
_atom_site_fract_y
_atom_site_fract_z
Si Si1 0.379306 0.857434 0.032876
Si Si2 0.065352 0.172417 0.990821
Si Si3 0.084533 0.287630 0.432846
Si Si4 0.495582 0.665205 0.541693
Si Si5 0.277198 0.680153 0.855555
Si Si6 0.649258 0.810575 0.879412
Si Si7 0.182983 0.632167 0.433637
O O1 0.646867 0.852686 0.019432
O O2 0.435431 0.544938 0.255720
O O3 0.412702 0.941932 0.888655
O O4 0.128305 0.046928 0.995132
O O5 0.861273 0.499855 0.779758
O O6 0.026946 0.958242 0.204159
O O7 0.791421 0.316351 0.442925
O O8 0.006632 0.386429 0.453678
O O9 0.288565 0.959225 0.632454
O O10 0.734215 0.516561 0.545309
O O11 0.424245 0.980895 0.323018
O O12 0.950562 0.762734 0.881020
O O13 0.500000 0.500000 0.000000
O O14 0.323106 0.476587 0.935097
O O15 0.500000 0.500000 0.500000
#
# Coordination Sequence:
#
# PCOD9086526 Si02
#       7
#     2   2   2   2   2   2   2
#     4   9  15  26  50  83 109 133 170 212 264 327
#     4   9  15  24  46  83 113 132 168 217 262 323
#     4   9  16  28  46  70 104 141 173 214 265 309
#     4   8  15  26  48  82 106 128 170 214 260 326
#     4  10  22  38  55  77 104 141 191 228 256 309
#     4  10  19  36  59  76 104 144 174 219 274 306
#     4   9  14  23  45  78 109 134 167 211 265 324
#
# _framework density 26.963725
#
# number of rings (size 3 to 8) (size 9 to 14) (size 15 to 20)
#    0.000    2.857    0.000    6.000    0.000    0.000 
#    0.000   12.857    0.000   24.857    0.000   14.000 
#    0.000    0.000    0.000    0.000    0.000    0.000 
#
# Total GULP energy -78301.224040 kJ/mol
# GULP energy per Si atom -5592.944574 kJ/mol
# Density = 2.690235 g / cm^3
# Si number density = 26.963725 Si / 1000 Ang^3
#
#
#
# Elastic Constant Matrix: (Units=GPa)
#
#
# Indices 1 2 3 4 5 6 
#
# 1 108.4239 13.9499 25.6627 5.3151 11.7441 -15.6401
# 2 13.9499 57.7844 23.4382 -2.7875 -9.8488 4.2819
# 3 25.6627 23.4382 228.8942 4.4313 4.2250 -8.4692
# 4 5.3151 -2.7875 4.4313 36.3183 -2.6125 -4.3868
# 5 11.7441 -9.8488 4.2250 -2.6125 30.2982 2.2801
# 6 -15.6401 4.2819 -8.4692 -4.3868 2.2801 43.3757
#
#
#
# Elastic Compliance Matrix: (Units=1/GPa)
#
#
# Indices 1 2 3 4 5 6 
#
# 1 0.011249 -0.003944 -0.000545 -0.001777 -0.006056 0.004477
# 2 -0.003944 0.021111 -0.002093 0.002617 0.009220 -0.004135
# 3 -0.000545 -0.002093 0.004714 -0.000633 -0.001251 0.000932
# 4 -0.001777 0.002617 -0.000633 0.028558 0.003966 0.001657
# 5 -0.006056 0.009220 -0.001251 0.003966 0.039243 -0.005000
# 6 0.004477 -0.004135 0.000932 0.001657 -0.005000 0.025689
#
#
# Mechanical properties :
#
#
# Convention : Reuss Voigt Hill
#
# Bulk Modulus (GPa) = 41.82686 57.91157 49.86921
# Shear Modulus (GPa) = 32.96007 44.13523 38.54765
#
# Velocity S-wave (km/s) = 3.50006 4.05017 3.78512
# Velocity P-wave (km/s) = 5.64622 6.58757 6.13498
#
# Compressibility (1/GPa) = 0.02390808
#
# Stress axis : x y z
#
# Youngs Moduli (GPa) = 88.90004 47.36864 212.12580
#
# Poissons Ratio (x) = 0.18683 0.11570
# Poissons Ratio (y) = 0.35063 0.44405
# Poissons Ratio (z) = 0.04849 0.09916
#
# Static dielectric constant tensor:
#      x y z
#    x 2.213320 -0.013410 -0.021610 
#    y -0.013410 2.073930 -0.047740 
#    z -0.021610 -0.047740 2.053700 
# 
# From -- ./inp_files/590688.got.cif
#   From: 2010.05.17/outbox.cif.g08.bks.cpg/sg2_296_cif.got.tgz:590688.got - 2010.06.03 11:33:40.
