data_PCOD9086691
_publ_section_title
;
Structure prediction by ZEFSAII (Michael W. Deem and Ramdas Pophale) SiO2 
 PCOD9086691
Probable space group: P -1
;
_chemical_formula_sum "Si O2"
_cell_formula_units_Z 16
_cell_length_a 11.565704
_cell_length_b 8.452598
_cell_length_c 18.195557
_cell_angle_alpha 116.323211
_cell_angle_beta 158.000290
_cell_angle_gamma 59.534013
_cell_volume 572.377734
_symmetry_space_group_name_H-M "P -1"
_symmetry_group_IT_number 2
_symmetry_cell_setting 'triclinic'
loop_
_space_group_symop_operation_xyz
x,y,z
-x,-y,-z
loop_
_atom_site_type_symbol
_atom_site_label
_atom_site_fract_x
_atom_site_fract_y
_atom_site_fract_z
Si Si1 0.064801 0.116490 0.462568
Si Si2 0.860704 0.608886 0.222963
Si Si3 0.386305 0.767226 0.646370
Si Si4 0.347693 0.609050 0.218665
Si Si5 0.634305 0.748270 0.551394
Si Si6 0.908593 0.888154 0.200112
Si Si7 0.953710 0.003994 0.099233
Si Si8 0.466145 0.348674 0.811795
O O1 0.187151 0.289751 0.590659
O O2 0.773186 0.139869 0.352981
O O3 0.382776 0.942152 0.630905
O O4 0.943307 0.061392 0.303231
O O5 0.650674 0.570305 0.160062
O O6 0.100770 0.704833 0.425725
O O7 0.085392 0.419711 0.284501
O O8 0.740845 0.755155 0.117041
O O9 0.660731 0.575960 0.781213
O O10 0.604369 0.682112 0.435443
O O11 0.421311 0.542890 0.164475
O O12 0.077029 0.804240 0.094412
O O13 0.280123 0.768236 0.378486
O O14 0.758866 0.922634 0.682039
O O15 0.772887 0.962580 0.056556
O O16 0.738841 0.162919 0.955768
#
# Coordination Sequence:
#
# PCOD9086691 Si02
#       8
#     2   2   2   2   2   2   2   2
#     4   9  17  34  57  81 105 137 179 227 275 318
#     4   9  20  35  56  84 109 139 182 232 278 320
#     4   8  17  33  57  82 104 136 186 232 265 312
#     4  10  20  37  57  79 106 145 191 228 265 316
#     4  10  20  37  59  82 106 141 188 231 272 319
#     4  10  19  36  60  81 105 140 185 231 272 321
#     4  11  23  36  54  81 115 151 182 219 272 329
#     4  11  22  36  54  81 118 149 177 222 275 329
#
# _framework density 27.953567
#
# number of rings (size 3 to 8) (size 9 to 14) (size 15 to 20)
#    0.000    2.250    0.000    4.500    0.000    7.500 
#    0.000    1.875    0.000    0.000    0.000    0.000 
#    0.000    0.000    0.000    0.000    0.000    0.000 
#
# Total GULP energy -89380.242948 kJ/mol
# GULP energy per Si atom -5586.265184 kJ/mol
# Density = 2.788994 g / cm^3
# Si number density = 27.953567 Si / 1000 Ang^3
#
#
#
# Elastic Constant Matrix: (Units=GPa)
#
#
# Indices 1 2 3 4 5 6 
#
# 1 128.7969 25.7378 28.7876 1.8547 -25.9431 -0.2190
# 2 25.7378 135.6043 39.1140 -0.9747 -0.1792 -8.6971
# 3 28.7876 39.1140 105.3012 -2.6121 -6.2491 -5.9263
# 4 1.8547 -0.9747 -2.6121 51.7692 -14.3284 -8.1235
# 5 -25.9431 -0.1792 -6.2491 -14.3284 34.6753 -8.8887
# 6 -0.2190 -8.6971 -5.9263 -8.1235 -8.8887 29.5208
#
#
#
# Elastic Compliance Matrix: (Units=1/GPa)
#
#
# Indices 1 2 3 4 5 6 
#
# 1 0.010158 -0.001272 -0.001548 0.002480 0.009056 0.002799
# 2 -0.001272 0.008524 -0.002779 0.000065 -0.000952 0.001675
# 3 -0.001548 -0.002779 0.011259 0.001557 0.002141 0.002503
# 4 0.002480 0.000065 0.001557 0.025597 0.015831 0.012160
# 5 0.009056 -0.000952 0.002141 0.015831 0.047365 0.018834
# 6 0.002799 0.001675 0.002503 0.012160 0.018834 0.043909
#
#
# Mechanical properties :
#
#
# Convention : Reuss Voigt Hill
#
# Bulk Modulus (GPa) = 53.35601 61.88681 57.62141
# Shear Modulus (GPa) = 30.44014 41.59725 36.01869
#
# Velocity S-wave (km/s) = 3.30351 3.86175 3.59349
# Velocity P-wave (km/s) = 5.80342 6.48625 6.15431
#
# Compressibility (1/GPa) = 0.01874203
#
# Stress axis : x y z
#
# Youngs Moduli (GPa) = 98.44868 117.31431 88.82100
#
# Poissons Ratio (x) = 0.14924 0.13748
# Poissons Ratio (y) = 0.12524 0.24684
# Poissons Ratio (z) = 0.15239 0.32603
#
# Static dielectric constant tensor:
#      x y z
#    x 2.249860 0.049880 0.049680 
#    y 0.049880 2.195890 -0.035490 
#    z 0.049680 -0.035490 2.238140 
# 
# From -- ./inp_files/566091.got.cif
#   From: 2010.05.17/outbox.cif.g08.bks.cpg/sg2_284_cif.got.tgz:566091.got - 2010.06.03 11:33:40.
