data_PCOD9086123
_publ_section_title
;
Structure prediction by ZEFSAII (Michael W. Deem and Ramdas Pophale) SiO2 
 PCOD9086123
Probable space group: P -1
;
_chemical_formula_sum "Si O2"
_cell_formula_units_Z 15
_cell_length_a 23.907061
_cell_length_b 14.657084
_cell_length_c 11.566536
_cell_angle_alpha 27.894081
_cell_angle_beta 23.147250
_cell_angle_gamma 21.266796
_cell_volume 567.474690
_symmetry_space_group_name_H-M "P -1"
_symmetry_group_IT_number 2
_symmetry_cell_setting 'triclinic'
loop_
_space_group_symop_operation_xyz
x,y,z
-x,-y,-z
loop_
_atom_site_type_symbol
_atom_site_label
_atom_site_fract_x
_atom_site_fract_y
_atom_site_fract_z
Si Si1 0.425144 0.268544 0.980376
Si Si2 0.437813 0.673636 0.127288
Si Si3 0.000000 0.000000 0.500000
Si Si4 0.949027 0.865259 0.544539
Si Si5 0.346552 0.900861 0.580802
Si Si6 0.513047 0.170344 0.371760
Si Si7 0.880196 0.515996 0.105993
Si Si8 0.211185 0.828854 0.706130
O O1 0.448877 0.278396 0.061940
O O2 0.259508 0.557809 0.930009
O O3 0.607718 0.214287 0.642359
O O4 0.406102 0.055452 0.239011
O O5 0.498574 0.412862 0.357943
O O6 0.216824 0.919504 0.287970
O O7 0.477327 0.672443 0.920887
O O8 0.969289 0.232814 0.221703
O O9 0.893776 0.211740 0.578090
O O10 0.938104 0.998066 0.302403
O O11 0.906101 0.683266 0.788403
O O12 0.324640 0.960227 0.693162
O O13 0.194041 0.947030 0.730725
O O14 0.330667 0.311974 0.641283
O O15 0.500000 0.000000 0.500000
O O16 0.000000 0.500000 0.000000
#
# Coordination Sequence:
#
# PCOD9086123 Si02
#       8
#     2   2   1   2   2   2   2   2
#     4   9  17  31  46  75 117 153 183 228 289 347
#     4  10  20  33  52  85 117 146 191 236 291 343
#     4  10  22  36  56  80 108 156 190 226 284 340
#     4  10  19  36  55  81 116 146 192 240 283 339
#     4  11  20  30  49  81 122 154 185 231 295 344
#     4  12  20  36  60  86 120 155 186 241 295 336
#     4  10  22  39  58  84 120 150 191 238 283 347
#     4   9  19  30  49  77 115 153 187 236 288 339
#
# _framework density 26.432896
#
# number of rings (size 3 to 8) (size 9 to 14) (size 15 to 20)
#    0.000    1.867    2.667    3.200    0.000    1.067 
#    0.000    0.000    0.000    0.000    0.000   27.067 
#    0.000    0.533    0.000    0.000    0.000    0.000 
#
# Total GULP energy -83502.354178 kJ/mol
# GULP energy per Si atom -5566.823612 kJ/mol
# Density = 2.637273 g / cm^3
# Si number density = 26.432896 Si / 1000 Ang^3
#
#
#
# Elastic Constant Matrix: (Units=GPa)
#
#
# Indices 1 2 3 4 5 6 
#
# 1 158.7556 11.2248 31.3122 -8.7371 23.2418 12.4151
# 2 11.2248 68.6372 67.0035 -38.5376 0.6107 11.2147
# 3 31.3122 67.0035 153.5161 -39.7037 21.0160 12.3916
# 4 -8.7371 -38.5376 -39.7037 56.1637 7.6966 -6.3171
# 5 23.2418 0.6107 21.0160 7.6966 46.9424 -19.0140
# 6 12.4151 11.2147 12.3916 -6.3171 -19.0140 31.3697
#
#
#
# Elastic Compliance Matrix: (Units=1/GPa)
#
#
# Indices 1 2 3 4 5 6 
#
# 1 0.008038 0.001254 0.000078 0.002328 -0.007562 -0.007775
# 2 0.001254 0.034733 -0.010498 0.016099 -0.001657 -0.006529
# 3 0.000078 -0.010498 0.013638 0.002962 -0.009180 -0.006633
# 4 0.002328 0.016099 0.002962 0.031924 -0.011262 -0.008244
# 5 -0.007562 -0.001657 -0.009180 -0.011262 0.043774 0.031477
# 6 -0.007775 -0.006529 -0.006633 -0.008244 0.031477 0.057328
#
#
# Mechanical properties :
#
#
# Convention : Reuss Voigt Hill
#
# Bulk Modulus (GPa) = 26.26207 66.66555 46.46381
# Shear Modulus (GPa) = 22.67992 44.98638 33.83315
#
# Velocity S-wave (km/s) = 2.93237 4.12990 3.58154
# Velocity P-wave (km/s) = 4.62839 6.92942 5.89232
#
# Compressibility (1/GPa) = 0.03807773
#
# Stress axis : x y z
#
# Youngs Moduli (GPa) = 124.40648 28.79127 73.32371
#
# Poissons Ratio (x) = -0.03610 -0.00572
# Poissons Ratio (y) = -0.15599 0.76973
# Poissons Ratio (z) = -0.00971 0.30224
#
# Static dielectric constant tensor:
#      x y z
#    x 1.631400 0.132570 0.401770 
#    y 0.132570 2.178040 -0.263600 
#    z 0.401770 -0.263600 2.154430 
# 
# From -- ./inp_files/474911.got.cif
#   From: 2010.05.17/outbox.cif.g08.bks.cpg/sg2_238_cif.got.tgz:474911.got - 2010.06.03 11:33:40.
