data_PCOD9086945
_publ_section_title
;
Structure prediction by ZEFSAII (Michael W. Deem and Ramdas Pophale) SiO2 
 PCOD9086945
Probable space group: P -1
;
_chemical_formula_sum "Si O2"
_cell_formula_units_Z 16
_cell_length_a 8.846812
_cell_length_b 23.239048
_cell_length_c 10.081423
_cell_angle_alpha 43.674782
_cell_angle_beta 62.947684
_cell_angle_gamma 98.342791
_cell_volume 812.106606
_symmetry_space_group_name_H-M "P -1"
_symmetry_group_IT_number 2
_symmetry_cell_setting 'triclinic'
loop_
_space_group_symop_operation_xyz
x,y,z
-x,-y,-z
loop_
_atom_site_type_symbol
_atom_site_label
_atom_site_fract_x
_atom_site_fract_y
_atom_site_fract_z
Si Si1 0.922462 0.457183 0.447726
Si Si2 0.179809 0.503791 0.841325
Si Si3 0.298269 0.990807 0.651051
Si Si4 0.680006 0.829939 0.810015
Si Si5 0.725997 0.099759 0.927695
Si Si6 0.189390 0.405754 0.256566
Si Si7 0.219817 0.989937 0.199402
Si Si8 0.272361 0.189121 0.880518
O O1 0.922306 0.531847 0.211473
O O2 0.000000 0.500000 0.500000
O O3 0.086443 0.443771 0.329793
O O4 0.610686 0.319053 0.817007
O O5 0.472877 0.655926 0.478771
O O6 0.170452 0.421409 0.080240
O O7 0.000000 0.500000 0.000000
O O8 0.500000 0.000000 0.500000
O O9 0.351911 0.098318 0.380694
O O10 0.323738 0.992996 0.794117
O O11 0.989460 0.857105 0.965439
O O12 0.759217 0.865797 0.872014
O O13 0.925307 0.874917 0.570350
O O14 0.974859 0.250877 0.620715
O O15 0.778838 0.076755 0.805812
O O16 0.461536 0.055883 0.090562
O O17 0.500000 0.500000 0.000000
O O18 0.277306 0.106325 0.929467
#
# Coordination Sequence:
#
# PCOD9086945 Si02
#       8
#     2   2   2   2   2   2   2   2
#     4  10  22  41  62  89 119 157 212 256 289 364
#     4   9  19  38  62  86 114 163 202 242 302 356
#     4  11  20  34  57  86 113 149 191 238 304 353
#     4  10  21  37  61  84 120 155 196 246 304 358
#     4  11  23  38  58  87 125 155 197 248 294 364
#     4  11  23  41  64  88 125 166 201 248 308 356
#     4  10  21  38  58  85 120 156 195 243 305 349
#     4  10  19  36  61  85 115 151 196 244 293 362
#
# _framework density 19.701847000000001
#
# number of rings (size 3 to 8) (size 9 to 14) (size 15 to 20)
#    0.000    1.750    0.000    6.750    1.750    2.000 
#    9.000    0.625    0.000    0.000    0.000    0.000 
#    0.000    0.000    0.000    0.000    0.000    0.000 
#
# Total GULP energy -89092.417173 kJ/mol
# GULP energy per Si atom -5568.276073 kJ/mol
# Density = 1.965701 g / cm^3
# Si number density = 19.701847 Si / 1000 Ang^3
#
#
#
# Elastic Constant Matrix: (Units=GPa)
#
#
# Indices 1 2 3 4 5 6 
#
# 1 129.1588 38.3039 46.2868 17.6504 -11.6688 10.1249
# 2 38.3039 70.9212 17.0943 16.8021 -4.8155 8.6788
# 3 46.2868 17.0943 79.7923 19.4150 -5.0527 3.5691
# 4 17.6504 16.8021 19.4150 24.1970 3.4357 -0.3535
# 5 -11.6688 -4.8155 -5.0527 3.4357 50.9640 7.0918
# 6 10.1249 8.6788 3.5691 -0.3535 7.0918 27.2668
#
#
#
# Elastic Compliance Matrix: (Units=1/GPa)
#
#
# Indices 1 2 3 4 5 6 
#
# 1 0.011426 -0.003999 -0.005039 -0.001880 0.002273 -0.002926
# 2 -0.003999 0.019763 0.001580 -0.012554 0.002775 -0.005897
# 3 -0.005039 0.001580 0.018335 -0.012425 0.001885 -0.001683
# 4 -0.001880 -0.012554 -0.012425 0.062711 -0.008372 0.009311
# 5 0.002273 0.002775 0.001885 -0.008372 0.022251 -0.007870
# 6 -0.002926 -0.005897 -0.001683 0.009311 -0.007870 0.042026
#
#
# Mechanical properties :
#
#
# Convention : Reuss Voigt Hill
#
# Bulk Modulus (GPa) = 28.89465 53.69360 41.29413
# Shear Modulus (GPa) = 24.63499 32.36472 28.49986
#
# Velocity S-wave (km/s) = 3.53992 4.05745 3.80749
# Velocity P-wave (km/s) = 5.60409 7.01875 6.35093
#
# Compressibility (1/GPa) = 0.03460848
#
# Stress axis : x y z
#
# Youngs Moduli (GPa) = 87.52192 50.59866 54.54015
#
# Poissons Ratio (x) = 0.20232 0.27483
# Poissons Ratio (y) = 0.34996 -0.08616
# Poissons Ratio (z) = 0.44103 -0.07994
#
# Static dielectric constant tensor:
#      x y z
#    x 1.775750 0.032170 0.012550 
#    y 0.032170 1.749780 0.014820 
#    z 0.012550 0.014820 1.691010 
# 
# From -- ./inp_files/185754.got.cif
#   From: 2010.05.17/outbox.cif.g08.bks.cpg/sg2_93_cif.got.tgz:185754.got - 2010.06.03 11:33:40.
