data_PCOD9086939
_publ_section_title
;
Structure prediction by ZEFSAII (Michael W. Deem and Ramdas Pophale) SiO2 
 PCOD9086939
Probable space group: P -1
;
_chemical_formula_sum "Si O2"
_cell_formula_units_Z 16
_cell_length_a 14.935737
_cell_length_b 7.807075
_cell_length_c 21.847157
_cell_angle_alpha 149.047561
_cell_angle_beta 149.781389
_cell_angle_gamma 32.511526
_cell_volume 605.842514
_symmetry_space_group_name_H-M "P -1"
_symmetry_group_IT_number 2
_symmetry_cell_setting 'triclinic'
loop_
_space_group_symop_operation_xyz
x,y,z
-x,-y,-z
loop_
_atom_site_type_symbol
_atom_site_label
_atom_site_fract_x
_atom_site_fract_y
_atom_site_fract_z
Si Si1 0.900403 0.757439 0.786630
Si Si2 0.278899 0.699469 0.953395
Si Si3 0.003937 0.243347 0.795198
Si Si4 0.628453 0.337989 0.662167
Si Si5 0.456418 0.652513 0.173859
Si Si6 0.830990 0.588691 0.323479
Si Si7 0.222852 0.477874 0.484320
Si Si8 0.664008 0.704185 0.909379
O O1 0.017046 0.396545 0.784199
O O2 0.829811 0.621802 0.643594
O O3 0.938847 0.086447 0.086232
O O4 0.726592 0.028454 0.807248
O O5 0.396186 0.560876 0.043320
O O6 0.364701 0.962164 0.051039
O O7 0.239379 0.460906 0.802183
O O8 0.777224 0.427150 0.735646
O O9 0.069551 0.815815 0.712894
O O10 0.151333 0.324680 0.951310
O O11 0.400837 0.593841 0.611722
O O12 0.700740 0.373145 0.783497
O O13 0.668233 0.920294 0.541333
O O14 0.639544 0.759164 0.304000
O O15 0.492013 0.323162 0.142205
O O16 0.015874 0.700216 0.462294
#
# Coordination Sequence:
#
# PCOD9086939 Si02
#       8
#     2   2   2   2   2   2   2   2
#     4  11  21  37  62  92 118 157 202 251 286 354
#     4  10  22  38  58  88 125 161 193 242 301 361
#     4  10  21  36  62  89 125 149 202 244 303 353
#     4  10  19  36  61  85 111 163 203 245 289 350
#     4  12  22  36  60  95 121 155 200 244 305 348
#     4   9  22  41  58  86 124 165 189 244 305 357
#     4   9  20  39  60  79 119 160 207 237 294 353
#     4  11  22  35  62  90 124 149 198 248 301 348
#
# _framework density 26.409506
#
# number of rings (size 3 to 8) (size 9 to 14) (size 15 to 20)
#    0.000    1.750    2.500    2.625    1.750    2.500 
#    4.500    0.625    0.000    3.000    0.000    0.000 
#    0.000    0.000    0.000    0.000    0.000    0.000 
#
# Total GULP energy -89365.072890 kJ/mol
# GULP energy per Si atom -5585.317056 kJ/mol
# Density = 2.634940 g / cm^3
# Si number density = 26.409506 Si / 1000 Ang^3
#
#
#
# Elastic Constant Matrix: (Units=GPa)
#
#
# Indices 1 2 3 4 5 6 
#
# 1 139.2336 41.1916 20.1521 -12.3472 40.5600 -2.1922
# 2 41.1916 43.9289 13.6905 -5.2095 12.3932 -11.9196
# 3 20.1521 13.6905 64.9504 -19.9299 46.1198 -12.9300
# 4 -12.3472 -5.2095 -19.9299 38.9237 -15.8946 13.2218
# 5 40.5600 12.3932 46.1198 -15.8946 49.5353 -20.0724
# 6 -2.1922 -11.9196 -12.9300 13.2218 -20.0724 56.5711
#
#
#
# Elastic Compliance Matrix: (Units=1/GPa)
#
#
# Indices 1 2 3 4 5 6 
#
# 1 0.019896 -0.018110 0.021814 0.004595 -0.035323 -0.011666
# 2 -0.018110 0.041851 -0.023517 -0.004638 0.030734 0.014730
# 3 0.021814 -0.023517 0.073818 0.014021 -0.084514 -0.020502
# 4 0.004595 -0.004638 0.014021 0.033099 -0.008405 -0.008313
# 5 -0.035323 0.030734 -0.084514 -0.008405 0.131331 0.034353
# 6 -0.011666 0.014730 -0.020502 -0.008313 0.034353 0.029774
#
#
# Mechanical properties :
#
#
# Convention : Reuss Voigt Hill
#
# Bulk Modulus (GPa) = 10.42338 44.24236 27.33287
# Shear Modulus (GPa) = 12.45713 40.54459 26.50086
#
# Velocity S-wave (km/s) = 2.17420 3.92245 3.17118
# Velocity P-wave (km/s) = 3.20285 6.10761 4.87654
#
# Compressibility (1/GPa) = 0.09593820
#
# Stress axis : x y z
#
# Youngs Moduli (GPa) = 50.26019 23.89428 13.54685
#
# Poissons Ratio (x) = 0.43273 -0.29551
# Poissons Ratio (y) = 0.91022 0.31858
# Poissons Ratio (z) = -1.09636 0.56192
#
# Static dielectric constant tensor:
#      x y z
#    x 2.054170 0.001310 0.058080 
#    y 0.001310 2.221860 -0.024880 
#    z 0.058080 -0.024880 2.029280 
# 
# From -- ./inp_files/611714.got.cif
#   From: 2010.05.17/outbox.cif.g08.bks.cpg/sg2_306_cif.got.tgz:611714.got - 2010.06.03 11:33:40.
