data_PCOD9086308
_publ_section_title
;
Structure prediction by ZEFSAII (Michael W. Deem and Ramdas Pophale) SiO2 
 PCOD9086308
Probable space group: P -1
;
_chemical_formula_sum "Si O2"
_cell_formula_units_Z 16
_cell_length_a 9.024485
_cell_length_b 14.783971
_cell_length_c 27.433808
_cell_angle_alpha 20.430659
_cell_angle_beta 135.938994
_cell_angle_gamma 137.422262
_cell_volume 858.110607
_symmetry_space_group_name_H-M "P -1"
_symmetry_group_IT_number 2
_symmetry_cell_setting 'triclinic'
loop_
_space_group_symop_operation_xyz
x,y,z
-x,-y,-z
loop_
_atom_site_type_symbol
_atom_site_label
_atom_site_fract_x
_atom_site_fract_y
_atom_site_fract_z
Si Si1 0.068529 0.524837 0.558981
Si Si2 0.427758 0.062789 0.397505
Si Si3 0.400949 0.181733 0.814573
Si Si4 0.986877 0.790082 0.146655
Si Si5 0.216509 0.263301 0.543843
Si Si6 0.910225 0.166088 0.433935
Si Si7 0.513436 0.346418 0.861520
Si Si8 0.447438 0.761447 0.290756
O O1 0.184029 0.287516 0.714905
O O2 0.000000 0.500000 0.500000
O O3 0.876013 0.536475 0.544703
O O4 0.237667 0.815812 0.459462
O O5 0.648365 0.081307 0.410308
O O6 0.392177 0.359238 0.242701
O O7 0.500000 0.000000 0.500000
O O8 0.546722 0.341833 0.813166
O O9 0.486735 0.225192 0.757403
O O10 0.380777 0.874159 0.978457
O O11 0.977937 0.487279 0.280159
O O12 0.753385 0.749090 0.141156
O O13 0.227783 0.869694 0.189444
O O14 0.000000 0.000000 0.000000
O O15 0.379196 0.450872 0.448994
O O16 0.348982 0.115575 0.686227
O O17 0.009409 0.114252 0.536601
O O18 0.000000 0.000000 0.500000
#
# Coordination Sequence:
#
# PCOD9086308 Si02
#       8
#     2   2   2   2   2   2   2   2
#     4  12  23  38  62  90 119 157 203 247 302 358
#     4  11  21  37  58  83 120 156 193 251 302 339
#     4  11  20  35  60  89 115 157 204 241 290 363
#     4  10  19  36  57  85 119 157 191 242 295 345
#     4  10  21  37  55  89 119 152 194 252 295 346
#     4  10  22  35  58  87 115 147 200 247 295 352
#     4  10  22  37  56  89 124 153 202 251 296 348
#     4  10  20  33  59  84 117 155 194 243 293 345
#
# _framework density 18.645613999999998
#
# number of rings (size 3 to 8) (size 9 to 14) (size 15 to 20)
#    0.000    1.500    5.000    1.500    3.500    0.000 
#    0.000    0.625    0.000    0.750    0.000    0.000 
#    0.000    0.000    0.000    0.000    0.000    0.000 
#
# Total GULP energy -89111.519888 kJ/mol
# GULP energy per Si atom -5569.469993 kJ/mol
# Density = 1.860318 g / cm^3
# Si number density = 18.645614 Si / 1000 Ang^3
#
#
#
# Elastic Constant Matrix: (Units=GPa)
#
#
# Indices 1 2 3 4 5 6 
#
# 1 61.9700 35.8584 46.3377 1.1898 1.6547 -14.7209
# 2 35.8584 95.5456 50.7808 13.5327 1.4824 -9.6755
# 3 46.3377 50.7808 119.2618 17.3699 20.6612 -4.2299
# 4 1.1898 13.5327 17.3699 28.9899 -8.0800 -1.0646
# 5 1.6547 1.4824 20.6612 -8.0800 32.0157 6.4821
# 6 -14.7209 -9.6755 -4.2299 -1.0646 6.4821 32.7767
#
#
#
# Elastic Compliance Matrix: (Units=1/GPa)
#
#
# Indices 1 2 3 4 5 6 
#
# 1 0.029984 -0.005752 -0.011673 0.010766 0.007103 0.009207
# 2 -0.005752 0.015343 -0.003705 -0.004495 0.000600 0.001203
# 3 -0.011673 -0.003705 0.018861 -0.013166 -0.014421 -0.001478
# 4 0.010766 -0.004495 -0.013166 0.049830 0.020866 -0.000699
# 5 0.007103 0.000600 -0.014421 0.020866 0.046846 -0.007081
# 6 0.009207 0.001203 -0.001478 -0.000699 -0.007081 0.036187
#
#
# Mechanical properties :
#
#
# Convention : Reuss Voigt Hill
#
# Bulk Modulus (GPa) = 45.60028 60.30348 52.95188
# Shear Modulus (GPa) = 20.27413 28.34315 24.30864
#
# Velocity S-wave (km/s) = 3.30106 3.90307 3.61462
# Velocity P-wave (km/s) = 6.24810 7.26114 6.77358
#
# Compressibility (1/GPa) = 0.02192969
#
# Stress axis : x y z
#
# Youngs Moduli (GPa) = 33.35086 65.17590 53.01926
#
# Poissons Ratio (x) = 0.37489 0.61888
# Poissons Ratio (y) = 0.19183 0.19642
# Poissons Ratio (z) = 0.38930 0.24145
#
# Static dielectric constant tensor:
#      x y z
#    x 1.725100 0.063610 -0.006930 
#    y 0.063610 1.705560 0.022030 
#    z -0.006930 0.022030 1.631010 
# 
# From -- ./inp_files/617196.got.cif
#   From: 2010.05.17/outbox.cif.g08.bks.cpg/sg2_309_cif.got.tgz:617196.got - 2010.06.03 11:33:40.
