data_PCOD9086895
_publ_section_title
;
Structure prediction by ZEFSAII (Michael W. Deem and Ramdas Pophale) SiO2 
 PCOD9086895
Probable space group: P -1
;
_chemical_formula_sum "Si O2"
_cell_formula_units_Z 14
_cell_length_a 8.654435
_cell_length_b 10.663756
_cell_length_c 7.457465
_cell_angle_alpha 51.986231
_cell_angle_beta 90.042266
_cell_angle_gamma 109.375267
_cell_volume 491.968144
_symmetry_space_group_name_H-M "P -1"
_symmetry_group_IT_number 2
_symmetry_cell_setting 'triclinic'
loop_
_space_group_symop_operation_xyz
x,y,z
-x,-y,-z
loop_
_atom_site_type_symbol
_atom_site_label
_atom_site_fract_x
_atom_site_fract_y
_atom_site_fract_z
Si Si1 0.338251 0.318211 0.635788
Si Si2 0.525629 0.680375 0.711786
Si Si3 0.763055 0.149757 0.891461
Si Si4 0.007120 0.311792 0.488661
Si Si5 0.198730 0.435509 0.061367
Si Si6 0.079858 0.100022 0.118205
Si Si7 0.515736 0.926895 0.764717
O O1 0.500000 0.500000 0.500000
O O2 0.399898 0.222832 0.562722
O O3 0.184666 0.361389 0.539333
O O4 0.249690 0.197413 0.910435
O O5 0.637071 0.567352 0.826604
O O6 0.578783 0.791790 0.794279
O O7 0.319038 0.586400 0.792344
O O8 0.875881 0.319397 0.625656
O O9 0.631431 0.045588 0.820975
O O10 0.662947 0.169612 0.046487
O O11 0.910428 0.090453 0.018825
O O12 0.056944 0.431290 0.207133
O O13 0.950378 0.096761 0.642332
O O14 0.104600 0.245624 0.138976
O O15 0.500000 0.000000 0.500000
#
# Coordination Sequence:
#
# PCOD9086895 Si02
#       7
#     2   2   2   2   2   2   2
#     4  10  19  36  60  96 133 167 207 271 339 389
#     4  10  22  41  62 101 133 173 220 265 339 396
#     4  10  24  44  63  99 125 176 230 267 330 385
#     4  10  22  36  65 101 130 172 217 281 332 383
#     4  10  21  38  67  99 133 168 214 279 341 390
#     4  11  21  38  69  99 135 166 220 283 332 390
#     4  11  26  44  69  91 134 181 225 272 320 408
#
# _framework density 28.457125000000001
#
# number of rings (size 3 to 8) (size 9 to 14) (size 15 to 20)
#    0.000    1.714    1.429    3.000    8.000    0.000 
#    0.000    3.571    0.000    0.000    0.000    0.000 
#    0.000    0.000    0.000    0.000    0.000    0.000 
#
# Total GULP energy -78010.850408 kJ/mol
# GULP energy per Si atom -5572.203601 kJ/mol
# Density = 2.839235 g / cm^3
# Si number density = 28.457125 Si / 1000 Ang^3
#
#
#
# Elastic Constant Matrix: (Units=GPa)
#
#
# Indices 1 2 3 4 5 6 
#
# 1 88.4755 16.4609 76.4505 18.8329 -32.7712 3.7262
# 2 16.4609 120.0460 58.4380 7.8948 -19.9394 19.1634
# 3 76.4505 58.4380 216.8737 37.2819 -54.0052 -1.0696
# 4 18.8329 7.8948 37.2819 51.4740 -10.0197 -18.6507
# 5 -32.7712 -19.9394 -54.0052 -10.0197 79.2953 5.6384
# 6 3.7262 19.1634 -1.0696 -18.6507 5.6384 40.5773
#
#
#
# Elastic Compliance Matrix: (Units=1/GPa)
#
#
# Indices 1 2 3 4 5 6 
#
# 1 0.018077 0.001823 -0.005087 -0.004261 0.004297 -0.005211
# 2 0.001823 0.010972 -0.002759 -0.002466 0.001806 -0.006806
# 3 -0.005087 -0.002759 0.008305 -0.003189 0.002444 0.000184
# 4 -0.004261 -0.002466 -0.003189 0.028700 -0.001989 0.014940
# 5 0.004297 0.001806 0.002444 -0.001989 0.016567 -0.004399
# 6 -0.005211 -0.006806 0.000184 0.014940 -0.004399 0.035820
#
#
# Mechanical properties :
#
#
# Convention : Reuss Voigt Hill
#
# Bulk Modulus (GPa) = 39.51229 80.89931 60.20580
# Shear Modulus (GPa) = 35.99115 52.53902 44.26509
#
# Velocity S-wave (km/s) = 3.56019 4.30146 3.94826
# Velocity P-wave (km/s) = 5.55112 7.29111 6.47979
#
# Compressibility (1/GPa) = 0.02530858
#
# Stress axis : x y z
#
# Youngs Moduli (GPa) = 55.31968 91.14204 120.40393
#
# Poissons Ratio (x) = -0.16617 0.61247
# Poissons Ratio (y) = -0.10086 0.33221
# Poissons Ratio (z) = 0.28140 0.25147
#
# Static dielectric constant tensor:
#      x y z
#    x 2.373150 -0.103630 0.114820 
#    y -0.103630 2.408360 -0.128010 
#    z 0.114820 -0.128010 2.573880 
# 
# From -- ./inp_files/247726.got.cif
#   From: 2010.05.17/outbox.cif.g08.bks.cpg/sg2_124_cif.got.tgz:247726.got - 2010.06.03 11:33:40.
