data_PCOD9086192
_publ_section_title
;
Structure prediction by ZEFSAII (Michael W. Deem and Ramdas Pophale) SiO2 
 PCOD9086192
Probable space group: P -1
;
_chemical_formula_sum "Si O2"
_cell_formula_units_Z 16
_cell_length_a 9.551934
_cell_length_b 9.572763
_cell_length_c 19.768886
_cell_angle_alpha 38.045877
_cell_angle_beta 96.771320
_cell_angle_gamma 119.572602
_cell_volume 836.209912
_symmetry_space_group_name_H-M "P -1"
_symmetry_group_IT_number 2
_symmetry_cell_setting 'triclinic'
loop_
_space_group_symop_operation_xyz
x,y,z
-x,-y,-z
loop_
_atom_site_type_symbol
_atom_site_label
_atom_site_fract_x
_atom_site_fract_y
_atom_site_fract_z
Si Si1 0.341637 0.548653 0.554144
Si Si2 0.035270 0.296950 0.867120
Si Si3 0.350617 0.168524 0.433300
Si Si4 0.357964 0.852167 0.310255
Si Si5 0.434092 0.199141 0.758180
Si Si6 0.958001 0.502290 0.355995
Si Si7 0.445933 0.627931 0.776673
Si Si8 0.662374 0.989289 0.025432
O O1 0.528059 0.811168 0.506758
O O2 0.358883 0.640207 0.443066
O O3 0.672691 0.732239 0.321545
O O4 0.172590 0.505655 0.594822
O O5 0.023954 0.325985 0.775359
O O6 0.251345 0.559323 0.798484
O O7 0.000000 0.000000 0.000000
O O8 0.867962 0.262339 0.904899
O O9 0.376016 0.462589 0.338585
O O10 0.462934 0.249563 0.339003
O O11 0.152095 0.842924 0.539424
O O12 0.506239 0.956233 0.220438
O O13 0.156235 0.664897 0.337910
O O14 0.414822 0.127782 0.252997
O O15 0.327678 0.044180 0.880776
O O16 0.400400 0.312690 0.898368
O O17 0.500000 0.000000 0.000000
#
# Coordination Sequence:
#
# PCOD9086192 Si02
#       8
#     2   2   2   2   2   2   2   2
#     4  10  19  36  56  84 119 158 183 231 288 357
#     4  10  20  38  63  85 105 159 207 232 272 353
#     4   9  19  36  63  78 117 155 202 225 281 349
#     4  12  23  34  57  94 127 146 182 246 310 339
#     4   9  22  39  57  83 120 158 189 236 293 350
#     4  12  20  34  60  93 116 150 197 246 286 342
#     4  10  20  39  62  87 114 156 198 233 290 354
#     4  10  20  41  64  85 112 150 203 251 280 328
#
# _framework density 19.133949999999999
#
# number of rings (size 3 to 8) (size 9 to 14) (size 15 to 20)
#    0.750    1.000    2.500    3.375    0.000    0.500 
#    0.000    7.500    0.000    0.000    0.000    0.000 
#    0.000    0.000    0.000    0.000    0.000    0.000 
#
# Total GULP energy -89172.800080 kJ/mol
# GULP energy per Si atom -5573.300005 kJ/mol
# Density = 1.909040 g / cm^3
# Si number density = 19.133950 Si / 1000 Ang^3
#
#
#
# Elastic Constant Matrix: (Units=GPa)
#
#
# Indices 1 2 3 4 5 6 
#
# 1 69.4044 18.7352 -1.5154 -6.8057 -8.2665 -1.2693
# 2 18.7352 48.3261 5.9480 3.3004 -4.0529 16.8282
# 3 -1.5154 5.9480 53.9328 -4.3585 -7.0850 -11.3029
# 4 -6.8057 3.3004 -4.3585 6.1495 -4.4440 -22.3856
# 5 -8.2665 -4.0529 -7.0850 -4.4440 20.8333 3.1254
# 6 -1.2693 16.8282 -11.3029 -22.3856 3.1254 -2.3603
#
#
#
# Elastic Compliance Matrix: (Units=1/GPa)
#
#
# Indices 1 2 3 4 5 6 
#
# 1 0.015706 -0.003041 0.000033 -0.001576 0.006354 -0.006924
# 2 -0.003041 0.018972 0.000928 0.013961 0.004815 0.006420
# 3 0.000033 0.000928 0.017345 -0.006627 0.005606 -0.006184
# 4 -0.001576 0.013961 -0.006627 0.019215 0.009556 -0.037462
# 5 0.006354 0.004815 0.005606 0.009556 0.057055 -0.011015
# 6 -0.006924 0.006420 -0.006184 -0.037462 -0.011015 -0.003849
#
#
# Mechanical properties :
#
#
# Convention : Reuss Voigt Hill
#
# Bulk Modulus (GPa) = 20.89288 24.22210 22.55749
# Shear Modulus (GPa) = 34.58822 14.82421 24.70622
#
# Velocity S-wave (km/s) = 4.25630 2.78647 3.59726
# Velocity P-wave (km/s) = 5.92434 4.79992 5.39152
#
# Compressibility (1/GPa) = 0.04786320
#
# Stress axis : x y z
#
# Youngs Moduli (GPa) = 63.67161 52.70883 57.65310
#
# Poissons Ratio (x) = 0.16030 -0.00190
# Poissons Ratio (y) = 0.19364 -0.05353
# Poissons Ratio (z) = -0.00210 -0.04894
#
# Static dielectric constant tensor:
#      x y z
#    x 1.680020 -0.016350 0.018600 
#    y -0.016350 1.654900 -0.017340 
#    z 0.018600 -0.017340 1.687440 
# 
# From -- ./inp_files/556880.got.cif
#   From: 2010.05.17/outbox.cif.g08.bks.cpg/sg2_279_cif.got.tgz:556880.got - 2010.06.03 11:33:40.
