data_PCOD9086717
_publ_section_title
;
Structure prediction by ZEFSAII (Michael W. Deem and Ramdas Pophale) SiO2 
 PCOD9086717
Probable space group: P -1
;
_chemical_formula_sum "Si O2"
_cell_formula_units_Z 16
_cell_length_a 9.223454
_cell_length_b 9.419859
_cell_length_c 10.723669
_cell_angle_alpha 78.796111
_cell_angle_beta 84.316563
_cell_angle_gamma 56.177103
_cell_volume 759.231418
_symmetry_space_group_name_H-M "P -1"
_symmetry_group_IT_number 2
_symmetry_cell_setting 'triclinic'
loop_
_space_group_symop_operation_xyz
x,y,z
-x,-y,-z
loop_
_atom_site_type_symbol
_atom_site_label
_atom_site_fract_x
_atom_site_fract_y
_atom_site_fract_z
Si Si1 0.922805 0.884793 0.288343
Si Si2 0.567812 0.788740 0.661494
Si Si3 0.647317 0.276815 0.139832
Si Si4 0.825965 0.123531 0.911365
Si Si5 0.217828 0.079708 0.253973
Si Si6 0.767766 0.096313 0.476772
Si Si7 0.185205 0.629628 0.701982
Si Si8 0.182360 0.365640 0.572661
O O1 0.845739 0.767643 0.326244
O O2 0.101613 0.803104 0.210632
O O3 0.789689 0.074719 0.205731
O O4 0.936229 0.933975 0.421640
O O5 0.526005 0.681399 0.780974
O O6 0.642471 0.875658 0.727041
O O7 0.387358 0.906098 0.580863
O O8 0.694384 0.701433 0.547516
O O9 0.714150 0.389188 0.175477
O O10 0.672379 0.261399 0.992001
O O11 0.777800 0.000268 0.866348
O O12 0.000000 0.000000 0.000000
O O13 0.021804 0.245915 0.270497
O O14 0.249082 0.934927 0.374896
O O15 0.757573 0.267246 0.408241
O O16 0.229054 0.461719 0.653016
O O17 0.000000 0.500000 0.500000
#
# Coordination Sequence:
#
# PCOD9086717 Si02
#       8
#     2   2   2   2   2   2   2   2
#     4   9  18  34  58  83 113 140 181 238 277 319
#     4  10  22  35  55  85 123 140 174 244 289 333
#     4   9  21  40  59  79 114 150 191 232 272 323
#     4  10  19  36  60  84 109 147 198 234 264 322
#     4  12  18  31  62  87 110 144 188 236 278 329
#     4  10  20  34  55  86 118 141 184 232 294 325
#     4  10  20  34  55  83 114 149 182 225 280 338
#     4  12  22  32  55  90 117 141 184 229 293 343
#
# _framework density 21.073944000000001
#
# number of rings (size 3 to 8) (size 9 to 14) (size 15 to 20)
#    0.000    2.000    6.250    0.750    3.500    2.500 
#    0.000    0.625    0.000    0.750    0.000    0.000 
#    0.000    0.000    0.000    0.000    0.000    0.000 
#
# Total GULP energy -89126.690849 kJ/mol
# GULP energy per Si atom -5570.418178 kJ/mol
# Density = 2.102598 g / cm^3
# Si number density = 21.073944 Si / 1000 Ang^3
#
#
#
# Elastic Constant Matrix: (Units=GPa)
#
#
# Indices 1 2 3 4 5 6 
#
# 1 108.7133 30.9479 39.4550 17.4042 0.0811 26.7679
# 2 30.9479 53.1713 30.2775 23.6320 -0.5594 33.0893
# 3 39.4550 30.2775 113.0312 39.6175 -4.1419 13.8316
# 4 17.4042 23.6320 39.6175 28.5102 -1.1779 12.2259
# 5 0.0811 -0.5594 -4.1419 -1.1779 42.3194 11.5688
# 6 26.7679 33.0893 13.8316 12.2259 11.5688 41.8548
#
#
#
# Elastic Compliance Matrix: (Units=1/GPa)
#
#
# Indices 1 2 3 4 5 6 
#
# 1 0.012268 -0.002493 -0.003595 0.002026 0.001180 -0.005604
# 2 -0.002493 0.056557 0.001562 -0.031069 0.010263 -0.037396
# 3 -0.003595 0.001562 0.018412 -0.025672 0.000473 0.002348
# 4 0.002026 -0.031069 -0.025672 0.093028 -0.001719 0.005052
# 5 0.001180 0.010263 0.000473 -0.001719 0.028224 -0.016324
# 6 -0.005604 -0.037396 0.002348 0.005052 -0.016324 0.059301
#
#
# Mechanical properties :
#
#
# Convention : Reuss Voigt Hill
#
# Bulk Modulus (GPa) = 12.79035 52.91963 32.85499
# Shear Modulus (GPa) = 16.50683 34.15258 25.32971
#
# Velocity S-wave (km/s) = 2.80175 4.03004 3.47067
# Velocity P-wave (km/s) = 4.06803 6.84258 5.62893
#
# Compressibility (1/GPa) = 0.07818394
#
# Stress axis : x y z
#
# Youngs Moduli (GPa) = 81.51346 17.68115 54.31285
#
# Poissons Ratio (x) = 0.04409 0.19528
# Poissons Ratio (y) = 0.20324 -0.08485
# Poissons Ratio (z) = 0.29308 -0.02762
#
# Static dielectric constant tensor:
#      x y z
#    x 1.865010 -0.053000 -0.007310 
#    y -0.053000 1.832270 0.031460 
#    z -0.007310 0.031460 1.852500 
# 
# From -- ./inp_files/382324.got.cif
#   From: 2010.05.17/outbox.cif.g08.bks.cpg/sg2_192_cif.got.tgz:382324.got - 2010.06.03 11:33:40.
