data_PCOD9086509
_publ_section_title
;
Structure prediction by ZEFSAII (Michael W. Deem and Ramdas Pophale) SiO2 
 PCOD9086509
Probable space group: P -1
;
_chemical_formula_sum "Si O2"
_cell_formula_units_Z 16
_cell_length_a 21.729168
_cell_length_b 7.281922
_cell_length_c 16.356281
_cell_angle_alpha 136.013523
_cell_angle_beta 158.246743
_cell_angle_gamma 48.283800
_cell_volume 666.085576
_symmetry_space_group_name_H-M "P -1"
_symmetry_group_IT_number 2
_symmetry_cell_setting 'triclinic'
loop_
_space_group_symop_operation_xyz
x,y,z
-x,-y,-z
loop_
_atom_site_type_symbol
_atom_site_label
_atom_site_fract_x
_atom_site_fract_y
_atom_site_fract_z
Si Si1 0.846213 0.947191 0.102051
Si Si2 0.675880 0.636561 0.367797
Si Si3 0.654779 0.500674 0.829078
Si Si4 0.820707 0.122262 0.800030
Si Si5 0.538458 0.904781 0.925885
Si Si6 0.196728 0.695443 0.433316
Si Si7 0.307655 0.643811 0.853877
Si Si8 0.273436 0.405580 0.283954
O O1 0.034782 0.865613 0.296562
O O2 0.820400 0.231393 0.201221
O O3 0.754914 0.737264 0.983019
O O4 0.757092 0.879634 0.885063
O O5 0.755886 0.424583 0.459472
O O6 0.748622 0.589502 0.351218
O O7 0.711682 0.907947 0.546609
O O8 0.478978 0.591532 0.096491
O O9 0.747482 0.235840 0.831251
O O10 0.625863 0.622962 0.923305
O O11 0.469721 0.461064 0.551414
O O12 0.810818 0.378067 0.810175
O O13 0.000000 0.000000 0.000000
O O14 0.353840 0.863832 0.649131
O O15 0.500000 0.000000 0.000000
O O16 0.637721 0.126938 0.069999
O O17 0.189874 0.453726 0.283635
#
# Coordination Sequence:
#
# PCOD9086509 Si02
#       8
#     2   2   2   2   2   2   2   2
#     4  10  19  36  58  92 112 150 199 245 283 343
#     4  11  21  37  59  87 117 154 196 234 296 348
#     4   9  19  36  62  85 110 161 201 228 279 360
#     4  11  21  37  59  89 123 155 192 242 299 347
#     4  10  19  40  60  83 110 155 198 238 284 350
#     4  11  22  35  60  91 116 149 194 251 297 330
#     4  10  22  39  64  82 116 158 199 238 286 358
#     4  10  20  39  62  82 120 157 198 236 287 352
#
# _framework density 24.020937
#
# number of rings (size 3 to 8) (size 9 to 14) (size 15 to 20)
#    0.000    1.750    1.250    6.375    0.000    0.500 
#    2.250    8.125    0.000    5.250    0.000    0.000 
#    0.000    0.000    0.000    0.000    0.000    0.000 
#
# Total GULP energy -89339.904201 kJ/mol
# GULP energy per Si atom -5583.744013 kJ/mol
# Density = 2.396626 g / cm^3
# Si number density = 24.020937 Si / 1000 Ang^3
#
#
#
# Elastic Constant Matrix: (Units=GPa)
#
#
# Indices 1 2 3 4 5 6 
#
# 1 95.5875 44.1525 15.2603 18.9823 2.5230 -44.7424
# 2 44.1525 100.1918 -5.9503 32.7516 23.8492 -53.4534
# 3 15.2603 -5.9503 -29.1238 38.8147 46.2241 -12.6623
# 4 18.9823 32.7516 38.8147 12.7030 -50.3784 -5.5713
# 5 2.5230 23.8492 46.2241 -50.3784 -10.4216 -3.8106
# 6 -44.7424 -53.4534 -12.6623 -5.5713 -3.8106 64.4173
#
#
#
# Elastic Compliance Matrix: (Units=1/GPa)
#
#
# Indices 1 2 3 4 5 6 
#
# 1 0.017981 -0.000221 -0.008236 -0.006980 -0.002572 0.009931
# 2 -0.000221 0.015897 -0.009590 -0.002336 0.001055 0.011013
# 3 -0.008236 -0.009590 0.037056 0.023971 0.025567 -0.002809
# 4 -0.006980 -0.002336 0.023971 0.020623 -0.000295 -0.000309
# 5 -0.002572 0.001055 0.025567 -0.000295 0.018766 0.005200
# 6 0.009931 0.011013 -0.002809 -0.000309 0.005200 0.031289
#
#
# Mechanical properties :
#
#
# Convention : Reuss Voigt Hill
#
# Bulk Modulus (GPa) = 28.70285 30.39781 29.55033
# Shear Modulus (GPa) = 26.41040 20.88597 23.64819
#
# Velocity S-wave (km/s) = 3.31943 2.95191 3.14105
# Velocity P-wave (km/s) = 5.16396 4.92956 5.04812
#
# Compressibility (1/GPa) = 0.03483974
#
# Stress axis : x y z
#
# Youngs Moduli (GPa) = 55.61432 62.90676 26.98612
#
# Poissons Ratio (x) = 0.01388 0.22226
# Poissons Ratio (y) = 0.01227 0.25880
# Poissons Ratio (z) = 0.45804 0.60329
#
# Static dielectric constant tensor:
#      x y z
#    x 1.972800 -0.011370 -0.019100 
#    y -0.011370 2.005040 0.082740 
#    z -0.019100 0.082740 1.945160 
# 
# From -- ./inp_files/579019.got.cif
#   From: 2010.05.17/outbox.cif.g08.bks.cpg/sg2_290_cif.got.tgz:579019.got - 2010.06.03 11:33:40.
