data_PCOD9086541
_publ_section_title
;
Structure prediction by ZEFSAII (Michael W. Deem and Ramdas Pophale) SiO2 
 PCOD9086541
Probable space group: P -1
;
_chemical_formula_sum "Si O2"
_cell_formula_units_Z 14
_cell_length_a 17.527964
_cell_length_b 11.973245
_cell_length_c 10.848971
_cell_angle_alpha 51.493037
_cell_angle_beta 27.556024
_cell_angle_gamma 43.852087
_cell_volume 728.732445
_symmetry_space_group_name_H-M "P -1"
_symmetry_group_IT_number 2
_symmetry_cell_setting 'triclinic'
loop_
_space_group_symop_operation_xyz
x,y,z
-x,-y,-z
loop_
_atom_site_type_symbol
_atom_site_label
_atom_site_fract_x
_atom_site_fract_y
_atom_site_fract_z
Si Si1 0.052013 0.821223 0.859579
Si Si2 0.006220 0.349104 0.167057
Si Si3 0.827266 0.424506 0.930467
Si Si4 0.659791 0.353500 0.795451
Si Si5 0.917119 0.170230 0.766257
Si Si6 0.214428 0.247721 0.184006
Si Si7 0.456615 0.713792 0.251273
O O1 0.975593 0.780080 0.872956
O O2 0.265636 0.775006 0.554592
O O3 0.059330 0.703739 0.038767
O O4 0.942714 0.011418 0.908695
O O5 0.812487 0.398436 0.484140
O O6 0.169302 0.276594 0.084091
O O7 0.000000 0.500000 0.000000
O O8 0.844639 0.323775 0.853302
O O9 0.883287 0.568743 0.745580
O O10 0.606799 0.531738 0.201062
O O11 0.779165 0.213589 0.818079
O O12 0.579394 0.295480 0.836249
O O13 0.500000 0.500000 0.000000
O O14 0.114951 0.148337 0.446540
O O15 0.428450 0.189265 0.950897
#
# Coordination Sequence:
#
# PCOD9086541 Si02
#       7
#     2   2   2   2   2   2   2
#     4  11  22  36  58  88 116 147 187 241 290 331
#     4  10  19  36  59  85 113 153 193 236 280 349
#     4  10  19  36  59  80 112 152 190 222 279 346
#     4  10  19  36  59  85 113 153 193 236 280 349
#     4  11  22  36  58  88 116 147 187 241 290 331
#     4   9  20  35  60  83 112 147 199 223 281 342
#     4   9  20  35  60  83 112 147 199 223 281 342
#
# _framework density 19.211441000000001
#
# number of rings (size 3 to 8) (size 9 to 14) (size 15 to 20)
#    0.857    1.143    2.857    1.286    0.000    5.714 
#    0.000    0.000    0.000    0.857    0.000    0.000 
#    0.000    0.000    0.000    0.000    0.000    0.000 
#
# Total GULP energy -78006.030342 kJ/mol
# GULP energy per Si atom -5571.859310 kJ/mol
# Density = 1.916772 g / cm^3
# Si number density = 19.211441 Si / 1000 Ang^3
#
#
#
# Elastic Constant Matrix: (Units=GPa)
#
#
# Indices 1 2 3 4 5 6 
#
# 1 85.6193 -3.3978 12.1398 -3.4237 -21.9772 -4.4014
# 2 -3.3978 65.5139 -1.9444 -14.6465 -2.9706 -6.8344
# 3 12.1398 -1.9444 29.5419 0.2116 -10.8781 -1.3710
# 4 -3.4237 -14.6465 0.2116 14.9548 -2.0418 -0.1616
# 5 -21.9772 -2.9706 -10.8781 -2.0418 29.4869 -4.4204
# 6 -4.4014 -6.8344 -1.3710 -0.1616 -4.4204 15.0914
#
#
#
# Elastic Compliance Matrix: (Units=1/GPa)
#
#
# Indices 1 2 3 4 5 6 
#
# 1 0.017077 0.005430 -0.000379 0.011514 0.015753 0.012142
# 2 0.005430 0.023915 0.004523 0.026485 0.012471 0.016761
# 3 -0.000379 0.004523 0.041178 0.006257 0.017425 0.010850
# 4 0.011514 0.026485 0.006257 0.098891 0.024006 0.024011
# 5 0.015753 0.012471 0.017425 0.024006 0.059422 0.029487
# 6 0.012142 0.016761 0.010850 0.024011 0.029487 0.087275
#
#
# Mechanical properties :
#
#
# Convention : Reuss Voigt Hill
#
# Bulk Modulus (GPa) = 9.86985 21.58561 15.72773
# Shear Modulus (GPa) = 14.60358 23.49844 19.05101
#
# Velocity S-wave (km/s) = 2.76007 3.50115 3.15246
# Velocity P-wave (km/s) = 3.91228 5.25397 4.63197
#
# Compressibility (1/GPa) = 0.10131870
#
# Stress axis : x y z
#
# Youngs Moduli (GPa) = 58.55870 41.81512 24.28463
#
# Poissons Ratio (x) = -0.22704 0.00919
# Poissons Ratio (y) = -0.31795 -0.10985
# Poissons Ratio (z) = 0.02216 -0.18914
#
# Static dielectric constant tensor:
#      x y z
#    x 1.685550 0.005690 -0.016090 
#    y 0.005690 1.670820 0.000120 
#    z -0.016090 0.000120 1.662310 
# 
# From -- ./inp_files/378077.got.cif
#   From: 2010.05.17/outbox.cif.g08.bks.cpg/sg2_190_cif.got.tgz:378077.got - 2010.06.03 11:33:40.
