data_PCOD9086113
_publ_section_title
;
Structure prediction by ZEFSAII (Michael W. Deem and Ramdas Pophale) SiO2 
 PCOD9086113
Probable space group: P -1
;
_chemical_formula_sum "Si O2"
_cell_formula_units_Z 14
_cell_length_a 19.016207
_cell_length_b 10.484441
_cell_length_c 14.897100
_cell_angle_alpha 138.716847
_cell_angle_beta 22.570101
_cell_angle_gamma 151.688597
_cell_volume 508.855092
_symmetry_space_group_name_H-M "P -1"
_symmetry_group_IT_number 2
_symmetry_cell_setting 'triclinic'
loop_
_space_group_symop_operation_xyz
x,y,z
-x,-y,-z
loop_
_atom_site_type_symbol
_atom_site_label
_atom_site_fract_x
_atom_site_fract_y
_atom_site_fract_z
Si Si1 0.977566 0.981916 0.863247
Si Si2 0.393392 0.729371 0.309403
Si Si3 0.839923 0.483531 0.053840
Si Si4 0.750530 0.018866 0.292774
Si Si5 0.124893 0.897161 0.371361
Si Si6 0.753029 0.126789 0.604356
Si Si7 0.904401 0.108863 0.798829
O O1 0.111015 0.281093 0.825016
O O2 0.997212 0.818979 0.688158
O O3 0.169164 0.052749 0.756798
O O4 0.713010 0.852386 0.161567
O O5 0.442207 0.959023 0.435132
O O6 0.188722 0.418574 0.429183
O O7 0.250409 0.705671 0.375439
O O8 0.675338 0.870032 0.013874
O O9 0.525473 0.202137 0.263981
O O10 0.986394 0.653880 0.877676
O O11 0.972861 0.387526 0.880052
O O12 0.124641 0.114289 0.526393
O O13 0.252189 0.856308 0.273841
O O14 0.230220 0.981398 0.190845
#
# Coordination Sequence:
#
# PCOD9086113 Si02
#       7
#     2   2   2   2   2   2   2
#     4   8  15  30  50  79 103 133 159 214 258 296
#     4  10  19  36  55  76  99 137 172 213 253 302
#     4   9  16  32  52  76 101 132 168 209 245 307
#     4   8  15  29  54  76 102 128 169 209 254 299
#     4  11  21  38  49  76 109 133 173 217 243 311
#     4  10  20  30  54  82 102 131 173 211 262 287
#     4  10  22  35  56  72 100 147 172 198 265 303
#
# _framework density 27.512744999999999
#
# number of rings (size 3 to 8) (size 9 to 14) (size 15 to 20)
#    0.857    1.714    1.429    1.286    0.000    2.286 
#    5.143    0.714    0.000    0.857    0.000    0.000 
#    0.000    0.000    0.000    0.000    0.000    0.000 
#
# Total GULP energy -78208.926298 kJ/mol
# GULP energy per Si atom -5586.351878 kJ/mol
# Density = 2.745012 g / cm^3
# Si number density = 27.512745 Si / 1000 Ang^3
#
#
#
# Elastic Constant Matrix: (Units=GPa)
#
#
# Indices 1 2 3 4 5 6 
#
# 1 84.0956 11.9074 16.5775 -8.1898 2.8337 -9.6760
# 2 11.9074 122.3680 37.7508 6.9768 -5.8886 -3.8746
# 3 16.5775 37.7508 126.7591 15.4586 22.7605 4.4395
# 4 -8.1898 6.9768 15.4586 39.7515 -7.4593 8.5410
# 5 2.8337 -5.8886 22.7605 -7.4593 51.3072 15.3176
# 6 -9.6760 -3.8746 4.4395 8.5410 15.3176 39.8488
#
#
#
# Elastic Compliance Matrix: (Units=1/GPa)
#
#
# Indices 1 2 3 4 5 6 
#
# 1 0.012981 -0.000791 -0.001830 0.002834 -0.000431 0.002837
# 2 -0.000791 0.009335 -0.003093 -0.000184 0.002408 0.000174
# 3 -0.001830 -0.003093 0.010818 -0.005603 -0.006375 0.001701
# 4 0.002834 -0.000184 -0.005603 0.031751 0.009680 -0.009232
# 5 -0.000431 0.002408 -0.006375 0.009680 0.027557 -0.011828
# 6 0.002837 0.000174 0.001701 -0.009232 -0.011828 0.032136
#
#
# Mechanical properties :
#
#
# Convention : Reuss Voigt Hill
#
# Bulk Modulus (GPa) = 46.06894 51.74378 48.90636
# Shear Modulus (GPa) = 34.90602 43.98062 39.44332
#
# Velocity S-wave (km/s) = 3.56578 4.00253 3.79045
# Velocity P-wave (km/s) = 5.80809 6.34101 6.08039
#
# Compressibility (1/GPa) = 0.02170660
#
# Stress axis : x y z
#
# Youngs Moduli (GPa) = 77.03619 107.12280 92.44066
#
# Poissons Ratio (x) = 0.08476 0.16913
# Poissons Ratio (y) = 0.06095 0.28590
# Poissons Ratio (z) = 0.14095 0.33130
#
# Static dielectric constant tensor:
#      x y z
#    x 2.274150 0.065740 -0.001270 
#    y 0.065740 2.121570 0.048060 
#    z -0.001270 0.048060 2.163090 
# 
# From -- ./inp_files/349881.got.cif
#   From: 2010.05.17/outbox.cif.g08.bks.cpg/sg2_175_cif.got.tgz:349881.got - 2010.06.03 11:33:40.
