data_PCOD9086670
_publ_section_title
;
Structure prediction by ZEFSAII (Michael W. Deem and Ramdas Pophale) SiO2 
 PCOD9086670
Probable space group: P -1
;
_chemical_formula_sum "Si O2"
_cell_formula_units_Z 16
_cell_length_a 10.564728
_cell_length_b 8.207248
_cell_length_c 9.085040
_cell_angle_alpha 77.553262
_cell_angle_beta 71.875554
_cell_angle_gamma 111.392010
_cell_volume 647.109077
_symmetry_space_group_name_H-M "P -1"
_symmetry_group_IT_number 2
_symmetry_cell_setting 'triclinic'
loop_
_space_group_symop_operation_xyz
x,y,z
-x,-y,-z
loop_
_atom_site_type_symbol
_atom_site_label
_atom_site_fract_x
_atom_site_fract_y
_atom_site_fract_z
Si Si1 0.896144 0.682949 0.320931
Si Si2 0.904197 0.324017 0.329373
Si Si3 0.797367 0.092745 0.671898
Si Si4 0.260412 0.599788 0.214770
Si Si5 0.611734 0.611507 0.569814
Si Si6 0.915740 0.155726 0.071804
Si Si7 0.578357 0.424591 0.105305
Si Si8 0.209320 0.156568 0.033967
O O1 0.837924 0.458583 0.388562
O O2 0.765970 0.733500 0.403069
O O3 0.028153 0.785966 0.368695
O O4 0.981984 0.731435 0.125075
O O5 0.813571 0.125389 0.486209
O O6 0.879586 0.278468 0.174876
O O7 0.085055 0.444676 0.276032
O O8 0.725419 0.213521 0.749284
O O9 0.741949 0.898634 0.818796
O O10 0.338543 0.507362 0.309952
O O11 0.339503 0.657403 0.014880
O O12 0.500000 0.500000 0.500000
O O13 0.525428 0.685899 0.698381
O O14 0.033292 0.102939 0.124284
O O15 0.785613 0.976643 0.071980
O O16 0.500000 0.500000 0.000000
O O17 0.703042 0.626642 0.082196
#
# Coordination Sequence:
#
# PCOD9086670 Si02
#       8
#     2   2   2   2   2   2   2   2
#     4  10  19  36  59  93 121 156 204 251 308 351
#     4  11  18  35  64  94 122 154 198 258 307 363
#     4  10  20  36  65  91 125 154 189 271 314 345
#     4  10  19  39  59  92 119 153 212 250 294 358
#     4  11  21  35  58  86 118 161 200 251 287 349
#     4  10  21  34  60  91 129 156 188 257 317 362
#     4  10  22  40  63  83 117 165 212 240 282 364
#     4  10  21  40  54  93 126 158 196 246 318 359
#
# _framework density 24.725353999999999
#
# number of rings (size 3 to 8) (size 9 to 14) (size 15 to 20)
#    0.000    1.750    3.750    1.875    0.000    0.500 
#    0.000    5.000    0.000    0.750    0.000    0.000 
#    0.000    0.000    0.000    0.000    0.000    0.000 
#
# Total GULP energy -89282.041739 kJ/mol
# GULP energy per Si atom -5580.127609 kJ/mol
# Density = 2.466908 g / cm^3
# Si number density = 24.725354 Si / 1000 Ang^3
#
#
#
# Elastic Constant Matrix: (Units=GPa)
#
#
# Indices 1 2 3 4 5 6 
#
# 1 39.5451 6.5773 22.4462 7.4057 -3.4283 8.3364
# 2 6.5773 42.9045 13.3976 6.5004 -3.6619 5.8314
# 3 22.4462 13.3976 179.5292 11.5670 -19.7975 -4.1327
# 4 7.4057 6.5004 11.5670 32.2761 -7.6612 12.2692
# 5 -3.4283 -3.6619 -19.7975 -7.6612 37.1248 5.2250
# 6 8.3364 5.8314 -4.1327 12.2692 5.2250 22.5206
#
#
#
# Elastic Compliance Matrix: (Units=1/GPa)
#
#
# Indices 1 2 3 4 5 6 
#
# 1 0.030409 -0.001660 -0.003682 -0.000254 0.002303 -0.011898
# 2 -0.001660 0.025222 -0.001489 -0.001434 0.002073 -0.005889
# 3 -0.003682 -0.001489 0.006590 -0.002096 0.002086 0.003616
# 4 -0.000254 -0.001434 -0.002096 0.045316 0.011921 -0.027373
# 5 0.002303 0.002073 0.002086 0.011921 0.033061 -0.015172
# 6 -0.011898 -0.005889 0.003616 -0.027373 -0.015172 0.069429
#
#
# Mechanical properties :
#
#
# Convention : Reuss Voigt Hill
#
# Bulk Modulus (GPa) = 20.59347 38.53567 29.56457
# Shear Modulus (GPa) = 20.84419 33.02149 26.93284
#
# Velocity S-wave (km/s) = 2.90665 3.65846 3.30401
# Velocity P-wave (km/s) = 4.42852 5.78490 5.15154
#
# Compressibility (1/GPa) = 0.04855909
#
# Stress axis : x y z
#
# Youngs Moduli (GPa) = 32.88513 39.64832 151.74786
#
# Poissons Ratio (x) = 0.06581 0.55868
# Poissons Ratio (y) = 0.05459 0.22598
# Poissons Ratio (z) = 0.12107 0.05904
#
# Static dielectric constant tensor:
#      x y z
#    x 2.040480 -0.029610 0.034530 
#    y -0.029610 2.057990 -0.049860 
#    z 0.034530 -0.049860 2.032490 
# 
# From -- ./inp_files/243919.got.cif
#   From: 2010.05.17/outbox.cif.g08.bks.cpg/sg2_122_cif.got.tgz:243919.got - 2010.06.03 11:33:40.
