data_PCOD9086876
_publ_section_title
;
Structure prediction by ZEFSAII (Michael W. Deem and Ramdas Pophale) SiO2 
 PCOD9086876
Probable space group: P -1
;
_chemical_formula_sum "Si O2"
_cell_formula_units_Z 16
_cell_length_a 8.515147
_cell_length_b 10.007070
_cell_length_c 11.192839
_cell_angle_alpha 95.284725
_cell_angle_beta 127.052022
_cell_angle_gamma 83.961369
_cell_volume 756.466158
_symmetry_space_group_name_H-M "P -1"
_symmetry_group_IT_number 2
_symmetry_cell_setting 'triclinic'
loop_
_space_group_symop_operation_xyz
x,y,z
-x,-y,-z
loop_
_atom_site_type_symbol
_atom_site_label
_atom_site_fract_x
_atom_site_fract_y
_atom_site_fract_z
Si Si1 0.931297 0.498170 0.327745
Si Si2 0.907060 0.609161 0.065146
Si Si3 0.151624 0.098485 0.025149
Si Si4 0.765139 0.083244 0.163696
Si Si5 0.493296 0.184365 0.362258
Si Si6 0.220368 0.043191 0.598320
Si Si7 0.556695 0.353587 0.183966
Si Si8 0.832009 0.775106 0.601709
O O1 0.956352 0.591404 0.228736
O O2 0.701549 0.469003 0.231327
O O3 0.000000 0.500000 0.500000
O O4 0.056553 0.364848 0.331321
O O5 0.949473 0.761215 0.058119
O O6 0.669766 0.606133 0.942434
O O7 0.000000 0.500000 0.000000
O O8 0.311074 0.137385 0.197099
O O9 0.261934 0.008395 0.968573
O O10 0.000000 0.000000 0.000000
O O11 0.637992 0.223310 0.133866
O O12 0.998396 0.120960 0.277621
O O13 0.708684 0.989838 0.240316
O O14 0.578236 0.300847 0.328016
O O15 0.380992 0.221724 0.434690
O O16 0.653287 0.060212 0.437153
O O17 0.210578 0.191634 0.554017
O O18 0.000000 0.000000 0.500000
#
# Coordination Sequence:
#
# PCOD9086876 Si02
#       8
#     2   2   2   2   2   2   2   2
#     4  11  24  43  64  95 128 171 222 272 316 381
#     4  11  25  44  69  95 132 181 219 257 329 400
#     4  11  22  39  65  99 129 154 214 277 312 372
#     4   9  19  36  63  92 124 159 205 268 322 364
#     4  10  19  36  60  93 118 165 203 258 325 375
#     4   9  19  33  55  84 117 162 198 244 309 382
#     4   9  21  41  68  89 126 172 219 265 326 390
#     4  10  19  37  61  83 130 164 204 251 322 385
#
# _framework density 21.150981000000002
#
# number of rings (size 3 to 8) (size 9 to 14) (size 15 to 20)
#    0.000    2.000    1.250    3.000    3.500    4.500 
#    0.000    2.500    0.000    0.000    0.000    0.000 
#    0.000    0.000    0.000    0.000    0.000    0.000 
#
# Total GULP energy -89084.437763 kJ/mol
# GULP energy per Si atom -5567.777360 kJ/mol
# Density = 2.110284 g / cm^3
# Si number density = 21.150981 Si / 1000 Ang^3
#
#
#
# Elastic Constant Matrix: (Units=GPa)
#
#
# Indices 1 2 3 4 5 6 
#
# 1 120.5963 37.0408 15.0964 -13.0360 -3.7448 -1.4200
# 2 37.0408 77.9223 31.8037 -25.6253 -4.9344 20.9763
# 3 15.0964 31.8037 59.9035 -12.4227 -9.6346 -1.5116
# 4 -13.0360 -25.6253 -12.4227 23.0009 -9.6350 4.8617
# 5 -3.7448 -4.9344 -9.6346 -9.6350 24.9869 -2.6228
# 6 -1.4200 20.9763 -1.5116 4.8617 -2.6228 21.7179
#
#
#
# Elastic Compliance Matrix: (Units=1/GPa)
#
#
# Indices 1 2 3 4 5 6 
#
# 1 0.016060 -0.053407 0.006933 -0.071545 -0.026129 0.065976
# 2 -0.053407 0.413974 -0.056235 0.606570 0.231898 -0.515023
# 3 0.006933 -0.056235 0.031091 -0.062860 -0.015055 0.069185
# 4 -0.071545 0.606570 -0.062860 0.964137 0.376267 -0.765299
# 5 -0.026129 0.231898 -0.015055 0.376267 0.190964 -0.287904
# 6 0.065976 -0.515023 0.069185 -0.765299 -0.287904 0.689159
#
#
# Mechanical properties :
#
#
# Convention : Reuss Voigt Hill
#
# Bulk Modulus (GPa) = 3.91072 47.36711 25.63891
# Shear Modulus (GPa) = 1.92601 25.57321 13.74961
#
# Velocity S-wave (km/s) = 0.95529 3.48095 2.55241
# Velocity P-wave (km/s) = 1.75207 6.21284 4.56449
#
# Compressibility (1/GPa) = 0.25570719
#
# Stress axis : x y z
#
# Youngs Moduli (GPa) = 62.26748 2.41561 32.16373
#
# Poissons Ratio (x) = 0.12901 -0.22298
# Poissons Ratio (y) = 3.32550 1.80871
# Poissons Ratio (z) = -0.43167 0.13584
#
# Static dielectric constant tensor:
#      x y z
#    x 1.886390 -0.001720 -0.069050 
#    y -0.001720 1.779330 0.000170 
#    z -0.069050 0.000170 1.839000 
# 
# From -- ./inp_files/382423.got.cif
#   From: 2010.05.17/outbox.cif.g08.bks.cpg/sg2_192_cif.got.tgz:382423.got - 2010.06.03 11:33:40.
