data_PCOD9086952
_publ_section_title
;
Structure prediction by ZEFSAII (Michael W. Deem and Ramdas Pophale) SiO2 
 PCOD9086952
Probable space group: P -1
;
_chemical_formula_sum "Si O2"
_cell_formula_units_Z 16
_cell_length_a 10.961474
_cell_length_b 10.284818
_cell_length_c 7.234657
_cell_angle_alpha 56.610634
_cell_angle_beta 116.035705
_cell_angle_gamma 110.429226
_cell_volume 605.574443
_symmetry_space_group_name_H-M "P -1"
_symmetry_group_IT_number 2
_symmetry_cell_setting 'triclinic'
loop_
_space_group_symop_operation_xyz
x,y,z
-x,-y,-z
loop_
_atom_site_type_symbol
_atom_site_label
_atom_site_fract_x
_atom_site_fract_y
_atom_site_fract_z
Si Si1 0.743997 0.327935 0.662332
Si Si2 0.059735 0.651950 0.540607
Si Si3 0.352637 0.059463 0.488795
Si Si4 0.192918 0.504858 0.081469
Si Si5 0.481647 0.427400 0.248483
Si Si6 0.083382 0.150660 0.180485
Si Si7 0.602200 0.000228 0.863114
Si Si8 0.854955 0.879902 0.192126
O O1 0.832645 0.267763 0.603181
O O2 0.840000 0.427225 0.796594
O O3 0.633789 0.434239 0.427542
O O4 0.660347 0.176360 0.822484
O O5 0.000000 0.500000 0.500000
O O6 0.939926 0.752361 0.433863
O O7 0.146468 0.609423 0.804878
O O8 0.420678 0.242269 0.367374
O O9 0.193725 0.057902 0.428521
O O10 0.438074 0.978108 0.762094
O O11 0.367916 0.996835 0.341203
O O12 0.358008 0.506891 0.191053
O O13 0.118634 0.328852 0.130665
O O14 0.500000 0.500000 0.000000
O O15 0.934250 0.050307 0.169969
O O16 0.122119 0.146710 0.991399
O O17 0.692193 0.877440 0.106964
#
# Coordination Sequence:
#
# PCOD9086952 Si02
#       8
#     2   2   2   2   2   2   2   2
#     4  11  23  39  65  93 125 162 205 255 313 372
#     4  12  24  40  62  90 124 166 209 256 306 364
#     4   8  16  30  58  89 113 152 211 245 298 370
#     4  11  23  40  64  95 127 160 205 256 312 371
#     4  10  19  38  65  94 120 159 202 255 313 367
#     4   9  17  34  60  87 118 162 204 250 305 365
#     4   9  18  34  57  89 115 161 208 249 302 369
#     4  10  19  36  61  85 121 162 213 251 300 369
#
# _framework density 26.421192999999999
#
# number of rings (size 3 to 8) (size 9 to 14) (size 15 to 20)
#    0.000    2.000    2.500    2.625    0.000    0.500 
#    0.000    0.625    2.750    0.750    0.000    0.000 
#    0.000    0.000    0.000    0.000    0.000    0.000 
#
# Total GULP energy -89585.036511 kJ/mol
# GULP energy per Si atom -5599.064782 kJ/mol
# Density = 2.636106 g / cm^3
# Si number density = 26.421193 Si / 1000 Ang^3
#
#
#
# Elastic Constant Matrix: (Units=GPa)
#
#
# Indices 1 2 3 4 5 6 
#
# 1 103.7287 8.8325 63.5609 -2.3243 30.6968 -26.4703
# 2 8.8325 94.5478 49.4962 10.1160 10.7943 -5.9487
# 3 63.5609 49.4962 134.2413 -8.7930 26.0440 -16.4527
# 4 -2.3243 10.1160 -8.7930 32.9879 -10.3900 14.1226
# 5 30.6968 10.7943 26.0440 -10.3900 64.1554 -7.3599
# 6 -26.4703 -5.9487 -16.4527 14.1226 -7.3599 34.0375
#
#
#
# Elastic Compliance Matrix: (Units=1/GPa)
#
#
# Indices 1 2 3 4 5 6 
#
# 1 0.021127 0.006296 -0.009700 -0.012355 -0.007352 0.016378
# 2 0.006296 0.016290 -0.008117 -0.011066 -0.003369 0.007683
# 3 -0.009700 -0.008117 0.014810 0.008134 0.000737 -0.005019
# 4 -0.012355 -0.011066 0.008134 0.049083 0.009445 -0.025933
# 5 -0.007352 -0.003369 0.000737 0.009445 0.020273 -0.005486
# 6 0.016378 0.007683 -0.005019 -0.025933 -0.005486 0.050607
#
#
# Mechanical properties :
#
#
# Convention : Reuss Voigt Hill
#
# Bulk Modulus (GPa) = 34.26497 64.03301 49.14899
# Shear Modulus (GPa) = 24.39518 40.27803 32.33660
#
# Velocity S-wave (km/s) = 3.04191 3.90867 3.50221
# Velocity P-wave (km/s) = 5.03334 6.68269 5.91578
#
# Compressibility (1/GPa) = 0.02918432
#
# Stress axis : x y z
#
# Youngs Moduli (GPa) = 47.33337 61.38846 67.52327
#
# Poissons Ratio (x) = -0.38652 0.65499
# Poissons Ratio (y) = -0.29802 0.54808
# Poissons Ratio (z) = 0.45915 0.49829
#
# Static dielectric constant tensor:
#      x y z
#    x 2.137830 -0.028540 0.027290 
#    y -0.028540 2.045210 -0.020110 
#    z 0.027290 -0.020110 2.056970 
# 
# From -- ./inp_files/69340.got.cif
#   From: 2010.05.17/outbox.cif.g08.bks.cpg/sg2_35_cif.got.tgz:69340.got - 2010.06.03 11:33:40.
