data_PCOD9086436
_publ_section_title
;
Structure prediction by ZEFSAII (Michael W. Deem and Ramdas Pophale) SiO2 
 PCOD9086436
Probable space group: P -1
;
_chemical_formula_sum "Si O2"
_cell_formula_units_Z 16
_cell_length_a 8.969918
_cell_length_b 12.176183
_cell_length_c 16.023804
_cell_angle_alpha 58.466292
_cell_angle_beta 148.137109
_cell_angle_gamma 123.944555
_cell_volume 761.652421
_symmetry_space_group_name_H-M "P -1"
_symmetry_group_IT_number 2
_symmetry_cell_setting 'triclinic'
loop_
_space_group_symop_operation_xyz
x,y,z
-x,-y,-z
loop_
_atom_site_type_symbol
_atom_site_label
_atom_site_fract_x
_atom_site_fract_y
_atom_site_fract_z
Si Si1 0.649528 0.978688 0.835516
Si Si2 0.499788 0.331535 0.104842
Si Si3 0.282017 0.939370 0.345605
Si Si4 0.738506 0.072197 0.018989
Si Si5 0.396965 0.523951 0.731287
Si Si6 0.218061 0.627429 0.094278
Si Si7 0.970159 0.433765 0.783471
Si Si8 0.230167 0.634519 0.452908
O O1 0.504165 0.821282 0.829666
O O2 0.579520 0.037239 0.691114
O O3 0.592303 0.045062 0.868159
O O4 0.000000 0.000000 0.000000
O O5 0.459424 0.394584 0.151503
O O6 0.798307 0.420400 0.170390
O O7 0.204876 0.344531 0.912956
O O8 0.500000 0.000000 0.500000
O O9 0.188493 0.781869 0.378498
O O10 0.014402 0.009103 0.185931
O O11 0.831676 0.231137 0.009529
O O12 0.500000 0.000000 0.000000
O O13 0.484398 0.390730 0.797733
O O14 0.448026 0.615628 0.636708
O O15 0.063419 0.476498 0.619766
O O16 0.181949 0.603940 0.185369
O O17 0.000000 0.500000 0.000000
O O18 0.729086 0.402219 0.608785
#
# Coordination Sequence:
#
# PCOD9086436 Si02
#       8
#     2   2   2   2   2   2   2   2
#     4  10  21  37  60  84 122 161 209 249 298 373
#     4  10  19  36  58  85 116 153 208 242 297 347
#     4  11  22  38  66  91 123 159 209 254 303 366
#     4  11  25  42  64  91 127 167 202 252 315 366
#     4  10  22  38  62  87 120 157 195 254 296 364
#     4  12  24  37  62  89 124 154 203 246 303 355
#     4  10  20  34  58  87 114 157 196 251 296 357
#     4  10  21  39  60  87 119 156 202 243 306 352
#
# _framework density 21.006958000000001
#
# number of rings (size 3 to 8) (size 9 to 14) (size 15 to 20)
#    0.000    1.500    1.250    5.250    3.500    0.500 
#    0.000    0.625    0.000    0.000    0.000    0.000 
#    0.000    0.000    0.000    0.000    0.000    0.000 
#
# Total GULP energy -89264.989988 kJ/mol
# GULP energy per Si atom -5579.061874 kJ/mol
# Density = 2.095914 g / cm^3
# Si number density = 21.006958 Si / 1000 Ang^3
#
#
#
# Elastic Constant Matrix: (Units=GPa)
#
#
# Indices 1 2 3 4 5 6 
#
# 1 77.7191 16.5865 20.0138 10.2283 -22.6004 -1.2490
# 2 16.5865 119.3964 28.6387 -16.8313 -14.5321 -3.1978
# 3 20.0138 28.6387 83.8610 2.0372 -34.4089 -7.3696
# 4 10.2283 -16.8313 2.0372 33.9835 -7.2814 -2.1980
# 5 -22.6004 -14.5321 -34.4089 -7.2814 32.2559 -3.1694
# 6 -1.2490 -3.1978 -7.3696 -2.1980 -3.1694 25.1869
#
#
#
# Elastic Compliance Matrix: (Units=1/GPa)
#
#
# Indices 1 2 3 4 5 6 
#
# 1 0.016874 -0.001650 0.002146 -0.003086 0.012929 0.002613
# 2 -0.001650 0.010409 -0.001867 0.006554 0.003185 0.001666
# 3 0.002146 -0.001867 0.024941 0.003926 0.029255 0.011191
# 4 -0.003086 0.006554 0.003926 0.036794 0.013953 0.006795
# 5 0.012929 0.003185 0.029255 0.013953 0.077879 0.020623
# 6 0.002613 0.001666 0.011191 0.006795 0.020623 0.046507
#
#
# Mechanical properties :
#
#
# Convention : Reuss Voigt Hill
#
# Bulk Modulus (GPa) = 20.20939 45.71716 32.96328
# Shear Modulus (GPa) = 21.49240 32.66776 27.08008
#
# Velocity S-wave (km/s) = 3.20208 3.94774 3.59430
# Velocity P-wave (km/s) = 4.82828 6.52608 5.74029
#
# Compressibility (1/GPa) = 0.04948195
#
# Stress axis : x y z
#
# Youngs Moduli (GPa) = 59.26217 96.07389 40.09410
#
# Poissons Ratio (x) = 0.15855 -0.08603
# Poissons Ratio (y) = 0.09780 0.07484
# Poissons Ratio (z) = -0.12717 0.17934
#
# Static dielectric constant tensor:
#      x y z
#    x 1.855720 -0.034260 0.004040 
#    y -0.034260 1.767700 0.013280 
#    z 0.004040 0.013280 1.881440 
# 
# From -- ./inp_files/245143.got.cif
#   From: 2010.05.17/outbox.cif.g08.bks.cpg/sg2_123_cif.got.tgz:245143.got - 2010.06.03 11:33:40.
