data_PCOD9086092
_publ_section_title
;
Structure prediction by ZEFSAII (Michael W. Deem and Ramdas Pophale) SiO2 
 PCOD9086092
Probable space group: P -1
;
_chemical_formula_sum "Si O2"
_cell_formula_units_Z 16
_cell_length_a 22.829237
_cell_length_b 8.205586
_cell_length_c 17.174906
_cell_angle_alpha 48.387053
_cell_angle_beta 22.797888
_cell_angle_gamma 38.028701
_cell_volume 741.592474
_symmetry_space_group_name_H-M "P -1"
_symmetry_group_IT_number 2
_symmetry_cell_setting 'triclinic'
loop_
_space_group_symop_operation_xyz
x,y,z
-x,-y,-z
loop_
_atom_site_type_symbol
_atom_site_label
_atom_site_fract_x
_atom_site_fract_y
_atom_site_fract_z
Si Si1 0.072830 0.092193 0.067900
Si Si2 0.628645 0.865827 0.503069
Si Si3 0.528735 0.428308 0.287292
Si Si4 0.633629 0.762658 0.971305
Si Si5 0.748727 0.612193 0.203214
Si Si6 0.973073 0.733011 0.337466
Si Si7 0.019849 0.740871 0.091077
Si Si8 0.563364 0.053001 0.699548
O O1 0.889997 0.338537 0.166860
O O2 0.004432 0.958446 0.250451
O O3 0.165730 0.220834 0.952053
O O4 0.256429 0.842577 0.873805
O O5 0.591188 0.667965 0.570215
O O6 0.844159 0.755863 0.265417
O O7 0.582063 0.922307 0.634758
O O8 0.467747 0.176853 0.570468
O O9 0.564303 0.572605 0.127718
O O10 0.447136 0.669437 0.375289
O O11 0.600507 0.881608 0.062017
O O12 0.857018 0.559026 0.744910
O O13 0.500000 0.000000 0.000000
O O14 0.779782 0.512063 0.108437
O O15 0.998825 0.731210 0.211938
O O16 0.760339 0.839144 0.573124
O O17 0.000000 0.000000 0.000000
#
# Coordination Sequence:
#
# PCOD9086092 Si02
#       8
#     2   2   2   2   2   2   2   2
#     4   9  18  35  49  75 108 144 189 228 271 318
#     4  10  21  38  54  82 111 151 191 223 274 332
#     4   8  19  38  57  79 112 145 184 230 277 331
#     4   9  19  37  62  86 109 141 181 229 283 337
#     4  10  20  33  51  74 108 147 188 233 265 318
#     4  10  19  36  54  79 112 143 184 224 276 333
#     4  11  22  35  53  80 111 151 189 230 269 322
#     4   9  20  35  59  79 109 148 173 232 280 322
#
# _framework density 21.575192999999999
#
# number of rings (size 3 to 8) (size 9 to 14) (size 15 to 20)
#    0.750    1.750    1.250    0.750    1.750    1.000 
#    4.500    2.500    0.000    3.000    0.000    0.000 
#    0.000    0.000    0.000    0.000    0.000    0.000 
#
# Total GULP energy -89174.419040 kJ/mol
# GULP energy per Si atom -5573.401190 kJ/mol
# Density = 2.152609 g / cm^3
# Si number density = 21.575193 Si / 1000 Ang^3
#
#
#
# Elastic Constant Matrix: (Units=GPa)
#
#
# Indices 1 2 3 4 5 6 
#
# 1 79.4606 36.9469 13.0492 2.9209 -9.1251 4.5108
# 2 36.9469 79.6296 16.0889 24.1007 -8.1142 -10.5335
# 3 13.0492 16.0889 78.0011 16.3157 -20.1041 8.1036
# 4 2.9209 24.1007 16.3157 27.1988 2.0578 -3.8750
# 5 -9.1251 -8.1142 -20.1041 2.0578 38.2225 6.8940
# 6 4.5108 -10.5335 8.1036 -3.8750 6.8940 32.7565
#
#
#
# Elastic Compliance Matrix: (Units=1/GPa)
#
#
# Indices 1 2 3 4 5 6 
#
# 1 0.018126 -0.010972 -0.001401 0.007751 0.001770 -0.005133
# 2 -0.010972 0.024906 0.001398 -0.021146 0.003470 0.005942
# 3 -0.001401 0.001398 0.020336 -0.015561 0.013118 -0.008990
# 4 0.007751 -0.021146 -0.015561 0.066205 -0.015670 0.007112
# 5 0.001770 0.003470 0.013118 -0.015670 0.037241 -0.012065
# 6 -0.005133 0.005942 -0.008990 0.007112 -0.012065 0.038751
#
#
# Mechanical properties :
#
#
# Convention : Reuss Voigt Hill
#
# Bulk Modulus (GPa) = 24.14313 41.02903 32.58608
# Shear Modulus (GPa) = 20.71938 31.03598 25.87768
#
# Velocity S-wave (km/s) = 3.10229 3.79687 3.46702
# Velocity P-wave (km/s) = 4.90375 6.18706 5.58240
#
# Compressibility (1/GPa) = 0.04141965
#
# Stress axis : x y z
#
# Youngs Moduli (GPa) = 55.16869 40.15124 49.17319
#
# Poissons Ratio (x) = 0.44053 0.06890
# Poissons Ratio (y) = 0.60529 -0.06877
# Poissons Ratio (z) = 0.07730 -0.05615
#
# Static dielectric constant tensor:
#      x y z
#    x 1.846360 0.016440 0.002760 
#    y 0.016440 1.820580 0.035960 
#    z 0.002760 0.035960 1.827080 
# 
# From -- ./inp_files/602302.got.cif
#   From: 2010.05.17/outbox.cif.g08.bks.cpg/sg2_302_cif.got.tgz:602302.got - 2010.06.03 11:33:40.
