data_PCOD9086799
_publ_section_title
;
Structure prediction by ZEFSAII (Michael W. Deem and Ramdas Pophale) SiO2 
 PCOD9086799
Probable space group: P -1
;
_chemical_formula_sum "Si O2"
_cell_formula_units_Z 14
_cell_length_a 20.571883
_cell_length_b 7.459968
_cell_length_c 9.712803
_cell_angle_alpha 135.739585
_cell_angle_beta 138.542059
_cell_angle_gamma 37.239818
_cell_volume 570.006426
_symmetry_space_group_name_H-M "P -1"
_symmetry_group_IT_number 2
_symmetry_cell_setting 'triclinic'
loop_
_space_group_symop_operation_xyz
x,y,z
-x,-y,-z
loop_
_atom_site_type_symbol
_atom_site_label
_atom_site_fract_x
_atom_site_fract_y
_atom_site_fract_z
Si Si1 0.186628 0.766595 0.199475
Si Si2 0.955963 0.433455 0.257591
Si Si3 0.632369 0.154080 0.613635
Si Si4 0.913532 0.893060 0.208661
Si Si5 0.345516 0.679001 0.960016
Si Si6 0.483599 0.945446 0.282065
Si Si7 0.835665 0.519032 0.713596
O O1 0.297454 0.777894 0.345709
O O2 0.071178 0.116817 0.210764
O O3 0.196167 0.609176 0.275261
O O4 0.151982 0.610033 0.940631
O O5 0.920411 0.710584 0.253189
O O6 0.000000 0.500000 0.500000
O O7 0.515401 0.172825 0.389160
O O8 0.723176 0.784428 0.595307
O O9 0.613936 0.346760 0.830640
O O10 0.047487 0.789505 0.336096
O O11 0.789446 0.224625 0.201973
O O12 0.883200 0.729087 0.951910
O O13 0.425932 0.386251 0.829487
O O14 0.363166 0.951619 0.085801
O O15 0.500000 0.000000 0.500000
#
# Coordination Sequence:
#
# PCOD9086799 Si02
#       7
#     2   2   2   2   2   2   2
#     4  10  21  36  56  82 126 165 189 235 293 340
#     4  10  21  35  52  81 123 162 198 234 277 351
#     4  10  19  36  60  88 119 157 193 238 293 351
#     4   9  17  34  57  84 121 156 196 236 290 348
#     4   9  19  34  61  86 111 157 197 245 296 345
#     4   9  19  37  59  88 114 145 205 248 294 352
#     4   9  18  34  57  86 124 160 190 233 288 355
#
# _framework density 24.561128
#
# number of rings (size 3 to 8) (size 9 to 14) (size 15 to 20)
#    0.000    2.571    1.429    0.000    6.000    2.286 
#    0.000    2.857    0.000   21.429    0.000   55.000 
#    0.000    0.000    0.000    0.000    0.000    0.000 
#
# Total GULP energy -78081.776652 kJ/mol
# GULP energy per Si atom -5577.269761 kJ/mol
# Density = 2.450523 g / cm^3
# Si number density = 24.561128 Si / 1000 Ang^3
#
#
#
# Elastic Constant Matrix: (Units=GPa)
#
#
# Indices 1 2 3 4 5 6 
#
# 1 129.9928 18.9461 37.7561 6.9028 23.9023 -14.3674
# 2 18.9461 44.8197 22.1771 -4.8655 -17.5431 -15.0209
# 3 37.7561 22.1771 114.0241 13.2884 14.9611 -4.2854
# 4 6.9028 -4.8655 13.2884 30.9637 -8.2619 -5.7857
# 5 23.9023 -17.5431 14.9611 -8.2619 43.0467 8.1115
# 6 -14.3674 -15.0209 -4.2854 -5.7857 8.1115 30.4837
#
#
#
# Elastic Compliance Matrix: (Units=1/GPa)
#
#
# Indices 1 2 3 4 5 6 
#
# 1 0.012227 -0.010880 0.000867 -0.007931 -0.013541 0.002622
# 2 -0.010880 0.059608 -0.016197 0.032430 0.038836 0.017788
# 3 0.000867 -0.016197 0.014915 -0.013706 -0.014081 -0.004330
# 4 -0.007931 0.032430 -0.013706 0.055597 0.030659 0.012709
# 5 -0.013541 0.038836 -0.014081 0.030659 0.057090 0.001403
# 6 0.002622 0.017788 -0.004330 0.012709 0.001403 0.044235
#
#
# Mechanical properties :
#
#
# Convention : Reuss Voigt Hill
#
# Bulk Modulus (GPa) = 29.12907 49.62168 39.37538
# Shear Modulus (GPa) = 16.25811 34.89599 25.57705
#
# Velocity S-wave (km/s) = 2.57562 3.77341 3.23052
# Velocity P-wave (km/s) = 4.55309 6.26355 5.47552
#
# Compressibility (1/GPa) = 0.03432996
#
# Stress axis : x y z
#
# Youngs Moduli (GPa) = 81.78350 16.77616 67.04469
#
# Poissons Ratio (x) = 0.18253 -0.05812
# Poissons Ratio (y) = 0.88982 1.08594
# Poissons Ratio (z) = -0.07089 0.27173
#
# Static dielectric constant tensor:
#      x y z
#    x 2.027930 -0.050370 0.022070 
#    y -0.050370 2.013220 -0.009810 
#    z 0.022070 -0.009810 2.083880 
# 
# From -- ./inp_files/474041.got.cif
#   From: 2010.05.17/outbox.cif.g08.bks.cpg/sg2_238_cif.got.tgz:474041.got - 2010.06.03 11:33:40.
