data_PCOD9086514
_publ_section_title
;
Structure prediction by ZEFSAII (Michael W. Deem and Ramdas Pophale) SiO2 
 PCOD9086514
Probable space group: P -1
;
_chemical_formula_sum "Si O2"
_cell_formula_units_Z 16
_cell_length_a 15.359776
_cell_length_b 4.994498
_cell_length_c 15.689011
_cell_angle_alpha 59.435899
_cell_angle_beta 39.612359
_cell_angle_gamma 73.468436
_cell_volume 648.048374
_symmetry_space_group_name_H-M "P -1"
_symmetry_group_IT_number 2
_symmetry_cell_setting 'triclinic'
loop_
_space_group_symop_operation_xyz
x,y,z
-x,-y,-z
loop_
_atom_site_type_symbol
_atom_site_label
_atom_site_fract_x
_atom_site_fract_y
_atom_site_fract_z
Si Si1 0.856921 0.323600 0.069053
Si Si2 0.696328 0.675217 0.261685
Si Si3 0.473001 0.521891 0.865542
Si Si4 0.744679 0.368578 0.645207
Si Si5 0.476963 0.728247 0.302895
Si Si6 0.795123 0.729390 0.782170
Si Si7 0.084154 0.258810 0.784289
Si Si8 0.020880 0.766270 0.324057
O O1 0.790964 0.561266 0.136127
O O2 0.730523 0.057107 0.171727
O O3 0.926773 0.102193 0.115932
O O4 0.968936 0.410911 0.896394
O O5 0.568889 0.659819 0.162786
O O6 0.764151 0.585887 0.314034
O O7 0.618422 0.412189 0.795709
O O8 0.511464 0.896568 0.759682
O O9 0.461482 0.419199 0.637303
O O10 0.886846 0.616941 0.505356
O O11 0.675563 0.407926 0.598087
O O12 0.773504 0.017735 0.691122
O O13 0.351572 0.428514 0.039740
O O14 0.870577 0.469048 0.726646
O O15 0.897484 0.912101 0.748581
O O16 0.043434 0.229544 0.722160
#
# Coordination Sequence:
#
# PCOD9086514 Si02
#       8
#     2   2   2   2   2   2   2   2
#     4   9  20  32  59  86 136 162 208 264 319 372
#     4  10  19  36  58  92 125 163 209 263 318 373
#     4  10  24  41  70  95 131 167 228 268 322 385
#     4  10  27  46  68  92 139 171 219 271 338 388
#     4  10  23  38  71  92 129 168 217 264 331 381
#     4  12  27  43  69  98 128 173 227 277 320 387
#     4   9  23  33  59  88 132 168 213 256 324 382
#     4  12  28  42  67  99 135 176 215 269 336 394
#
# _framework density 24.689515
#
# number of rings (size 3 to 8) (size 9 to 14) (size 15 to 20)
#    1.500    0.250    0.000    3.000   10.500    0.500 
#    0.000    0.625    0.000    1.500    0.000    0.000 
#    0.000    0.000    0.000    0.000    0.000    0.000 
#
# Total GULP energy -89341.466679 kJ/mol
# GULP energy per Si atom -5583.841667 kJ/mol
# Density = 2.463332 g / cm^3
# Si number density = 24.689515 Si / 1000 Ang^3
#
#
#
# Elastic Constant Matrix: (Units=GPa)
#
#
# Indices 1 2 3 4 5 6 
#
# 1 150.4191 -0.0937 33.3698 17.3948 -4.7907 -2.1467
# 2 -0.0937 68.8793 -4.1628 3.4227 2.6088 8.3738
# 3 33.3698 -4.1628 88.4231 -2.5939 -20.2980 -14.4511
# 4 17.3948 3.4227 -2.5939 -10.8238 0.9738 -11.9966
# 5 -4.7907 2.6088 -20.2980 0.9738 33.2152 -0.4698
# 6 -2.1467 8.3738 -14.4511 -11.9966 -0.4698 19.5991
#
#
#
# Elastic Compliance Matrix: (Units=1/GPa)
#
#
# Indices 1 2 3 4 5 6 
#
# 1 0.006344 -0.000842 -0.001697 0.006281 -0.000189 0.003643
# 2 -0.000842 0.014604 0.000505 0.005764 -0.001163 -0.002459
# 3 -0.001697 0.000505 0.014425 -0.010013 0.008886 0.004319
# 4 0.006281 0.005764 -0.010013 -0.040655 -0.004957 -0.034161
# 5 -0.000189 -0.001163 0.008886 -0.004957 0.035815 0.004852
# 6 0.003643 -0.002459 0.004319 -0.034161 0.004852 0.034863
#
#
# Mechanical properties :
#
#
# Convention : Reuss Voigt Hill
#
# Bulk Modulus (GPa) = 31.94295 40.66089 36.30192
# Shear Modulus (GPa) = 62.57960 26.97197 44.77579
#
# Velocity S-wave (km/s) = 5.04001 3.30880 4.26321
# Velocity P-wave (km/s) = 6.84360 5.57694 6.24248
#
# Compressibility (1/GPa) = 0.03130581
#
# Stress axis : x y z
#
# Youngs Moduli (GPa) = 157.63506 68.47404 69.32175
#
# Poissons Ratio (x) = 0.05764 0.11767
# Poissons Ratio (y) = 0.13270 -0.03504
# Poissons Ratio (z) = 0.26757 -0.03461
#
# Static dielectric constant tensor:
#      x y z
#    x 2.055190 0.021950 -0.021180 
#    y 0.021950 1.914020 -0.009990 
#    z -0.021180 -0.009990 1.946780 
# 
# From -- ./inp_files/571403.got.cif
#   From: 2010.05.17/outbox.cif.g08.bks.cpg/sg2_286_cif.got.tgz:571403.got - 2010.06.03 11:33:40.
