data_PCOD9086979
_publ_section_title
;
Structure prediction by ZEFSAII (Michael W. Deem and Ramdas Pophale) SiO2 
 PCOD9086979
Probable space group: P -1
;
_chemical_formula_sum "Si O2"
_cell_formula_units_Z 16
_cell_length_a 22.850370
_cell_length_b 14.078824
_cell_length_c 7.373343
_cell_angle_alpha 55.695409
_cell_angle_beta 111.807751
_cell_angle_gamma 155.259895
_cell_volume 749.390679
_symmetry_space_group_name_H-M "P -1"
_symmetry_group_IT_number 2
_symmetry_cell_setting 'triclinic'
loop_
_space_group_symop_operation_xyz
x,y,z
-x,-y,-z
loop_
_atom_site_type_symbol
_atom_site_label
_atom_site_fract_x
_atom_site_fract_y
_atom_site_fract_z
Si Si1 0.300365 0.342980 0.827245
Si Si2 0.182531 0.906636 0.006032
Si Si3 0.342586 0.056274 0.484442
Si Si4 0.223917 0.267299 0.241776
Si Si5 0.007098 0.090610 0.089366
Si Si6 0.904721 0.184874 0.400727
Si Si7 0.461189 0.299023 0.729186
Si Si8 0.084859 0.481585 0.635835
O O1 0.483334 0.649737 0.699032
O O2 0.253754 0.144628 0.900826
O O3 0.260441 0.299311 0.037933
O O4 0.169041 0.202462 0.727930
O O5 0.110792 0.788902 0.846965
O O6 0.339103 0.095129 0.970768
O O7 0.043005 0.659443 0.247256
O O8 0.373715 0.086509 0.699034
O O9 0.237952 0.998806 0.446893
O O10 0.244211 0.798539 0.544170
O O11 0.382554 0.506254 0.265900
O O12 0.114257 0.981255 0.479350
O O13 0.137907 0.244751 0.189469
O O14 0.057393 0.303529 0.860549
O O15 0.000000 0.000000 0.000000
O O16 0.049611 0.433969 0.432522
O O17 0.500000 0.500000 0.500000
#
# Coordination Sequence:
#
# PCOD9086979 Si02
#       8
#     2   2   2   2   2   2   2   2
#     4  10  19  36  61  87 115 156 202 244 291 346
#     4  10  20  37  61  89 116 161 198 230 306 342
#     4  11  23  38  56  92 123 151 196 247 304 342
#     4  11  19  36  65  89 115 155 203 248 285 349
#     4   9  19  39  63  82 113 160 205 240 287 345
#     4  11  20  36  63  87 123 152 193 248 290 359
#     4  11  20  35  59  88 125 146 190 251 287 354
#     4  11  23  41  60  84 128 158 193 247 288 362
#
# _framework density 21.350679
#
# number of rings (size 3 to 8) (size 9 to 14) (size 15 to 20)
#    0.000    1.500    7.500    0.375    1.750    3.000 
#    2.250    8.750    0.000    0.000    0.000    0.000 
#    0.000    0.000    0.000    0.000    0.000    0.000 
#
# Total GULP energy -89087.912401 kJ/mol
# GULP energy per Si atom -5567.994525 kJ/mol
# Density = 2.130208 g / cm^3
# Si number density = 21.350679 Si / 1000 Ang^3
#
#
#
# Elastic Constant Matrix: (Units=GPa)
#
#
# Indices 1 2 3 4 5 6 
#
# 1 65.7097 56.7483 27.4283 -4.9519 9.9779 6.9359
# 2 56.7483 192.3968 40.0341 -14.7975 5.6284 4.5921
# 3 27.4283 40.0341 63.0839 -11.4921 -6.5329 -0.0364
# 4 -4.9519 -14.7975 -11.4921 37.9276 -1.0293 3.1363
# 5 9.9779 5.6284 -6.5329 -1.0293 30.0715 -2.4696
# 6 6.9359 4.5921 -0.0364 3.1363 -2.4696 33.6929
#
#
#
# Elastic Compliance Matrix: (Units=1/GPa)
#
#
# Indices 1 2 3 4 5 6 
#
# 1 0.025529 -0.005353 -0.008969 -0.001316 -0.009884 -0.005137
# 2 -0.005353 0.007319 -0.002035 0.001544 0.000014 -0.000040
# 3 -0.008969 -0.002035 0.022855 0.005004 0.008684 0.002319
# 4 -0.001316 0.001544 0.005004 0.028570 0.002012 -0.002446
# 5 -0.009884 0.000014 0.008684 0.002012 0.038873 0.004704
# 6 -0.005137 -0.000040 0.002319 -0.002446 0.004704 0.031318
#
#
# Mechanical properties :
#
#
# Convention : Reuss Voigt Hill
#
# Bulk Modulus (GPa) = 43.49783 63.29021 53.39402
# Shear Modulus (GPa) = 25.66190 33.47038 29.56614
#
# Velocity S-wave (km/s) = 3.47064 3.96365 3.72531
# Velocity P-wave (km/s) = 6.03968 7.11723 6.60048
#
# Compressibility (1/GPa) = 0.02298965
#
# Stress axis : x y z
#
# Youngs Moduli (GPa) = 39.17056 136.62628 43.75395
#
# Poissons Ratio (x) = 0.73139 0.39243
# Poissons Ratio (y) = 0.20969 0.08903
# Poissons Ratio (z) = 0.35132 0.27800
#
# Static dielectric constant tensor:
#      x y z
#    x 1.796500 0.041910 0.003510 
#    y 0.041910 1.860040 0.040870 
#    z 0.003510 0.040870 1.906700 
# 
# From -- ./inp_files/277835.got.cif
#   From: 2010.05.17/outbox.cif.g08.bks.cpg/sg2_139_cif.got.tgz:277835.got - 2010.06.03 11:33:40.
