data_PCOD9086401
_publ_section_title
;
Structure prediction by ZEFSAII (Michael W. Deem and Ramdas Pophale) SiO2 
 PCOD9086401
Probable space group: P -1
;
_chemical_formula_sum "Si O2"
_cell_formula_units_Z 16
_cell_length_a 11.699461
_cell_length_b 13.496855
_cell_length_c 14.796913
_cell_angle_alpha 27.147577
_cell_angle_beta 42.434580
_cell_angle_gamma 42.721591
_cell_volume 695.940967
_symmetry_space_group_name_H-M "P -1"
_symmetry_group_IT_number 2
_symmetry_cell_setting 'triclinic'
loop_
_space_group_symop_operation_xyz
x,y,z
-x,-y,-z
loop_
_atom_site_type_symbol
_atom_site_label
_atom_site_fract_x
_atom_site_fract_y
_atom_site_fract_z
Si Si1 0.879349 0.865284 0.631201
Si Si2 0.959769 0.816454 0.329261
Si Si3 0.732935 0.981429 0.059769
Si Si4 0.358996 0.236456 0.541345
Si Si5 0.450856 0.640447 0.273603
Si Si6 0.150054 0.547005 0.611734
Si Si7 0.710584 0.158701 0.323159
Si Si8 0.206743 0.437674 0.948645
O O1 0.012840 0.648854 0.686272
O O2 0.773723 0.004060 0.499314
O O3 0.756624 0.800006 0.830361
O O4 0.000000 0.000000 0.500000
O O5 0.834416 0.704700 0.434681
O O6 0.051299 0.661840 0.484559
O O7 0.826256 0.037342 0.271690
O O8 0.106989 0.900440 0.120558
O O9 0.638801 0.959987 0.227323
O O10 0.804682 0.721359 0.200077
O O11 0.617201 0.127566 0.929773
O O12 0.404973 0.441324 0.402065
O O13 0.503455 0.184713 0.420258
O O14 0.328542 0.635259 0.435713
O O15 0.661343 0.579948 0.198214
O O16 0.750671 0.390653 0.142142
O O17 0.000000 0.500000 0.000000
#
# Coordination Sequence:
#
# PCOD9086401 Si02
#       8
#     2   2   2   2   2   2   2   2
#     4  11  21  38  62  84 108 148 194 236 287 341
#     4  10  20  34  57  85 115 151 189 229 280 338
#     4  10  19  36  58  82 118 150 186 228 283 334
#     4  10  20  34  57  85 115 151 189 229 280 338
#     4   9  21  38  57  83 119 148 188 235 282 335
#     4   9  21  38  57  83 119 148 188 235 282 335
#     4  10  21  38  56  82 118 146 185 240 286 334
#     4  11  21  38  62  84 108 148 194 236 287 341
#
# _framework density 22.990455000000001
#
# number of rings (size 3 to 8) (size 9 to 14) (size 15 to 20)
#    0.000    2.000    1.250    2.250    0.000    5.500 
#    0.000    1.250    2.750    8.250    0.000    0.000 
#    0.000    0.000    0.000    0.000    0.000    0.000 
#
# Total GULP energy -89383.148299 kJ/mol
# GULP energy per Si atom -5586.446769 kJ/mol
# Density = 2.293813 g / cm^3
# Si number density = 22.990455 Si / 1000 Ang^3
#
#
#
# Elastic Constant Matrix: (Units=GPa)
#
#
# Indices 1 2 3 4 5 6 
#
# 1 51.2648 12.1943 26.2061 6.0725 -13.4648 -19.6924
# 2 12.1943 54.3111 26.3210 14.3443 -21.1177 -14.7150
# 3 26.2061 26.3210 133.2035 6.0005 -12.7976 -12.1326
# 4 6.0725 14.3443 6.0005 37.9491 -6.8495 -2.7146
# 5 -13.4648 -21.1177 -12.7976 -6.8495 31.1093 5.8124
# 6 -19.6924 -14.7150 -12.1326 -2.7146 5.8124 37.3899
#
#
#
# Elastic Compliance Matrix: (Units=1/GPa)
#
#
# Indices 1 2 3 4 5 6 
#
# 1 0.028957 0.003914 -0.004112 -0.002614 0.010372 0.013655
# 2 0.003914 0.030974 -0.003970 -0.007847 0.017553 0.009665
# 3 -0.004112 -0.003970 0.008960 0.000597 -0.000528 -0.000696
# 4 -0.002614 -0.007847 0.000597 0.029612 0.000725 -0.002234
# 5 0.010372 0.017553 -0.000528 0.000725 0.047585 0.004855
# 6 0.013655 0.009665 -0.000696 -0.002234 0.004855 0.036598
#
#
# Mechanical properties :
#
#
# Convention : Reuss Voigt Hill
#
# Bulk Modulus (GPa) = 16.51429 40.91358 28.71394
# Shear Modulus (GPa) = 23.67352 32.89354 28.28353
#
# Velocity S-wave (km/s) = 3.21239 3.78663 3.51127
# Velocity P-wave (km/s) = 4.57799 6.07886 5.38101
#
# Compressibility (1/GPa) = 0.06055363
#
# Stress axis : x y z
#
# Youngs Moduli (GPa) = 34.53436 32.28525 111.60791
#
# Poissons Ratio (x) = -0.12637 0.45897
# Poissons Ratio (y) = -0.13518 0.44312
# Poissons Ratio (z) = 0.14202 0.12818
#
# Static dielectric constant tensor:
#      x y z
#    x 1.857100 -0.017680 0.014720 
#    y -0.017680 1.901460 -0.001930 
#    z 0.014720 -0.001930 1.830980 
# 
# From -- ./inp_files/521289.got.cif
#   From: 2010.05.17/outbox.cif.g08.bks.cpg/sg2_261_cif.got.tgz:521289.got - 2010.06.03 11:33:40.
