data_PCOD9086432
_publ_section_title
;
Structure prediction by ZEFSAII (Michael W. Deem and Ramdas Pophale) SiO2 
 PCOD9086432
Probable space group: P -1
;
_chemical_formula_sum "Si O2"
_cell_formula_units_Z 16
_cell_length_a 13.146259
_cell_length_b 11.807132
_cell_length_c 9.783370
_cell_angle_alpha 51.377246
_cell_angle_beta 49.085304
_cell_angle_gamma 46.029712
_cell_volume 784.776777
_symmetry_space_group_name_H-M "P -1"
_symmetry_group_IT_number 2
_symmetry_cell_setting 'triclinic'
loop_
_space_group_symop_operation_xyz
x,y,z
-x,-y,-z
loop_
_atom_site_type_symbol
_atom_site_label
_atom_site_fract_x
_atom_site_fract_y
_atom_site_fract_z
Si Si1 0.691707 0.146870 0.715119
Si Si2 0.482758 0.011014 0.669915
Si Si3 0.376199 0.242213 0.833245
Si Si4 0.200565 0.943858 0.017896
Si Si5 0.743275 0.371261 0.318207
Si Si6 0.856357 0.139821 0.153703
Si Si7 0.817275 0.884420 0.565197
Si Si8 0.058789 0.320399 0.153755
O O1 0.527861 0.149988 0.863317
O O2 0.658799 0.316852 0.543858
O O3 0.793258 0.009048 0.618214
O O4 0.776961 0.127682 0.796059
O O5 0.428996 0.180165 0.678262
O O6 0.500000 0.000000 0.500000
O O7 0.347482 0.968940 0.850001
O O8 0.654667 0.896611 0.661206
O O9 0.316096 0.435362 0.766184
O O10 0.231215 0.216636 0.019071
O O11 0.196801 0.837530 0.972825
O O12 0.031928 0.104377 0.034511
O O13 0.742746 0.293985 0.230074
O O14 0.924705 0.279171 0.265435
O O15 0.861137 0.971318 0.337711
O O16 0.922316 0.706499 0.677988
O O17 0.000000 0.500000 0.000000
#
# Coordination Sequence:
#
# PCOD9086432 Si02
#       8
#     2   2   2   2   2   2   2   2
#     4  10  20  34  58  85 108 145 191 233 271 327
#     4  11  21  36  58  84 112 147 187 233 281 328
#     4  10  21  36  58  83 112 147 188 232 278 333
#     4  11  21  35  55  86 114 142 189 232 280 324
#     4  10  20  37  58  81 114 148 187 225 282 332
#     4  10  21  35  57  83 115 148 183 230 277 335
#     4  10  19  36  58  85 111 144 190 232 273 331
#     4  10  20  34  58  86 112 142 184 233 278 326
#
# _framework density 20.387962000000002
#
# number of rings (size 3 to 8) (size 9 to 14) (size 15 to 20)
#    0.000    1.750    1.250    4.125    0.000    4.000 
#    0.000    0.625    5.500    1.500    0.000    0.000 
#    0.000    0.000    0.000    0.000    0.000    0.000 
#
# Total GULP energy -89142.440502 kJ/mol
# GULP energy per Si atom -5571.402531 kJ/mol
# Density = 2.034156 g / cm^3
# Si number density = 20.387962 Si / 1000 Ang^3
#
#
#
# Elastic Constant Matrix: (Units=GPa)
#
#
# Indices 1 2 3 4 5 6 
#
# 1 127.5063 23.7787 30.0323 12.6115 18.3333 -8.1321
# 2 23.7787 52.2827 8.0459 4.1274 16.7787 2.6120
# 3 30.0323 8.0459 66.5279 10.7380 10.6926 5.7824
# 4 12.6115 4.1274 10.7380 25.2566 3.9880 1.8349
# 5 18.3333 16.7787 10.6926 3.9880 53.4192 12.3083
# 6 -8.1321 2.6120 5.7824 1.8349 12.3083 24.2067
#
#
#
# Elastic Compliance Matrix: (Units=1/GPa)
#
#
# Indices 1 2 3 4 5 6 
#
# 1 0.010561 -0.003290 -0.003957 -0.003047 -0.003106 0.006658
# 2 -0.003290 0.022594 -0.000108 -0.001059 -0.005748 -0.000514
# 3 -0.003957 -0.000108 0.018227 -0.005284 -0.000733 -0.004899
# 4 -0.003047 -0.001059 -0.005284 0.043770 -0.000168 -0.002879
# 5 -0.003106 -0.005748 -0.000733 -0.000168 0.024698 -0.012794
# 6 0.006658 -0.000514 -0.004899 -0.002879 -0.012794 0.051497
#
#
# Mechanical properties :
#
#
# Convention : Reuss Voigt Hill
#
# Bulk Modulus (GPa) = 27.26891 41.11452 34.19171
# Shear Modulus (GPa) = 25.21672 32.87383 29.04528
#
# Velocity S-wave (km/s) = 3.52069 4.01984 3.77852
# Velocity P-wave (km/s) = 5.47093 6.46184 5.98692
#
# Compressibility (1/GPa) = 0.03667180
#
# Stress axis : x y z
#
# Youngs Moduli (GPa) = 94.68889 44.26035 54.86270
#
# Poissons Ratio (x) = 0.14560 0.21711
# Poissons Ratio (y) = 0.31149 0.00593
# Poissons Ratio (z) = 0.37472 0.00478
#
# Static dielectric constant tensor:
#      x y z
#    x 1.751530 -0.015370 -0.026280 
#    y -0.015370 1.785230 -0.017130 
#    z -0.026280 -0.017130 1.817470 
# 
# From -- ./inp_files/256691.got.cif
#   From: 2010.05.17/outbox.cif.g08.bks.cpg/sg2_129_cif.got.tgz:256691.got - 2010.06.03 11:33:40.
