data_PCOD9086318
_publ_section_title
;
Structure prediction by ZEFSAII (Michael W. Deem and Ramdas Pophale) SiO2 
 PCOD9086318
Probable space group: P -1
;
_chemical_formula_sum "Si O2"
_cell_formula_units_Z 16
_cell_length_a 9.298811
_cell_length_b 9.455861
_cell_length_c 9.108195
_cell_angle_alpha 62.273449
_cell_angle_beta 69.631550
_cell_angle_gamma 73.081072
_cell_volume 656.495290
_symmetry_space_group_name_H-M "P -1"
_symmetry_group_IT_number 2
_symmetry_cell_setting 'triclinic'
loop_
_space_group_symop_operation_xyz
x,y,z
-x,-y,-z
loop_
_atom_site_type_symbol
_atom_site_label
_atom_site_fract_x
_atom_site_fract_y
_atom_site_fract_z
Si Si1 0.487890 0.355100 0.188405
Si Si2 0.143881 0.011387 0.099692
Si Si3 0.955270 0.639196 0.160947
Si Si4 0.073031 0.149189 0.339188
Si Si5 0.540874 0.154557 0.997031
Si Si6 0.815642 0.395841 0.148208
Si Si7 0.614439 0.434658 0.625871
Si Si8 0.026933 0.710226 0.413201
O O1 0.655594 0.331572 0.218681
O O2 0.376859 0.421337 0.329462
O O3 0.500000 0.500000 0.000000
O O4 0.467080 0.212494 0.152320
O O5 0.197124 0.080274 0.204833
O O6 0.275519 0.901989 0.012986
O O7 0.033572 0.887829 0.253310
O O8 0.081182 0.171400 0.955479
O O9 0.824450 0.551243 0.172212
O O10 0.974452 0.614240 0.339022
O O11 0.114388 0.569342 0.052525
O O12 0.941190 0.258579 0.239477
O O13 0.089279 0.257148 0.423885
O O14 0.000000 0.000000 0.500000
O O15 0.536320 0.301662 0.811014
O O16 0.500000 0.000000 0.000000
O O17 0.500000 0.500000 0.500000
O O18 0.792699 0.350945 0.571444
#
# Coordination Sequence:
#
# PCOD9086318 Si02
#       8
#     2   2   2   2   2   2   2   2
#     4  10  21  37  62  84 116 160 200 240 299 352
#     4   9  19  35  56  84 117 151 190 245 297 347
#     4  10  20  32  56  84 117 145 193 246 290 348
#     4   9  19  35  57  79 114 154 185 235 297 357
#     4  10  22  39  62  90 119 153 208 251 290 355
#     4  10  20  35  54  84 112 151 194 238 291 350
#     4  10  21  39  63  88 122 164 200 243 298 359
#     4  10  19  36  57  86 117 152 196 237 296 353
#
# _framework density 24.371842999999998
#
# number of rings (size 3 to 8) (size 9 to 14) (size 15 to 20)
#    0.000    2.250    0.000    3.375    3.500    2.500 
#    2.250    0.625    2.750    0.000    0.000    0.000 
#    0.000    0.000    0.000    0.000    0.000    0.000 
#
# Total GULP energy -89284.281179 kJ/mol
# GULP energy per Si atom -5580.267574 kJ/mol
# Density = 2.431637 g / cm^3
# Si number density = 24.371843 Si / 1000 Ang^3
#
#
#
# Elastic Constant Matrix: (Units=GPa)
#
#
# Indices 1 2 3 4 5 6 
#
# 1 60.1488 38.1048 21.6857 -0.4157 10.5372 21.1718
# 2 38.1048 139.4099 61.1699 30.4348 15.9620 11.6897
# 3 21.6857 61.1699 124.3466 23.5687 28.1008 0.2706
# 4 -0.4157 30.4348 23.5687 62.0667 0.4799 6.8384
# 5 10.5372 15.9620 28.1008 0.4799 24.7101 6.3841
# 6 21.1718 11.6897 0.2706 6.8384 6.3841 33.5975
#
#
#
# Elastic Compliance Matrix: (Units=1/GPa)
#
#
# Indices 1 2 3 4 5 6 
#
# 1 0.027358 -0.006185 -0.002724 0.006039 -0.000506 -0.016199
# 2 -0.006185 0.011367 -0.003466 -0.004408 -0.000949 0.001048
# 3 -0.002724 -0.003466 0.014292 -0.004343 -0.014431 0.006433
# 4 0.006039 -0.004408 -0.004343 0.020765 0.006812 -0.007758
# 5 -0.000506 -0.000949 -0.014431 0.006812 0.060719 -0.012159
# 6 -0.016199 0.001048 0.006433 -0.007758 -0.012159 0.043445
#
#
# Mechanical properties :
#
#
# Convention : Reuss Voigt Hill
#
# Bulk Modulus (GPa) = 35.37406 62.86955 49.12181
# Shear Modulus (GPa) = 23.57186 37.60451 30.58819
#
# Velocity S-wave (km/s) = 3.11332 3.93230 3.54653
# Velocity P-wave (km/s) = 5.24114 6.81684 6.08025
#
# Compressibility (1/GPa) = 0.02826930
#
# Stress axis : x y z
#
# Youngs Moduli (GPa) = 36.55274 87.97197 69.96731
#
# Poissons Ratio (x) = 0.54408 0.19057
# Poissons Ratio (y) = 0.22607 0.24248
# Poissons Ratio (z) = 0.09956 0.30488
#
# Static dielectric constant tensor:
#      x y z
#    x 1.848430 0.156150 0.188260 
#    y 0.156150 1.950710 -0.139070 
#    z 0.188260 -0.139070 1.661390 
# 
# From -- ./inp_files/242993.got.cif
#   From: 2010.05.17/outbox.cif.g08.bks.cpg/sg2_122_cif.got.tgz:242993.got - 2010.06.03 11:33:40.
