data_PCOD9086108
_publ_section_title
;
Structure prediction by ZEFSAII (Michael W. Deem and Ramdas Pophale) SiO2 
 PCOD9086108
Probable space group: P -1
;
_chemical_formula_sum "Si O2"
_cell_formula_units_Z 16
_cell_length_a 11.693831
_cell_length_b 9.332804
_cell_length_c 14.467850
_cell_angle_alpha 57.290204
_cell_angle_beta 77.513452
_cell_angle_gamma 39.998380
_cell_volume 794.825028
_symmetry_space_group_name_H-M "P -1"
_symmetry_group_IT_number 2
_symmetry_cell_setting 'triclinic'
loop_
_space_group_symop_operation_xyz
x,y,z
-x,-y,-z
loop_
_atom_site_type_symbol
_atom_site_label
_atom_site_fract_x
_atom_site_fract_y
_atom_site_fract_z
Si Si1 0.487905 0.227653 0.748839
Si Si2 0.798639 0.574208 0.643278
Si Si3 0.446585 0.151694 0.585378
Si Si4 0.400554 0.949727 0.932844
Si Si5 0.774760 0.916591 0.276768
Si Si6 0.850169 0.168567 0.884118
Si Si7 0.854577 0.818376 0.921859
Si Si8 0.584113 0.468365 0.169521
O O1 0.426656 0.290915 0.631087
O O2 0.442111 0.095141 0.846923
O O3 0.412173 0.456235 0.754229
O O4 0.716183 0.981418 0.801311
O O5 0.677680 0.650011 0.549635
O O6 0.840128 0.365471 0.773256
O O7 0.008966 0.395938 0.642101
O O8 0.664262 0.867298 0.614696
O O9 0.364643 0.059468 0.659385
O O10 0.287646 0.002822 0.847459
O O11 0.272858 0.084228 0.999922
O O12 0.584012 0.624524 0.041766
O O13 0.739975 0.143996 0.243560
O O14 0.625618 0.377134 0.867467
O O15 0.923019 0.931145 0.888737
O O16 0.000000 0.000000 0.000000
O O17 0.000000 0.500000 0.000000
#
# Coordination Sequence:
#
# PCOD9086108 Si02
#       8
#     2   2   2   2   2   2   2   2
#     4   9  20  37  57  77 117 160 192 236 300 343
#     4  11  22  39  63  88 114 156 204 240 296 339
#     4  10  23  41  62  82 118 158 202 246 283 352
#     4   9  19  34  54  85 112 158 188 229 301 352
#     4  11  21  36  63  84 116 147 205 245 289 347
#     4  10  21  36  57  87 120 148 196 239 293 353
#     4  10  21  33  54  86 125 148 191 239 290 357
#     4  10  19  36  54  87 122 151 192 245 295 348
#
# _framework density 20.130216999999998
#
# number of rings (size 3 to 8) (size 9 to 14) (size 15 to 20)
#    0.000    2.250    1.250    3.750    3.500    2.000 
#    0.000    3.125    0.000    0.000    0.000    0.000 
#    0.000    0.000    0.000    0.000    0.000    0.000 
#
# Total GULP energy -89248.212307 kJ/mol
# GULP energy per Si atom -5578.013269 kJ/mol
# Density = 2.008440 g / cm^3
# Si number density = 20.130217 Si / 1000 Ang^3
#
#
#
# Elastic Constant Matrix: (Units=GPa)
#
#
# Indices 1 2 3 4 5 6 
#
# 1 43.7270 27.0916 3.2647 5.7103 15.6637 12.0026
# 2 27.0916 82.2381 25.8712 -9.7363 24.5704 1.0337
# 3 3.2647 25.8712 96.4018 13.2740 23.4385 10.4281
# 4 5.7103 -9.7363 13.2740 27.1547 4.6136 7.2775
# 5 15.6637 24.5704 23.4385 4.6136 21.5013 8.8916
# 6 12.0026 1.0337 10.4281 7.2775 8.8916 27.6293
#
#
#
# Elastic Compliance Matrix: (Units=1/GPa)
#
#
# Indices 1 2 3 4 5 6 
#
# 1 0.041090 -0.011852 0.009257 -0.010979 -0.019239 -0.011817
# 2 -0.011852 0.026268 -0.003863 0.015419 -0.024369 0.009405
# 3 0.009257 -0.003863 0.016808 -0.007859 -0.017987 -0.002362
# 4 -0.010979 0.015419 -0.007859 0.051102 -0.010859 -0.002807
# 5 -0.019239 -0.024369 -0.017987 -0.010859 0.118219 -0.019126
# 6 -0.011817 0.009405 -0.002362 -0.002807 -0.019126 0.048761
#
#
# Mechanical properties :
#
#
# Convention : Reuss Voigt Hill
#
# Bulk Modulus (GPa) = 14.03544 37.20242 25.61893
# Shear Modulus (GPa) = 14.75304 26.33302 20.54303
#
# Velocity S-wave (km/s) = 2.71011 3.62074 3.19800
# Velocity P-wave (km/s) = 4.09639 6.00005 5.13717
#
# Compressibility (1/GPa) = 0.07124823
#
# Stress axis : x y z
#
# Youngs Moduli (GPa) = 24.33687 38.06980 59.49717
#
# Poissons Ratio (x) = 0.45119 -0.55075
# Poissons Ratio (y) = 0.28843 0.22987
# Poissons Ratio (z) = -0.22528 0.14708
#
# Static dielectric constant tensor:
#      x y z
#    x 1.811680 -0.022280 0.001060 
#    y -0.022280 1.748380 0.009740 
#    z 0.001060 0.009740 1.716930 
# 
# From -- ./inp_files/417141.got.cif
#   From: 2010.05.17/outbox.cif.g08.bks.cpg/sg2_209_cif.got.tgz:417141.got - 2010.06.03 11:33:40.
