data_PCOD9086871
_publ_section_title
;
Structure prediction by ZEFSAII (Michael W. Deem and Ramdas Pophale) SiO2 
 PCOD9086871
Probable space group: P -1
;
_chemical_formula_sum "Si O2"
_cell_formula_units_Z 10
_cell_length_a 5.707379
_cell_length_b 10.664446
_cell_length_c 10.178548
_cell_angle_alpha 38.443097
_cell_angle_beta 92.481005
_cell_angle_gamma 100.439884
_cell_volume 373.845694
_symmetry_space_group_name_H-M "P -1"
_symmetry_group_IT_number 2
_symmetry_cell_setting 'triclinic'
loop_
_space_group_symop_operation_xyz
x,y,z
-x,-y,-z
loop_
_atom_site_type_symbol
_atom_site_label
_atom_site_fract_x
_atom_site_fract_y
_atom_site_fract_z
Si Si1 0.136463 0.353558 0.704361
Si Si2 0.772704 0.283206 0.107535
Si Si3 0.706009 0.011642 0.100672
Si Si4 0.932063 0.746926 0.637538
Si Si5 0.602024 0.310184 0.367433
O O1 0.000000 0.500000 0.500000
O O2 0.326311 0.493035 0.695500
O O3 0.947125 0.179028 0.924592
O O4 0.250079 0.218551 0.715309
O O5 0.627430 0.114615 0.144207
O O6 0.636943 0.341576 0.184249
O O7 0.983576 0.194258 0.258021
O O8 0.872920 0.494020 0.856888
O O9 0.500000 0.000000 0.000000
O O10 0.681600 0.788064 0.554541
O O11 0.177568 0.804724 0.510633
#
# Coordination Sequence:
#
# PCOD9086871 Si02
#       5
#     2   2   2   2   2
#     4  11  25  42  64  97 135 174 217 274 336 395
#     4   9  18  32  60  90 121 167 216 269 318 388
#     4  11  23  43  66  97 131 173 221 273 330 399
#     4   9  17  30  60  91 122 160 220 264 323 381
#     4  10  19  36  60  92 124 169 219 267 324 392
#
# _framework density 26.749006000000001
#
# number of rings (size 3 to 8) (size 9 to 14) (size 15 to 20)
#    1.200    0.800    2.000    1.800    0.000    4.000 
#    0.000    1.000    0.000    2.400    0.000    0.000 
#    0.000    0.000    0.000    0.000    0.000    0.000 
#
# Total GULP energy -55849.310097 kJ/mol
# GULP energy per Si atom -5584.931010 kJ/mol
# Density = 2.668812 g / cm^3
# Si number density = 26.749006 Si / 1000 Ang^3
#
#
#
# Elastic Constant Matrix: (Units=GPa)
#
#
# Indices 1 2 3 4 5 6 
#
# 1 160.9037 56.6806 45.3978 -10.3827 9.0162 32.3073
# 2 56.6806 262.9554 54.4408 -5.1965 9.0988 15.7195
# 3 45.3978 54.4408 85.6022 -8.4417 7.4215 2.4174
# 4 -10.3827 -5.1965 -8.4417 32.2726 -1.2176 0.0645
# 5 9.0162 9.0988 7.4215 -1.2176 36.2642 6.7315
# 6 32.3073 15.7195 2.4174 0.0645 6.7315 45.8571
#
#
#
# Elastic Compliance Matrix: (Units=1/GPa)
#
#
# Indices 1 2 3 4 5 6 
#
# 1 0.008839 -0.000718 -0.003891 0.001718 -0.000093 -0.005765
# 2 -0.000718 0.004527 -0.002463 -0.000156 -0.000297 -0.000872
# 3 -0.003891 -0.002463 0.015640 0.002357 -0.002106 0.003067
# 4 0.001718 -0.000156 0.002357 0.032151 0.000468 -0.001395
# 5 -0.000093 -0.000297 -0.002106 0.000468 0.028854 -0.003958
# 6 -0.005765 -0.000872 0.003067 -0.001395 -0.003958 0.026589
#
#
# Mechanical properties :
#
#
# Convention : Reuss Voigt Hill
#
# Bulk Modulus (GPa) = 67.28365 91.38887 79.33626
# Shear Modulus (GPa) = 36.84636 46.40825 41.62730
#
# Velocity S-wave (km/s) = 3.71548 4.16979 3.94917
# Velocity P-wave (km/s) = 6.60414 7.57776 7.10764
#
# Compressibility (1/GPa) = 0.01486245
#
# Stress axis : x y z
#
# Youngs Moduli (GPa) = 113.13247 220.89629 63.93722
#
# Poissons Ratio (x) = 0.15860 0.24876
# Poissons Ratio (y) = 0.08123 0.15750
# Poissons Ratio (z) = 0.44017 0.54414
#
# Static dielectric constant tensor:
#      x y z
#    x 2.165820 -0.050120 0.012800 
#    y -0.050120 2.164800 -0.031660 
#    z 0.012800 -0.031660 2.185730 
# 
# From -- ./inp_files/77322.got.cif
#   From: 2010.05.17/outbox.cif.g08.bks.cpg/sg2_39_cif.got.tgz:77322.got - 2010.06.03 11:33:40.
