data_PCOD9086816
_publ_section_title
;
Structure prediction by ZEFSAII (Michael W. Deem and Ramdas Pophale) SiO2 
 PCOD9086816
Probable space group: P -1
;
_chemical_formula_sum "Si O2"
_cell_formula_units_Z 14
_cell_length_a 16.873026
_cell_length_b 16.100581
_cell_length_c 6.782319
_cell_angle_alpha 44.998085
_cell_angle_beta 145.712092
_cell_angle_gamma 148.059604
_cell_volume 549.022404
_symmetry_space_group_name_H-M "P -1"
_symmetry_group_IT_number 2
_symmetry_cell_setting 'triclinic'
loop_
_space_group_symop_operation_xyz
x,y,z
-x,-y,-z
loop_
_atom_site_type_symbol
_atom_site_label
_atom_site_fract_x
_atom_site_fract_y
_atom_site_fract_z
Si Si1 0.568385 0.414270 0.959729
Si Si2 0.208811 0.469267 0.162809
Si Si3 0.903535 0.210584 0.706822
Si Si4 0.222023 0.646585 0.220573
Si Si5 0.176468 0.292162 0.775959
Si Si6 0.497221 0.036483 0.659015
Si Si7 0.751179 0.889624 0.997589
O O1 0.702330 0.387129 0.379475
O O2 0.626826 0.557777 0.972575
O O3 0.356346 0.247804 0.828247
O O4 0.637044 0.474799 0.779568
O O5 0.277214 0.619215 0.171784
O O6 0.169493 0.356397 0.447400
O O7 0.017406 0.363765 0.818317
O O8 0.020182 0.243565 0.695466
O O9 0.688111 0.132110 0.361209
O O10 0.888709 0.074392 0.020657
O O11 0.287240 0.818175 0.090852
O O12 0.000000 0.500000 0.000000
O O13 0.173196 0.154492 0.939278
O O14 0.420280 0.124357 0.408591
O O15 0.500000 0.000000 0.500000
#
# Coordination Sequence:
#
# PCOD9086816 Si02
#       7
#     2   2   2   2   2   2   2
#     4   9  20  38  57  88 124 153 191 252 297 348
#     4  10  21  37  58  87 120 158 200 237 294 358
#     4   9  20  37  59  87 125 154 191 250 298 344
#     4  10  20  37  64  87 114 157 205 243 296 357
#     4  10  19  36  60  89 120 161 198 235 297 363
#     4   9  19  37  60  88 121 153 194 249 302 344
#     4   9  19  35  60  87 121 160 194 246 301 345
#
# _framework density 25.499867999999999
#
# number of rings (size 3 to 8) (size 9 to 14) (size 15 to 20)
#    0.857    1.714    0.000    1.714    0.000    1.714 
#    2.571    7.143    0.000   12.000    0.000    0.000 
#    0.000    0.000    0.000    0.000    0.000    0.000 
#
# Total GULP energy -77955.833369 kJ/mol
# GULP energy per Si atom -5568.273812 kJ/mol
# Density = 2.544183 g / cm^3
# Si number density = 25.499868 Si / 1000 Ang^3
#
#
#
# Elastic Constant Matrix: (Units=GPa)
#
#
# Indices 1 2 3 4 5 6 
#
# 1 135.3231 45.2802 37.7582 8.2429 -31.8460 11.3877
# 2 45.2802 147.4043 62.0205 28.1469 -22.2743 2.4173
# 3 37.7582 62.0205 73.5629 6.2789 -13.2418 2.8721
# 4 8.2429 28.1469 6.2789 34.1992 -1.7551 -3.1092
# 5 -31.8460 -22.2743 -13.2418 -1.7551 33.6602 0.2522
# 6 11.3877 2.4173 2.8721 -3.1092 0.2522 51.2592
#
#
#
# Elastic Compliance Matrix: (Units=1/GPa)
#
#
# Indices 1 2 3 4 5 6 
#
# 1 0.010766 -0.000137 -0.003637 -0.001584 0.008599 -0.002320
# 2 -0.000137 0.013190 -0.009471 -0.008914 0.004413 -0.000623
# 3 -0.003637 -0.009471 0.022977 0.004452 -0.000438 0.000239
# 4 -0.001584 -0.008914 0.004452 0.036196 -0.003779 0.002737
# 5 0.008599 0.004413 -0.000438 -0.003779 0.040414 -0.002522
# 6 -0.002320 -0.000623 0.000239 0.002737 -0.002522 0.020218
#
#
# Mechanical properties :
#
#
# Convention : Reuss Voigt Hill
#
# Bulk Modulus (GPa) = 48.91415 71.82311 60.36863
# Shear Modulus (GPa) = 28.23832 37.90583 33.07208
#
# Velocity S-wave (km/s) = 3.33136 3.85971 3.60523
# Velocity P-wave (km/s) = 5.83275 6.93472 6.40747
#
# Compressibility (1/GPa) = 0.02044398
#
# Stress axis : x y z
#
# Youngs Moduli (GPa) = 92.88901 75.81377 43.52214
#
# Poissons Ratio (x) = 0.01039 0.15827
# Poissons Ratio (y) = 0.01273 0.41218
# Poissons Ratio (z) = 0.33780 0.71801
#
# Static dielectric constant tensor:
#      x y z
#    x 2.066160 -0.064880 0.086860 
#    y -0.064880 2.879150 0.105490 
#    z 0.086860 0.105490 2.141750 
# 
# From -- ./inp_files/97816.got.cif
#   From: 2010.05.17/outbox.cif.g08.bks.cpg/sg2_49_cif.got.tgz:97816.got - 2010.06.03 11:33:40.
