data_PCOD9086931
_publ_section_title
;
Structure prediction by ZEFSAII (Michael W. Deem and Ramdas Pophale) SiO2 
 PCOD9086931
Probable space group: P -1
;
_chemical_formula_sum "Si O2"
_cell_formula_units_Z 16
_cell_length_a 23.661804
_cell_length_b 8.332295
_cell_length_c 14.378815
_cell_angle_alpha 104.168459
_cell_angle_beta 18.858292
_cell_angle_gamma 96.046811
_cell_volume 813.108694
_symmetry_space_group_name_H-M "P -1"
_symmetry_group_IT_number 2
_symmetry_cell_setting 'triclinic'
loop_
_space_group_symop_operation_xyz
x,y,z
-x,-y,-z
loop_
_atom_site_type_symbol
_atom_site_label
_atom_site_fract_x
_atom_site_fract_y
_atom_site_fract_z
Si Si1 0.476544 0.491228 0.721178
Si Si2 0.138414 0.599171 0.803879
Si Si3 0.245029 0.821384 0.013171
Si Si4 0.365832 0.909443 0.647093
Si Si5 0.995357 0.003219 0.895540
Si Si6 0.887298 0.800894 0.671447
Si Si7 0.277571 0.628501 0.382218
Si Si8 0.850263 0.440308 0.618212
O O1 0.673444 0.498947 0.443328
O O2 0.393794 0.625899 0.783904
O O3 0.504727 0.284992 0.627986
O O4 0.331938 0.562140 0.043086
O O5 0.213700 0.610263 0.583761
O O6 0.000000 0.500000 0.000000
O O7 0.033933 0.791634 0.045007
O O8 0.256032 0.856265 0.893249
O O9 0.047848 0.822402 0.359004
O O10 0.269375 0.995318 0.045904
O O11 0.500000 0.000000 0.500000
O O12 0.194037 0.015136 0.855958
O O13 0.193425 0.846867 0.531138
O O14 0.000000 0.000000 0.000000
O O15 0.974890 0.720626 0.625638
O O16 0.846013 0.637118 0.672354
O O17 0.162824 0.578134 0.473186
O O18 0.500000 0.500000 0.000000
#
# Coordination Sequence:
#
# PCOD9086931 Si02
#       8
#     2   2   2   2   2   2   2   2
#     4  10  21  37  56  84 123 157 193 260 304 361
#     4  10  22  42  60  87 122 164 203 255 312 362
#     4  10  20  35  54  85 121 152 194 244 308 361
#     4  11  22  37  62  90 119 161 213 248 307 377
#     4   9  22  41  62  87 123 163 204 258 310 364
#     4   9  20  36  56  85 118 156 186 251 310 359
#     4  11  21  39  65  88 116 161 211 253 299 369
#     4  10  19  36  61  84 117 152 204 244 303 358
#
# _framework density 19.677567
#
# number of rings (size 3 to 8) (size 9 to 14) (size 15 to 20)
#    0.000    2.000    1.250    1.875    0.000    6.000 
#    2.250    0.625    0.000    0.000    0.000    0.000 
#    0.000    0.000    0.000    0.000    0.000    0.000 
#
# Total GULP energy -89078.601753 kJ/mol
# GULP energy per Si atom -5567.412610 kJ/mol
# Density = 1.963278 g / cm^3
# Si number density = 19.677567 Si / 1000 Ang^3
#
#
#
# Elastic Constant Matrix: (Units=GPa)
#
#
# Indices 1 2 3 4 5 6 
#
# 1 88.1021 4.7439 27.3578 -0.9254 -3.7250 9.2987
# 2 4.7439 67.2585 42.7847 -0.6615 -12.5667 12.4121
# 3 27.3578 42.7847 86.6436 23.4092 -9.2904 4.7710
# 4 -0.9254 -0.6615 23.4092 29.9008 0.6096 -0.2701
# 5 -3.7250 -12.5667 -9.2904 0.6096 24.3790 -4.4076
# 6 9.2987 12.4121 4.7710 -0.2701 -4.4076 28.1484
#
#
#
# Elastic Compliance Matrix: (Units=1/GPa)
#
#
# Indices 1 2 3 4 5 6 
#
# 1 0.014690 0.006281 -0.009507 0.007972 0.000604 -0.005840
# 2 0.006281 0.030818 -0.020357 0.016578 0.006683 -0.011008
# 3 -0.009507 -0.020357 0.031208 -0.025152 0.001818 0.006871
# 4 0.007972 0.016578 -0.025152 0.053744 -0.002160 -0.005503
# 5 0.000604 0.006683 0.001818 -0.002160 0.045976 0.003724
# 6 -0.005840 -0.011008 0.006871 -0.005503 0.003724 0.041675
#
#
# Mechanical properties :
#
#
# Convention : Reuss Voigt Hill
#
# Bulk Modulus (GPa) = 33.84308 43.53077 38.68693
# Shear Modulus (GPa) = 18.17334 27.62681 22.90007
#
# Velocity S-wave (km/s) = 3.04230 3.75103 3.41510
# Velocity P-wave (km/s) = 5.43847 6.39768 5.93748
#
# Compressibility (1/GPa) = 0.02954814
#
# Stress axis : x y z
#
# Youngs Moduli (GPa) = 68.07283 32.44857 32.04290
#
# Poissons Ratio (x) = -0.20380 0.30464
# Poissons Ratio (y) = -0.42754 0.65231
# Poissons Ratio (z) = 0.64719 0.66057
#
# Static dielectric constant tensor:
#      x y z
#    x 1.701050 0.008750 -0.038150 
#    y 0.008750 1.697550 0.052550 
#    z -0.038150 0.052550 1.728230 
# 
# From -- ./inp_files/297774.got.cif
#   From: 2010.05.17/outbox.cif.g08.bks.cpg/sg2_149_cif.got.tgz:297774.got - 2010.06.03 11:33:40.
