data_PCOD9086254
_publ_section_title
;
Structure prediction by ZEFSAII (Michael W. Deem and Ramdas Pophale) SiO2 
 PCOD9086254
Probable space group: P -1
;
_chemical_formula_sum "Si O2"
_cell_formula_units_Z 16
_cell_length_a 11.838352
_cell_length_b 23.893462
_cell_length_c 11.166106
_cell_angle_alpha 31.194382
_cell_angle_beta 149.797666
_cell_angle_gamma 138.958430
_cell_volume 821.589558
_symmetry_space_group_name_H-M "P -1"
_symmetry_group_IT_number 2
_symmetry_cell_setting 'triclinic'
loop_
_space_group_symop_operation_xyz
x,y,z
-x,-y,-z
loop_
_atom_site_type_symbol
_atom_site_label
_atom_site_fract_x
_atom_site_fract_y
_atom_site_fract_z
Si Si1 0.737764 0.743447 0.852715
Si Si2 0.815833 0.740786 0.349466
Si Si3 0.405346 0.119336 0.303551
Si Si4 0.747124 0.289353 0.604893
Si Si5 0.396835 0.457993 0.357910
Si Si6 0.254509 0.505620 0.601761
Si Si7 0.915109 0.397781 0.327930
Si Si8 0.169910 0.917927 0.359311
O O1 0.693290 0.816212 0.795427
O O2 0.512750 0.762235 0.530239
O O3 0.713679 0.614347 0.096983
O O4 0.010890 0.760886 0.043354
O O5 0.701735 0.662640 0.485825
O O6 0.899860 0.665604 0.456700
O O7 0.026816 0.812377 0.464502
O O8 0.659420 0.821297 0.988596
O O9 0.672111 0.117013 0.540325
O O10 0.311676 0.994146 0.442106
O O11 0.747365 0.401898 0.471348
O O12 0.780798 0.317884 0.442452
O O13 0.500000 0.500000 0.500000
O O14 0.561692 0.463058 0.387170
O O15 0.219609 0.544483 0.002116
O O16 0.024185 0.490589 0.343890
O O17 0.000000 0.000000 0.000000
#
# Coordination Sequence:
#
# PCOD9086254 Si02
#       8
#     2   2   2   2   2   2   2   2
#     4  11  20  36  58  85 113 152 190 248 300 342
#     4  11  21  34  53  80 115 155 191 234 293 354
#     4  10  19  36  57  81 114 147 191 247 303 356
#     4  11  23  36  59  85 118 155 204 252 289 334
#     4  12  24  35  51  82 119 167 201 227 283 362
#     4  11  23  36  53  82 118 157 203 238 286 343
#     4  11  21  36  54  78 119 159 198 242 283 346
#     4   9  21  34  54  81 112 144 192 247 299 357
#
# _framework density 19.474443999999998
#
# number of rings (size 3 to 8) (size 9 to 14) (size 15 to 20)
#    0.000    1.250    5.000    3.000    5.250    0.000 
#    0.000    0.000    0.000    0.000    0.000    1.750 
#    0.000    0.000    0.000    0.000    0.000    0.000 
#
# Total GULP energy -89113.020671 kJ/mol
# GULP energy per Si atom -5569.563792 kJ/mol
# Density = 1.943012 g / cm^3
# Si number density = 19.474444 Si / 1000 Ang^3
#
#
#
# Elastic Constant Matrix: (Units=GPa)
#
#
# Indices 1 2 3 4 5 6 
#
# 1 48.7099 18.8939 20.9923 -8.3999 17.1949 -2.3042
# 2 18.8939 92.0410 23.7648 1.6365 9.4071 4.8404
# 3 20.9923 23.7648 69.2867 20.3976 19.7122 -5.7025
# 4 -8.3999 1.6365 20.3976 29.7061 -0.9958 6.5911
# 5 17.1949 9.4071 19.7122 -0.9958 25.7050 -6.8933
# 6 -2.3042 4.8404 -5.7025 6.5911 -6.8933 31.8953
#
#
#
# Elastic Compliance Matrix: (Units=1/GPa)
#
#
# Indices 1 2 3 4 5 6 
#
# 1 0.034437 -0.002671 -0.011473 0.018634 -0.014167 -0.006070
# 2 -0.002671 0.012735 -0.004456 0.002364 -0.000297 -0.003475
# 3 -0.011473 -0.004456 0.032260 -0.027448 -0.014299 0.008197
# 4 0.018634 0.002364 -0.027448 0.061240 0.005993 -0.015280
# 5 -0.014167 -0.000297 -0.014299 0.005993 0.061999 0.008626
# 6 -0.006070 -0.003475 0.008197 -0.015280 0.008626 0.037929
#
#
# Mechanical properties :
#
#
# Convention : Reuss Voigt Hill
#
# Bulk Modulus (GPa) = 23.67820 37.48218 30.58019
# Shear Modulus (GPa) = 17.13045 27.22040 22.17542
#
# Velocity S-wave (km/s) = 2.96909 3.74270 3.37811
# Velocity P-wave (km/s) = 4.89275 6.16164 5.56348
#
# Compressibility (1/GPa) = 0.04223294
#
# Stress axis : x y z
#
# Youngs Moduli (GPa) = 29.03816 78.52597 30.99772
#
# Poissons Ratio (x) = 0.20976 0.35562
# Poissons Ratio (y) = 0.07757 0.13813
# Poissons Ratio (z) = 0.33314 0.34992
#
# Static dielectric constant tensor:
#      x y z
#    x 1.675020 0.039610 0.055160 
#    y 0.039610 1.777920 0.090260 
#    z 0.055160 0.090260 1.751250 
# 
# From -- ./inp_files/80701.got.cif
#   From: 2010.05.17/outbox.cif.g08.bks.cpg/sg2_41_cif.got.tgz:80701.got - 2010.06.03 11:33:40.
