data_PCOD9086651
_publ_section_title
;
Structure prediction by ZEFSAII (Michael W. Deem and Ramdas Pophale) SiO2 
 PCOD9086651
Probable space group: P -1
;
_chemical_formula_sum "Si O2"
_cell_formula_units_Z 16
_cell_length_a 19.883647
_cell_length_b 9.753382
_cell_length_c 10.551246
_cell_angle_alpha 40.321411
_cell_angle_beta 149.335341
_cell_angle_gamma 135.313034
_cell_volume 665.795434
_symmetry_space_group_name_H-M "P -1"
_symmetry_group_IT_number 2
_symmetry_cell_setting 'triclinic'
loop_
_space_group_symop_operation_xyz
x,y,z
-x,-y,-z
loop_
_atom_site_type_symbol
_atom_site_label
_atom_site_fract_x
_atom_site_fract_y
_atom_site_fract_z
Si Si1 0.400296 0.859856 0.840890
Si Si2 0.372094 0.133325 0.349764
Si Si3 0.661396 0.104151 0.790021
Si Si4 0.861229 0.697120 0.031280
Si Si5 0.124799 0.266814 0.386315
Si Si6 0.582391 0.652420 0.127584
Si Si7 0.916380 0.396419 0.117187
Si Si8 0.123537 0.923872 0.424188
O O1 0.252858 0.811612 0.692796
O O2 0.385155 0.996132 0.593748
O O3 0.480091 0.675010 0.058148
O O4 0.500000 0.000000 0.000000
O O5 0.308331 0.971564 0.249056
O O6 0.275991 0.300848 0.115082
O O7 0.524989 0.206552 0.499054
O O8 0.784206 0.250276 0.952240
O O9 0.625951 0.883737 0.967215
O O10 0.889354 0.490398 0.143973
O O11 0.860753 0.882488 0.791627
O O12 0.984637 0.777586 0.267347
O O13 0.274811 0.392055 0.563160
O O14 0.057907 0.391799 0.080412
O O15 0.128380 0.036665 0.489909
O O16 0.041331 0.277702 0.371672
O O17 0.500000 0.500000 0.000000
#
# Coordination Sequence:
#
# PCOD9086651 Si02
#       8
#     2   2   2   2   2   2   2   2
#     4  10  19  36  59  90 120 155 197 246 302 352
#     4   9  20  36  61  86 115 160 197 241 295 358
#     4  10  22  41  59  88 122 162 196 248 303 354
#     4   9  18  33  56  89 114 152 197 245 290 347
#     4  10  21  37  60  91 119 157 199 249 292 362
#     4  11  25  39  61  89 121 160 204 248 301 357
#     4  10  22  36  62  92 120 154 202 247 301 354
#     4   9  17  33  57  83 120 153 194 242 295 347
#
# _framework density 24.031407000000002
#
# number of rings (size 3 to 8) (size 9 to 14) (size 15 to 20)
#    0.000    2.250    1.250    0.750    7.000    3.000 
#    0.000    2.500    0.000    1.500    0.000    0.000 
#    0.000    0.000    0.000    0.000    0.000    0.000 
#
# Total GULP energy -89473.725107 kJ/mol
# GULP energy per Si atom -5592.107819 kJ/mol
# Density = 2.397671 g / cm^3
# Si number density = 24.031407 Si / 1000 Ang^3
#
#
#
# Elastic Constant Matrix: (Units=GPa)
#
#
# Indices 1 2 3 4 5 6 
#
# 1 145.4548 62.2197 60.6428 -0.7756 32.8441 -32.4699
# 2 62.2197 116.9925 37.0446 17.1119 28.0756 -35.0995
# 3 60.6428 37.0446 108.2600 7.8132 36.3876 -18.8827
# 4 -0.7756 17.1119 7.8132 34.2854 4.4162 -0.2580
# 5 32.8441 28.0756 36.3876 4.4162 57.9043 -16.8465
# 6 -32.4699 -35.0995 -18.8827 -0.2580 -16.8465 47.2659
#
#
#
# Elastic Compliance Matrix: (Units=1/GPa)
#
#
# Indices 1 2 3 4 5 6 
#
# 1 0.011289 -0.004070 -0.004315 0.003448 -0.001227 0.002590
# 2 -0.004070 0.014386 -0.000268 -0.006911 -0.001917 0.007059
# 3 -0.004315 -0.000268 0.013961 -0.002379 -0.005931 0.000287
# 4 0.003448 -0.006911 -0.002379 0.033305 -0.000756 -0.003802
# 5 -0.001227 -0.001917 -0.005931 -0.000756 0.023798 0.003842
# 6 0.002590 0.007059 0.000287 -0.003802 0.003842 0.029641
#
#
# Mechanical properties :
#
#
# Convention : Reuss Voigt Hill
#
# Bulk Modulus (GPa) = 44.78632 76.72460 60.75546
# Shear Modulus (GPa) = 33.08416 41.94446 37.51431
#
# Velocity S-wave (km/s) = 3.71442 4.18233 3.95530
# Velocity P-wave (km/s) = 6.08876 7.43765 6.79675
#
# Compressibility (1/GPa) = 0.02232825
#
# Stress axis : x y z
#
# Youngs Moduli (GPa) = 88.58325 69.51400 71.62672
#
# Poissons Ratio (x) = 0.28292 0.30910
# Poissons Ratio (y) = 0.36053 0.01922
# Poissons Ratio (z) = 0.38227 0.01866
#
# Static dielectric constant tensor:
#      x y z
#    x 1.910740 0.023800 0.006530 
#    y 0.023800 1.892350 -0.094160 
#    z 0.006530 -0.094160 1.937950 
# 
# From -- ./inp_files/259832.got.cif
#   From: 2010.05.17/outbox.cif.g08.bks.cpg/sg2_130_cif.got.tgz:259832.got - 2010.06.03 11:33:40.
