data_PCOD9086443
_publ_section_title
;
Structure prediction by ZEFSAII (Michael W. Deem and Ramdas Pophale) SiO2 
 PCOD9086443
Probable space group: P -1
;
_chemical_formula_sum "Si O2"
_cell_formula_units_Z 16
_cell_length_a 20.996352
_cell_length_b 5.578152
_cell_length_c 12.064160
_cell_angle_alpha 63.567674
_cell_angle_beta 138.108730
_cell_angle_gamma 96.607334
_cell_volume 787.613874
_symmetry_space_group_name_H-M "P -1"
_symmetry_group_IT_number 2
_symmetry_cell_setting 'triclinic'
loop_
_space_group_symop_operation_xyz
x,y,z
-x,-y,-z
loop_
_atom_site_type_symbol
_atom_site_label
_atom_site_fract_x
_atom_site_fract_y
_atom_site_fract_z
Si Si1 0.633734 0.277006 0.982366
Si Si2 0.392066 0.345634 0.502637
Si Si3 0.955993 0.398570 0.575453
Si Si4 0.577317 0.087968 0.660845
Si Si5 0.713146 0.581983 0.214201
Si Si6 0.727241 0.557692 0.885940
Si Si7 0.036550 0.814193 0.699584
Si Si8 0.570733 0.689570 0.203579
O O1 0.693048 0.404801 0.121124
O O2 0.673512 0.931797 0.096853
O O3 0.656671 0.384259 0.871266
O O4 0.516698 0.421057 0.842070
O O5 0.508514 0.132385 0.672583
O O6 0.404938 0.645798 0.428323
O O7 0.307874 0.335231 0.306373
O O8 0.368844 0.298913 0.608325
O O9 0.834740 0.486343 0.399751
O O10 0.000000 0.500000 0.500000
O O11 0.986707 0.570991 0.677444
O O12 0.003811 0.053423 0.703794
O O13 0.500000 0.000000 0.500000
O O14 0.687468 0.837505 0.854721
O O15 0.649228 0.518318 0.246937
O O16 0.842607 0.358419 0.098074
O O17 0.000000 0.000000 0.500000
O O18 0.500000 0.000000 0.000000
#
# Coordination Sequence:
#
# PCOD9086443 Si02
#       8
#     2   2   2   2   2   2   2   2
#     4  11  22  37  61  93 128 162 211 245 314 377
#     4  10  21  40  56  89 127 164 213 248 310 378
#     4  10  19  36  58  85 122 150 204 260 312 358
#     4   9  19  35  58  88 122 163 200 253 306 373
#     4  11  23  40  61  90 128 171 201 258 316 373
#     4  11  23  35  66  91 127 165 202 267 321 367
#     4  10  21  36  58  92 121 153 199 263 318 366
#     4  10  23  40  60  89 128 171 210 251 301 384
#
# _framework density 20.314523000000001
#
# number of rings (size 3 to 8) (size 9 to 14) (size 15 to 20)
#    0.000    1.750    0.000    6.375    7.000    0.000 
#    9.000    0.000    0.000    1.500    0.000    0.000 
#    0.000    0.000    0.000    0.000    0.000    0.000 
#
# Total GULP energy -89156.626903 kJ/mol
# GULP energy per Si atom -5572.289181 kJ/mol
# Density = 2.026829 g / cm^3
# Si number density = 20.314523 Si / 1000 Ang^3
#
#
#
# Elastic Constant Matrix: (Units=GPa)
#
#
# Indices 1 2 3 4 5 6 
#
# 1 57.3694 10.4027 50.0513 -0.7287 11.6163 -9.5543
# 2 10.4027 120.9208 32.2557 -5.6774 8.8987 -11.4773
# 3 50.0513 32.2557 127.9817 -4.1022 20.6542 -13.7233
# 4 -0.7287 -5.6774 -4.1022 34.9110 -6.9187 10.2962
# 5 11.6163 8.8987 20.6542 -6.9187 43.7728 3.3810
# 6 -9.5543 -11.4773 -13.7233 10.2962 3.3810 22.1578
#
#
#
# Elastic Compliance Matrix: (Units=1/GPa)
#
#
# Indices 1 2 3 4 5 6 
#
# 1 0.028060 0.001190 -0.009691 -0.003967 -0.004456 0.009237
# 2 0.001190 0.009242 -0.002071 -0.000339 -0.001612 0.004421
# 3 -0.009691 -0.002071 0.013088 -0.000835 -0.003607 0.003792
# 4 -0.003967 -0.000339 -0.000835 0.036230 0.008832 -0.020586
# 5 -0.004456 -0.001612 -0.003607 0.008832 0.028492 -0.013442
# 6 0.009237 0.004421 0.003792 -0.020586 -0.013442 0.065369
#
#
# Mechanical properties :
#
#
# Convention : Reuss Voigt Hill
#
# Bulk Modulus (GPa) = 34.19427 54.63236 44.41331
# Shear Modulus (GPa) = 23.65453 34.40582 29.03017
#
# Velocity S-wave (km/s) = 3.41605 4.11987 3.78436
# Velocity P-wave (km/s) = 5.69458 7.04150 6.40355
#
# Compressibility (1/GPa) = 0.02924467
#
# Stress axis : x y z
#
# Youngs Moduli (GPa) = 35.63736 108.19707 76.40691
#
# Poissons Ratio (x) = -0.12870 0.74048
# Poissons Ratio (y) = -0.04239 0.15825
# Poissons Ratio (z) = 0.34537 0.22410
#
# Static dielectric constant tensor:
#      x y z
#    x 1.725150 -0.019230 -0.035190 
#    y -0.019230 1.868370 0.018400 
#    z -0.035190 0.018400 1.755050 
# 
# From -- ./inp_files/109635.got.cif
#   From: 2010.05.17/outbox.cif.g08.bks.cpg/sg2_55_cif.got.tgz:109635.got - 2010.06.03 11:33:40.
