data_PCOD9086773
_publ_section_title
;
Structure prediction by ZEFSAII (Michael W. Deem and Ramdas Pophale) SiO2 
 PCOD9086773
Probable space group: P -1
;
_chemical_formula_sum "Si O2"
_cell_formula_units_Z 16
_cell_length_a 12.526457
_cell_length_b 7.287673
_cell_length_c 13.783081
_cell_angle_alpha 75.220211
_cell_angle_beta 134.706641
_cell_angle_gamma 128.318181
_cell_volume 663.592019
_symmetry_space_group_name_H-M "P -1"
_symmetry_group_IT_number 2
_symmetry_cell_setting 'triclinic'
loop_
_space_group_symop_operation_xyz
x,y,z
-x,-y,-z
loop_
_atom_site_type_symbol
_atom_site_label
_atom_site_fract_x
_atom_site_fract_y
_atom_site_fract_z
Si Si1 0.312991 0.008498 0.046533
Si Si2 0.158420 0.518099 0.309597
Si Si3 0.476915 0.344418 0.412253
Si Si4 0.083037 0.167821 0.141653
Si Si5 0.964273 0.184979 0.414109
Si Si6 0.655801 0.475364 0.304729
Si Si7 0.842720 0.509602 0.026690
Si Si8 0.589289 0.808241 0.131263
O O1 0.494565 0.195639 0.206147
O O2 0.378533 0.072755 0.968276
O O3 0.213166 0.724780 0.039686
O O4 0.142741 0.027611 0.946610
O O5 0.379208 0.713947 0.462647
O O6 0.161123 0.405456 0.226606
O O7 0.046803 0.289228 0.344939
O O8 0.018556 0.583662 0.197731
O O9 0.500000 0.500000 0.500000
O O10 0.246838 0.142209 0.270584
O O11 0.571815 0.494171 0.350583
O O12 0.094678 0.263811 0.029013
O O13 0.125763 0.425001 0.550091
O O14 0.732089 0.025680 0.272767
O O15 0.000000 0.000000 0.500000
O O16 0.657887 0.644503 0.203860
O O17 0.638445 0.381415 0.965721
#
# Coordination Sequence:
#
# PCOD9086773 Si02
#       8
#     2   2   2   2   2   2   2   2
#     4  11  22  35  59  90 123 152 191 255 307 334
#     4   9  17  32  55  86 108 149 196 244 277 340
#     4   9  18  35  60  84 112 157 200 238 287 355
#     4  10  19  36  60  87 114 158 200 242 285 360
#     4   9  18  33  58  81 114 154 197 232 290 355
#     4  10  21  37  57  91 122 149 194 258 300 339
#     4  11  21  36  62  88 117 157 208 237 287 362
#     4  11  20  38  60  88 113 164 201 238 285 373
#
# _framework density 24.1112
#
# number of rings (size 3 to 8) (size 9 to 14) (size 15 to 20)
#    0.000    2.000    3.750    2.250    0.000    0.500 
#    0.000    0.625    0.000   18.750    0.000    0.000 
#    0.000    0.000    0.000    0.000    0.000    0.000 
#
# Total GULP energy -89241.827525 kJ/mol
# GULP energy per Si atom -5577.614220 kJ/mol
# Density = 2.405632 g / cm^3
# Si number density = 24.111200 Si / 1000 Ang^3
#
#
#
# Elastic Constant Matrix: (Units=GPa)
#
#
# Indices 1 2 3 4 5 6 
#
# 1 63.7425 23.3905 55.7940 -2.4759 26.5170 17.0467
# 2 23.3905 92.3857 46.3467 10.3917 -0.9642 9.4385
# 3 55.7940 46.3467 180.4107 9.8406 34.5360 13.5159
# 4 -2.4759 10.3917 9.8406 34.3890 16.1905 -0.3036
# 5 26.5170 -0.9642 34.5360 16.1905 42.2716 7.7900
# 6 17.0467 9.4385 13.5159 -0.3036 7.7900 15.7096
#
#
#
# Elastic Compliance Matrix: (Units=1/GPa)
#
#
# Indices 1 2 3 4 5 6 
#
# 1 0.038694 -0.007190 -0.005054 0.016950 -0.022803 -0.021684
# 2 -0.007190 0.016214 -0.003383 -0.010461 0.012667 -0.005512
# 3 -0.005054 -0.003383 0.008650 0.000337 -0.004532 0.002329
# 4 0.016950 -0.010461 0.000337 0.047500 -0.029963 0.003379
# 5 -0.022803 0.012667 -0.004532 -0.029963 0.054654 -0.006647
# 6 -0.021684 -0.005512 0.002329 0.003379 -0.006647 0.091854
#
#
# Mechanical properties :
#
#
# Convention : Reuss Voigt Hill
#
# Bulk Modulus (GPa) = 30.95703 65.28905 48.12304
# Shear Modulus (GPa) = 16.68958 32.54122 24.61540
#
# Velocity S-wave (km/s) = 2.63381 3.67772 3.19864
# Velocity P-wave (km/s) = 4.70281 6.72096 5.80033
#
# Compressibility (1/GPa) = 0.03230284
#
# Stress axis : x y z
#
# Youngs Moduli (GPa) = 25.84370 61.67628 115.61167
#
# Poissons Ratio (x) = 0.44348 0.58432
# Poissons Ratio (y) = 0.18583 0.39108
# Poissons Ratio (z) = 0.13062 0.20863
#
# Static dielectric constant tensor:
#      x y z
#    x 1.963060 -0.059440 0.016940 
#    y -0.059440 1.944350 0.052200 
#    z 0.016940 0.052200 1.978910 
# 
# From -- ./inp_files/528413.got.cif
#   From: 2010.05.17/outbox.cif.g08.bks.cpg/sg2_265_cif.got.tgz:528413.got - 2010.06.03 11:33:40.
