data_PCOD9086035
_publ_section_title
;
Structure prediction by ZEFSAII (Michael W. Deem and Ramdas Pophale) SiO2 
 PCOD9086035
Probable space group: P -1
;
_chemical_formula_sum "Si O2"
_cell_formula_units_Z 14
_cell_length_a 12.126093
_cell_length_b 15.221677
_cell_length_c 8.919108
_cell_angle_alpha 128.034807
_cell_angle_beta 52.827872
_cell_angle_gamma 151.282262
_cell_volume 614.111817
_symmetry_space_group_name_H-M "P -1"
_symmetry_group_IT_number 2
_symmetry_cell_setting 'triclinic'
loop_
_space_group_symop_operation_xyz
x,y,z
-x,-y,-z
loop_
_atom_site_type_symbol
_atom_site_label
_atom_site_fract_x
_atom_site_fract_y
_atom_site_fract_z
Si Si1 0.931530 0.508370 0.908034
Si Si2 0.691876 0.739197 0.864779
Si Si3 0.990493 0.231705 0.246477
Si Si4 0.528809 0.846108 0.269499
Si Si5 0.704421 0.368834 0.464981
Si Si6 0.379930 0.305429 0.450064
Si Si7 0.813367 0.680956 0.144819
O O1 0.696369 0.305826 0.813537
O O2 0.137677 0.617156 0.736933
O O3 0.894230 0.615303 0.075749
O O4 0.000000 0.500000 0.000000
O O5 0.681401 0.784925 0.755451
O O6 0.464277 0.516935 0.858988
O O7 0.904700 0.792419 0.752286
O O8 0.673634 0.827554 0.089091
O O9 0.125645 0.433096 0.382278
O O10 0.714992 0.063149 0.314664
O O11 0.061471 0.231053 0.024267
O O12 0.450738 0.785479 0.440672
O O13 0.552114 0.338835 0.437765
O O14 0.500000 0.500000 0.500000
O O15 0.176197 0.213489 0.632863
#
# Coordination Sequence:
#
# PCOD9086035 Si02
#       7
#     2   2   2   2   2   2   2
#     4  11  24  43  67  87 125 165 204 256 313 366
#     4  10  19  38  63  94 128 161 207 253 307 360
#     4  12  22  38  66  92 128 161 205 258 304 363
#     4  11  25  40  62  97 124 160 211 252 309 370
#     4  12  22  42  67  89 126 166 202 254 312 363
#     4  10  19  35  69  92 117 168 211 243 306 369
#     4  10  20  38  63  91 122 164 206 249 308 362
#
# _framework density 22.797150999999999
#
# number of rings (size 3 to 8) (size 9 to 14) (size 15 to 20)
#    0.000    1.143    5.714    4.714    0.000    0.571 
#    0.000    5.000    0.000    0.000    0.000    0.000 
#    0.000    0.000    0.000    0.000    0.000    0.000 
#
# Total GULP energy -78309.168281 kJ/mol
# GULP energy per Si atom -5593.512020 kJ/mol
# Density = 2.274526 g / cm^3
# Si number density = 22.797151 Si / 1000 Ang^3
#
#
#
# Elastic Constant Matrix: (Units=GPa)
#
#
# Indices 1 2 3 4 5 6 
#
# 1 109.4379 23.2835 6.0385 -2.0674 7.6814 12.3751
# 2 23.2835 97.4880 39.9093 -22.4145 13.5136 4.1804
# 3 6.0385 39.9093 98.3692 -26.6839 -3.0740 6.8683
# 4 -2.0674 -22.4145 -26.6839 22.6314 -6.3676 -4.8424
# 5 7.6814 13.5136 -3.0740 -6.3676 40.6451 -10.8511
# 6 12.3751 4.1804 6.8683 -4.8424 -10.8511 11.8872
#
#
#
# Elastic Compliance Matrix: (Units=1/GPa)
#
#
# Indices 1 2 3 4 5 6 
#
# 1 0.013345 -0.002704 -0.001407 -0.011863 -0.010732 -0.026758
# 2 -0.002704 0.014927 -0.003336 0.009986 -0.002895 0.000918
# 3 -0.001407 -0.003336 0.016844 0.020637 0.008241 0.008835
# 4 -0.011863 0.009986 0.020637 0.102541 0.035535 0.071123
# 5 -0.010732 -0.002895 0.008241 0.035535 0.052402 0.069739
# 6 -0.026758 0.000918 0.008835 0.071123 0.069739 0.199186
#
#
# Mechanical properties :
#
#
# Convention : Reuss Voigt Hill
#
# Bulk Modulus (GPa) = 33.08762 49.30641 41.19701
# Shear Modulus (GPa) = 11.78650 30.77032 21.27841
#
# Velocity S-wave (km/s) = 2.27627 3.67787 3.05844
# Velocity P-wave (km/s) = 4.63184 6.30166 5.53014
#
# Compressibility (1/GPa) = 0.03022279
#
# Stress axis : x y z
#
# Youngs Moduli (GPa) = 74.93237 66.99369 59.36729
#
# Poissons Ratio (x) = 0.18113 0.08355
# Poissons Ratio (y) = 0.20259 0.19804
# Poissons Ratio (z) = 0.10545 0.22348
#
# Static dielectric constant tensor:
#      x y z
#    x 1.865360 0.004350 0.000500 
#    y 0.004350 1.910830 0.052890 
#    z 0.000500 0.052890 1.887250 
# 
# From -- ./inp_files/260025.got.cif
#   From: 2010.05.17/outbox.cif.g08.bks.cpg/sg2_131_cif.got.tgz:260025.got - 2010.06.03 11:33:40.
