data_PCOD9086778
_publ_section_title
;
Structure prediction by ZEFSAII (Michael W. Deem and Ramdas Pophale) SiO2 
 PCOD9086778
Probable space group: P -1
;
_chemical_formula_sum "Si O2"
_cell_formula_units_Z 16
_cell_length_a 9.550139
_cell_length_b 8.263716
_cell_length_c 14.192338
_cell_angle_alpha 130.328967
_cell_angle_beta 77.104953
_cell_angle_gamma 104.264351
_cell_volume 824.456366
_symmetry_space_group_name_H-M "P -1"
_symmetry_group_IT_number 2
_symmetry_cell_setting 'triclinic'
loop_
_space_group_symop_operation_xyz
x,y,z
-x,-y,-z
loop_
_atom_site_type_symbol
_atom_site_label
_atom_site_fract_x
_atom_site_fract_y
_atom_site_fract_z
Si Si1 0.591968 0.581863 0.152487
Si Si2 0.533036 0.781631 0.693126
Si Si3 0.826529 0.666153 0.528192
Si Si4 0.563341 0.003252 0.389855
Si Si5 0.420315 0.182471 0.947335
Si Si6 0.117488 0.828020 0.640382
Si Si7 0.744722 0.511027 0.286901
Si Si8 0.878514 0.092276 0.112541
O O1 0.503658 0.767994 0.270926
O O2 0.628583 0.668301 0.074153
O O3 0.714894 0.582342 0.212777
O O4 0.503107 0.347031 0.070060
O O5 0.690766 0.713066 0.630192
O O6 0.409994 0.612987 0.697449
O O7 0.481219 0.821777 0.609513
O O8 0.522407 0.009931 0.831406
O O9 0.851303 0.418270 0.444891
O O10 0.794727 0.679840 0.426042
O O11 0.971425 0.813638 0.596517
O O12 0.500000 0.000000 0.500000
O O13 0.737615 0.045901 0.378586
O O14 0.273874 0.039799 0.946505
O O15 0.102476 0.925100 0.783720
O O16 0.858367 0.340638 0.197259
O O17 0.000000 0.000000 0.000000
#
# Coordination Sequence:
#
# PCOD9086778 Si02
#       8
#     2   2   2   2   2   2   2   2
#     4  10  20  36  61  81 119 148 191 250 290 341
#     4  10  19  36  60  87 117 147 203 248 285 343
#     4  10  20  35  61  86 119 152 192 253 295 337
#     4  11  21  38  61  85 118 163 191 235 306 349
#     4   9  20  39  58  85 117 153 197 245 289 356
#     4  10  21  39  56  88 124 152 195 245 295 352
#     4  10  20  35  57  91 114 150 203 250 283 349
#     4  10  20  39  60  81 120 159 195 244 295 341
#
# _framework density 19.406727
#
# number of rings (size 3 to 8) (size 9 to 14) (size 15 to 20)
#    0.000    2.000    5.000    1.125    1.750    4.000 
#    4.500    3.125    5.500    0.000    0.000    0.000 
#    0.000    0.000    0.000    0.000    0.000    0.000 
#
# Total GULP energy -89153.352947 kJ/mol
# GULP energy per Si atom -5572.084559 kJ/mol
# Density = 1.936256 g / cm^3
# Si number density = 19.406727 Si / 1000 Ang^3
#
#
#
# Elastic Constant Matrix: (Units=GPa)
#
#
# Indices 1 2 3 4 5 6 
#
# 1 99.9549 15.3327 55.1836 -4.9239 -5.6911 7.2067
# 2 15.3327 29.5565 23.4122 -2.5418 1.3688 2.7009
# 3 55.1836 23.4122 93.8647 -6.0496 -12.6331 20.1710
# 4 -4.9239 -2.5418 -6.0496 25.3664 5.0435 4.0460
# 5 -5.6911 1.3688 -12.6331 5.0435 38.3231 -5.4740
# 6 7.2067 2.7009 20.1710 4.0460 -5.4740 23.3286
#
#
#
# Elastic Compliance Matrix: (Units=1/GPa)
#
#
# Indices 1 2 3 4 5 6 
#
# 1 0.015081 -0.000571 -0.009529 0.000111 -0.000391 0.003535
# 2 -0.000571 0.043674 -0.011997 0.001826 -0.005277 0.003938
# 3 -0.009529 -0.011997 0.023437 0.004269 0.003928 -0.015750
# 4 0.000111 0.001826 0.004269 0.043976 -0.006292 -0.013040
# 5 -0.000391 -0.005277 0.003928 -0.006292 0.029098 0.005255
# 6 0.003535 0.003938 -0.015750 -0.013040 0.005255 0.058431
#
#
# Mechanical properties :
#
#
# Convention : Reuss Voigt Hill
#
# Bulk Modulus (GPa) = 26.31673 45.69256 36.00465
# Shear Modulus (GPa) = 18.48052 26.03345 22.25698
#
# Velocity S-wave (km/s) = 3.08924 3.66658 3.39022
# Velocity P-wave (km/s) = 5.12978 6.44367 5.82389
#
# Compressibility (1/GPa) = 0.03799864
#
# Stress axis : x y z
#
# Youngs Moduli (GPa) = 66.30710 22.89706 42.66836
#
# Poissons Ratio (x) = 0.01307 0.40660
# Poissons Ratio (y) = 0.03784 0.51187
# Poissons Ratio (z) = 0.63186 0.27469
#
# Static dielectric constant tensor:
#      x y z
#    x 1.708230 -0.053820 0.015990 
#    y -0.053820 1.729980 0.012060 
#    z 0.015990 0.012060 1.709240 
# 
# From -- ./inp_files/205749.got.cif
#   From: 2010.05.17/outbox.cif.g08.bks.cpg/sg2_103_cif.got.tgz:205749.got - 2010.06.03 11:33:40.
