data_PCOD9086528
_publ_section_title
;
Structure prediction by ZEFSAII (Michael W. Deem and Ramdas Pophale) SiO2 
 PCOD9086528
Probable space group: P -1
;
_chemical_formula_sum "Si O2"
_cell_formula_units_Z 10
_cell_length_a 14.668322
_cell_length_b 8.402958
_cell_length_c 19.861973
_cell_angle_alpha 38.032600
_cell_angle_beta 164.374242
_cell_angle_gamma 143.983742
_cell_volume 387.157753
_symmetry_space_group_name_H-M "P -1"
_symmetry_group_IT_number 2
_symmetry_cell_setting 'triclinic'
loop_
_space_group_symop_operation_xyz
x,y,z
-x,-y,-z
loop_
_atom_site_type_symbol
_atom_site_label
_atom_site_fract_x
_atom_site_fract_y
_atom_site_fract_z
Si Si1 0.310959 0.653398 0.943617
Si Si2 0.685639 0.116250 0.262510
Si Si3 0.250526 0.603362 0.563844
Si Si4 0.221806 0.887110 0.250537
Si Si5 0.290940 0.101653 0.515452
O O1 0.501314 0.831762 0.955634
O O2 0.066695 0.361706 0.837754
O O3 0.040474 0.800369 0.733445
O O4 0.526991 0.576255 0.183839
O O5 0.899226 0.407584 0.347665
O O6 0.000000 0.000000 0.500000
O O7 0.507540 0.924162 0.262296
O O8 0.511864 0.832675 0.624159
O O9 0.181210 0.797260 0.508072
O O10 0.465643 0.754122 0.421826
O O11 0.000000 0.000000 0.000000
#
# Coordination Sequence:
#
# PCOD9086528 Si02
#       5
#     2   2   2   2   2
#     4  10  19  36  59  78 108 143 170 221 272 304
#     4  10  21  35  55  83 108 137 182 221 258 318
#     4   9  20  36  55  78 113 135 180 217 261 318
#     4   8  17  34  57  78 104 143 176 214 264 318
#     4   9  19  34  57  78 109 141 176 216 265 318
#
# _framework density 25.829266000000001
#
# number of rings (size 3 to 8) (size 9 to 14) (size 15 to 20)
#    1.200    1.600    0.000    1.200    0.000    4.800 
#    0.000    4.000    0.000   10.800    0.000    0.000 
#    0.000    0.000    0.000    0.000    0.000    0.000 
#
# Total GULP energy -55749.135142 kJ/mol
# GULP energy per Si atom -5574.913514 kJ/mol
# Density = 2.577048 g / cm^3
# Si number density = 25.829266 Si / 1000 Ang^3
#
#
#
# Elastic Constant Matrix: (Units=GPa)
#
#
# Indices 1 2 3 4 5 6 
#
# 1 62.4087 -1.0463 21.0168 -10.6818 -21.6515 26.4610
# 2 -1.0463 73.5780 5.9657 -2.5997 -8.6038 -2.7298
# 3 21.0168 5.9657 98.7779 -31.1907 -6.1566 -3.2776
# 4 -10.6818 -2.5997 -31.1907 48.2672 -4.4728 6.2692
# 5 -21.6515 -8.6038 -6.1566 -4.4728 34.3112 -13.1880
# 6 26.4610 -2.7298 -3.2776 6.2692 -13.1880 45.3311
#
#
#
# Elastic Compliance Matrix: (Units=1/GPa)
#
#
# Indices 1 2 3 4 5 6 
#
# 1 0.029455 0.002074 -0.003659 0.007414 0.013917 -0.014310
# 2 0.002074 0.014373 -0.000549 0.001245 0.005362 0.001003
# 3 -0.003659 -0.000549 0.013612 0.007806 0.002010 0.002592
# 4 0.007414 0.001245 0.007806 0.028914 0.008113 -0.005327
# 5 0.013917 0.005362 0.002010 0.008113 0.042014 0.003446
# 6 -0.014310 0.001003 0.002592 -0.005327 0.003446 0.032400
#
#
# Mechanical properties :
#
#
# Convention : Reuss Voigt Hill
#
# Bulk Modulus (GPa) = 18.80656 31.84856 25.32756
# Shear Modulus (GPa) = 27.35854 39.50381 33.43118
#
# Velocity S-wave (km/s) = 3.25808 3.91502 3.60156
# Velocity P-wave (km/s) = 4.63145 5.72658 5.20788
#
# Compressibility (1/GPa) = 0.05317293
#
# Stress axis : x y z
#
# Youngs Moduli (GPa) = 33.95054 69.57366 73.46725
#
# Poissons Ratio (x) = -0.14429 0.26878
# Poissons Ratio (y) = -0.07041 0.04031
# Poissons Ratio (z) = 0.12421 0.03817
#
# Static dielectric constant tensor:
#      x y z
#    x 2.128180 0.082570 0.060810 
#    y 0.082570 2.154110 0.053970 
#    z 0.060810 0.053970 2.050770 
# 
# From -- ./inp_files/20517.got.cif
#   From: 2010.05.17/outbox.cif.g08.bks.cpg/sg2_11_cif.got.tgz:20517.got - 2010.06.03 11:33:40.
