data_PCOD9086642
_publ_section_title
;
Structure prediction by ZEFSAII (Michael W. Deem and Ramdas Pophale) SiO2 
 PCOD9086642
Probable space group: P -1
;
_chemical_formula_sum "Si O2"
_cell_formula_units_Z 16
_cell_length_a 8.885931
_cell_length_b 11.602418
_cell_length_c 14.404239
_cell_angle_alpha 52.485647
_cell_angle_beta 134.763788
_cell_angle_gamma 101.802442
_cell_volume 767.176719
_symmetry_space_group_name_H-M "P -1"
_symmetry_group_IT_number 2
_symmetry_cell_setting 'triclinic'
loop_
_space_group_symop_operation_xyz
x,y,z
-x,-y,-z
loop_
_atom_site_type_symbol
_atom_site_label
_atom_site_fract_x
_atom_site_fract_y
_atom_site_fract_z
Si Si1 0.955594 0.857900 0.502285
Si Si2 0.283780 0.222993 0.227265
Si Si3 0.663954 0.320852 0.678846
Si Si4 0.187837 0.802880 0.989476
Si Si5 0.457483 0.658218 0.849165
Si Si6 0.437474 0.139237 0.540648
Si Si7 0.571533 0.106581 0.111549
Si Si8 0.079919 0.089143 0.908688
O O1 0.805270 0.816403 0.534161
O O2 0.206237 0.723300 0.658595
O O3 0.786773 0.938440 0.303896
O O4 0.000000 0.000000 0.500000
O O5 0.344966 0.348336 0.133374
O O6 0.384893 0.211744 0.379730
O O7 0.424354 0.049960 0.324109
O O8 0.013671 0.254499 0.096820
O O9 0.500000 0.500000 0.500000
O O10 0.693640 0.278581 0.822103
O O11 0.571612 0.210319 0.632427
O O12 0.919127 0.270532 0.770416
O O13 0.372368 0.799702 0.994284
O O14 0.050907 0.992125 0.856224
O O15 0.448569 0.786824 0.859437
O O16 0.500000 0.500000 0.000000
O O17 0.341183 0.073413 0.023749
O O18 0.000000 0.000000 0.000000
#
# Coordination Sequence:
#
# PCOD9086642 Si02
#       8
#     2   2   2   2   2   2   2   2
#     4  10  19  36  59  88 130 163 217 269 323 389
#     4  11  22  40  69  98 126 171 225 272 328 388
#     4  11  25  43  64  96 136 177 215 269 339 403
#     4  11  23  40  68  97 129 172 223 276 326 393
#     4  11  24  39  60  94 138 175 213 276 341 394
#     4  11  22  39  67  98 126 169 223 272 324 390
#     4  11  22  39  62  97 129 169 223 272 327 391
#     4  10  20  39  64  89 123 166 216 263 318 389
#
# _framework density 20.855688000000001
#
# number of rings (size 3 to 8) (size 9 to 14) (size 15 to 20)
#    0.000    1.250    3.750    4.875    1.750    3.000 
#    0.000    2.500    0.000    0.000    0.000    0.000 
#    0.000    0.000    0.000    0.000    0.000    0.000 
#
# Total GULP energy -89249.968710 kJ/mol
# GULP energy per Si atom -5578.123044 kJ/mol
# Density = 2.080822 g / cm^3
# Si number density = 20.855688 Si / 1000 Ang^3
#
#
#
# Elastic Constant Matrix: (Units=GPa)
#
#
# Indices 1 2 3 4 5 6 
#
# 1 138.2563 26.5564 56.6376 14.3747 -12.1942 30.8001
# 2 26.5564 29.3166 33.6654 10.0468 -3.0994 17.9573
# 3 56.6376 33.6654 122.3261 2.2062 -3.1043 19.7548
# 4 14.3747 10.0468 2.2062 31.3888 3.2152 2.2641
# 5 -12.1942 -3.0994 -3.1043 3.2152 40.5636 6.6551
# 6 30.8001 17.9573 19.7548 2.2641 6.6551 31.9862
#
#
#
# Elastic Compliance Matrix: (Units=1/GPa)
#
#
# Indices 1 2 3 4 5 6 
#
# 1 0.012236 0.004864 -0.004719 -0.006572 0.006250 -0.012434
# 2 0.004864 0.090769 -0.018970 -0.028378 0.016641 -0.045380
# 3 -0.004719 -0.018970 0.014305 0.007104 -0.003414 0.006566
# 4 -0.006572 -0.028378 0.007104 0.043240 -0.009792 0.016850
# 5 0.006250 0.016641 -0.003414 -0.009792 0.031452 -0.019103
# 6 -0.012434 -0.045380 0.006566 0.016850 -0.019103 0.067439
#
#
# Mechanical properties :
#
#
# Convention : Reuss Voigt Hill
#
# Bulk Modulus (GPa) = 12.55322 58.17975 35.36648
# Shear Modulus (GPa) = 15.44896 32.32369 23.88632
#
# Velocity S-wave (km/s) = 2.72463 3.94111 3.38792
# Velocity P-wave (km/s) = 3.99128 6.97616 5.68318
#
# Compressibility (1/GPa) = 0.07966082
#
# Stress axis : x y z
#
# Youngs Moduli (GPa) = 81.72357 11.01692 69.90377
#
# Poissons Ratio (x) = -0.05358 0.32987
# Poissons Ratio (y) = -0.39749 1.32608
# Poissons Ratio (z) = 0.38565 0.20899
#
# Static dielectric constant tensor:
#      x y z
#    x 1.761220 0.003330 0.007270 
#    y 0.003330 1.771640 -0.002190 
#    z 0.007270 -0.002190 1.814330 
# 
# From -- ./inp_files/500108.got.cif
#   From: 2010.05.17/outbox.cif.g08.bks.cpg/sg2_251_cif.got.tgz:500108.got - 2010.06.03 11:33:40.
