data_PCOD9086916
_publ_section_title
;
Structure prediction by ZEFSAII (Michael W. Deem and Ramdas Pophale) SiO2 
 PCOD9086916
Probable space group: P -1
;
_chemical_formula_sum "Si O2"
_cell_formula_units_Z 12
_cell_length_a 8.096508
_cell_length_b 13.455384
_cell_length_c 4.911566
_cell_angle_alpha 86.706869
_cell_angle_beta 118.152195
_cell_angle_gamma 74.079478
_cell_volume 442.522359
_symmetry_space_group_name_H-M "P -1"
_symmetry_group_IT_number 2
_symmetry_cell_setting 'triclinic'
loop_
_space_group_symop_operation_xyz
x,y,z
-x,-y,-z
loop_
_atom_site_type_symbol
_atom_site_label
_atom_site_fract_x
_atom_site_fract_y
_atom_site_fract_z
Si Si1 0.664253 0.591584 0.610039
Si Si2 0.713993 0.804676 0.638809
Si Si3 0.817684 0.466417 0.263959
Si Si4 0.256693 0.731014 0.559342
Si Si5 0.266638 0.070913 0.848510
Si Si6 0.260372 0.863844 0.071405
O O1 0.774099 0.678895 0.669695
O O2 0.642567 0.547125 0.303821
O O3 0.455799 0.654604 0.579342
O O4 0.775121 0.495425 0.912218
O O5 0.811274 0.867745 0.501818
O O6 0.477255 0.848603 0.375816
O O7 0.735310 0.839680 0.952510
O O8 0.846916 0.348166 0.393040
O O9 0.000000 0.500000 0.500000
O O10 0.157540 0.814537 0.229601
O O11 0.297329 0.794180 0.837968
O O12 0.500000 0.000000 0.000000
O O13 0.171684 0.985904 0.894566
#
# Coordination Sequence:
#
# PCOD9086916 Si02
#       6
#     2   2   2   2   2   2
#     4  11  21  38  58  82 110 143 183 228 271 324
#     4  10  18  29  49  79 112 144 174 215 269 320
#     4  12  25  40  57  80 108 145 186 230 279 326
#     4  11  21  36  57  83 111 145 183 225 271 322
#     4  10  16  27  46  78 117 144 167 214 270 320
#     4  10  18  30  51  82 115 145 175 218 271 322
#
# _framework density 27.117272
#
# number of rings (size 3 to 8) (size 9 to 14) (size 15 to 20)
#    0.000    1.333    0.000   12.500    0.000    0.000 
#    0.000    0.000    0.000    0.000    0.000   23.333 
#    0.000    0.000    0.000    0.000    0.000    0.000 
#
# Total GULP energy -67329.208299 kJ/mol
# GULP energy per Si atom -5610.767358 kJ/mol
# Density = 2.705555 g / cm^3
# Si number density = 27.117272 Si / 1000 Ang^3
#
#
#
# Elastic Constant Matrix: (Units=GPa)
#
#
# Indices 1 2 3 4 5 6 
#
# 1 86.3265 32.1806 19.8233 -22.0465 -1.1865 17.2427
# 2 32.1806 139.8073 12.6602 -24.2960 -15.4049 28.4602
# 3 19.8233 12.6602 108.8768 -15.1430 -31.5595 5.1603
# 4 -22.0465 -24.2960 -15.1430 64.4777 9.2740 -23.9311
# 5 -1.1865 -15.4049 -31.5595 9.2740 40.7175 -18.3348
# 6 17.2427 28.4602 5.1603 -23.9311 -18.3348 55.8735
#
#
#
# Elastic Compliance Matrix: (Units=1/GPa)
#
#
# Indices 1 2 3 4 5 6 
#
# 1 0.014599 -0.002449 -0.003368 0.002737 -0.005320 -0.003520
# 2 -0.002449 0.008635 0.000334 0.001291 0.002060 -0.002444
# 3 -0.003368 0.000334 0.013258 0.002016 0.011821 0.004387
# 4 0.002737 0.001291 0.002016 0.019929 0.000792 0.007107
# 5 -0.005320 0.002060 0.011821 0.000792 0.040005 0.012968
# 6 -0.003520 -0.002444 0.004387 0.007107 0.012968 0.027123
#
#
# Mechanical properties :
#
#
# Convention : Reuss Voigt Hill
#
# Bulk Modulus (GPa) = 39.17509 51.59320 45.38414
# Shear Modulus (GPa) = 34.95916 50.23685 42.59801
#
# Velocity S-wave (km/s) = 3.59442 4.30883 3.96773
# Velocity P-wave (km/s) = 5.63066 6.61981 6.14517
#
# Compressibility (1/GPa) = 0.02552643
#
# Stress axis : x y z
#
# Youngs Moduli (GPa) = 68.49621 115.80465 75.42687
#
# Poissons Ratio (x) = 0.28366 0.25404
# Poissons Ratio (y) = 0.16778 -0.02523
# Poissons Ratio (z) = 0.23070 -0.03873
#
# Static dielectric constant tensor:
#      x y z
#    x 2.298380 -0.007660 -0.005640 
#    y -0.007660 2.064660 -0.057740 
#    z -0.005640 -0.057740 2.022100 
# 
# From -- ./inp_files/24286.got.cif
#   From: 2010.05.17/outbox.cif.g08.bks.cpg/sg2_13_cif.got.tgz:24286.got - 2010.06.03 11:33:40.
