data_PCOD9086919
_publ_section_title
;
Structure prediction by ZEFSAII (Michael W. Deem and Ramdas Pophale) SiO2 
 PCOD9086919
Probable space group: P -1
;
_chemical_formula_sum "Si O2"
_cell_formula_units_Z 12
_cell_length_a 10.452054
_cell_length_b 9.785774
_cell_length_c 6.779293
_cell_angle_alpha 92.422505
_cell_angle_beta 45.528676
_cell_angle_gamma 108.262301
_cell_volume 453.524863
_symmetry_space_group_name_H-M "P -1"
_symmetry_group_IT_number 2
_symmetry_cell_setting 'triclinic'
loop_
_space_group_symop_operation_xyz
x,y,z
-x,-y,-z
loop_
_atom_site_type_symbol
_atom_site_label
_atom_site_fract_x
_atom_site_fract_y
_atom_site_fract_z
Si Si1 0.372851 0.277789 0.121772
Si Si2 0.002726 0.787229 0.720223
Si Si3 0.693627 0.904280 0.475952
Si Si4 0.664437 0.995637 0.090101
Si Si5 0.073897 0.693404 0.045127
Si Si6 0.238006 0.609666 0.507759
O O1 0.570651 0.387447 0.808060
O O2 0.361703 0.112921 0.067530
O O3 0.359368 0.254119 0.369614
O O4 0.181086 0.278019 0.226531
O O5 0.955896 0.721526 0.989465
O O6 0.165712 0.723757 0.481018
O O7 0.108044 0.965427 0.645513
O O8 0.527272 0.970514 0.682197
O O9 0.701713 0.906124 0.230039
O O10 0.837975 0.156887 0.917741
O O11 0.245809 0.665801 0.732456
O O12 0.939317 0.550003 0.299748
#
# Coordination Sequence:
#
# PCOD9086919 Si02
#       6
#     2   2   2   2   2   2
#     4  12  21  33  66  83 110 151 183 231 288 325
#     4   9  19  35  56  87 111 145 190 229 275 333
#     4  10  20  36  54  89 115 140 190 232 275 335
#     4  10  19  36  61  83 110 152 183 232 280 328
#     4   8  18  37  55  81 118 144 187 234 269 331
#     4   9  18  37  57  81 113 152 185 226 278 334
#
# _framework density 26.459410999999999
#
# number of rings (size 3 to 8) (size 9 to 14) (size 15 to 20)
#    1.000    1.333    1.667    2.000    0.000    3.333 
#    0.000    0.833    0.000    1.000    0.000    0.000 
#    0.000    0.000    0.000    0.000    0.000    0.000 
#
# Total GULP energy -67114.598985 kJ/mol
# GULP energy per Si atom -5592.883249 kJ/mol
# Density = 2.639919 g / cm^3
# Si number density = 26.459411 Si / 1000 Ang^3
#
#
#
# Elastic Constant Matrix: (Units=GPa)
#
#
# Indices 1 2 3 4 5 6 
#
# 1 99.9772 -11.9526 55.5556 -17.2817 -4.8468 -10.8912
# 2 -11.9526 47.8691 19.9352 -16.7974 -2.2566 6.8459
# 3 55.5556 19.9352 155.1415 -21.6436 -2.9827 -10.9962
# 4 -17.2817 -16.7974 -21.6436 49.3975 -10.7670 -3.9658
# 5 -4.8468 -2.2566 -2.9827 -10.7670 45.0871 2.2160
# 6 -10.8912 6.8459 -10.9962 -3.9658 2.2160 22.4926
#
#
#
# Elastic Compliance Matrix: (Units=1/GPa)
#
#
# Indices 1 2 3 4 5 6 
#
# 1 0.015729 0.008292 -0.005435 0.006914 0.003233 0.003336
# 2 0.008292 0.030482 -0.005666 0.011366 0.005077 -0.006528
# 3 -0.005435 -0.005666 0.009466 0.000564 -0.000296 0.003849
# 4 0.006914 0.011366 0.000564 0.028883 0.008027 0.004466
# 5 0.003233 0.005077 -0.000296 0.008027 0.024735 -0.001146
# 6 0.003336 -0.006528 0.003849 0.004466 -0.001146 0.050843
#
#
# Mechanical properties :
#
#
# Convention : Reuss Voigt Hill
#
# Bulk Modulus (GPa) = 19.97606 47.78492 33.88049
# Shear Modulus (GPa) = 27.40618 39.35875 33.38246
#
# Velocity S-wave (km/s) = 3.22185 3.86101 3.55582
# Velocity P-wave (km/s) = 4.62672 6.16243 5.44894
#
# Compressibility (1/GPa) = 0.05005992
#
# Stress axis : x y z
#
# Youngs Moduli (GPa) = 63.57717 32.80648 105.64416
#
# Poissons Ratio (x) = -0.27204 0.57416
# Poissons Ratio (y) = -0.52719 0.59854
# Poissons Ratio (z) = 0.34553 0.18587
#
# Static dielectric constant tensor:
#      x y z
#    x 2.024390 0.001170 0.030420 
#    y 0.001170 2.091910 0.047880 
#    z 0.030420 0.047880 2.158130 
# 
# From -- ./inp_files/210681.got.cif
#   From: 2010.05.17/outbox.cif.g08.bks.cpg/sg2_106_cif.got.tgz:210681.got - 2010.06.03 11:33:40.
