data_PCOD9086602
_publ_section_title
;
Structure prediction by ZEFSAII (Michael W. Deem and Ramdas Pophale) SiO2 
 PCOD9086602
Probable space group: P -1
;
_chemical_formula_sum "Si O2"
_cell_formula_units_Z 16
_cell_length_a 17.147833
_cell_length_b 11.028909
_cell_length_c 12.817570
_cell_angle_alpha 68.592203
_cell_angle_beta 145.559649
_cell_angle_gamma 137.063148
_cell_volume 732.865847
_symmetry_space_group_name_H-M "P -1"
_symmetry_group_IT_number 2
_symmetry_cell_setting 'triclinic'
loop_
_space_group_symop_operation_xyz
x,y,z
-x,-y,-z
loop_
_atom_site_type_symbol
_atom_site_label
_atom_site_fract_x
_atom_site_fract_y
_atom_site_fract_z
Si Si1 0.229319 0.013735 0.700988
Si Si2 0.212833 0.273856 0.552770
Si Si3 0.707338 0.007556 0.454336
Si Si4 0.037362 0.857326 0.872379
Si Si5 0.549623 0.275465 0.406314
Si Si6 0.316599 0.566662 0.265045
Si Si7 0.277582 0.854411 0.973560
Si Si8 0.946559 0.380658 0.747918
O O1 0.357088 0.023249 0.924831
O O2 0.966045 0.827488 0.519444
O O3 0.346625 0.246974 0.743310
O O4 0.208022 0.937335 0.587663
O O5 0.356472 0.512295 0.600446
O O6 0.042375 0.105284 0.318012
O O7 0.553767 0.760557 0.395101
O O8 0.898569 0.212974 0.682156
O O9 0.499938 0.956640 0.238638
O O10 0.111498 0.790137 0.901134
O O11 0.810879 0.660866 0.759900
O O12 0.273096 0.060542 0.136004
O O13 0.593595 0.298873 0.570904
O O14 0.703618 0.273907 0.532797
O O15 0.094408 0.461037 0.991274
O O16 0.123582 0.625037 0.815790
#
# Coordination Sequence:
#
# PCOD9086602 Si02
#       8
#     2   2   2   2   2   2   2   2
#     4  10  20  42  61  79 115 154 188 236 282 333
#     4   9  21  41  62  82 110 147 197 239 274 327
#     4  11  23  34  57  88 119 152 183 225 293 343
#     4  10  19  36  59  86 115 146 194 232 276 333
#     4  11  19  36  61  86 112 149 194 233 278 335
#     4  10  22  35  55  88 121 151 181 233 286 336
#     4  10  20  37  55  84 119 149 185 234 282 330
#     4  11  20  34  53  90 118 148 184 229 286 338
#
# _framework density 21.832097999999998
#
# number of rings (size 3 to 8) (size 9 to 14) (size 15 to 20)
#    0.000    1.750    5.000    1.500    1.750    1.500 
#    0.000   14.375    0.000    4.500    0.000    0.000 
#    0.000    0.000    0.000    0.000    0.000    0.000 
#
# Total GULP energy -89137.695811 kJ/mol
# GULP energy per Si atom -5571.105988 kJ/mol
# Density = 2.178241 g / cm^3
# Si number density = 21.832098 Si / 1000 Ang^3
#
#
#
# Elastic Constant Matrix: (Units=GPa)
#
#
# Indices 1 2 3 4 5 6 
#
# 1 33.1930 26.1025 18.2109 2.3965 -12.3255 19.5330
# 2 26.1025 88.2865 36.1549 -12.1646 -7.4958 16.6925
# 3 18.2109 36.1549 91.4985 16.4242 -15.9708 7.7303
# 4 2.3965 -12.1646 16.4242 26.5694 -7.1193 -4.6019
# 5 -12.3255 -7.4958 -15.9708 -7.1193 15.8405 -8.9681
# 6 19.5330 16.6925 7.7303 -4.6019 -8.9681 21.1252
#
#
#
# Elastic Compliance Matrix: (Units=1/GPa)
#
#
# Indices 1 2 3 4 5 6 
#
# 1 0.091191 -0.016234 0.001055 -0.025724 0.011731 -0.072501
# 2 -0.016234 0.021053 -0.008747 0.017055 -0.001090 0.004828
# 3 0.001055 -0.008747 0.018053 -0.012565 0.009619 0.000677
# 4 -0.025724 0.017055 -0.012565 0.072140 0.033100 0.044673
# 5 0.011731 -0.001090 0.009619 0.033100 0.122096 0.045538
# 6 -0.072501 0.004828 0.000677 0.044673 0.045538 0.139374
#
#
# Mechanical properties :
#
#
# Convention : Reuss Voigt Hill
#
# Bulk Modulus (GPa) = 12.12932 41.54607 26.83770
# Shear Modulus (GPa) = 9.27228 21.54100 15.40664
#
# Velocity S-wave (km/s) = 2.06308 3.14453 2.65936
# Velocity P-wave (km/s) = 3.35304 5.67937 4.66359
#
# Compressibility (1/GPa) = 0.08244485
#
# Stress axis : x y z
#
# Youngs Moduli (GPa) = 10.96594 47.49874 55.39284
#
# Poissons Ratio (x) = 0.77110 -0.05845
# Poissons Ratio (y) = 0.17802 0.48455
# Poissons Ratio (z) = -0.01157 0.41550
#
# Static dielectric constant tensor:
#      x y z
#    x 1.794760 -0.025670 0.000540 
#    y -0.025670 1.879640 0.004810 
#    z 0.000540 0.004810 1.783780 
# 
# From -- ./inp_files/464553.got.cif
#   From: 2010.05.17/outbox.cif.g08.bks.cpg/sg2_233_cif.got.tgz:464553.got - 2010.06.03 11:33:40.
