data_PCOD9086184
_publ_section_title
;
Structure prediction by ZEFSAII (Michael W. Deem and Ramdas Pophale) SiO2 
 PCOD9086184
Probable space group: P -1
;
_chemical_formula_sum "Si O2"
_cell_formula_units_Z 16
_cell_length_a 12.526349
_cell_length_b 12.246885
_cell_length_c 26.178343
_cell_angle_alpha 28.198520
_cell_angle_beta 150.676992
_cell_angle_gamma 147.757107
_cell_volume 875.826700
_symmetry_space_group_name_H-M "P -1"
_symmetry_group_IT_number 2
_symmetry_cell_setting 'triclinic'
loop_
_space_group_symop_operation_xyz
x,y,z
-x,-y,-z
loop_
_atom_site_type_symbol
_atom_site_label
_atom_site_fract_x
_atom_site_fract_y
_atom_site_fract_z
Si Si1 0.080226 0.685231 0.644962
Si Si2 0.472328 0.928658 0.078262
Si Si3 0.148651 0.188037 0.409126
Si Si4 0.766608 0.557496 0.866332
Si Si5 0.322627 0.350967 0.836071
Si Si6 0.112091 0.097644 0.675044
Si Si7 0.899686 0.136803 0.668796
Si Si8 0.659554 0.460575 0.487269
O O1 0.025710 0.729492 0.662121
O O2 0.836743 0.540086 0.575649
O O3 0.246270 0.529226 0.767691
O O4 0.171810 0.947093 0.546353
O O5 0.349272 0.636015 0.147433
O O6 0.716127 0.991904 0.181607
O O7 0.500000 0.000000 0.000000
O O8 0.332907 0.100794 0.969015
O O9 0.398944 0.388621 0.426380
O O10 0.046932 0.107371 0.344006
O O11 0.573451 0.488056 0.859228
O O12 0.827673 0.843505 0.763185
O O13 0.000000 0.500000 0.000000
O O14 0.129840 0.267635 0.744826
O O15 0.263647 0.313570 0.612832
O O16 0.961380 0.195860 0.610959
O O17 0.705680 0.235580 0.569962
#
# Coordination Sequence:
#
# PCOD9086184 Si02
#       8
#     2   2   2   2   2   2   2   2
#     4   9  20  39  62  80 108 145 188 231 273 320
#     4  10  19  37  54  76 115 146 178 222 269 331
#     4  10  21  38  58  84 108 147 188 226 274 326
#     4  11  19  31  56  83 110 145 184 218 272 332
#     4  10  19  36  56  83 112 141 185 231 266 323
#     4  11  22  36  53  81 117 150 178 222 282 330
#     4  11  20  34  54  84 115 148 178 220 281 332
#     4  10  22  36  57  83 114 146 182 230 276 327
#
# _framework density 18.268453999999998
#
# number of rings (size 3 to 8) (size 9 to 14) (size 15 to 20)
#    0.000    1.750    3.750    2.250    1.750    0.500 
#    0.000    0.625    0.000    0.750    0.000    0.000 
#    0.000    0.000    0.000    0.000    0.000    0.000 
#
# Total GULP energy -89259.578230 kJ/mol
# GULP energy per Si atom -5578.723639 kJ/mol
# Density = 1.822687 g / cm^3
# Si number density = 18.268454 Si / 1000 Ang^3
#
#
#
# Elastic Constant Matrix: (Units=GPa)
#
#
# Indices 1 2 3 4 5 6 
#
# 1 49.3034 1.0670 4.5761 -5.0018 13.4913 -4.8215
# 2 1.0670 51.2484 -5.2070 -11.2217 2.3269 14.3561
# 3 4.5761 -5.2070 43.1773 -7.4342 14.8672 -2.6029
# 4 -5.0018 -11.2217 -7.4342 24.5655 -9.5281 6.5662
# 5 13.4913 2.3269 14.8672 -9.5281 26.9015 -0.0257
# 6 -4.8215 14.3561 -2.6029 6.5662 -0.0257 26.5939
#
#
#
# Elastic Compliance Matrix: (Units=1/GPa)
#
#
# Indices 1 2 3 4 5 6 
#
# 1 0.024330 -0.001958 0.001952 -0.002437 -0.013968 0.006247
# 2 -0.001958 0.031151 0.005385 0.022699 0.003330 -0.022245
# 3 0.001952 0.005385 0.030058 0.006088 -0.015901 -0.001130
# 4 -0.002437 0.022699 0.006088 0.067846 0.019897 -0.028832
# 5 -0.013968 0.003330 -0.015901 0.019897 0.059715 -0.010741
# 6 0.006247 -0.022245 -0.001130 -0.028832 -0.010741 0.057742
#
#
# Mechanical properties :
#
#
# Convention : Reuss Voigt Hill
#
# Bulk Modulus (GPa) = 10.38446 16.06679 13.22562
# Shear Modulus (GPa) = 17.11256 25.16506 21.13881
#
# Velocity S-wave (km/s) = 3.06392 3.71551 3.40534
# Velocity P-wave (km/s) = 4.26773 5.21734 4.76624
#
# Compressibility (1/GPa) = 0.09629777
#
# Stress axis : x y z
#
# Youngs Moduli (GPa) = 41.10203 32.10136 33.26873
#
# Poissons Ratio (x) = 0.06284 -0.06494
# Poissons Ratio (y) = 0.08046 -0.17915
# Poissons Ratio (z) = -0.08023 -0.17286
#
# Static dielectric constant tensor:
#      x y z
#    x 1.637360 0.003220 0.006650 
#    y 0.003220 1.658190 -0.021120 
#    z 0.006650 -0.021120 1.643390 
# 
# From -- ./inp_files/109756.got.cif
#   From: 2010.05.17/outbox.cif.g08.bks.cpg/sg2_55_cif.got.tgz:109756.got - 2010.06.03 11:33:40.
