data_PCOD9086857
_publ_section_title
;
Structure prediction by ZEFSAII (Michael W. Deem and Ramdas Pophale) SiO2 
 PCOD9086857
Probable space group: P -1
;
_chemical_formula_sum "Si O2"
_cell_formula_units_Z 16
_cell_length_a 17.496531
_cell_length_b 9.433805
_cell_length_c 19.307741
_cell_angle_alpha 140.739843
_cell_angle_beta 157.358706
_cell_angle_gamma 32.311688
_cell_volume 655.519244
_symmetry_space_group_name_H-M "P -1"
_symmetry_group_IT_number 2
_symmetry_cell_setting 'triclinic'
loop_
_space_group_symop_operation_xyz
x,y,z
-x,-y,-z
loop_
_atom_site_type_symbol
_atom_site_label
_atom_site_fract_x
_atom_site_fract_y
_atom_site_fract_z
Si Si1 0.578510 0.981041 0.392085
Si Si2 0.287154 0.149728 0.698420
Si Si3 0.936985 0.223020 0.904700
Si Si4 0.125924 0.721789 0.795579
Si Si5 0.132529 0.892455 0.721957
Si Si6 0.542248 0.208047 0.653064
Si Si7 0.721833 0.194482 0.331468
Si Si8 0.821640 0.461989 0.744863
O O1 0.574244 0.927984 0.287138
O O2 0.848177 0.844986 0.591389
O O3 0.460774 0.865371 0.297730
O O4 0.437885 0.299929 0.403415
O O5 0.240322 0.417519 0.793657
O O6 0.032770 0.208341 0.482761
O O7 0.393203 0.910365 0.751170
O O8 0.763608 0.202440 0.804277
O O9 0.832625 0.366987 0.797255
O O10 0.121270 0.919871 0.922125
O O11 0.037632 0.388869 0.083468
O O12 0.236022 0.748405 0.826478
O O13 0.951847 0.202426 0.707299
O O14 0.314334 0.833073 0.790418
O O15 0.341163 0.514766 0.592616
O O16 0.500000 0.000000 0.500000
O O17 0.000000 0.000000 0.500000
#
# Coordination Sequence:
#
# PCOD9086857 Si02
#       8
#     2   2   2   2   2   2   2   2
#     4  11  21  35  61  89 123 153 209 250 304 360
#     4  10  20  34  60  91 122 155 208 254 311 351
#     4  10  23  42  61  86 130 160 207 246 312 361
#     4  10  19  36  60  91 119 161 199 263 300 360
#     4   9  19  33  58  83 121 153 199 245 302 358
#     4  12  24  37  61  94 125 158 200 262 304 356
#     4  10  21  35  57  90 125 156 197 254 309 358
#     4  10  23  41  61  89 121 173 199 248 303 379
#
# _framework density 24.408131000000001
#
# number of rings (size 3 to 8) (size 9 to 14) (size 15 to 20)
#    0.000    1.750    1.250    4.500    3.500    5.000 
#    0.000    1.250    0.000    1.500    0.000    0.000 
#    0.000    0.000    0.000    0.000    0.000    0.000 
#
# Total GULP energy -89535.041433 kJ/mol
# GULP energy per Si atom -5595.940090 kJ/mol
# Density = 2.435258 g / cm^3
# Si number density = 24.408131 Si / 1000 Ang^3
#
#
#
# Elastic Constant Matrix: (Units=GPa)
#
#
# Indices 1 2 3 4 5 6 
#
# 1 175.4765 37.6848 31.1606 13.9606 22.8750 21.8484
# 2 37.6848 191.7080 32.4363 34.2481 2.1498 10.2056
# 3 31.1606 32.4363 88.9250 11.3253 16.2319 -0.3730
# 4 13.9606 34.2481 11.3253 19.6887 8.4896 0.9498
# 5 22.8750 2.1498 16.2319 8.4896 20.0910 7.1071
# 6 21.8484 10.2056 -0.3730 0.9498 7.1071 32.6669
#
#
#
# Elastic Compliance Matrix: (Units=1/GPa)
#
#
# Indices 1 2 3 4 5 6 
#
# 1 0.007321 -0.001026 -0.001073 0.000056 -0.006239 -0.003233
# 2 -0.001026 0.009374 -0.002861 -0.018895 0.011994 -0.004335
# 3 -0.001073 -0.002861 0.014737 0.002703 -0.013133 0.004559
# 4 0.000056 -0.018895 0.002703 0.102175 -0.048141 0.013399
# 5 -0.006239 0.011994 -0.013133 -0.048141 0.093120 -0.018584
# 6 -0.003233 -0.004335 0.004559 0.013399 -0.018584 0.037834
#
#
# Mechanical properties :
#
#
# Convention : Reuss Voigt Hill
#
# Bulk Modulus (GPa) = 46.48429 73.18586 59.83508
# Shear Modulus (GPa) = 17.75244 38.14452 27.94848
#
# Velocity S-wave (km/s) = 2.69981 3.95749 3.38753
# Velocity P-wave (km/s) = 5.36699 7.13664 6.31412
#
# Compressibility (1/GPa) = 0.02151264
#
# Stress axis : x y z
#
# Youngs Moduli (GPa) = 136.59580 106.68068 67.85591
#
# Poissons Ratio (x) = 0.10940 0.07282
# Poissons Ratio (y) = 0.14008 0.19412
# Poissons Ratio (z) = 0.14660 0.30520
#
# Static dielectric constant tensor:
#      x y z
#    x 2.023730 0.006400 0.017920 
#    y 0.006400 1.937270 -0.056130 
#    z 0.017920 -0.056130 1.987100 
# 
# From -- ./inp_files/599631.got.cif
#   From: 2010.05.17/outbox.cif.g08.bks.cpg/sg2_300_cif.got.tgz:599631.got - 2010.06.03 11:33:40.
