data_PCOD9086715
_publ_section_title
;
Structure prediction by ZEFSAII (Michael W. Deem and Ramdas Pophale) SiO2 
 PCOD9086715
Probable space group: P -1
;
_chemical_formula_sum "Si O2"
_cell_formula_units_Z 16
_cell_length_a 16.373298
_cell_length_b 10.682665
_cell_length_c 11.584257
_cell_angle_alpha 53.598776
_cell_angle_beta 148.429943
_cell_angle_gamma 136.813068
_cell_volume 723.807548
_symmetry_space_group_name_H-M "P -1"
_symmetry_group_IT_number 2
_symmetry_cell_setting 'triclinic'
loop_
_space_group_symop_operation_xyz
x,y,z
-x,-y,-z
loop_
_atom_site_type_symbol
_atom_site_label
_atom_site_fract_x
_atom_site_fract_y
_atom_site_fract_z
Si Si1 0.062222 0.323352 0.426205
Si Si2 0.185843 0.763699 0.013753
Si Si3 0.950540 0.645588 0.004552
Si Si4 0.883679 0.486868 0.256187
Si Si5 0.079684 0.033935 0.206474
Si Si6 0.258417 0.309020 0.892591
Si Si7 0.424655 0.035922 0.563943
Si Si8 0.414514 0.709528 0.599350
O O1 0.185914 0.297785 0.681294
O O2 0.217748 0.521955 0.453157
O O3 0.950416 0.204173 0.246018
O O4 0.896673 0.326477 0.293931
O O5 0.136097 0.763045 0.088560
O O6 0.144144 0.560452 0.045173
O O7 0.399751 0.903064 0.178105
O O8 0.850737 0.755207 0.798449
O O9 0.958733 0.630049 0.161039
O O10 0.736911 0.524623 0.120224
O O11 0.000000 0.500000 0.500000
O O12 0.248094 0.005441 0.433001
O O13 0.906689 0.883273 0.151793
O O14 0.000000 0.000000 0.000000
O O15 0.447851 0.321390 0.139798
O O16 0.486766 0.196239 0.454434
O O17 0.385058 0.855278 0.550195
#
# Coordination Sequence:
#
# PCOD9086715 Si02
#       8
#     2   2   2   2   2   2   2   2
#     4  10  22  39  61  87 124 164 200 246 303 362
#     4  10  22  39  60  87 124 164 197 239 302 373
#     4  10  19  36  60  83 123 158 200 240 301 358
#     4   9  17  31  55  84 115 150 191 244 296 341
#     4  12  22  37  60  91 121 152 200 258 300 350
#     4  11  21  37  59  92 123 155 203 255 305 347
#     4  11  23  36  61  91 120 154 205 252 303 353
#     4  11  21  36  62  91 118 155 205 260 295 350
#
# _framework density 22.105325000000001
#
# number of rings (size 3 to 8) (size 9 to 14) (size 15 to 20)
#    0.000    1.500    2.500    4.125    3.500    0.500 
#    0.000    5.625    0.000    0.000    0.000    0.000 
#    0.000    0.000    0.000    0.000    0.000    0.000 
#
# Total GULP energy -89150.813044 kJ/mol
# GULP energy per Si atom -5571.925815 kJ/mol
# Density = 2.205501 g / cm^3
# Si number density = 22.105325 Si / 1000 Ang^3
#
#
#
# Elastic Constant Matrix: (Units=GPa)
#
#
# Indices 1 2 3 4 5 6 
#
# 1 66.9226 8.2138 31.9489 -5.5965 -13.0940 1.0196
# 2 8.2138 31.0589 12.6869 5.2577 -2.1310 3.9180
# 3 31.9489 12.6869 134.4960 8.5576 -10.2027 3.3732
# 4 -5.5965 5.2577 8.5576 35.4423 3.1617 0.9254
# 5 -13.0940 -2.1310 -10.2027 3.1617 36.5063 -11.8924
# 6 1.0196 3.9180 3.3732 0.9254 -11.8924 21.8358
#
#
#
# Elastic Compliance Matrix: (Units=1/GPa)
#
#
# Indices 1 2 3 4 5 6 
#
# 1 0.018824 -0.004057 -0.003952 0.003870 0.006287 0.003720
# 2 -0.004057 0.035686 -0.002036 -0.005125 -0.001639 -0.006575
# 3 -0.003952 -0.002036 0.008815 -0.002548 0.001117 -0.000096
# 4 0.003870 -0.005125 -0.002548 0.030497 -0.002816 -0.001694
# 5 0.006287 -0.001639 0.001117 -0.002816 0.036581 0.019870
# 6 0.003720 -0.006575 -0.000096 -0.001694 0.019870 0.057711
#
#
# Mechanical properties :
#
#
# Convention : Reuss Voigt Hill
#
# Bulk Modulus (GPa) = 23.12875 37.57520 30.35197
# Shear Modulus (GPa) = 22.46035 30.73208 26.59622
#
# Velocity S-wave (km/s) = 3.19103 3.73266 3.47242
# Velocity P-wave (km/s) = 4.90536 5.96759 5.46236
#
# Compressibility (1/GPa) = 0.04323624
#
# Stress axis : x y z
#
# Youngs Moduli (GPa) = 53.12320 28.02224 113.44198
#
# Poissons Ratio (x) = 0.11369 0.44827
# Poissons Ratio (y) = 0.21553 0.23095
# Poissons Ratio (z) = 0.20992 0.05705
#
# Static dielectric constant tensor:
#      x y z
#    x 1.885870 -0.019160 -0.008250 
#    y -0.019160 1.854000 -0.061770 
#    z -0.008250 -0.061770 1.843630 
# 
# From -- ./inp_files/451301.got.cif
#   From: 2010.05.17/outbox.cif.g08.bks.cpg/sg2_226_cif.got.tgz:451301.got - 2010.06.03 11:33:40.
