data_PCOD9086824
_publ_section_title
;
Structure prediction by ZEFSAII (Michael W. Deem and Ramdas Pophale) SiO2 
 PCOD9086824
Probable space group: P -1
;
_chemical_formula_sum "Si O2"
_cell_formula_units_Z 16
_cell_length_a 9.645027
_cell_length_b 11.580020
_cell_length_c 10.097220
_cell_angle_alpha 81.993202
_cell_angle_beta 123.352682
_cell_angle_gamma 131.791174
_cell_volume 653.985738
_symmetry_space_group_name_H-M "P -1"
_symmetry_group_IT_number 2
_symmetry_cell_setting 'triclinic'
loop_
_space_group_symop_operation_xyz
x,y,z
-x,-y,-z
loop_
_atom_site_type_symbol
_atom_site_label
_atom_site_fract_x
_atom_site_fract_y
_atom_site_fract_z
Si Si1 0.667863 0.211288 0.838770
Si Si2 0.390709 0.900615 0.595787
Si Si3 0.175019 0.593325 0.385384
Si Si4 0.053211 0.317218 0.219187
Si Si5 0.043758 0.137994 0.587674
Si Si6 0.272343 0.071498 0.858881
Si Si7 0.637088 0.391234 0.126000
Si Si8 0.466203 0.505848 0.203040
O O1 0.726134 0.311180 0.720285
O O2 0.440696 0.146663 0.805984
O O3 0.588253 0.041589 0.780819
O O4 0.884208 0.313215 0.038134
O O5 0.321601 0.732239 0.555410
O O6 0.159350 0.866805 0.506270
O O7 0.500000 0.000000 0.500000
O O8 0.143516 0.439863 0.370042
O O9 0.908890 0.504467 0.278568
O O10 0.275802 0.395301 0.234543
O O11 0.891504 0.124126 0.195225
O O12 0.110394 0.107106 0.766491
O O13 0.288985 0.318453 0.643808
O O14 0.000000 0.000000 0.500000
O O15 0.473598 0.195975 0.053722
O O16 0.526761 0.418182 0.173727
O O17 0.628104 0.455911 0.969730
#
# Coordination Sequence:
#
# PCOD9086824 Si02
#       8
#     2   2   2   2   2   2   2   2
#     4  11  21  39  64  94 126 163 213 259 310 371
#     4  10  23  38  67  97 120 160 212 264 314 362
#     4  11  20  38  64  94 121 161 215 259 303 377
#     4  12  24  39  65  95 131 166 211 256 318 374
#     4  11  21  41  68  87 124 162 214 256 310 374
#     4  11  24  38  63  96 126 170 206 261 320 370
#     4  10  19  36  60  89 122 158 210 261 306 359
#     4  10  22  37  62  93 121 164 209 263 302 367
#
# _framework density 24.465364000000001
#
# number of rings (size 3 to 8) (size 9 to 14) (size 15 to 20)
#    0.000    1.250    5.000    2.250    1.750    0.500 
#    0.000    1.250    2.750    0.000    0.000    0.000 
#    0.000    0.000    0.000    0.000    0.000    0.000 
#
# Total GULP energy -89480.230528 kJ/mol
# GULP energy per Si atom -5592.514408 kJ/mol
# Density = 2.440968 g / cm^3
# Si number density = 24.465364 Si / 1000 Ang^3
#
#
#
# Elastic Constant Matrix: (Units=GPa)
#
#
# Indices 1 2 3 4 5 6 
#
# 1 123.3395 60.2639 11.8968 21.2633 -16.0046 15.4418
# 2 60.2639 145.3461 37.3978 27.9748 -2.4459 -14.8607
# 3 11.8968 37.3978 61.1076 29.8791 -24.6364 -5.0956
# 4 21.2633 27.9748 29.8791 50.8856 -15.9164 -3.3724
# 5 -16.0046 -2.4459 -24.6364 -15.9164 30.0036 26.3497
# 6 15.4418 -14.8607 -5.0956 -3.3724 26.3497 34.0066
#
#
#
# Elastic Compliance Matrix: (Units=1/GPa)
#
#
# Indices 1 2 3 4 5 6 
#
# 1 0.001653 0.004351 -0.010132 -0.004265 -0.027077 0.020190
# 2 0.004351 0.001723 0.006787 -0.000067 0.025618 -0.020062
# 3 -0.010132 0.006787 0.010824 -0.013548 -0.031424 0.032194
# 4 -0.004265 -0.000067 -0.013548 0.029396 -0.000823 0.003430
# 5 -0.027077 0.025618 -0.031424 -0.000823 -0.067876 0.071293
# 6 0.020190 -0.020062 0.032194 0.003430 0.071293 -0.038605
#
#
# Mechanical properties :
#
#
# Convention : Reuss Voigt Hill
#
# Bulk Modulus (GPa) = 61.69081 60.99000 61.34040
# Shear Modulus (GPa) = -84.04216 37.66148 -23.19034
#
# Velocity S-wave (km/s) = -5.86737 3.92775 -3.08211
# Velocity P-wave (km/s) = 4.54215 6.74929 3.53000
#
# Compressibility (1/GPa) = 0.01620987
#
# Stress axis : x y z
#
# Youngs Moduli (GPa) = 604.99851 580.54398 92.38868
#
# Poissons Ratio (x) = -2.52608 0.93613
# Poissons Ratio (y) = -2.63249 -0.62700
# Poissons Ratio (z) = 6.13013 -3.93989
#
# Static dielectric constant tensor:
#      x y z
#    x 1.899280 -0.053800 -0.020100 
#    y -0.053800 1.970710 -0.041600 
#    z -0.020100 -0.041600 2.054140 
# 
# From -- ./inp_files/259962.got.cif
#   From: 2010.05.17/outbox.cif.g08.bks.cpg/sg2_130_cif.got.tgz:259962.got - 2010.06.03 11:33:40.
