data_PCOD9086550
_publ_section_title
;
Structure prediction by ZEFSAII (Michael W. Deem and Ramdas Pophale) SiO2 
 PCOD9086550
Probable space group: P -1
;
_chemical_formula_sum "Si O2"
_cell_formula_units_Z 14
_cell_length_a 12.254012
_cell_length_b 13.182924
_cell_length_c 10.822527
_cell_angle_alpha 146.913283
_cell_angle_beta 119.555639
_cell_angle_gamma 48.580994
_cell_volume 707.714291
_symmetry_space_group_name_H-M "P -1"
_symmetry_group_IT_number 2
_symmetry_cell_setting 'triclinic'
loop_
_space_group_symop_operation_xyz
x,y,z
-x,-y,-z
loop_
_atom_site_type_symbol
_atom_site_label
_atom_site_fract_x
_atom_site_fract_y
_atom_site_fract_z
Si Si1 0.207783 0.961813 0.598217
Si Si2 0.936605 0.126439 0.788145
Si Si3 0.458444 0.061877 0.896542
Si Si4 0.648922 0.471581 0.605867
Si Si5 0.853433 0.219712 0.246275
Si Si6 0.086890 0.559419 0.728168
Si Si7 0.218357 0.144181 0.231051
O O1 0.161390 0.937825 0.411084
O O2 0.272009 0.733421 0.470339
O O3 0.334160 0.017013 0.735642
O O4 0.059871 0.113521 0.749886
O O5 0.857112 0.364493 0.048132
O O6 0.015331 0.954260 0.768743
O O7 0.614278 0.930895 0.780249
O O8 0.387423 0.319565 0.123456
O O9 0.500000 0.000000 0.000000
O O10 0.500000 0.500000 0.500000
O O11 0.747090 0.410853 0.475663
O O12 0.889871 0.327762 0.264721
O O13 0.789018 0.075194 0.007047
O O14 0.162527 0.303683 0.482339
O O15 0.907844 0.690764 0.769432
#
# Coordination Sequence:
#
# PCOD9086550 Si02
#       7
#     2   2   2   2   2   2   2
#     4  10  22  38  57  82 114 145 179 230 279 322
#     4   9  19  40  57  78 116 147 181 225 273 330
#     4  12  20  33  57  84 110 141 184 233 275 320
#     4  11  20  35  57  86 109 139 183 229 277 324
#     4  10  19  36  59  82 107 145 185 228 269 319
#     4  10  20  35  58  81 106 149 186 224 270 320
#     4  10  20  32  52  85 109 135 189 228 267 321
#
# _framework density 19.781994000000001
#
# number of rings (size 3 to 8) (size 9 to 14) (size 15 to 20)
#    0.000    1.714    2.857    4.286    0.000    1.143 
#    0.000   12.857    0.000    4.286    0.000    0.000 
#    0.000    0.000    0.000    0.000    0.000    0.000 
#
# Total GULP energy -78060.500800 kJ/mol
# GULP energy per Si atom -5575.750057 kJ/mol
# Density = 1.973697 g / cm^3
# Si number density = 19.781994 Si / 1000 Ang^3
#
#
#
# Elastic Constant Matrix: (Units=GPa)
#
#
# Indices 1 2 3 4 5 6 
#
# 1 95.5773 31.9173 60.6922 -7.4351 12.0254 -25.1892
# 2 31.9173 40.2847 38.1030 -23.0172 3.4833 -10.9785
# 3 60.6922 38.1030 156.7124 -11.2652 2.0391 -16.6675
# 4 -7.4351 -23.0172 -11.2652 35.2970 -10.8214 1.8805
# 5 12.0254 3.4833 2.0391 -10.8214 32.9523 -1.7435
# 6 -25.1892 -10.9785 -16.6675 1.8805 -1.7435 26.6383
#
#
#
# Elastic Compliance Matrix: (Units=1/GPa)
#
#
# Indices 1 2 3 4 5 6 
#
# 1 0.021319 -0.014595 -0.004035 -0.009546 -0.008502 0.011737
# 2 -0.014595 0.069035 -0.007363 0.043185 0.013082 0.007851
# 3 -0.004035 -0.007363 0.009482 -0.002323 0.000864 -0.000697
# 4 -0.009546 0.043185 -0.002323 0.059257 0.018753 0.004362
# 5 -0.008502 0.013082 0.000864 0.018753 0.038122 -0.000936
# 6 0.011737 0.007851 -0.000697 0.004362 -0.000936 0.051069
#
#
# Mechanical properties :
#
#
# Convention : Reuss Voigt Hill
#
# Bulk Modulus (GPa) = 20.89953 61.55549 41.22751
# Shear Modulus (GPa) = 15.81174 29.76831 22.79002
#
# Velocity S-wave (km/s) = 2.83026 3.88341 3.39788
# Velocity P-wave (km/s) = 4.61176 7.16186 6.02331
#
# Compressibility (1/GPa) = 0.04784798
#
# Stress axis : x y z
#
# Youngs Moduli (GPa) = 46.90554 14.48549 105.46449
#
# Poissons Ratio (x) = 0.21142 0.42558
# Poissons Ratio (y) = 0.68460 0.77658
# Poissons Ratio (z) = 0.18928 0.10666
#
# Static dielectric constant tensor:
#      x y z
#    x 1.752790 -0.012070 -0.009750 
#    y -0.012070 1.711950 0.051390 
#    z -0.009750 0.051390 1.777990 
# 
# From -- ./inp_files/433522.got.cif
#   From: 2010.05.17/outbox.cif.g08.bks.cpg/sg2_217_cif.got.tgz:433522.got - 2010.06.03 11:33:40.
