data_PCOD9086938
_publ_section_title
;
Structure prediction by ZEFSAII (Michael W. Deem and Ramdas Pophale) SiO2 
 PCOD9086938
Probable space group: P -1
;
_chemical_formula_sum "Si O2"
_cell_formula_units_Z 14
_cell_length_a 12.985066
_cell_length_b 8.908510
_cell_length_c 13.169297
_cell_angle_alpha 103.556928
_cell_angle_beta 33.422827
_cell_angle_gamma 81.565502
_cell_volume 627.256165
_symmetry_space_group_name_H-M "P -1"
_symmetry_group_IT_number 2
_symmetry_cell_setting 'triclinic'
loop_
_space_group_symop_operation_xyz
x,y,z
-x,-y,-z
loop_
_atom_site_type_symbol
_atom_site_label
_atom_site_fract_x
_atom_site_fract_y
_atom_site_fract_z
Si Si1 0.487673 0.817435 0.796747
Si Si2 0.053124 0.028793 0.307809
Si Si3 0.228471 0.277619 0.247340
Si Si4 0.225231 0.557250 0.636346
Si Si5 0.561569 0.223343 0.477023
Si Si6 0.678660 0.880979 0.187513
Si Si7 0.613678 0.276645 0.837771
O O1 0.604175 0.815551 0.804845
O O2 0.652745 0.592273 0.583139
O O3 0.481807 0.958395 0.743408
O O4 0.209256 0.906016 0.059260
O O5 0.123239 0.169957 0.286821
O O6 0.767256 0.176220 0.591774
O O7 0.191072 0.860417 0.255402
O O8 0.000000 0.500000 0.500000
O O9 0.394074 0.272228 0.026292
O O10 0.353835 0.405587 0.602890
O O11 0.284043 0.708159 0.610024
O O12 0.937795 0.692044 0.902056
O O13 0.444371 0.193185 0.662089
O O14 0.705678 0.013858 0.263412
O O15 0.500000 0.500000 0.000000
#
# Coordination Sequence:
#
# PCOD9086938 Si02
#       7
#     2   2   2   2   2   2   2
#     4  10  23  38  57  91 122 158 204 253 300 355
#     4  10  22  40  58  82 120 156 206 255 299 361
#     4  11  22  41  64  81 119 168 208 255 309 353
#     4  10  20  38  63  90 126 154 195 245 300 361
#     4   9  20  39  63  94 116 160 198 231 306 372
#     4  10  20  38  64  89 125 155 197 247 294 362
#     4  10  19  36  61  85 103 153 207 249 303 359
#
# _framework density 22.319431999999999
#
# number of rings (size 3 to 8) (size 9 to 14) (size 15 to 20)
#    0.000    2.000    1.429    2.571    2.000    0.000 
#    0.000   17.143    0.000    0.000    0.000    0.000 
#    0.000    0.000    0.000    0.000    0.000    0.000 
#
# Total GULP energy -78230.456353 kJ/mol
# GULP energy per Si atom -5587.889739 kJ/mol
# Density = 2.226863 g / cm^3
# Si number density = 22.319432 Si / 1000 Ang^3
#
#
#
# Elastic Constant Matrix: (Units=GPa)
#
#
# Indices 1 2 3 4 5 6 
#
# 1 30.6818 14.9442 24.4926 -13.4842 8.2845 8.2818
# 2 14.9442 125.2423 65.4228 -7.7903 10.0146 2.6585
# 3 24.4926 65.4228 195.8982 -0.6068 10.6107 6.6620
# 4 -13.4842 -7.7903 -0.6068 41.4374 -3.1798 2.2243
# 5 8.2845 10.0146 10.6107 -3.1798 22.9830 3.5157
# 6 8.2818 2.6585 6.6620 2.2243 3.5157 17.5431
#
#
#
# Elastic Compliance Matrix: (Units=1/GPa)
#
#
# Indices 1 2 3 4 5 6 
#
# 1 0.054241 -0.001484 -0.004853 0.017759 -0.010587 -0.023669
# 2 -0.001484 0.009997 -0.003045 0.001135 -0.002361 0.000671
# 3 -0.004853 -0.003045 0.006725 -0.002114 -0.000405 0.000548
# 4 0.017759 0.001135 -0.002114 0.030730 0.000117 -0.011673
# 5 -0.010587 -0.002361 -0.000405 0.000117 0.049227 -0.004370
# 6 -0.023669 0.000671 0.000548 -0.011673 -0.004370 0.070222
#
#
# Mechanical properties :
#
#
# Convention : Reuss Voigt Hill
#
# Bulk Modulus (GPa) = 19.15651 62.39351 40.77501
# Shear Modulus (GPa) = 19.43218 32.85690 26.14454
#
# Velocity S-wave (km/s) = 2.95386 3.84099 3.42626
# Velocity P-wave (km/s) = 4.49836 6.90553 5.82759
#
# Compressibility (1/GPa) = 0.05220157
#
# Stress axis : x y z
#
# Youngs Moduli (GPa) = 18.43607 100.02890 148.69957
#
# Poissons Ratio (x) = 0.14841 0.72161
# Poissons Ratio (y) = 0.02735 0.45273
# Poissons Ratio (z) = 0.08947 0.30455
#
# Static dielectric constant tensor:
#      x y z
#    x 1.883930 -0.031750 0.018890 
#    y -0.031750 1.806540 0.003340 
#    z 0.018890 0.003340 1.883990 
# 
# From -- ./inp_files/529945.got.cif
#   From: 2010.05.17/outbox.cif.g08.bks.cpg/sg2_265_cif.got.tgz:529945.got - 2010.06.03 11:33:40.
