data_PCOD9086686
_publ_section_title
;
Structure prediction by ZEFSAII (Michael W. Deem and Ramdas Pophale) SiO2 
 PCOD9086686
Probable space group: P -1
;
_chemical_formula_sum "Si O2"
_cell_formula_units_Z 16
_cell_length_a 14.538935
_cell_length_b 13.629497
_cell_length_c 14.488350
_cell_angle_alpha 148.076004
_cell_angle_beta 28.474266
_cell_angle_gamma 147.151341
_cell_volume 671.578576
_symmetry_space_group_name_H-M "P -1"
_symmetry_group_IT_number 2
_symmetry_cell_setting 'triclinic'
loop_
_space_group_symop_operation_xyz
x,y,z
-x,-y,-z
loop_
_atom_site_type_symbol
_atom_site_label
_atom_site_fract_x
_atom_site_fract_y
_atom_site_fract_z
Si Si1 0.254561 0.594688 0.422246
Si Si2 0.766620 0.354553 0.082683
Si Si3 0.537881 0.823660 0.663218
Si Si4 0.634936 0.874497 0.421365
Si Si5 0.502218 0.257656 0.059849
Si Si6 0.200034 0.071357 0.316357
Si Si7 0.986101 0.817866 0.762496
Si Si8 0.521643 0.756298 0.139672
O O1 0.445695 0.689105 0.398222
O O2 0.117753 0.734356 0.649222
O O3 0.372795 0.614293 0.234669
O O4 0.094769 0.366718 0.387527
O O5 0.659309 0.380795 0.100606
O O6 0.758942 0.129592 0.898284
O O7 0.682921 0.347183 0.257190
O O8 0.000000 0.500000 0.000000
O O9 0.659146 0.819036 0.460882
O O10 0.536679 0.047166 0.847980
O O11 0.639092 0.791663 0.642464
O O12 0.853291 0.975633 0.256843
O O13 0.543023 0.050957 0.643984
O O14 0.521366 0.331269 0.996424
O O15 0.268690 0.192039 0.256718
O O16 0.000000 0.000000 0.500000
O O17 0.769416 0.827416 0.995909
#
# Coordination Sequence:
#
# PCOD9086686 Si02
#       8
#     2   2   2   2   2   2   2   2
#     4  10  22  39  55  84 115 141 187 236 271 329
#     4   9  17  35  54  77 107 140 174 215 271 322
#     4   8  17  35  52  75 109 142 172 216 267 321
#     4  10  21  38  57  83 115 143 189 232 267 330
#     4   8  17  33  54  75 105 143 176 213 264 326
#     4   9  17  31  55  76 103 139 175 213 263 317
#     4  10  21  37  59  78 111 151 184 222 292 321
#     4  10  19  36  60  80 110 147 188 226 271 335
#
# _framework density 23.824463999999999
#
# number of rings (size 3 to 8) (size 9 to 14) (size 15 to 20)
#    0.000    2.750    0.000    3.375    1.750    2.000 
#   11.250    3.750    0.000    0.000    0.000    0.000 
#    0.000    0.000    0.000    0.000    0.000    0.000 
#
# Total GULP energy -89068.707162 kJ/mol
# GULP energy per Si atom -5566.794198 kJ/mol
# Density = 2.377024 g / cm^3
# Si number density = 23.824464 Si / 1000 Ang^3
#
#
#
# Elastic Constant Matrix: (Units=GPa)
#
#
# Indices 1 2 3 4 5 6 
#
# 1 82.0319 12.5503 13.4940 -2.6716 25.0051 1.7641
# 2 12.5503 71.3420 -5.0338 -1.3486 5.7395 18.1399
# 3 13.4940 -5.0338 73.2688 -11.0358 -5.7282 -7.8269
# 4 -2.6716 -1.3486 -11.0358 36.2014 -2.2506 -5.1205
# 5 25.0051 5.7395 -5.7282 -2.2506 28.7560 -2.5371
# 6 1.7641 18.1399 -7.8269 -5.1205 -2.5371 22.2667
#
#
#
# Elastic Compliance Matrix: (Units=1/GPa)
#
#
# Indices 1 2 3 4 5 6 
#
# 1 0.018828 -0.000961 -0.005860 -0.002309 -0.018001 -0.005351
# 2 -0.000961 0.018662 -0.001032 -0.002328 -0.004739 -0.016565
# 3 -0.005860 -0.001032 0.017609 0.006988 0.010263 0.010271
# 4 -0.002309 -0.002328 0.006988 0.031755 0.007469 0.012689
# 5 -0.018001 -0.004739 0.010263 0.007469 0.055497 0.016935
# 6 -0.005351 -0.016565 0.010271 0.012689 0.016935 0.067287
#
#
# Mechanical properties :
#
#
# Convention : Reuss Voigt Hill
#
# Bulk Modulus (GPa) = 25.38426 29.85152 27.61789
# Shear Modulus (GPa) = 20.96647 31.15363 26.06005
#
# Velocity S-wave (km/s) = 2.96976 3.62004 3.31091
# Velocity P-wave (km/s) = 4.73679 5.47996 5.12187
#
# Compressibility (1/GPa) = 0.03939448
#
# Stress axis : x y z
#
# Youngs Moduli (GPa) = 53.11159 53.58351 56.78979
#
# Poissons Ratio (x) = 0.05147 0.33281
# Poissons Ratio (y) = 0.05102 0.05859
# Poissons Ratio (z) = 0.31125 0.05528
#
# Static dielectric constant tensor:
#      x y z
#    x 1.934770 -0.051620 0.035910 
#    y -0.051620 2.049020 -0.101920 
#    z 0.035910 -0.101920 2.114950 
# 
# From -- ./inp_files/534403.got.cif
#   From: 2010.05.17/outbox.cif.g08.bks.cpg/sg2_268_cif.got.tgz:534403.got - 2010.06.03 11:33:40.
