data_PCOD9086422
_publ_section_title
;
Structure prediction by ZEFSAII (Michael W. Deem and Ramdas Pophale) SiO2 
 PCOD9086422
Probable space group: P -1
;
_chemical_formula_sum "Si O2"
_cell_formula_units_Z 14
_cell_length_a 13.699153
_cell_length_b 7.789489
_cell_length_c 7.295943
_cell_angle_alpha 88.801015
_cell_angle_beta 84.706862
_cell_angle_gamma 58.450257
_cell_volume 660.293633
_symmetry_space_group_name_H-M "P -1"
_symmetry_group_IT_number 2
_symmetry_cell_setting 'triclinic'
loop_
_space_group_symop_operation_xyz
x,y,z
-x,-y,-z
loop_
_atom_site_type_symbol
_atom_site_label
_atom_site_fract_x
_atom_site_fract_y
_atom_site_fract_z
Si Si1 0.530953 0.950412 0.709830
Si Si2 0.913125 0.189295 0.741214
Si Si3 0.447603 0.319513 0.957751
Si Si4 0.228541 0.163980 0.174459
Si Si5 0.008389 0.736778 0.628551
Si Si6 0.893453 0.467335 0.045278
Si Si7 0.312285 0.732013 0.102594
O O1 0.660634 0.901088 0.720461
O O2 0.500000 0.000000 0.500000
O O3 0.446947 0.153592 0.833909
O O4 0.530707 0.772279 0.834428
O O5 0.921435 0.267086 0.936210
O O6 0.778646 0.261879 0.737129
O O7 0.955605 0.288959 0.586083
O O8 0.986732 0.951752 0.697641
O O9 0.559511 0.323842 0.869047
O O10 0.341277 0.548784 0.965698
O O11 0.113531 0.241360 0.311101
O O12 0.209259 0.341048 0.040287
O O13 0.250576 0.968734 0.058489
O O14 0.108280 0.566066 0.739377
O O15 0.000000 0.500000 0.000000
#
# Coordination Sequence:
#
# PCOD9086422 Si02
#       7
#     2   2   2   2   2   2   2
#     4  10  20  38  62  88 114 145 188 238 291 341
#     4  10  19  36  58  84 117 149 193 236 277 342
#     4   9  19  38  60  82 113 148 188 240 286 334
#     4   9  19  36  57  83 116 150 191 236 280 341
#     4   9  20  37  58  83 115 154 190 235 284 331
#     4  10  20  35  56  83 115 152 189 231 285 338
#     4   9  18  37  58  78 113 153 187 235 282 327
#
# _framework density 21.202686
#
# number of rings (size 3 to 8) (size 9 to 14) (size 15 to 20)
#    0.000    2.571    0.000    1.286    0.000    2.286 
#    0.000   35.000    0.000    0.000    0.000    0.000 
#    0.000    0.000    0.000    0.000    0.000    0.000 
#
# Total GULP energy -77949.121732 kJ/mol
# GULP energy per Si atom -5567.794409 kJ/mol
# Density = 2.115443 g / cm^3
# Si number density = 21.202686 Si / 1000 Ang^3
#
#
#
# Elastic Constant Matrix: (Units=GPa)
#
#
# Indices 1 2 3 4 5 6 
#
# 1 74.6034 17.8848 32.9905 -10.2127 -10.5058 4.8629
# 2 17.8848 81.4522 22.2510 1.5955 4.9749 1.4085
# 3 32.9905 22.2510 94.9692 -21.8897 0.4014 -16.3078
# 4 -10.2127 1.5955 -21.8897 23.1446 -1.5330 3.2932
# 5 -10.5058 4.9749 0.4014 -1.5330 28.8449 0.4578
# 6 4.8629 1.4085 -16.3078 3.2932 0.4578 24.6211
#
#
#
# Elastic Compliance Matrix: (Units=1/GPa)
#
#
# Indices 1 2 3 4 5 6 
#
# 1 0.019267 -0.002853 -0.006576 0.004247 0.007965 -0.008714
# 2 -0.002853 0.014423 -0.004148 -0.006124 -0.003761 -0.002120
# 3 -0.006576 -0.004148 0.019033 0.013533 -0.001421 0.012359
# 4 0.004247 -0.006124 0.013533 0.058591 0.005520 0.000535
# 5 0.007965 -0.003761 -0.001421 0.005520 0.038591 -0.003755
# 6 -0.008714 -0.002120 0.012359 0.000535 -0.003755 0.050642
#
#
# Mechanical properties :
#
#
# Convention : Reuss Voigt Hill
#
# Bulk Modulus (GPa) = 39.10782 44.14195 41.62489
# Shear Modulus (GPa) = 21.16640 27.18202 24.17421
#
# Velocity S-wave (km/s) = 3.16300 3.58440 3.38027
# Velocity P-wave (km/s) = 5.64129 6.16399 5.90843
#
# Compressibility (1/GPa) = 0.02557033
#
# Stress axis : x y z
#
# Youngs Moduli (GPa) = 51.90216 69.33377 52.53963
#
# Poissons Ratio (x) = 0.19782 0.34548
# Poissons Ratio (y) = 0.14809 0.21792
# Poissons Ratio (z) = 0.34129 0.28757
#
# Static dielectric constant tensor:
#      x y z
#    x 1.839600 0.014680 -0.003080 
#    y 0.014680 1.833080 -0.005130 
#    z -0.003080 -0.005130 1.721050 
# 
# From -- ./inp_files/88938.got.cif
#   From: 2010.05.17/outbox.cif.g08.bks.cpg/sg2_45_cif.got.tgz:88938.got - 2010.06.03 11:33:40.
