data_PCOD9086230
_publ_section_title
;
Structure prediction by ZEFSAII (Michael W. Deem and Ramdas Pophale) SiO2 
 PCOD9086230
Probable space group: P -1
;
_chemical_formula_sum "Si O2"
_cell_formula_units_Z 16
_cell_length_a 10.766277
_cell_length_b 24.286096
_cell_length_c 15.035518
_cell_angle_alpha 19.080833
_cell_angle_beta 39.487568
_cell_angle_gamma 40.133043
_cell_volume 805.456346
_symmetry_space_group_name_H-M "P -1"
_symmetry_group_IT_number 2
_symmetry_cell_setting 'triclinic'
loop_
_space_group_symop_operation_xyz
x,y,z
-x,-y,-z
loop_
_atom_site_type_symbol
_atom_site_label
_atom_site_fract_x
_atom_site_fract_y
_atom_site_fract_z
Si Si1 0.659228 0.663464 0.084745
Si Si2 0.456652 0.641952 0.672302
Si Si3 0.273485 0.740965 0.298140
Si Si4 0.784248 0.411695 0.936892
Si Si5 0.560563 0.975424 0.156856
Si Si6 0.162449 0.244961 0.521727
Si Si7 0.216340 0.420803 0.038496
Si Si8 0.123970 0.146557 0.185870
O O1 0.449382 0.733043 0.140549
O O2 0.710469 0.457708 0.381159
O O3 0.666528 0.688903 0.937246
O O4 0.821951 0.749758 0.915502
O O5 0.627530 0.479159 0.844930
O O6 0.550554 0.813266 0.345995
O O7 0.331489 0.662483 0.803653
O O8 0.319111 0.580038 0.768958
O O9 0.055059 0.803620 0.285481
O O10 0.319843 0.866962 0.159279
O O11 0.850244 0.581615 0.679349
O O12 0.976667 0.280400 0.004068
O O13 0.665692 0.886836 0.324090
O O14 0.333433 0.064664 0.154988
O O15 0.207346 0.301745 0.310918
O O16 0.000000 0.500000 0.000000
O O17 0.000000 0.000000 0.500000
#
# Coordination Sequence:
#
# PCOD9086230 Si02
#       8
#     2   2   2   2   2   2   2   2
#     4  10  21  36  54  87 107 152 186 222 275 337
#     4   9  18  32  52  81 110 140 185 229 271 327
#     4  10  19  36  57  78 114 148 190 222 267 331
#     4   9  16  31  53  79 107 144 184 226 272 321
#     4  10  21  32  56  89 107 143 190 234 268 318
#     4  10  19  36  60  84 109 144 190 231 271 325
#     4  11  20  34  59  80 115 146 181 228 285 332
#     4  11  19  31  55  80 113 137 185 236 275 316
#
# _framework density 19.864515999999998
#
# number of rings (size 3 to 8) (size 9 to 14) (size 15 to 20)
#    0.000    2.000    3.750    1.875    0.000    0.000 
#    0.000    3.125    0.000    3.000    0.000    0.000 
#    0.000    0.000    0.000    0.000    0.000    0.000 
#
# Total GULP energy -89182.392559 kJ/mol
# GULP energy per Si atom -5573.899535 kJ/mol
# Density = 1.981930 g / cm^3
# Si number density = 19.864516 Si / 1000 Ang^3
#
#
#
# Elastic Constant Matrix: (Units=GPa)
#
#
# Indices 1 2 3 4 5 6 
#
# 1 115.3220 34.3406 38.4783 -2.3237 -23.1078 -18.9660
# 2 34.3406 57.7076 20.0044 -8.6611 8.1100 -23.6645
# 3 38.4783 20.0044 87.1542 -17.4140 -25.4979 -5.4704
# 4 -2.3237 -8.6611 -17.4140 26.8165 -8.1073 2.0815
# 5 -23.1078 8.1100 -25.4979 -8.1073 42.7546 -4.5156
# 6 -18.9660 -23.6645 -5.4704 2.0815 -4.5156 36.1500
#
#
#
# Elastic Compliance Matrix: (Units=1/GPa)
#
#
# Indices 1 2 3 4 5 6 
#
# 1 0.013539 -0.007314 -0.001855 -0.000250 0.007871 0.003032
# 2 -0.007314 0.031659 -0.006666 0.000420 -0.012343 0.014313
# 3 -0.001855 -0.006666 0.022001 0.017038 0.016516 -0.000926
# 4 -0.000250 0.000420 0.017038 0.054502 0.020508 0.002146
# 5 0.007871 -0.012343 0.016516 0.020508 0.044026 0.002868
# 6 0.003032 0.014313 -0.000926 0.002146 0.002868 0.038717
#
#
# Mechanical properties :
#
#
# Convention : Reuss Voigt Hill
#
# Bulk Modulus (GPa) = 28.14670 49.53671 38.84170
# Shear Modulus (GPa) = 20.16457 32.30158 26.23308
#
# Velocity S-wave (km/s) = 3.18953 4.03686 3.63795
# Velocity P-wave (km/s) = 5.26918 6.83518 6.10262
#
# Compressibility (1/GPa) = 0.03552815
#
# Stress axis : x y z
#
# Youngs Moduli (GPa) = 73.85882 31.58670 45.45183
#
# Poissons Ratio (x) = 0.23102 0.08433
# Poissons Ratio (y) = 0.54020 0.30299
# Poissons Ratio (z) = 0.13704 0.21056
#
# Static dielectric constant tensor:
#      x y z
#    x 1.718000 -0.007770 0.001310 
#    y -0.007770 1.714340 0.010420 
#    z 0.001310 0.010420 1.783390 
# 
# From -- ./inp_files/252132.got.cif
#   From: 2010.05.17/outbox.cif.g08.bks.cpg/sg2_127_cif.got.tgz:252132.got - 2010.06.03 11:33:40.
