data_PCOD9086544
_publ_section_title
;
Structure prediction by ZEFSAII (Michael W. Deem and Ramdas Pophale) SiO2 
 PCOD9086544
Probable space group: P -1
;
_chemical_formula_sum "Si O2"
_cell_formula_units_Z 14
_cell_length_a 9.110277
_cell_length_b 19.556855
_cell_length_c 7.962155
_cell_angle_alpha 126.541779
_cell_angle_beta 33.777017
_cell_angle_gamma 127.604744
_cell_volume 612.176474
_symmetry_space_group_name_H-M "P -1"
_symmetry_group_IT_number 2
_symmetry_cell_setting 'triclinic'
loop_
_space_group_symop_operation_xyz
x,y,z
-x,-y,-z
loop_
_atom_site_type_symbol
_atom_site_label
_atom_site_fract_x
_atom_site_fract_y
_atom_site_fract_z
Si Si1 0.449470 0.681923 0.650108
Si Si2 0.095297 0.493222 0.586641
Si Si3 0.011631 0.788281 0.195601
Si Si4 0.090856 0.122723 0.224866
Si Si5 0.450136 0.900138 0.465551
Si Si6 0.918370 0.945296 0.326368
Si Si7 0.535968 0.427435 0.222415
O O1 0.738885 0.708780 0.319968
O O2 0.499898 0.660627 0.764993
O O3 0.256726 0.591473 0.631091
O O4 0.283939 0.755549 0.898685
O O5 0.000000 0.500000 0.500000
O O6 0.300470 0.430485 0.318843
O O7 0.833298 0.457259 0.901622
O O8 0.953277 0.830054 0.491084
O O9 0.020797 0.859527 0.145928
O O10 0.867134 0.138416 0.328469
O O11 0.377729 0.145829 0.890744
O O12 0.041102 0.019525 0.178598
O O13 0.602746 0.909855 0.514767
O O14 0.500000 0.000000 0.500000
O O15 0.000000 0.000000 0.500000
O O16 0.500000 0.500000 0.500000
#
# Coordination Sequence:
#
# PCOD9086544 Si02
#       7
#     2   2   2   2   2   2   2
#     4  11  22  40  60  87 120 157 197 238 299 365
#     4  11  22  40  67  95 121 153 199 252 300 361
#     4  11  23  38  57  85 120 156 196 251 295 346
#     4  10  21  38  58  81 112 157 205 245 293 352
#     4  10  19  36  59  81 106 144 201 257 291 343
#     4   9  20  37  58  82 113 156 200 237 289 347
#     4  10  20  39  65  87 115 159 198 234 291 372
#
# _framework density 22.869221
#
# number of rings (size 3 to 8) (size 9 to 14) (size 15 to 20)
#    0.000    1.714    0.000    7.286    0.000    3.429 
#    0.000   20.714    0.000    0.000    0.000    0.000 
#    0.000    0.000    0.000    0.000    0.000    0.000 
#
# Total GULP energy -78184.059654 kJ/mol
# GULP energy per Si atom -5584.575690 kJ/mol
# Density = 2.281717 g / cm^3
# Si number density = 22.869221 Si / 1000 Ang^3
#
#
#
# Elastic Constant Matrix: (Units=GPa)
#
#
# Indices 1 2 3 4 5 6 
#
# 1 151.9146 33.3026 29.4039 15.2276 -19.8651 -28.1320
# 2 33.3026 68.7343 12.0939 1.7946 -12.8035 -23.4641
# 3 29.4039 12.0939 76.0304 -3.5817 -21.1012 0.7823
# 4 15.2276 1.7946 -3.5817 30.6333 -11.4782 -6.8763
# 5 -19.8651 -12.8035 -21.1012 -11.4782 39.3272 11.9782
# 6 -28.1320 -23.4641 0.7823 -6.8763 11.9782 25.9398
#
#
#
# Elastic Compliance Matrix: (Units=1/GPa)
#
#
# Indices 1 2 3 4 5 6 
#
# 1 0.009500 -0.000829 -0.004302 -0.003699 -0.001757 0.009513
# 2 -0.000829 0.022380 -0.003356 0.003208 -0.000208 0.020393
# 3 -0.004302 -0.003356 0.019355 0.006614 0.012846 -0.012463
# 4 -0.003699 0.003208 0.006614 0.040919 0.013687 0.003217
# 5 -0.001757 -0.000208 0.012846 0.013687 0.040740 -0.017665
# 6 0.009513 0.020393 -0.012463 0.003217 -0.017665 0.076700
#
#
# Mechanical properties :
#
#
# Convention : Reuss Voigt Hill
#
# Bulk Modulus (GPa) = 29.18704 49.58670 39.38687
# Shear Modulus (GPa) = 21.00951 33.97200 27.49075
#
# Velocity S-wave (km/s) = 3.03426 3.85839 3.47087
# Velocity P-wave (km/s) = 5.00659 6.44820 5.77258
#
# Compressibility (1/GPa) = 0.03426178
#
# Stress axis : x y z
#
# Youngs Moduli (GPa) = 105.26596 44.68305 51.66608
#
# Poissons Ratio (x) = 0.03704 0.22225
# Poissons Ratio (y) = 0.08727 0.17337
# Poissons Ratio (z) = 0.45283 0.14994
#
# Static dielectric constant tensor:
#      x y z
#    x 1.929100 0.045210 -0.003640 
#    y 0.045210 1.914470 -0.009880 
#    z -0.003640 -0.009880 1.877590 
# 
# From -- ./inp_files/218156.got.cif
#   From: 2010.05.17/outbox.cif.g08.bks.cpg/sg2_110_cif.got.tgz:218156.got - 2010.06.03 11:33:40.
