data_PCOD9086132
_publ_section_title
;
Structure prediction by ZEFSAII (Michael W. Deem and Ramdas Pophale) SiO2 
 PCOD9086132
Probable space group: P -1
;
_chemical_formula_sum "Si O2"
_cell_formula_units_Z 14
_cell_length_a 7.500056
_cell_length_b 14.422560
_cell_length_c 8.710143
_cell_angle_alpha 62.363697
_cell_angle_beta 62.243484
_cell_angle_gamma 41.634336
_cell_volume 543.084020
_symmetry_space_group_name_H-M "P -1"
_symmetry_group_IT_number 2
_symmetry_cell_setting 'triclinic'
loop_
_space_group_symop_operation_xyz
x,y,z
-x,-y,-z
loop_
_atom_site_type_symbol
_atom_site_label
_atom_site_fract_x
_atom_site_fract_y
_atom_site_fract_z
Si Si1 0.742987 0.511705 0.553123
Si Si2 0.382598 0.031625 0.281380
Si Si3 0.127410 0.042708 0.657999
Si Si4 0.528868 0.283851 0.227189
Si Si5 0.957848 0.500030 0.196012
Si Si6 0.261951 0.196968 0.907015
Si Si7 0.815518 0.258838 0.851256
O O1 0.504620 0.635466 0.668163
O O2 0.809871 0.370078 0.679810
O O3 0.000000 0.500000 0.500000
O O4 0.711767 0.532589 0.365112
O O5 0.636974 0.976288 0.328236
O O6 0.329149 0.141437 0.095522
O O7 0.135596 0.088361 0.449579
O O8 0.481570 0.898567 0.238733
O O9 0.245138 0.884677 0.721393
O O10 0.864125 0.151731 0.788216
O O11 0.225367 0.345113 0.270621
O O12 0.573152 0.331412 0.014262
O O13 0.000000 0.500000 0.000000
O O14 0.911024 0.637193 0.157552
O O15 0.068626 0.174675 0.933412
#
# Coordination Sequence:
#
# PCOD9086132 Si02
#       7
#     2   2   2   2   2   2   2
#     4  10  21  37  59  84 113 151 196 229 281 350
#     4   9  20  34  60  85 112 151 194 244 275 336
#     4  10  21  35  61  84 117 149 200 230 289 333
#     4  11  22  39  60  86 119 154 189 234 294 345
#     4  11  23  36  61  86 116 144 199 243 283 334
#     4  10  19  36  55  85 117 147 193 236 289 331
#     4  11  22  38  59  86 120 154 190 234 291 348
#
# _framework density 25.778699
#
# number of rings (size 3 to 8) (size 9 to 14) (size 15 to 20)
#    0.000    1.714    2.857    2.571   12.000    0.000 
#    0.000    2.857    0.000    0.000    0.000    0.000 
#    0.000    0.000    0.000    0.000    0.000    0.000 
#
# Total GULP energy -78169.896313 kJ/mol
# GULP energy per Si atom -5583.564022 kJ/mol
# Density = 2.572003 g / cm^3
# Si number density = 25.778699 Si / 1000 Ang^3
#
#
#
# Elastic Constant Matrix: (Units=GPa)
#
#
# Indices 1 2 3 4 5 6 
#
# 1 31.3310 11.9334 20.0423 0.9155 10.8984 -3.0837
# 2 11.9334 129.0523 55.0607 15.7312 8.7677 20.8862
# 3 20.0423 55.0607 206.1411 38.3266 14.4809 14.1654
# 4 0.9155 15.7312 38.3266 44.2262 4.3309 3.0308
# 5 10.8984 8.7677 14.4809 4.3309 28.8280 2.8387
# 6 -3.0837 20.8862 14.1654 3.0308 2.8387 23.0540
#
#
#
# Elastic Compliance Matrix: (Units=1/GPa)
#
#
# Indices 1 2 3 4 5 6 
#
# 1 0.041991 -0.003881 -0.003674 0.004272 -0.014735 0.012643
# 2 -0.003881 0.010360 -0.001475 -0.001742 0.000185 -0.008792
# 3 -0.003674 -0.001475 0.006751 -0.005020 -0.000546 -0.002576
# 4 0.004272 -0.001742 -0.005020 0.027643 -0.002909 0.001958
# 5 -0.014735 0.000185 -0.000546 -0.002909 0.041558 -0.006538
# 6 0.012643 -0.008792 -0.002576 0.001958 -0.006538 0.055164
#
#
# Mechanical properties :
#
#
# Convention : Reuss Voigt Hill
#
# Bulk Modulus (GPa) = 24.36527 60.06635 42.21581
# Shear Modulus (GPa) = 23.23355 37.85416 30.54386
#
# Velocity S-wave (km/s) = 3.00537 3.83616 3.44590
# Velocity P-wave (km/s) = 4.63845 6.55537 5.67839
#
# Compressibility (1/GPa) = 0.04104203
#
# Stress axis : x y z
#
# Youngs Moduli (GPa) = 23.81469 96.52855 148.13142
#
# Poissons Ratio (x) = 0.37465 0.54420
# Poissons Ratio (y) = 0.09243 0.21843
# Poissons Ratio (z) = 0.08749 0.14234
#
# Static dielectric constant tensor:
#      x y z
#    x 2.138010 -0.079880 0.002430 
#    y -0.079880 2.077350 0.117670 
#    z 0.002430 0.117670 2.098690 
# 
# From -- ./inp_files/153889.got.cif
#   From: 2010.05.17/outbox.cif.g08.bks.cpg/sg2_77_cif.got.tgz:153889.got - 2010.06.03 11:33:40.
