data_PCOD9086690
_publ_section_title
;
Structure prediction by ZEFSAII (Michael W. Deem and Ramdas Pophale) SiO2 
 PCOD9086690
Probable space group: P -1
;
_chemical_formula_sum "Si O2"
_cell_formula_units_Z 14
_cell_length_a 9.290435
_cell_length_b 7.356891
_cell_length_c 10.337931
_cell_angle_alpha 134.634822
_cell_angle_beta 101.418288
_cell_angle_gamma 93.224028
_cell_volume 473.133633
_symmetry_space_group_name_H-M "P -1"
_symmetry_group_IT_number 2
_symmetry_cell_setting 'triclinic'
loop_
_space_group_symop_operation_xyz
x,y,z
-x,-y,-z
loop_
_atom_site_type_symbol
_atom_site_label
_atom_site_fract_x
_atom_site_fract_y
_atom_site_fract_z
Si Si1 0.773601 0.053893 0.911285
Si Si2 0.453373 0.444734 0.298019
Si Si3 0.705655 0.198912 0.407404
Si Si4 0.246848 0.221628 0.612763
Si Si5 0.966403 0.623937 0.716724
Si Si6 0.660354 0.650609 0.042373
Si Si7 0.883372 0.269321 0.780657
O O1 0.757126 0.171674 0.825116
O O2 0.612753 0.863657 0.831565
O O3 0.887232 0.863813 0.813894
O O4 0.861756 0.251277 0.138406
O O5 0.399407 0.612510 0.484015
O O6 0.627294 0.569599 0.344036
O O7 0.350377 0.461111 0.159118
O O8 0.871194 0.392036 0.486698
O O9 0.680946 0.011312 0.439869
O O10 0.668990 0.959658 0.180502
O O11 0.222323 0.331017 0.805976
O O12 0.106116 0.028168 0.412455
O O13 0.898290 0.434675 0.733882
O O14 0.500000 0.500000 0.000000
O O15 0.000000 0.500000 0.000000
#
# Coordination Sequence:
#
# PCOD9086690 Si02
#       7
#     2   2   2   2   2   2   2
#     4   9  17  26  47  76  92 128 166 196 248 287
#     4  10  16  27  45  74 100 121 164 205 238 291
#     4   8  15  27  46  67  96 125 160 197 238 286
#     4   8  16  27  43  69  95 127 160 193 245 290
#     4   8  15  30  45  69  97 124 166 196 235 297
#     4   8  16  26  43  71 100 124 161 199 239 298
#     4   9  16  29  48  68  97 130 161 203 242 287
#
# _framework density 29.589949000000001
#
# number of rings (size 3 to 8) (size 9 to 14) (size 15 to 20)
#    0.857    2.571    0.000    0.429    0.000    0.571 
#    0.000    0.714    0.000    0.000   22.286   23.000 
#    0.000    0.000    0.000    0.000    0.000    0.000 
#
# Total GULP energy -77948.038317 kJ/mol
# GULP energy per Si atom -5567.717023 kJ/mol
# Density = 2.952260 g / cm^3
# Si number density = 29.589949 Si / 1000 Ang^3
#
#
#
# Elastic Constant Matrix: (Units=GPa)
#
#
# Indices 1 2 3 4 5 6 
#
# 1 78.6641 22.8863 26.6085 37.5547 13.7577 2.5784
# 2 22.8863 164.5160 19.5217 14.4524 27.3307 21.7253
# 3 26.6085 19.5217 207.1216 23.1198 31.3203 27.3332
# 4 37.5547 14.4524 23.1198 40.8407 10.1630 14.0800
# 5 13.7577 27.3307 31.3203 10.1630 35.9193 11.5776
# 6 2.5784 21.7253 27.3332 14.0800 11.5776 52.4752
#
#
#
# Elastic Compliance Matrix: (Units=1/GPa)
#
#
# Indices 1 2 3 4 5 6 
#
# 1 0.025081 -0.001715 -0.000875 -0.023583 -0.003105 0.006946
# 2 -0.001715 0.007296 0.000481 0.000711 -0.004765 -0.002326
# 3 -0.000875 0.000481 0.005915 -0.000949 -0.004262 -0.002042
# 4 -0.023583 0.000711 -0.000949 0.050905 -0.001205 -0.012034
# 5 -0.003105 -0.004765 -0.004262 -0.001205 0.037903 -0.003694
# 6 0.006946 -0.002326 -0.002042 -0.012034 -0.003694 0.024786
#
#
# Mechanical properties :
#
#
# Convention : Reuss Voigt Hill
#
# Bulk Modulus (GPa) = 29.34793 65.37054 47.35923
# Shear Modulus (GPa) = 29.85721 51.26606 40.56163
#
# Velocity S-wave (km/s) = 3.17997 4.16691 3.70644
# Velocity P-wave (km/s) = 4.83970 6.72985 5.86147
#
# Compressibility (1/GPa) = 0.03407396
#
# Stress axis : x y z
#
# Youngs Moduli (GPa) = 39.87037 137.05375 169.05917
#
# Poissons Ratio (x) = 0.23506 0.14797
# Poissons Ratio (y) = 0.06838 -0.08130
# Poissons Ratio (z) = 0.03490 -0.06591
#
# Static dielectric constant tensor:
#      x y z
#    x 2.509070 -0.130360 -0.030650 
#    y -0.130360 2.258510 -0.090180 
#    z -0.030650 -0.090180 2.553230 
# 
# From -- ./inp_files/443602.got.cif
#   From: 2010.05.17/outbox.cif.g08.bks.cpg/sg2_222_cif.got.tgz:443602.got - 2010.06.03 11:33:40.
