data_PCOD9086742
_publ_section_title
;
Structure prediction by ZEFSAII (Michael W. Deem and Ramdas Pophale) SiO2 
 PCOD9086742
Probable space group: P -1
;
_chemical_formula_sum "Si O2"
_cell_formula_units_Z 12
_cell_length_a 21.736614
_cell_length_b 8.132282
_cell_length_c 11.536516
_cell_angle_alpha 54.270375
_cell_angle_beta 19.769790
_cell_angle_gamma 52.700269
_cell_volume 547.987101
_symmetry_space_group_name_H-M "P -1"
_symmetry_group_IT_number 2
_symmetry_cell_setting 'triclinic'
loop_
_space_group_symop_operation_xyz
x,y,z
-x,-y,-z
loop_
_atom_site_type_symbol
_atom_site_label
_atom_site_fract_x
_atom_site_fract_y
_atom_site_fract_z
Si Si1 0.971685 0.247789 0.430958
Si Si2 0.203065 0.412819 0.122429
Si Si3 0.641210 0.825772 0.460736
Si Si4 0.407993 0.987916 0.043316
Si Si5 0.717405 0.412882 0.605086
Si Si6 0.664848 0.240193 0.155206
O O1 0.880877 0.350673 0.433608
O O2 0.152233 0.325725 0.123623
O O3 0.798445 0.315513 0.795954
O O4 0.000000 0.000000 0.500000
O O5 0.000000 0.500000 0.500000
O O6 0.326342 0.588453 0.832783
O O7 0.295260 0.213403 0.115588
O O8 0.531299 0.917506 0.736433
O O9 0.755069 0.601588 0.384712
O O10 0.509176 0.781957 0.607051
O O11 0.737336 0.010107 0.171808
O O12 0.292303 0.808216 0.340199
O O13 0.500000 0.000000 0.000000
O O14 0.500000 0.500000 0.000000
#
# Coordination Sequence:
#
# PCOD9086742 Si02
#       6
#     2   2   2   2   2   2
#     4  11  19  38  62  84 117 154 195 230 286 351
#     4  10  22  34  58  87 114 153 191 234 283 347
#     4  10  21  37  61  85 119 148 191 244 290 330
#     4  11  21  35  60  88 111 149 201 239 277 337
#     4  10  19  36  60  86 109 152 198 234 280 340
#     4  10  20  38  59  87 117 150 188 241 293 333
#
# _framework density 21.898326000000001
#
# number of rings (size 3 to 8) (size 9 to 14) (size 15 to 20)
#    0.000    1.667    5.000    1.000    7.000    0.667 
#    0.000    3.333    0.000    0.000    0.000    0.000 
#    0.000    0.000    0.000    0.000    0.000    0.000 
#
# Total GULP energy -66800.892865 kJ/mol
# GULP energy per Si atom -5566.741072 kJ/mol
# Density = 2.184848 g / cm^3
# Si number density = 21.898326 Si / 1000 Ang^3
#
#
#
# Elastic Constant Matrix: (Units=GPa)
#
#
# Indices 1 2 3 4 5 6 
#
# 1 140.1095 63.7907 54.7637 -33.7852 -55.0894 -19.3342
# 2 63.7907 159.0082 36.7069 -57.1905 -44.9843 -32.7781
# 3 54.7637 36.7069 57.0809 -11.2290 -3.8478 6.1437
# 4 -33.7852 -57.1905 -11.2290 35.2337 6.5778 -8.1316
# 5 -55.0894 -44.9843 -3.8478 6.5778 39.6954 -1.5428
# 6 -19.3342 -32.7781 6.1437 -8.1316 -1.5428 48.2250
#
#
#
# Elastic Compliance Matrix: (Units=1/GPa)
#
#
# Indices 1 2 3 4 5 6 
#
# 1 0.002974 -0.012995 0.002545 -0.018612 -0.007711 -0.011350
# 2 -0.012995 0.001037 0.010324 -0.006373 -0.015090 -0.007378
# 3 0.002545 0.010324 0.012744 0.023312 0.013022 0.010761
# 4 -0.018612 -0.006373 0.023312 0.010557 -0.033087 -0.014042
# 5 -0.007711 -0.015090 0.013022 -0.033087 0.003340 -0.020479
# 6 -0.011350 -0.007378 0.010761 -0.014042 -0.020479 0.006777
#
#
# Mechanical properties :
#
#
# Convention : Reuss Voigt Hill
#
# Bulk Modulus (GPa) = 60.60098 74.08011 67.34055
# Shear Modulus (GPa) = 115.78794 38.02665 76.90729
#
# Velocity S-wave (km/s) = 7.27943 4.17167 5.93266
# Velocity P-wave (km/s) = 9.91903 7.55687 8.81741
#
# Compressibility (1/GPa) = 0.01650138
#
# Stress axis : x y z
#
# Youngs Moduli (GPa) = 336.30233 964.15848 78.46852
#
# Poissons Ratio (x) = 12.52970 -0.19968
# Poissons Ratio (y) = 4.37041 -0.81012
# Poissons Ratio (z) = -0.85579 -9.95410
#
# Static dielectric constant tensor:
#      x y z
#    x 2.000810 0.170030 0.037050 
#    y 0.170030 1.863900 0.048490 
#    z 0.037050 0.048490 1.905280 
# 
# From -- ./inp_files/148046.got.cif
#   From: 2010.05.17/outbox.cif.g08.bks.cpg/sg2_75_cif.got.tgz:148046.got - 2010.06.03 11:33:40.
