data_PCOD9086430
_publ_section_title
;
Structure prediction by ZEFSAII (Michael W. Deem and Ramdas Pophale) SiO2 
 PCOD9086430
Probable space group: P -1
;
_chemical_formula_sum "Si O2"
_cell_formula_units_Z 14
_cell_length_a 9.082168
_cell_length_b 13.588724
_cell_length_c 14.916169
_cell_angle_alpha 151.758508
_cell_angle_beta 79.156768
_cell_angle_gamma 119.703100
_cell_volume 602.816230
_symmetry_space_group_name_H-M "P -1"
_symmetry_group_IT_number 2
_symmetry_cell_setting 'triclinic'
loop_
_space_group_symop_operation_xyz
x,y,z
-x,-y,-z
loop_
_atom_site_type_symbol
_atom_site_label
_atom_site_fract_x
_atom_site_fract_y
_atom_site_fract_z
Si Si1 0.358004 0.802419 0.246135
Si Si2 0.443898 0.599628 0.213566
Si Si3 0.214191 0.213342 0.552820
Si Si4 0.414557 0.242649 0.372643
Si Si5 0.995653 0.856105 0.018390
Si Si6 0.869685 0.560656 0.606737
Si Si7 0.050356 0.401907 0.813198
O O1 0.465885 0.702342 0.192089
O O2 0.145652 0.633878 0.196280
O O3 0.503848 0.141784 0.524813
O O4 0.257213 0.696963 0.074900
O O5 0.617637 0.615952 0.246903
O O6 0.205879 0.299601 0.020467
O O7 0.339799 0.279970 0.502880
O O8 0.100954 0.324405 0.656191
O O9 0.045342 0.869521 0.324686
O O10 0.500000 0.500000 0.500000
O O11 0.615287 0.291433 0.405860
O O12 0.196182 0.946361 0.116381
O O13 0.065480 0.153744 0.215339
O O14 0.925003 0.649525 0.775932
O O15 0.000000 0.500000 0.500000
#
# Coordination Sequence:
#
# PCOD9086430 Si02
#       7
#     2   2   2   2   2   2   2
#     4   9  19  36  56  87 126 160 209 260 312 375
#     4  10  19  36  58  84 122 168 200 254 318 371
#     4  10  19  36  60  86 124 165 211 254 320 374
#     4  10  21  40  64  89 128 168 204 264 319 373
#     4  10  21  41  64  88 128 166 200 271 319 367
#     4  10  22  43  66  93 121 160 221 264 314 382
#     4   9  19  36  59  88 121 164 208 261 310 380
#
# _framework density 23.224322999999998
#
# number of rings (size 3 to 8) (size 9 to 14) (size 15 to 20)
#    0.000    2.286    1.429    0.857    0.000    1.143 
#    7.714    1.429    0.000    0.000    0.000    0.000 
#    0.000    0.000    0.000    0.000    0.000    0.000 
#
# Total GULP energy -78188.988550 kJ/mol
# GULP energy per Si atom -5584.927754 kJ/mol
# Density = 2.317146 g / cm^3
# Si number density = 23.224323 Si / 1000 Ang^3
#
#
#
# Elastic Constant Matrix: (Units=GPa)
#
#
# Indices 1 2 3 4 5 6 
#
# 1 111.6667 18.6656 38.7708 -17.2314 11.6485 20.6179
# 2 18.6656 74.9084 7.3274 2.4638 6.5777 14.0668
# 3 38.7708 7.3274 78.3138 5.6916 30.5711 6.2890
# 4 -17.2314 2.4638 5.6916 33.4743 7.7089 5.5106
# 5 11.6485 6.5777 30.5711 7.7089 45.6571 -5.6139
# 6 20.6179 14.0668 6.2890 5.5106 -5.6139 31.2510
#
#
#
# Elastic Compliance Matrix: (Units=1/GPa)
#
#
# Indices 1 2 3 4 5 6 
#
# 1 0.015496 -0.001332 -0.006449 0.011589 -0.002736 -0.010861
# 2 -0.001332 0.015143 0.001123 -0.000093 -0.003409 -0.006760
# 3 -0.006449 0.001123 0.021068 -0.003839 -0.012222 -0.002009
# 4 0.011589 -0.000093 -0.003839 0.041230 -0.009273 -0.015768
# 5 -0.002736 -0.003409 -0.012222 -0.009273 0.034517 0.013635
# 6 -0.010861 -0.006760 -0.002009 -0.015768 0.013635 0.047841
#
#
# Mechanical properties :
#
#
# Convention : Reuss Voigt Hill
#
# Bulk Modulus (GPa) = 26.04725 43.82404 34.93565
# Shear Modulus (GPa) = 24.82489 35.41815 30.12152
#
# Velocity S-wave (km/s) = 3.27298 3.90942 3.60527
# Velocity P-wave (km/s) = 5.05203 6.26809 5.69263
#
# Compressibility (1/GPa) = 0.03839176
#
# Stress axis : x y z
#
# Youngs Moduli (GPa) = 64.53202 66.03502 47.46454
#
# Poissons Ratio (x) = 0.08795 0.30611
# Poissons Ratio (y) = 0.08594 -0.05330
# Poissons Ratio (z) = 0.41618 -0.07415
#
# Static dielectric constant tensor:
#      x y z
#    x 1.906290 -0.050210 0.007600 
#    y -0.050210 1.887820 0.005420 
#    z 0.007600 0.005420 1.882440 
# 
# From -- ./inp_files/504646.got.cif
#   From: 2010.05.17/outbox.cif.g08.bks.cpg/sg2_253_cif.got.tgz:504646.got - 2010.06.03 11:33:40.
