data_PCOD9086697
_publ_section_title
;
Structure prediction by ZEFSAII (Michael W. Deem and Ramdas Pophale) SiO2 
 PCOD9086697
Probable space group: P -1
;
_chemical_formula_sum "Si O2"
_cell_formula_units_Z 14
_cell_length_a 7.785860
_cell_length_b 14.129504
_cell_length_c 11.383902
_cell_angle_alpha 134.754195
_cell_angle_beta 93.926455
_cell_angle_gamma 54.845223
_cell_volume 592.175406
_symmetry_space_group_name_H-M "P -1"
_symmetry_group_IT_number 2
_symmetry_cell_setting 'triclinic'
loop_
_space_group_symop_operation_xyz
x,y,z
-x,-y,-z
loop_
_atom_site_type_symbol
_atom_site_label
_atom_site_fract_x
_atom_site_fract_y
_atom_site_fract_z
Si Si1 0.233460 0.022759 0.497457
Si Si2 0.993270 0.385084 0.690258
Si Si3 0.792933 0.124705 0.424360
Si Si4 0.540981 0.617818 0.044166
Si Si5 0.782947 0.497566 0.327843
Si Si6 0.847355 0.161595 0.999408
Si Si7 0.401899 0.419334 0.365599
O O1 0.201844 0.021221 0.634465
O O2 0.242408 0.156219 0.544021
O O3 0.455184 0.791754 0.270342
O O4 0.972661 0.113037 0.503599
O O5 0.068170 0.485440 0.731926
O O6 0.818930 0.483194 0.884202
O O7 0.812655 0.433172 0.617070
O O8 0.506391 0.345176 0.598735
O O9 0.907703 0.048929 0.232659
O O10 0.342127 0.728752 0.024661
O O11 0.500000 0.500000 0.000000
O O12 0.905459 0.280011 0.142325
O O13 0.733930 0.576069 0.527651
O O14 0.658294 0.209981 0.132650
O O15 0.500000 0.500000 0.500000
#
# Coordination Sequence:
#
# PCOD9086697 Si02
#       7
#     2   2   2   2   2   2   2
#     4  10  20  36  59  84 110 146 191 232 273 329
#     4  11  22  36  57  85 117 147 178 232 291 333
#     4  10  20  36  59  82 109 145 190 233 274 329
#     4  10  19  36  60  82 108 147 194 232 268 328
#     4  11  22  36  55  83 119 148 181 232 287 335
#     4   9  19  35  57  81 107 147 192 230 270 326
#     4   9  19  38  61  80 106 150 196 231 269 325
#
# _framework density 23.641643999999999
#
# number of rings (size 3 to 8) (size 9 to 14) (size 15 to 20)
#    0.000    2.000    0.000    6.429    0.000    2.286 
#    0.000    9.286    0.000   12.857    0.000    0.000 
#    0.000    0.000    0.000    0.000    0.000    0.000 
#
# Total GULP energy -78181.764677 kJ/mol
# GULP energy per Si atom -5584.411763 kJ/mol
# Density = 2.358783 g / cm^3
# Si number density = 23.641644 Si / 1000 Ang^3
#
#
#
# Elastic Constant Matrix: (Units=GPa)
#
#
# Indices 1 2 3 4 5 6 
#
# 1 77.4845 -1.8042 26.3671 0.9841 -9.1269 19.5120
# 2 -1.8042 97.4249 15.7695 -16.6407 0.7554 11.2557
# 3 26.3671 15.7695 120.1234 -10.8286 -16.5251 8.9219
# 4 0.9841 -16.6407 -10.8286 32.8893 6.5451 -2.1474
# 5 -9.1269 0.7554 -16.5251 6.5451 21.9632 -10.0598
# 6 19.5120 11.2557 8.9219 -2.1474 -10.0598 36.6084
#
#
#
# Elastic Compliance Matrix: (Units=1/GPa)
#
#
# Indices 1 2 3 4 5 6 
#
# 1 0.016196 0.001481 -0.003138 -0.001507 0.001047 -0.008124
# 2 0.001481 0.012305 -0.001721 0.006347 -0.005406 -0.005266
# 3 -0.003138 -0.001721 0.010167 0.001332 0.006769 0.001662
# 4 -0.001507 0.006347 0.001332 0.036288 -0.011847 -0.002599
# 5 0.001047 -0.005406 0.006769 -0.011847 0.062012 0.015800
# 6 -0.008124 -0.005266 0.001662 -0.002599 0.015800 0.037050
#
#
# Mechanical properties :
#
#
# Convention : Reuss Voigt Hill
#
# Bulk Modulus (GPa) = 31.33569 41.74416 36.53993
# Shear Modulus (GPa) = 26.12176 35.27220 30.69698
#
# Velocity S-wave (km/s) = 3.32762 3.86677 3.60728
# Velocity P-wave (km/s) = 5.29597 6.13443 5.73056
#
# Compressibility (1/GPa) = 0.03191249
#
# Stress axis : x y z
#
# Youngs Moduli (GPa) = 61.74257 81.26983 98.35397
#
# Poissons Ratio (x) = -0.12035 0.30863
# Poissons Ratio (y) = -0.09143 0.16925
# Poissons Ratio (z) = 0.19375 0.13985
#
# Static dielectric constant tensor:
#      x y z
#    x 1.985390 0.045000 -0.012340 
#    y 0.045000 1.949130 -0.007470 
#    z -0.012340 -0.007470 1.968680 
# 
# From -- ./inp_files/255476.got.cif
#   From: 2010.05.17/outbox.cif.g08.bks.cpg/sg2_128_cif.got.tgz:255476.got - 2010.06.03 11:33:40.
