data_PCOD9086906
_publ_section_title
;
Structure prediction by ZEFSAII (Michael W. Deem and Ramdas Pophale) SiO2 
 PCOD9086906
Probable space group: P -1
;
_chemical_formula_sum "Si O2"
_cell_formula_units_Z 16
_cell_length_a 15.436064
_cell_length_b 14.640970
_cell_length_c 11.624915
_cell_angle_alpha 143.920899
_cell_angle_beta 154.250411
_cell_angle_gamma 40.243761
_cell_volume 665.704388
_symmetry_space_group_name_H-M "P -1"
_symmetry_group_IT_number 2
_symmetry_cell_setting 'triclinic'
loop_
_space_group_symop_operation_xyz
x,y,z
-x,-y,-z
loop_
_atom_site_type_symbol
_atom_site_label
_atom_site_fract_x
_atom_site_fract_y
_atom_site_fract_z
Si Si1 0.164523 0.767940 0.999835
Si Si2 0.171916 0.030397 0.083411
Si Si3 0.853963 0.202311 0.371929
Si Si4 0.138852 0.358051 0.168436
Si Si5 0.294599 0.556551 0.747249
Si Si6 0.525619 0.890151 0.639561
Si Si7 0.516168 0.130859 0.053546
Si Si8 0.792060 0.589264 0.945211
O O1 0.368504 0.766562 0.316143
O O2 0.182550 0.914745 0.086118
O O3 0.153163 0.628391 0.755474
O O4 0.972275 0.814624 0.895258
O O5 0.386428 0.063147 0.328451
O O6 0.074721 0.945993 0.774764
O O7 0.703626 0.308877 0.211500
O O8 0.036369 0.296852 0.713983
O O9 0.736718 0.157331 0.298390
O O10 0.221366 0.420711 0.448014
O O11 0.263057 0.186320 0.126782
O O12 0.899775 0.421250 0.950300
O O13 0.221319 0.436983 0.233582
O O14 0.500000 0.500000 0.000000
O O15 0.433295 0.044690 0.755404
O O16 0.401245 0.302348 0.124552
O O17 0.500000 0.000000 0.000000
#
# Coordination Sequence:
#
# PCOD9086906 Si02
#       8
#     2   2   2   2   2   2   2   2
#     4  10  19  36  61  81 118 158 194 246 297 352
#     4   9  20  36  57  92 115 149 199 243 301 356
#     4   9  21  39  63  91 120 158 195 246 306 353
#     4  10  21  39  60  86 122 159 196 250 300 343
#     4  10  19  38  62  85 121 161 200 243 294 357
#     4  11  20  37  59  90 118 151 199 248 298 353
#     4  11  22  39  64  92 119 158 205 247 300 363
#     4  10  21  42  61  84 125 159 196 250 299 359
#
# _framework density 24.034693999999998
#
# number of rings (size 3 to 8) (size 9 to 14) (size 15 to 20)
#    0.000    2.000    2.500    1.125    0.000    1.500 
#    4.500    6.250    0.000    0.000    0.000    0.000 
#    0.000    0.000    0.000    0.000    0.000    0.000 
#
# Total GULP energy -89193.310448 kJ/mol
# GULP energy per Si atom -5574.581903 kJ/mol
# Density = 2.397999 g / cm^3
# Si number density = 24.034694 Si / 1000 Ang^3
#
#
#
# Elastic Constant Matrix: (Units=GPa)
#
#
# Indices 1 2 3 4 5 6 
#
# 1 119.9327 39.2062 32.3638 -5.0728 -2.0304 -28.7221
# 2 39.2062 82.5360 -4.7758 -8.6739 -14.7383 -23.0285
# 3 32.3638 -4.7758 58.9859 -1.0613 -14.7060 -4.5314
# 4 -5.0728 -8.6739 -1.0613 23.7265 -3.5266 -6.3487
# 5 -2.0304 -14.7383 -14.7060 -3.5266 26.2450 10.7621
# 6 -28.7221 -23.0285 -4.5314 -6.3487 10.7621 57.3073
#
#
#
# Elastic Compliance Matrix: (Units=1/GPa)
#
#
# Indices 1 2 3 4 5 6 
#
# 1 0.015649 -0.009006 -0.012164 -0.000934 -0.013092 0.005617
# 2 -0.009006 0.022338 0.011809 0.010350 0.018605 0.003049
# 3 -0.012164 0.011809 0.030671 0.006002 0.024886 -0.002935
# 4 -0.000934 0.010350 0.006002 0.049853 0.012816 0.007282
# 5 -0.013092 0.018605 0.024886 0.012816 0.066566 -0.008199
# 6 0.005617 0.003049 -0.002935 0.007282 -0.008199 0.023605
#
#
# Mechanical properties :
#
#
# Convention : Reuss Voigt Hill
#
# Bulk Modulus (GPa) = 20.02636 43.89366 31.96001
# Shear Modulus (GPa) = 20.48765 34.43311 27.46038
#
# Velocity S-wave (km/s) = 2.92279 3.78913 3.38380
# Velocity P-wave (km/s) = 4.44304 6.11928 5.34725
#
# Compressibility (1/GPa) = 0.04993418
#
# Stress axis : x y z
#
# Youngs Moduli (GPa) = 63.90262 44.76690 32.60449
#
# Poissons Ratio (x) = 0.40317 0.39662
# Poissons Ratio (y) = 0.57550 -0.38502
# Poissons Ratio (z) = 0.77734 -0.52865
#
# Static dielectric constant tensor:
#      x y z
#    x 1.913420 0.028680 -0.004370 
#    y 0.028680 2.051040 -0.018520 
#    z -0.004370 -0.018520 1.966520 
# 
# From -- ./inp_files/455138.got.cif
#   From: 2010.05.17/outbox.cif.g08.bks.cpg/sg2_228_cif.got.tgz:455138.got - 2010.06.03 11:33:40.
