data_PCOD9086810
_publ_section_title
;
Structure prediction by ZEFSAII (Michael W. Deem and Ramdas Pophale) SiO2 
 PCOD9086810
Probable space group: P -1
;
_chemical_formula_sum "Si O2"
_cell_formula_units_Z 16
_cell_length_a 8.687595
_cell_length_b 13.219145
_cell_length_c 16.222777
_cell_angle_alpha 30.068653
_cell_angle_beta 53.603208
_cell_angle_gamma 48.687568
_cell_volume 699.940820
_symmetry_space_group_name_H-M "P -1"
_symmetry_group_IT_number 2
_symmetry_cell_setting 'triclinic'
loop_
_space_group_symop_operation_xyz
x,y,z
-x,-y,-z
loop_
_atom_site_type_symbol
_atom_site_label
_atom_site_fract_x
_atom_site_fract_y
_atom_site_fract_z
Si Si1 0.892558 0.648803 0.726062
Si Si2 0.167368 0.262778 0.137395
Si Si3 0.290999 0.701145 0.946740
Si Si4 0.635768 0.059777 0.087853
Si Si5 0.336638 0.637325 0.643204
Si Si6 0.364441 0.847013 0.144205
Si Si7 0.819462 0.079647 0.350506
Si Si8 0.566070 0.249991 0.635993
O O1 0.771702 0.742777 0.782631
O O2 0.123736 0.609145 0.708331
O O3 0.832902 0.837416 0.542448
O O4 0.858776 0.422984 0.887046
O O5 0.383104 0.197237 0.066676
O O6 0.033559 0.113247 0.274346
O O7 0.000000 0.500000 0.000000
O O8 0.302807 0.854347 0.909362
O O9 0.237656 0.839217 0.781621
O O10 0.500000 0.500000 0.000000
O O11 0.630700 0.820587 0.252907
O O12 0.757906 0.080742 0.952684
O O13 0.507715 0.402422 0.742902
O O14 0.325898 0.752451 0.653470
O O15 0.364511 0.782428 0.457412
O O16 0.290100 0.850503 0.258886
O O17 0.500000 0.000000 0.000000
O O18 0.500000 0.500000 0.500000
#
# Coordination Sequence:
#
# PCOD9086810 Si02
#       8
#     2   2   2   2   2   2   2   2
#     4  11  22  37  56  88 127 163 202 234 291 378
#     4  11  18  35  58  86 123 155 202 244 283 361
#     4  12  24  39  54  88 138 166 193 232 297 384
#     4  11  20  36  59  88 118 157 192 244 307 351
#     4  10  19  36  60  89 116 155 204 252 296 343
#     4   9  19  34  60  88 107 148 203 262 301 335
#     4  11  23  37  59  90 127 163 196 239 296 371
#     4   9  19  37  58  85 109 142 206 266 286 333
#
# _framework density 22.859075000000001
#
# number of rings (size 3 to 8) (size 9 to 14) (size 15 to 20)
#    0.000    1.500    2.500    5.250    0.000    0.500 
#    4.500    0.000    0.000    7.500    0.000    0.000 
#    0.000    0.000    0.000    0.000    0.000    0.000 
#
# Total GULP energy -89136.422800 kJ/mol
# GULP energy per Si atom -5571.026425 kJ/mol
# Density = 2.280705 g / cm^3
# Si number density = 22.859075 Si / 1000 Ang^3
#
#
#
# Elastic Constant Matrix: (Units=GPa)
#
#
# Indices 1 2 3 4 5 6 
#
# 1 49.1807 26.8868 38.9514 7.0391 9.0322 36.1698
# 2 26.8868 108.6246 53.1306 2.7675 4.7807 47.0201
# 3 38.9514 53.1306 164.3911 16.1157 16.4900 35.2477
# 4 7.0391 2.7675 16.1157 44.6491 1.1836 7.6540
# 5 9.0322 4.7807 16.4900 1.1836 25.8173 4.1060
# 6 36.1698 47.0201 35.2477 7.6540 4.1060 51.2129
#
#
#
# Elastic Compliance Matrix: (Units=1/GPa)
#
#
# Indices 1 2 3 4 5 6 
#
# 1 0.049490 0.006530 -0.005020 0.000157 -0.009478 -0.036756
# 2 0.006530 0.017116 -0.003316 0.002265 -0.000523 -0.018341
# 3 -0.005020 -0.003316 0.008620 -0.002243 -0.003232 0.001252
# 4 0.000157 0.002265 -0.002243 0.023754 0.000544 -0.004240
# 5 -0.009478 -0.000523 -0.003232 0.000544 0.043255 0.005849
# 6 -0.036756 -0.018341 0.001252 -0.004240 0.005849 0.061628
#
#
# Mechanical properties :
#
#
# Convention : Reuss Voigt Hill
#
# Bulk Modulus (GPa) = 13.96401 62.23710 38.10056
# Shear Modulus (GPa) = 21.61239 37.88435 29.74837
#
# Velocity S-wave (km/s) = 3.07817 4.07541 3.61138
# Velocity P-wave (km/s) = 4.33077 7.03071 5.83894
#
# Compressibility (1/GPa) = 0.07161265
#
# Stress axis : x y z
#
# Youngs Moduli (GPa) = 20.20601 58.42421 116.00947
#
# Poissons Ratio (x) = -0.38148 0.58240
# Poissons Ratio (y) = -0.13194 0.38470
# Poissons Ratio (z) = 0.10144 0.19374
#
# Static dielectric constant tensor:
#      x y z
#    x 1.892360 -0.038170 0.020980 
#    y -0.038170 1.899710 0.011260 
#    z 0.020980 0.011260 1.977780 
# 
# From -- ./inp_files/499651.got.cif
#   From: 2010.05.17/outbox.cif.g08.bks.cpg/sg2_250_cif.got.tgz:499651.got - 2010.06.03 11:33:40.
