data_PCOD9086834
_publ_section_title
;
Structure prediction by ZEFSAII (Michael W. Deem and Ramdas Pophale) SiO2 
 PCOD9086834
Probable space group: P -1
;
_chemical_formula_sum "Si O2"
_cell_formula_units_Z 16
_cell_length_a 15.059112
_cell_length_b 8.277087
_cell_length_c 9.419113
_cell_angle_alpha 115.806571
_cell_angle_beta 66.089527
_cell_angle_gamma 136.712034
_cell_volume 717.248265
_symmetry_space_group_name_H-M "P -1"
_symmetry_group_IT_number 2
_symmetry_cell_setting 'triclinic'
loop_
_space_group_symop_operation_xyz
x,y,z
-x,-y,-z
loop_
_atom_site_type_symbol
_atom_site_label
_atom_site_fract_x
_atom_site_fract_y
_atom_site_fract_z
Si Si1 0.229980 0.132180 0.645015
Si Si2 0.695792 0.463205 0.643518
Si Si3 0.522402 0.734038 0.521381
Si Si4 0.886802 0.559155 0.316552
Si Si5 0.006814 0.632567 0.690032
Si Si6 0.285157 0.759514 0.191596
Si Si7 0.812156 0.953457 0.683010
Si Si8 0.661181 0.372511 0.171387
O O1 0.327068 0.080973 0.553520
O O2 0.300774 0.372377 0.780571
O O3 0.089100 0.907735 0.705874
O O4 0.208325 0.157796 0.503981
O O5 0.569904 0.332259 0.574595
O O6 0.814255 0.530937 0.497158
O O7 0.662584 0.282273 0.719298
O O8 0.745874 0.728580 0.746033
O O9 0.500000 0.500000 0.500000
O O10 0.469012 0.782691 0.707042
O O11 0.914567 0.384207 0.252238
O O12 0.785152 0.462322 0.218955
O O13 0.032613 0.824928 0.308825
O O14 0.000000 0.500000 0.500000
O O15 0.865889 0.492034 0.790147
O O16 0.260788 0.943740 0.248127
O O17 0.349796 0.754819 0.010020
#
# Coordination Sequence:
#
# PCOD9086834 Si02
#       8
#     2   2   2   2   2   2   2   2
#     4  11  19  39  65  88 117 165 205 251 297 359
#     4  11  19  37  66  85 115 170 209 241 299 375
#     4   9  19  39  67  86 116 162 215 246 290 368
#     4  10  19  36  60  90 116 164 206 240 308 361
#     4  11  20  35  62  91 128 150 200 263 286 369
#     4  11  24  40  58  98 128 151 202 262 310 352
#     4  11  20  35  66  85 122 161 204 250 295 369
#     4  10  23  39  59  88 129 154 198 262 304 358
#
# _framework density 22.307480000000002
#
# number of rings (size 3 to 8) (size 9 to 14) (size 15 to 20)
#    0.000    1.500    7.500    0.375    1.750    2.500 
#    2.250    8.750    0.000    0.000    0.000    0.000 
#    0.000    0.000    0.000    0.000    0.000    0.000 
#
# Total GULP energy -89287.528367 kJ/mol
# GULP energy per Si atom -5580.470523 kJ/mol
# Density = 2.225671 g / cm^3
# Si number density = 22.307480 Si / 1000 Ang^3
#
#
#
# Elastic Constant Matrix: (Units=GPa)
#
#
# Indices 1 2 3 4 5 6 
#
# 1 129.3330 13.6123 35.8793 -11.6030 7.5141 -8.1197
# 2 13.6123 100.6331 22.4545 -5.3885 -3.6878 -21.2340
# 3 35.8793 22.4545 88.7739 -2.2285 -4.7723 -15.4710
# 4 -11.6030 -5.3885 -2.2285 16.9197 -0.5262 -5.1014
# 5 7.5141 -3.6878 -4.7723 -0.5262 19.5182 -0.7762
# 6 -8.1197 -21.2340 -15.4710 -5.1014 -0.7762 32.3633
#
#
#
# Elastic Compliance Matrix: (Units=1/GPa)
#
#
# Indices 1 2 3 4 5 6 
#
# 1 0.009702 0.000046 -0.003726 0.006525 -0.004398 0.001607
# 2 0.000046 0.012504 -0.001375 0.006518 0.002528 0.008646
# 3 -0.003726 -0.001375 0.014306 0.000616 0.004896 0.005217
# 4 0.006525 0.006518 0.000616 0.071039 0.001479 0.017442
# 5 -0.004398 0.002528 0.004896 0.001479 0.054819 0.004444
# 6 0.001607 0.008646 0.005217 0.017442 0.004444 0.042325
#
#
# Mechanical properties :
#
#
# Convention : Reuss Voigt Hill
#
# Bulk Modulus (GPa) = 37.87445 51.40359 44.63902
# Shear Modulus (GPa) = 22.36086 30.21317 26.28701
#
# Velocity S-wave (km/s) = 3.16949 3.68420 3.43650
# Velocity P-wave (km/s) = 5.51448 6.41803 5.98333
#
# Compressibility (1/GPa) = 0.02640302
#
# Stress axis : x y z
#
# Youngs Moduli (GPa) = 103.06658 79.97640 69.90086
#
# Poissons Ratio (x) = -0.00369 0.26043
# Poissons Ratio (y) = -0.00476 0.09611
# Poissons Ratio (z) = 0.38399 0.10997
#
# Static dielectric constant tensor:
#      x y z
#    x 1.880710 -0.020280 0.000750 
#    y -0.020280 1.930640 0.025580 
#    z 0.000750 0.025580 1.829310 
# 
# From -- ./inp_files/296051.got.cif
#   From: 2010.05.17/outbox.cif.g08.bks.cpg/sg2_149_cif.got.tgz:296051.got - 2010.06.03 11:33:40.
