data_PCOD9086943
_publ_section_title
;
Structure prediction by ZEFSAII (Michael W. Deem and Ramdas Pophale) SiO2 
 PCOD9086943
Probable space group: P -1
;
_chemical_formula_sum "Si O2"
_cell_formula_units_Z 16
_cell_length_a 13.729348
_cell_length_b 12.647994
_cell_length_c 11.168321
_cell_angle_alpha 87.397251
_cell_angle_beta 29.757837
_cell_angle_gamma 67.083523
_cell_volume 681.167989
_symmetry_space_group_name_H-M "P -1"
_symmetry_group_IT_number 2
_symmetry_cell_setting 'triclinic'
loop_
_space_group_symop_operation_xyz
x,y,z
-x,-y,-z
loop_
_atom_site_type_symbol
_atom_site_label
_atom_site_fract_x
_atom_site_fract_y
_atom_site_fract_z
Si Si1 0.252653 0.484716 0.203637
Si Si2 0.887558 0.725546 0.150526
Si Si3 0.809216 0.759308 0.506619
Si Si4 0.951202 0.126618 0.120676
Si Si5 0.412166 0.381206 0.543965
Si Si6 0.533263 0.327223 0.145289
Si Si7 0.201121 0.828308 0.447177
Si Si8 0.853625 0.924615 0.596560
O O1 0.388480 0.454756 0.190830
O O2 0.000000 0.500000 0.500000
O O3 0.091433 0.628039 0.285152
O O4 0.507312 0.342444 0.862600
O O5 0.846463 0.848618 0.112005
O O6 0.171326 0.551307 0.834962
O O7 0.868920 0.767344 0.306555
O O8 0.673623 0.710789 0.357324
O O9 0.624593 0.725035 0.698052
O O10 0.678311 0.901497 0.718698
O O11 0.674121 0.284486 0.354507
O O12 0.907262 0.116551 0.306494
O O13 0.000000 0.000000 0.000000
O O14 0.481728 0.382706 0.332441
O O15 0.852696 0.182983 0.784932
O O16 0.965435 0.863840 0.614289
O O17 0.264658 0.914855 0.308796
#
# Coordination Sequence:
#
# PCOD9086943 Si02
#       8
#     2   2   2   2   2   2   2   2
#     4   9  19  36  58  85 115 144 187 245 287 334
#     4  10  22  38  59  88 119 159 203 242 293 352
#     4  10  19  36  61  85 114 154 197 239 293 348
#     4  12  24  39  61  89 122 160 198 243 295 351
#     4  10  21  38  60  85 119 159 200 245 292 351
#     4   9  19  35  58  86 116 150 193 241 294 347
#     4  10  22  39  59  86 118 152 196 240 292 354
#     4  10  21  40  59  81 117 152 188 243 295 347
#
# _framework density 23.489065
#
# number of rings (size 3 to 8) (size 9 to 14) (size 15 to 20)
#    0.000    2.000    0.000    3.375    0.000    5.500 
#    0.000   15.000    0.000    0.000    0.000    0.000 
#    0.000    0.000    0.000    0.000    0.000    0.000 
#
# Total GULP energy -89436.230089 kJ/mol
# GULP energy per Si atom -5589.764381 kJ/mol
# Density = 2.343560 g / cm^3
# Si number density = 23.489065 Si / 1000 Ang^3
#
#
#
# Elastic Constant Matrix: (Units=GPa)
#
#
# Indices 1 2 3 4 5 6 
#
# 1 114.2137 13.6707 22.1377 -13.1479 30.2026 1.5938
# 2 13.6707 86.0133 10.0281 -14.5617 10.9120 11.8071
# 3 22.1377 10.0281 53.7496 -0.0661 15.7771 -4.9487
# 4 -13.1479 -14.5617 -0.0661 25.1747 -3.8847 8.0392
# 5 30.2026 10.9120 15.7771 -3.8847 50.2795 -4.7662
# 6 1.5938 11.8071 -4.9487 8.0392 -4.7662 37.8907
#
#
#
# Elastic Compliance Matrix: (Units=1/GPa)
#
#
# Indices 1 2 3 4 5 6 
#
# 1 0.011743 0.000938 -0.003580 0.006854 -0.005932 -0.003454
# 2 0.000938 0.015213 -0.003134 0.011396 -0.002755 -0.007954
# 3 -0.003580 -0.003134 0.022317 -0.005782 -0.004169 0.004744
# 4 0.006854 0.011396 -0.005782 0.054820 -0.002104 -0.016490
# 5 -0.005932 -0.002755 -0.004169 -0.002104 0.025597 0.004230
# 6 -0.003454 -0.007954 0.004744 -0.016490 0.004230 0.033666
#
#
# Mechanical properties :
#
#
# Convention : Reuss Voigt Hill
#
# Bulk Modulus (GPa) = 26.51015 38.40549 32.45782
# Shear Modulus (GPa) = 26.66917 36.54499 31.60708
#
# Velocity S-wave (km/s) = 3.37321 3.94868 3.67223
# Velocity P-wave (km/s) = 5.14607 6.09716 5.64169
#
# Compressibility (1/GPa) = 0.03772140
#
# Stress axis : x y z
#
# Youngs Moduli (GPa) = 85.15718 65.73269 44.80791
#
# Poissons Ratio (x) = -0.06166 0.16041
# Poissons Ratio (y) = -0.07988 0.14044
# Poissons Ratio (z) = 0.30486 0.20602
#
# Static dielectric constant tensor:
#      x y z
#    x 1.907960 0.144380 -0.070550 
#    y 0.144380 2.085840 -0.120290 
#    z -0.070550 -0.120290 1.939240 
# 
# From -- ./inp_files/452256.got.cif
#   From: 2010.05.17/outbox.cif.g08.bks.cpg/sg2_227_cif.got.tgz:452256.got - 2010.06.03 11:33:40.
