data_PCOD9086498
_publ_section_title
;
Structure prediction by ZEFSAII (Michael W. Deem and Ramdas Pophale) SiO2 
 PCOD9086498
Probable space group: P -1
;
_chemical_formula_sum "Si O2"
_cell_formula_units_Z 16
_cell_length_a 14.037077
_cell_length_b 11.427012
_cell_length_c 8.907267
_cell_angle_alpha 93.203314
_cell_angle_beta 54.333108
_cell_angle_gamma 135.025784
_cell_volume 643.017757
_symmetry_space_group_name_H-M "P -1"
_symmetry_group_IT_number 2
_symmetry_cell_setting 'triclinic'
loop_
_space_group_symop_operation_xyz
x,y,z
-x,-y,-z
loop_
_atom_site_type_symbol
_atom_site_label
_atom_site_fract_x
_atom_site_fract_y
_atom_site_fract_z
Si Si1 0.336058 0.463147 0.099347
Si Si2 0.107747 0.476797 0.982285
Si Si3 0.024690 0.462473 0.660432
Si Si4 0.318622 0.935620 0.217832
Si Si5 0.451196 0.219633 0.342388
Si Si6 0.466331 0.754922 0.218764
Si Si7 0.034629 0.010559 0.652411
Si Si8 0.895798 0.129366 0.962221
O O1 0.330246 0.533763 0.263196
O O2 0.500000 0.500000 0.000000
O O3 0.423273 0.615027 0.898064
O O4 0.134432 0.233390 0.198054
O O5 0.091715 0.519707 0.166148
O O6 0.351043 0.652722 0.725967
O O7 0.000000 0.500000 0.000000
O O8 0.983899 0.253355 0.047235
O O9 0.902293 0.312585 0.616543
O O10 0.967251 0.302409 0.809922
O O11 0.276978 0.683726 0.432492
O O12 0.353775 0.019306 0.352245
O O13 0.500000 0.000000 0.000000
O O14 0.369829 0.079352 0.057064
O O15 0.255123 0.146090 0.527822
O O16 0.644422 0.896666 0.192183
O O17 0.983608 0.085596 0.798556
O O18 0.000000 0.000000 0.500000
#
# Coordination Sequence:
#
# PCOD9086498 Si02
#       8
#     2   2   2   2   2   2   2   2
#     4  11  20  37  61  94 130 151 191 260 319 368
#     4  10  23  45  62  83 125 170 214 256 294 361
#     4  10  20  38  62  87 118 161 204 252 314 363
#     4  10  19  36  58  90 124 148 195 261 310 363
#     4  11  23  39  62  93 127 162 201 254 312 365
#     4  10  20  35  60  89 118 156 198 250 316 363
#     4  12  21  38  67  95 124 158 199 255 321 373
#     4  10  22  38  61  88 118 163 210 248 298 366
#
# _framework density 24.882670999999998
#
# number of rings (size 3 to 8) (size 9 to 14) (size 15 to 20)
#    0.000    1.500    3.750    3.000    0.000    1.500 
#    2.250    3.125    0.000    0.000    0.000    0.000 
#    0.000    0.000    0.000    0.000    0.000    0.000 
#
# Total GULP energy -89138.088794 kJ/mol
# GULP energy per Si atom -5571.130550 kJ/mol
# Density = 2.482604 g / cm^3
# Si number density = 24.882671 Si / 1000 Ang^3
#
#
#
# Elastic Constant Matrix: (Units=GPa)
#
#
# Indices 1 2 3 4 5 6 
#
# 1 94.5616 26.7239 44.7167 -0.8682 -40.9535 1.2578
# 2 26.7239 214.4869 65.4027 -1.5741 -33.7085 -2.8122
# 3 44.7167 65.4027 130.2812 -8.3272 -48.2180 -2.3769
# 4 -0.8682 -1.5741 -8.3272 34.0665 -1.8700 -12.4588
# 5 -40.9535 -33.7085 -48.2180 -1.8700 62.3800 -5.2895
# 6 1.2578 -2.8122 -2.3769 -12.4588 -5.2895 27.8854
#
#
#
# Elastic Compliance Matrix: (Units=1/GPa)
#
#
# Indices 1 2 3 4 5 6 
#
# 1 0.015221 0.000091 -0.002014 0.000787 0.008605 0.001135
# 2 0.000091 0.005578 -0.002332 -0.000017 0.001321 0.000603
# 3 -0.002014 -0.002332 0.012897 0.005176 0.007946 0.004775
# 4 0.000787 -0.000017 0.005176 0.037873 0.007229 0.018696
# 5 0.008605 0.001321 0.007946 0.007229 0.029538 0.009255
# 6 0.001135 0.000603 0.004775 0.018696 0.009255 0.046387
#
#
# Mechanical properties :
#
#
# Convention : Reuss Voigt Hill
#
# Bulk Modulus (GPa) = 39.70835 79.22405 59.46620
# Shear Modulus (GPa) = 30.41401 45.03213 37.72307
#
# Velocity S-wave (km/s) = 3.49993 4.25876 3.89786
# Velocity P-wave (km/s) = 5.68556 7.48939 6.64893
#
# Compressibility (1/GPa) = 0.02518362
#
# Stress axis : x y z
#
# Youngs Moduli (GPa) = 65.70050 179.28925 77.53924
#
# Poissons Ratio (x) = -0.01626 0.15617
# Poissons Ratio (y) = -0.00596 0.18084
# Poissons Ratio (z) = 0.13233 0.41814
#
# Static dielectric constant tensor:
#      x y z
#    x 2.403210 0.067360 0.145420 
#    y 0.067360 2.358450 -0.134910 
#    z 0.145420 -0.134910 2.118950 
# 
# From -- ./inp_files/465098.got.cif
#   From: 2010.05.17/outbox.cif.g08.bks.cpg/sg2_233_cif.got.tgz:465098.got - 2010.06.03 11:33:40.
