data_PCOD9086587
_publ_section_title
;
Structure prediction by ZEFSAII (Michael W. Deem and Ramdas Pophale) SiO2 
 PCOD9086587
Probable space group: P -1
;
_chemical_formula_sum "Si O2"
_cell_formula_units_Z 16
_cell_length_a 8.139962
_cell_length_b 14.274084
_cell_length_c 19.131202
_cell_angle_alpha 23.973516
_cell_angle_beta 98.985365
_cell_angle_gamma 113.361957
_cell_volume 691.002674
_symmetry_space_group_name_H-M "P -1"
_symmetry_group_IT_number 2
_symmetry_cell_setting 'triclinic'
loop_
_space_group_symop_operation_xyz
x,y,z
-x,-y,-z
loop_
_atom_site_type_symbol
_atom_site_label
_atom_site_fract_x
_atom_site_fract_y
_atom_site_fract_z
Si Si1 0.792537 0.834218 0.905175
Si Si2 0.752589 0.275573 0.829852
Si Si3 0.970471 0.663888 0.323064
Si Si4 0.986524 0.952907 0.371484
Si Si5 0.233695 0.834653 0.705998
Si Si6 0.346410 0.273788 0.290688
Si Si7 0.809099 0.333106 0.954294
Si Si8 0.463677 0.929791 0.312316
O O1 0.930714 0.935656 0.776172
O O2 0.659147 0.951888 0.801655
O O3 0.596020 0.490356 0.139030
O O4 0.944296 0.023565 0.851784
O O5 0.821094 0.279519 0.910855
O O6 0.883387 0.269750 0.779472
O O7 0.812799 0.597351 0.604749
O O8 0.500000 0.000000 0.000000
O O9 0.718866 0.424608 0.449917
O O10 0.000000 0.500000 0.500000
O O11 0.188173 0.071341 0.354598
O O12 0.888012 0.096833 0.297203
O O13 0.043797 0.517939 0.877164
O O14 0.319987 0.068368 0.490357
O O15 0.417262 0.900021 0.723868
O O16 0.266314 0.460418 0.184011
O O17 0.637043 0.038666 0.188588
#
# Coordination Sequence:
#
# PCOD9086587 Si02
#       8
#     2   2   2   2   2   2   2   2
#     4  10  21  39  62  79 113 156 196 226 278 349
#     4  12  20  33  62  90 107 145 203 235 265 335
#     4  10  20  37  58  81 112 150 199 226 273 339
#     4  11  20  36  60  86 112 149 194 231 280 345
#     4  11  21  37  58  89 119 143 187 245 291 321
#     4  10  19  36  59  85 114 150 189 234 285 337
#     4  10  20  37  58  85 116 155 191 228 280 348
#     4  10  21  37  59  85 116 153 185 236 288 335
#
# _framework density 23.154758999999999
#
# number of rings (size 3 to 8) (size 9 to 14) (size 15 to 20)
#    0.000    1.500    5.000    3.750    0.000    0.000 
#    0.000    5.000    0.000    0.000    0.000    0.000 
#    0.000    0.000    0.000    0.000    0.000    0.000 
#
# Total GULP energy -89487.854433 kJ/mol
# GULP energy per Si atom -5592.990902 kJ/mol
# Density = 2.310206 g / cm^3
# Si number density = 23.154759 Si / 1000 Ang^3
#
#
#
# Elastic Constant Matrix: (Units=GPa)
#
#
# Indices 1 2 3 4 5 6 
#
# 1 12.0312 24.4910 6.1531 27.9600 -39.3816 26.9530
# 2 24.4910 163.2306 81.7811 8.5876 -37.2956 -10.0355
# 3 6.1531 81.7811 98.5998 13.9011 -68.2896 40.4544
# 4 27.9600 8.5876 13.9011 18.9608 13.4779 -28.0823
# 5 -39.3816 -37.2956 -68.2896 13.4779 28.0841 14.4318
# 6 26.9530 -10.0355 40.4544 -28.0823 14.4318 4.9080
#
#
#
# Elastic Compliance Matrix: (Units=1/GPa)
#
#
# Indices 1 2 3 4 5 6 
#
# 1 0.025635 0.003564 -0.015575 0.000693 -0.006000 0.016491
# 2 0.003564 0.010050 -0.005489 -0.004663 0.005492 0.003392
# 3 -0.015575 -0.005489 0.016133 0.012324 0.003720 0.000907
# 4 0.000693 -0.004663 0.012324 0.026686 0.014617 -0.005211
# 5 -0.006000 0.005492 0.003720 0.014617 0.026236 0.020009
# 6 0.016491 0.003392 0.000907 -0.005211 0.020009 0.023990
#
#
# Mechanical properties :
#
#
# Convention : Reuss Voigt Hill
#
# Bulk Modulus (GPa) = 59.45928 55.41245 57.43587
# Shear Modulus (GPa) = 29.52707 21.15303 25.34005
#
# Velocity S-wave (km/s) = 3.57488 3.02578 3.31173
# Velocity P-wave (km/s) = 6.54022 6.01585 6.28351
#
# Compressibility (1/GPa) = 0.01681823
#
# Stress axis : x y z
#
# Youngs Moduli (GPa) = 39.00987 99.49944 61.98452
#
# Poissons Ratio (x) = -0.35458 0.96539
# Poissons Ratio (y) = -0.13902 0.34022
# Poissons Ratio (z) = 0.60756 0.54613
#
# Static dielectric constant tensor:
#      x y z
#    x 1.948270 0.001220 0.003450 
#    y 0.001220 1.884590 -0.064810 
#    z 0.003450 -0.064810 1.907200 
# 
# From -- ./inp_files/561341.got.cif
#   From: 2010.05.17/outbox.cif.g08.bks.cpg/sg2_281_cif.got.tgz:561341.got - 2010.06.03 11:33:40.
