data_PCOD9086584
_publ_section_title
;
Structure prediction by ZEFSAII (Michael W. Deem and Ramdas Pophale) SiO2 
 PCOD9086584
Probable space group: P -1
;
_chemical_formula_sum "Si O2"
_cell_formula_units_Z 16
_cell_length_a 22.552691
_cell_length_b 10.445503
_cell_length_c 5.005351
_cell_angle_alpha 89.398472
_cell_angle_beta 85.672781
_cell_angle_gamma 33.601762
_cell_volume 647.757416
_symmetry_space_group_name_H-M "P -1"
_symmetry_group_IT_number 2
_symmetry_cell_setting 'triclinic'
loop_
_space_group_symop_operation_xyz
x,y,z
-x,-y,-z
loop_
_atom_site_type_symbol
_atom_site_label
_atom_site_fract_x
_atom_site_fract_y
_atom_site_fract_z
Si Si1 0.953514 0.209674 0.371374
Si Si2 0.603177 0.405128 0.431495
Si Si3 0.357222 0.161206 0.765585
Si Si4 0.811877 0.133769 0.729236
Si Si5 0.235182 0.613121 0.773011
Si Si6 0.771631 0.693457 0.699339
Si Si7 0.717407 0.044836 0.982994
Si Si8 0.487140 0.310562 0.046447
O O1 0.865876 0.304941 0.201341
O O2 0.882265 0.429942 0.577248
O O3 0.000000 0.000000 0.500000
O O4 0.059461 0.092862 0.244377
O O5 0.500000 0.500000 0.500000
O O6 0.596868 0.484235 0.716225
O O7 0.696794 0.146629 0.280361
O O8 0.570065 0.570348 0.219628
O O9 0.338060 0.339803 0.670583
O O10 0.304069 0.168051 0.547625
O O11 0.468324 0.900429 0.836772
O O12 0.290590 0.278947 0.062572
O O13 0.789990 0.230411 0.438656
O O14 0.772212 0.062609 0.805976
O O15 0.762817 0.325772 0.943613
O O16 0.783847 0.803214 0.858296
O O17 0.595045 0.207045 0.978807
#
# Coordination Sequence:
#
# PCOD9086584 Si02
#       8
#     2   2   2   2   2   2   2   2
#     4   9  19  38  60  83 110 149 201 234 271 328
#     4  10  20  35  57  83 114 151 187 227 278 344
#     4  10  19  36  59  85 109 142 198 244 276 322
#     4  11  23  35  58  83 115 156 184 234 286 337
#     4  10  21  38  59  82 110 152 199 235 274 329
#     4  10  21  34  57  84 116 148 181 242 285 329
#     4  10  22  37  54  86 122 145 184 227 294 349
#     4  10  20  35  61  85 109 148 188 236 282 335
#
# _framework density 24.700604999999999
#
# number of rings (size 3 to 8) (size 9 to 14) (size 15 to 20)
#    0.000    2.000    0.000    5.625    0.000   10.500 
#    0.000    0.000    0.000   21.000    0.000    0.000 
#    0.000    0.000    0.000    0.000    0.000    0.000 
#
# Total GULP energy -89284.146870 kJ/mol
# GULP energy per Si atom -5580.259179 kJ/mol
# Density = 2.464439 g / cm^3
# Si number density = 24.700605 Si / 1000 Ang^3
#
#
#
# Elastic Constant Matrix: (Units=GPa)
#
#
# Indices 1 2 3 4 5 6 
#
# 1 116.7051 45.0968 47.7170 18.7400 9.8146 20.9985
# 2 45.0968 110.5059 33.6278 19.5498 14.2984 24.4852
# 3 47.7170 33.6278 121.9687 0.1821 16.4635 2.3061
# 4 18.7400 19.5498 0.1821 39.4984 -3.6391 8.3756
# 5 9.8146 14.2984 16.4635 -3.6391 39.8663 10.7637
# 6 20.9985 24.4852 2.3061 8.3756 10.7637 31.8706
#
#
#
# Elastic Compliance Matrix: (Units=1/GPa)
#
#
# Indices 1 2 3 4 5 6 
#
# 1 0.012723 -0.001995 -0.004395 -0.003753 0.000609 -0.005751
# 2 -0.001995 0.013110 -0.002466 -0.004229 -0.001719 -0.006887
# 3 -0.004395 -0.002466 0.011003 0.001912 -0.003681 0.004735
# 4 -0.003753 -0.004229 0.001912 0.030626 0.005625 -0.004365
# 5 0.000609 -0.001719 -0.003681 0.005625 0.030439 -0.010572
# 6 -0.005751 -0.006887 0.004735 -0.004365 -0.010572 0.044833
#
#
# Mechanical properties :
#
#
# Convention : Reuss Voigt Hill
#
# Bulk Modulus (GPa) = 52.28973 66.89587 59.59280
# Shear Modulus (GPa) = 29.97238 37.09627 33.53432
#
# Velocity S-wave (km/s) = 3.48721 3.87956 3.68860
# Velocity P-wave (km/s) = 6.11797 6.87091 6.50534
#
# Compressibility (1/GPa) = 0.01912422
#
# Stress axis : x y z
#
# Youngs Moduli (GPa) = 78.59865 76.27503 90.88738
#
# Poissons Ratio (x) = 0.15218 0.39947
# Poissons Ratio (y) = 0.15681 0.22408
# Poissons Ratio (z) = 0.34546 0.18806
#
# Static dielectric constant tensor:
#      x y z
#    x 2.150790 -0.069000 0.015780 
#    y -0.069000 2.104620 -0.087120 
#    z 0.015780 -0.087120 1.992000 
# 
# From -- ./inp_files/126871.got.cif
#   From: 2010.05.17/outbox.cif.g08.bks.cpg/sg2_64_cif.got.tgz:126871.got - 2010.06.03 11:33:40.
