data_PCOD9086647
_publ_section_title
;
Structure prediction by ZEFSAII (Michael W. Deem and Ramdas Pophale) SiO2 
 PCOD9086647
Probable space group: P -1
;
_chemical_formula_sum "Si O2"
_cell_formula_units_Z 16
_cell_length_a 13.251981
_cell_length_b 8.784241
_cell_length_c 7.894798
_cell_angle_alpha 114.641805
_cell_angle_beta 82.542214
_cell_angle_gamma 125.492977
_cell_volume 672.239752
_symmetry_space_group_name_H-M "P -1"
_symmetry_group_IT_number 2
_symmetry_cell_setting 'triclinic'
loop_
_space_group_symop_operation_xyz
x,y,z
-x,-y,-z
loop_
_atom_site_type_symbol
_atom_site_label
_atom_site_fract_x
_atom_site_fract_y
_atom_site_fract_z
Si Si1 0.594571 0.702303 0.696464
Si Si2 0.600140 0.866100 0.457751
Si Si3 0.895700 0.491635 0.295187
Si Si4 0.896466 0.831522 0.314693
Si Si5 0.021552 0.784822 0.737400
Si Si6 0.330619 0.753793 0.552027
Si Si7 0.760377 0.612924 0.835501
Si Si8 0.629810 0.543496 0.185112
O O1 0.500000 0.500000 0.500000
O O2 0.663419 0.886410 0.633346
O O3 0.693052 0.688861 0.771663
O O4 0.488874 0.678238 0.831941
O O5 0.472877 0.828956 0.538373
O O6 0.573295 0.677581 0.260758
O O7 0.675852 0.060798 0.412671
O O8 0.922167 0.653297 0.214963
O O9 0.967153 0.643151 0.512269
O O10 0.747566 0.351346 0.310800
O O11 0.928493 0.325020 0.213389
O O12 0.752308 0.686607 0.343951
O O13 0.000000 0.000000 0.500000
O O14 0.895690 0.978474 0.239851
O O15 0.908894 0.763386 0.854493
O O16 0.266757 0.589756 0.340090
O O17 0.694340 0.552017 0.002554
#
# Coordination Sequence:
#
# PCOD9086647 Si02
#       8
#     2   2   2   2   2   2   2   2
#     4  10  20  36  62  90 114 160 207 243 291 371
#     4  10  21  34  63  90 117 155 212 245 297 362
#     4   9  18  36  58  87 116 158 203 253 293 350
#     4  10  21  35  63  88 115 159 213 243 292 369
#     4   9  20  36  57  85 120 160 198 250 302 355
#     4  10  19  36  59  89 121 156 201 256 297 362
#     4  11  22  39  61  87 130 155 196 252 317 357
#     4  11  22  37  63  92 122 161 193 255 312 359
#
# _framework density 23.801031999999999
#
# number of rings (size 3 to 8) (size 9 to 14) (size 15 to 20)
#    0.000    2.000    2.500    1.875    8.750    1.500 
#    0.000    1.250    5.500    0.000    0.000    0.000 
#    0.000    0.000    0.000    0.000    0.000    0.000 
#
# Total GULP energy -89067.743660 kJ/mol
# GULP energy per Si atom -5566.733979 kJ/mol
# Density = 2.374686 g / cm^3
# Si number density = 23.801032 Si / 1000 Ang^3
#
#
#
# Elastic Constant Matrix: (Units=GPa)
#
#
# Indices 1 2 3 4 5 6 
#
# 1 112.6757 44.2456 17.1146 -2.8280 -17.5654 -9.4014
# 2 44.2456 147.8315 3.6337 -16.1340 -12.7327 -29.1228
# 3 17.1146 3.6337 34.7237 -13.6601 -13.9654 -2.9668
# 4 -2.8280 -16.1340 -13.6601 16.9996 9.9160 -0.0607
# 5 -17.5654 -12.7327 -13.9654 9.9160 21.0684 -3.7685
# 6 -9.4014 -29.1228 -2.9668 -0.0607 -3.7685 28.3471
#
#
#
# Elastic Compliance Matrix: (Units=1/GPa)
#
#
# Indices 1 2 3 4 5 6 
#
# 1 0.012828 -0.004171 -0.007124 -0.013250 0.009777 0.000495
# 2 -0.004171 0.012806 0.010924 0.016736 0.006088 0.013762
# 3 -0.007124 0.010924 0.058825 0.043416 0.022457 0.018095
# 4 -0.013250 0.016736 0.043416 0.123712 -0.027893 0.013900
# 5 0.009777 0.006088 0.022457 -0.027893 0.091596 0.023964
# 6 0.000495 0.013762 0.018095 0.013900 0.023964 0.054689
#
#
# Mechanical properties :
#
#
# Convention : Reuss Voigt Hill
#
# Bulk Modulus (GPa) = 11.94508 47.24655 29.59582
# Shear Modulus (GPa) = 13.05130 28.63216 20.84173
#
# Velocity S-wave (km/s) = 2.34423 3.47216 2.96237
# Velocity P-wave (km/s) = 3.51523 5.99736 4.91554
#
# Compressibility (1/GPa) = 0.08371647
#
# Stress axis : x y z
#
# Youngs Moduli (GPa) = 77.95569 78.08734 16.99965
#
# Poissons Ratio (x) = 0.32567 0.12111
# Poissons Ratio (y) = 0.32512 -0.18570
# Poissons Ratio (z) = 0.55537 -0.85300
#
# Static dielectric constant tensor:
#      x y z
#    x 2.029710 -0.048170 0.030900 
#    y -0.048170 2.022390 -0.040850 
#    z 0.030900 -0.040850 1.945700 
# 
# From -- ./inp_files/292969.got.cif
#   From: 2010.05.17/outbox.cif.g08.bks.cpg/sg2_147_cif.got.tgz:292969.got - 2010.06.03 11:33:40.
