data_PCOD9086481
_publ_section_title
;
Structure prediction by ZEFSAII (Michael W. Deem and Ramdas Pophale) SiO2 
 PCOD9086481
Probable space group: P -1
;
_chemical_formula_sum "Si O2"
_cell_formula_units_Z 12
_cell_length_a 22.881341
_cell_length_b 4.989621
_cell_length_c 6.876573
_cell_angle_alpha 94.399800
_cell_angle_beta 140.349768
_cell_angle_gamma 102.249641
_cell_volume 451.823403
_symmetry_space_group_name_H-M "P -1"
_symmetry_group_IT_number 2
_symmetry_cell_setting 'triclinic'
loop_
_space_group_symop_operation_xyz
x,y,z
-x,-y,-z
loop_
_atom_site_type_symbol
_atom_site_label
_atom_site_fract_x
_atom_site_fract_y
_atom_site_fract_z
Si Si1 0.924512 0.502213 0.530577
Si Si2 0.149380 0.127883 0.889759
Si Si3 0.337785 0.064378 0.770234
Si Si4 0.861661 0.481883 0.800403
Si Si5 0.454816 0.710282 0.147973
Si Si6 0.645739 0.660351 0.772788
O O1 0.923596 0.766782 0.414333
O O2 0.867351 0.503451 0.583507
O O3 0.873806 0.201502 0.258372
O O4 0.035733 0.538228 0.874288
O O5 0.142329 0.230344 0.095953
O O6 0.262430 0.334147 0.114631
O O7 0.238761 0.808064 0.412827
O O8 0.428042 0.961239 0.004739
O O9 0.384249 0.403477 0.840563
O O10 0.311456 0.099828 0.930076
O O11 0.567493 0.738910 0.452134
O O12 0.415462 0.635322 0.269388
#
# Coordination Sequence:
#
# PCOD9086481 Si02
#       6
#     2   2   2   2   2   2
#     4  11  26  45  65  94 134 169 211 267 321 378
#     4  12  25  43  67  97 129 170 216 262 321 382
#     4  10  19  36  58  88 122 160 209 254 307 374
#     4  11  25  43  69  96 128 172 215 264 320 381
#     4   9  19  33  63  84 122 170 199 251 326 364
#     4   9  20  35  61  87 125 163 206 255 318 368
#
# _framework density 26.559049000000002
#
# number of rings (size 3 to 8) (size 9 to 14) (size 15 to 20)
#    1.000    0.667    1.667    2.500    0.000    6.667 
#    0.000    1.667    0.000    0.000    0.000    0.000 
#    0.000    0.000    0.000    0.000    0.000    0.000 
#
# Total GULP energy -67252.589640 kJ/mol
# GULP energy per Si atom -5604.382470 kJ/mol
# Density = 2.649860 g / cm^3
# Si number density = 26.559049 Si / 1000 Ang^3
#
#
#
# Elastic Constant Matrix: (Units=GPa)
#
#
# Indices 1 2 3 4 5 6 
#
# 1 125.1780 32.1649 25.2212 15.9635 -19.5901 -40.2711
# 2 32.1649 126.1435 19.3270 10.0776 -18.5600 -18.6825
# 3 25.2212 19.3270 114.5491 20.9926 -6.5079 -14.7012
# 4 15.9635 10.0776 20.9926 45.9688 -5.5846 -4.2962
# 5 -19.5901 -18.5600 -6.5079 -5.5846 37.0496 5.3725
# 6 -40.2711 -18.6825 -14.7012 -4.2962 5.3725 30.8301
#
#
#
# Elastic Compliance Matrix: (Units=1/GPa)
#
#
# Indices 1 2 3 4 5 6 
#
# 1 0.015040 -0.000184 -0.000150 -0.002831 0.004762 0.018238
# 2 -0.000184 0.009326 -0.000608 -0.000845 0.003709 0.004357
# 3 -0.000150 -0.000608 0.010089 -0.004052 0.000250 0.003638
# 4 -0.002831 -0.000845 -0.004052 0.024680 0.001519 -0.002967
# 5 0.004762 0.003709 0.000250 0.001519 0.031151 0.003371
# 6 0.018238 0.004357 0.003638 -0.002967 0.003371 0.059633
#
#
# Mechanical properties :
#
#
# Convention : Reuss Voigt Hill
#
# Bulk Modulus (GPa) = 30.70314 57.69964 44.20139
# Shear Modulus (GPa) = 30.73890 42.04685 36.39287
#
# Velocity S-wave (km/s) = 3.40572 3.98319 3.70572
# Velocity P-wave (km/s) = 5.20102 6.55184 5.91512
#
# Compressibility (1/GPa) = 0.03256996
#
# Stress axis : x y z
#
# Youngs Moduli (GPa) = 66.49001 107.22641 99.11602
#
# Poissons Ratio (x) = 0.01972 0.01491
# Poissons Ratio (y) = 0.01223 0.06029
# Poissons Ratio (z) = 0.01000 0.06522
#
# Static dielectric constant tensor:
#      x y z
#    x 2.113390 0.036850 -0.013180 
#    y 0.036850 2.004760 0.013880 
#    z -0.013180 0.013880 2.058890 
# 
# From -- ./inp_files/56650.got.cif
#   From: 2010.05.17/outbox.cif.g08.bks.cpg/sg2_29_cif.got.tgz:56650.got - 2010.06.03 11:33:40.
