data_PCOD9086582
_publ_section_title
;
Structure prediction by ZEFSAII (Michael W. Deem and Ramdas Pophale) SiO2 
 PCOD9086582
Probable space group: P -1
;
_chemical_formula_sum "Si O2"
_cell_formula_units_Z 14
_cell_length_a 8.686705
_cell_length_b 20.114135
_cell_length_c 10.962066
_cell_angle_alpha 31.077764
_cell_angle_beta 55.402752
_cell_angle_gamma 36.905126
_cell_volume 549.751671
_symmetry_space_group_name_H-M "P -1"
_symmetry_group_IT_number 2
_symmetry_cell_setting 'triclinic'
loop_
_space_group_symop_operation_xyz
x,y,z
-x,-y,-z
loop_
_atom_site_type_symbol
_atom_site_label
_atom_site_fract_x
_atom_site_fract_y
_atom_site_fract_z
Si Si1 0.713873 0.044193 0.414123
Si Si2 0.808596 0.553316 0.693580
Si Si3 0.614380 0.161742 0.885248
Si Si4 0.261987 0.395034 0.909695
Si Si5 0.982763 0.200791 0.571221
Si Si6 0.231070 0.964268 0.335970
Si Si7 0.874827 0.731533 0.199369
O O1 0.712221 0.986247 0.641168
O O2 0.421226 0.247984 0.181497
O O3 0.840114 0.897683 0.477847
O O4 0.935374 0.046520 0.331587
O O5 0.484873 0.735656 0.577819
O O6 0.908957 0.639727 0.454093
O O7 0.006128 0.441799 0.896993
O O8 0.869023 0.416760 0.776593
O O9 0.494557 0.283073 0.874128
O O10 0.761057 0.196881 0.684181
O O11 0.358867 0.232847 0.818190
O O12 0.818596 0.945191 0.178195
O O13 0.155133 0.591342 0.679201
O O14 0.222361 0.073418 0.061589
#
# Coordination Sequence:
#
# PCOD9086582 Si02
#       7
#     2   2   2   2   2   2   2
#     4  10  25  40  57  86 115 154 203 229 276 353
#     4  10  22  38  62  92 114 146 195 237 289 348
#     4   9  19  34  57  92 118 146 193 234 288 351
#     4  10  21  38  59  89 119 149 189 238 289 337
#     4  10  19  36  59  84 121 155 185 238 289 337
#     4  11  23  42  60  81 118 157 191 239 285 336
#     4  10  21  38  61  88 117 148 190 243 291 337
#
# _framework density 25.466044
#
# number of rings (size 3 to 8) (size 9 to 14) (size 15 to 20)
#    0.000    2.000    0.000    2.571    0.000    9.714 
#    0.000   12.857    0.000    0.000    0.000    0.000 
#    0.000    0.000    0.000    0.000    0.000    0.000 
#
# Total GULP energy -78417.851767 kJ/mol
# GULP energy per Si atom -5601.275126 kJ/mol
# Density = 2.540808 g / cm^3
# Si number density = 25.466044 Si / 1000 Ang^3
#
#
#
# Elastic Constant Matrix: (Units=GPa)
#
#
# Indices 1 2 3 4 5 6 
#
# 1 77.7708 9.7414 45.9871 -3.8937 23.8295 -1.3358
# 2 9.7414 88.2435 31.4956 -13.6017 0.7376 13.1510
# 3 45.9871 31.4956 134.2419 -16.8789 15.2733 8.1844
# 4 -3.8937 -13.6017 -16.8789 39.0238 6.0103 0.4350
# 5 23.8295 0.7376 15.2733 6.0103 43.3484 -4.9129
# 6 -1.3358 13.1510 8.1844 0.4350 -4.9129 41.8980
#
#
#
# Elastic Compliance Matrix: (Units=1/GPa)
#
#
# Indices 1 2 3 4 5 6 
#
# 1 0.018664 -0.000049 -0.005364 0.000812 -0.008407 0.000664
# 2 -0.000049 0.013325 -0.002378 0.003700 -0.000305 -0.003794
# 3 -0.005364 -0.002378 0.010536 0.003426 -0.001388 -0.001681
# 4 0.000812 0.003700 0.003426 0.029452 -0.006121 -0.002828
# 5 -0.008407 -0.000305 -0.001388 -0.006121 0.029443 0.003615
# 6 0.000664 -0.003794 -0.001681 -0.002828 0.003615 0.025861
#
#
# Mechanical properties :
#
#
# Convention : Reuss Voigt Hill
#
# Bulk Modulus (GPa) = 37.11714 52.74494 44.93104
# Shear Modulus (GPa) = 32.92836 39.05617 35.99227
#
# Velocity S-wave (km/s) = 3.59977 3.92044 3.76352
# Velocity P-wave (km/s) = 5.64665 6.42261 6.04709
#
# Compressibility (1/GPa) = 0.02694173
#
# Stress axis : x y z
#
# Youngs Moduli (GPa) = 53.57817 75.04832 94.91305
#
# Poissons Ratio (x) = 0.00371 0.50913
# Poissons Ratio (y) = 0.00265 0.22572
# Poissons Ratio (z) = 0.28740 0.17848
#
# Static dielectric constant tensor:
#      x y z
#    x 1.963990 0.034040 0.020720 
#    y 0.034040 2.116150 0.002540 
#    z 0.020720 0.002540 1.966350 
# 
# From -- ./inp_files/405262.got.cif
#   From: 2010.05.17/outbox.cif.g08.bks.cpg/sg2_203_cif.got.tgz:405262.got - 2010.06.03 11:33:40.
