data_PCOD9086065
_publ_section_title
;
Structure prediction by ZEFSAII (Michael W. Deem and Ramdas Pophale) SiO2 
 PCOD9086065
Probable space group: P -1
;
_chemical_formula_sum "Si O2"
_cell_formula_units_Z 12
_cell_length_a 9.882909
_cell_length_b 10.971991
_cell_length_c 12.761543
_cell_angle_alpha 33.814585
_cell_angle_beta 74.374772
_cell_angle_gamma 54.200510
_cell_volume 547.940020
_symmetry_space_group_name_H-M "P -1"
_symmetry_group_IT_number 2
_symmetry_cell_setting 'triclinic'
loop_
_space_group_symop_operation_xyz
x,y,z
-x,-y,-z
loop_
_atom_site_type_symbol
_atom_site_label
_atom_site_fract_x
_atom_site_fract_y
_atom_site_fract_z
Si Si1 0.534554 0.712336 0.234290
Si Si2 0.024933 0.617404 0.214454
Si Si3 0.061691 0.789389 0.735592
Si Si4 0.204413 0.207117 0.078390
Si Si5 0.255619 0.707674 0.192489
Si Si6 0.061074 0.745096 0.421107
O O1 0.457384 0.600212 0.256219
O O2 0.751482 0.458646 0.399262
O O3 0.389777 0.872610 0.248731
O O4 0.500000 0.000000 0.000000
O O5 0.031548 0.394323 0.443039
O O6 0.218319 0.555842 0.224917
O O7 0.941568 0.655483 0.088874
O O8 0.864779 0.949766 0.056515
O O9 0.890233 0.808033 0.791668
O O10 0.229428 0.440040 0.926664
O O11 0.000000 0.000000 0.500000
O O12 0.079739 0.928106 0.733032
O O13 0.151731 0.720987 0.309261
#
# Coordination Sequence:
#
# PCOD9086065 Si02
#       6
#     2   2   2   2   2   2
#     4  11  19  36  55  86 115 137 179 231 277 319
#     4  10  19  36  52  82 115 142 180 222 276 329
#     4  11  20  34  54  83 108 143 185 229 261 319
#     4  10  21  35  54  82 112 144 178 224 276 319
#     4  10  21  33  53  82 118 142 172 231 276 322
#     4  12  20  34  60  87 107 140 189 226 274 321
#
# _framework density 21.900207000000002
#
# number of rings (size 3 to 8) (size 9 to 14) (size 15 to 20)
#    0.000    1.333    8.333    1.000    0.000    0.000 
#    0.000    0.000    0.000    1.000    0.000    8.167 
#    0.000    0.000    0.000    0.000    0.000    0.000 
#
# Total GULP energy -66907.889928 kJ/mol
# GULP energy per Si atom -5575.657494 kJ/mol
# Density = 2.185036 g / cm^3
# Si number density = 21.900207 Si / 1000 Ang^3
#
#
#
# Elastic Constant Matrix: (Units=GPa)
#
#
# Indices 1 2 3 4 5 6 
#
# 1 109.2406 12.8043 22.5783 -9.2169 -16.2639 15.6175
# 2 12.8043 54.9583 8.6496 -0.7189 -5.3768 4.9648
# 3 22.5783 8.6496 92.7886 3.4172 -32.6483 8.0232
# 4 -9.2169 -0.7189 3.4172 38.5790 1.1488 -7.6786
# 5 -16.2639 -5.3768 -32.6483 1.1488 38.3250 -0.8686
# 6 15.6175 4.9648 8.0232 -7.6786 -0.8686 19.0405
#
#
#
# Elastic Compliance Matrix: (Units=1/GPa)
#
#
# Indices 1 2 3 4 5 6 
#
# 1 0.011249 -0.001412 -0.000589 0.001000 0.003862 -0.008031
# 2 -0.001412 0.019097 -0.000527 -0.000743 0.001567 -0.003828
# 3 -0.000589 -0.000527 0.016532 -0.003437 0.013701 -0.007106
# 4 0.001000 -0.000743 -0.003437 0.029009 -0.003197 0.012375
# 5 0.003862 0.001567 0.013701 -0.003197 0.039518 -0.008836
# 6 -0.008031 -0.003828 -0.007106 0.012375 -0.008836 0.067687
#
#
# Mechanical properties :
#
#
# Convention : Reuss Voigt Hill
#
# Bulk Modulus (GPa) = 23.91145 38.33911 31.12528
# Shear Modulus (GPa) = 24.74182 33.38591 29.06387
#
# Velocity S-wave (km/s) = 3.36483 3.90866 3.64690
# Velocity P-wave (km/s) = 5.10276 6.15747 5.65476
#
# Compressibility (1/GPa) = 0.04182096
#
# Stress axis : x y z
#
# Youngs Moduli (GPa) = 88.89869 52.36484 60.49052
#
# Poissons Ratio (x) = 0.07392 0.03565
# Poissons Ratio (y) = 0.12549 0.03189
# Poissons Ratio (z) = 0.05239 0.02760
#
# Static dielectric constant tensor:
#      x y z
#    x 1.881830 0.037830 -0.025980 
#    y 0.037830 1.921380 0.013850 
#    z -0.025980 0.013850 1.856400 
# 
# From -- ./inp_files/267584.got.cif
#   From: 2010.05.17/outbox.cif.g08.bks.cpg/sg2_134_cif.got.tgz:267584.got - 2010.06.03 11:33:40.
