data_PCOD9086928
_publ_section_title
;
Structure prediction by ZEFSAII (Michael W. Deem and Ramdas Pophale) SiO2 
 PCOD9086928
Probable space group: P -1
;
_chemical_formula_sum "Si O2"
_cell_formula_units_Z 13
_cell_length_a 9.301561
_cell_length_b 12.288654
_cell_length_c 7.869383
_cell_angle_alpha 88.794636
_cell_angle_beta 65.862459
_cell_angle_gamma 137.045790
_cell_volume 479.415114
_symmetry_space_group_name_H-M "P -1"
_symmetry_group_IT_number 2
_symmetry_cell_setting 'triclinic'
loop_
_space_group_symop_operation_xyz
x,y,z
-x,-y,-z
loop_
_atom_site_type_symbol
_atom_site_label
_atom_site_fract_x
_atom_site_fract_y
_atom_site_fract_z
Si Si1 0.603300 0.292445 0.447421
Si Si2 0.283173 0.301516 0.429948
Si Si3 0.455921 0.335143 0.850573
Si Si4 0.006748 0.198250 0.923812
Si Si5 0.500000 0.000000 0.000000
Si Si6 0.085722 0.429051 0.145336
Si Si7 0.778588 0.080002 0.517632
O O1 0.463275 0.300702 0.391290
O O2 0.574574 0.324091 0.647662
O O3 0.909071 0.439175 0.238317
O O4 0.421764 0.083574 0.516493
O O5 0.440176 0.484807 0.250256
O O6 0.180317 0.291279 0.662206
O O7 0.017904 0.132285 0.452706
O O8 0.136332 0.177342 0.983916
O O9 0.605348 0.384910 0.949563
O O10 0.038083 0.328368 0.007430
O O11 0.703557 0.027886 0.008108
O O12 0.386061 0.983068 0.233971
O O13 0.936995 0.274251 0.368540
#
# Coordination Sequence:
#
# PCOD9086928 Si02
#       7
#     2   2   2   2   1   2   2
#     4  11  19  35  62  90 115 152 200 240 286 346
#     4   9  21  40  62  82 121 159 195 236 293 345
#     4  10  22  41  60  84 123 160 190 237 296 348
#     4  10  19  36  61  84 116 156 194 235 291 346
#     4  10  20  36  60  86 114 154 194 240 288 340
#     4  11  22  37  63  87 120 153 195 240 298 342
#     4  10  21  38  63  85 119 156 194 240 296 347
#
# _framework density 27.116375000000001
#
# number of rings (size 3 to 8) (size 9 to 14) (size 15 to 20)
#    0.000    1.846    1.538    3.692    0.000    0.000 
#    0.000    6.154   20.308    0.000    0.000    0.000 
#    0.000    0.000    0.000    0.000    0.000    0.000 
#
# Total GULP energy -72583.964583 kJ/mol
# GULP energy per Si atom -5583.381891 kJ/mol
# Density = 2.705466 g / cm^3
# Si number density = 27.116375 Si / 1000 Ang^3
#
#
#
# Elastic Constant Matrix: (Units=GPa)
#
#
# Indices 1 2 3 4 5 6 
#
# 1 179.0469 34.0260 47.7083 0.7800 -47.8734 25.8821
# 2 34.0260 84.1266 29.3286 7.3306 7.4832 8.0005
# 3 47.7083 29.3286 82.3916 31.3528 -5.2765 -1.5808
# 4 0.7800 7.3306 31.3528 36.5573 10.4260 -5.7267
# 5 -47.8734 7.4832 -5.2765 10.4260 44.5681 3.7721
# 6 25.8821 8.0005 -1.5808 -5.7267 3.7721 43.7885
#
#
#
# Elastic Compliance Matrix: (Units=1/GPa)
#
#
# Indices 1 2 3 4 5 6 
#
# 1 0.012788 -0.003887 -0.004959 -0.000743 0.014686 -0.008390
# 2 -0.003887 0.015697 -0.005415 0.004065 -0.008445 0.000493
# 3 -0.004959 -0.005415 0.025221 -0.021118 0.003359 0.001780
# 4 -0.000743 0.004065 -0.021118 0.050420 -0.016363 0.006938
# 5 0.014686 -0.008445 0.003359 -0.016363 0.044959 -0.013029
# 6 -0.008390 0.000493 0.001780 0.006938 -0.013029 0.029800
#
#
# Mechanical properties :
#
#
# Convention : Reuss Voigt Hill
#
# Bulk Modulus (GPa) = 39.70709 63.07677 51.39193
# Shear Modulus (GPa) = 23.16952 40.61627 31.89290
#
# Velocity S-wave (km/s) = 2.92626 3.87441 3.43322
# Velocity P-wave (km/s) = 5.10807 6.58230 5.89148
#
# Compressibility (1/GPa) = 0.02518442
#
# Stress axis : x y z
#
# Youngs Moduli (GPa) = 78.20010 63.70671 39.64892
#
# Poissons Ratio (x) = 0.24764 0.19660
# Poissons Ratio (y) = 0.30398 0.21470
# Poissons Ratio (z) = 0.38776 0.34497
#
# Static dielectric constant tensor:
#      x y z
#    x 2.107380 0.001640 -0.105480 
#    y 0.001640 2.114690 -0.114270 
#    z -0.105480 -0.114270 2.053600 
# 
# From -- ./inp_files/178783.got.cif
#   From: 2010.05.17/outbox.cif.g08.bks.cpg/sg2_90_cif.got.tgz:178783.got - 2010.06.03 11:33:40.
