data_PCOD9086080
_publ_section_title
;
Structure prediction by ZEFSAII (Michael W. Deem and Ramdas Pophale) SiO2 
 PCOD9086080
Probable space group: P -1
;
_chemical_formula_sum "Si O2"
_cell_formula_units_Z 14
_cell_length_a 19.889213
_cell_length_b 7.630789
_cell_length_c 7.498528
_cell_angle_alpha 89.316987
_cell_angle_beta 49.030928
_cell_angle_gamma 69.205287
_cell_volume 762.996368
_symmetry_space_group_name_H-M "P -1"
_symmetry_group_IT_number 2
_symmetry_cell_setting 'triclinic'
loop_
_space_group_symop_operation_xyz
x,y,z
-x,-y,-z
loop_
_atom_site_type_symbol
_atom_site_label
_atom_site_fract_x
_atom_site_fract_y
_atom_site_fract_z
Si Si1 0.730925 0.967553 0.372414
Si Si2 0.423237 0.829614 0.666609
Si Si3 0.111041 0.469378 0.787496
Si Si4 0.601861 0.967995 0.912722
Si Si5 0.245625 0.481185 0.275334
Si Si6 0.639794 0.517222 0.254430
Si Si7 0.770512 0.320089 0.350551
O O1 0.810940 0.740932 0.262414
O O2 0.661498 0.033491 0.667727
O O3 0.655063 0.014146 0.337903
O O4 0.783946 0.109015 0.269736
O O5 0.539772 0.724596 0.404277
O O6 0.392483 0.652529 0.731910
O O7 0.585393 0.077221 0.126908
O O8 0.144589 0.477385 0.522801
O O9 0.135103 0.634758 0.835874
O O10 0.000000 0.500000 0.000000
O O11 0.668632 0.735517 0.825995
O O12 0.500000 0.000000 0.000000
O O13 0.254831 0.634189 0.396423
O O14 0.268751 0.513535 0.033839
O O15 0.680006 0.479281 0.386927
#
# Coordination Sequence:
#
# PCOD9086080 Si02
#       7
#     2   2   2   2   2   2   2
#     4  10  21  38  58  82 113 152 188 227 281 328
#     4  10  22  32  56  83 116 155 188 221 264 340
#     4   9  21  40  60  84 108 142 189 240 292 332
#     4  11  21  32  52  85 116 152 189 224 270 329
#     4   9  20  33  55  77 111 146 177 234 275 320
#     4  10  19  36  53  83 115 152 188 219 274 327
#     4   9  20  37  59  79 114 148 180 237 273 335
#
# _framework density 18.348711000000002
#
# number of rings (size 3 to 8) (size 9 to 14) (size 15 to 20)
#    0.857    1.429    0.000    2.571    2.000    1.714 
#    0.000    6.429    0.000    1.714    0.000    0.000 
#    0.000    0.000    0.000    0.000    0.000    0.000 
#
# Total GULP energy -77974.023835 kJ/mol
# GULP energy per Si atom -5569.573131 kJ/mol
# Density = 1.830695 g / cm^3
# Si number density = 18.348711 Si / 1000 Ang^3
#
#
#
# Elastic Constant Matrix: (Units=GPa)
#
#
# Indices 1 2 3 4 5 6 
#
# 1 83.0178 21.6304 29.7254 -1.9480 6.1697 9.0447
# 2 21.6304 41.7654 22.2523 -9.1730 -5.9409 -2.8414
# 3 29.7254 22.2523 93.9771 -7.4855 -3.1620 -3.5469
# 4 -1.9480 -9.1730 -7.4855 16.7823 5.6080 -0.0185
# 5 6.1697 -5.9409 -3.1620 5.6080 31.6308 -8.6641
# 6 9.0447 -2.8414 -3.5469 -0.0185 -8.6641 20.2818
#
#
#
# Elastic Compliance Matrix: (Units=1/GPa)
#
#
# Indices 1 2 3 4 5 6 
#
# 1 0.018511 -0.009993 -0.004530 -0.002164 -0.009535 -0.014523
# 2 -0.009993 0.036288 -0.003510 0.013948 0.009501 0.012998
# 3 -0.004530 -0.003510 0.013389 0.002723 0.002424 0.004908
# 4 -0.002164 0.013948 0.002723 0.071347 -0.009499 -0.000598
# 5 -0.009535 0.009501 0.002424 -0.009499 0.043974 0.024784
# 6 -0.014523 0.012998 0.004908 -0.000598 0.024784 0.069048
#
#
# Mechanical properties :
#
#
# Convention : Reuss Voigt Hill
#
# Bulk Modulus (GPa) = 31.13227 40.66406 35.89816
# Shear Modulus (GPa) = 16.70385 23.41579 20.05982
#
# Velocity S-wave (km/s) = 3.02048 3.57621 3.31003
# Velocity P-wave (km/s) = 5.40077 6.26596 5.84938
#
# Compressibility (1/GPa) = 0.03212101
#
# Stress axis : x y z
#
# Youngs Moduli (GPa) = 54.02064 27.55718 74.68952
#
# Poissons Ratio (x) = 0.27538 0.33837
# Poissons Ratio (y) = 0.53982 0.26219
# Poissons Ratio (z) = 0.24473 0.09674
#
# Static dielectric constant tensor:
#      x y z
#    x 1.620100 0.013040 0.002860 
#    y 0.013040 1.648120 -0.038880 
#    z 0.002860 -0.038880 1.655120 
# 
# From -- ./inp_files/220627.got.cif
#   From: 2010.05.17/outbox.cif.g08.bks.cpg/sg2_111_cif.got.tgz:220627.got - 2010.06.03 11:33:40.
