data_PCOD9086202
_publ_section_title
;
Structure prediction by ZEFSAII (Michael W. Deem and Ramdas Pophale) SiO2 
 PCOD9086202
Probable space group: P -1
;
_chemical_formula_sum "Si O2"
_cell_formula_units_Z 16
_cell_length_a 17.165651
_cell_length_b 19.858282
_cell_length_c 9.071684
_cell_angle_alpha 68.307646
_cell_angle_beta 124.198265
_cell_angle_gamma 158.781433
_cell_volume 793.184637
_symmetry_space_group_name_H-M "P -1"
_symmetry_group_IT_number 2
_symmetry_cell_setting 'triclinic'
loop_
_space_group_symop_operation_xyz
x,y,z
-x,-y,-z
loop_
_atom_site_type_symbol
_atom_site_label
_atom_site_fract_x
_atom_site_fract_y
_atom_site_fract_z
Si Si1 0.605928 0.678621 0.028209
Si Si2 0.082787 0.913308 0.301164
Si Si3 0.059255 0.092595 0.342493
Si Si4 0.147097 0.530867 0.658245
Si Si5 0.449196 0.641912 0.414549
Si Si6 0.860528 0.609822 0.440131
Si Si7 0.164374 0.428545 0.989678
Si Si8 0.186533 0.960791 0.027149
O O1 0.371680 0.528431 0.025742
O O2 0.777784 0.728365 0.164946
O O3 0.448010 0.586468 0.786665
O O4 0.859873 0.916268 0.145289
O O5 0.108676 0.928648 0.139149
O O6 0.070397 0.823639 0.430003
O O7 0.333625 0.143323 0.453306
O O8 0.378111 0.307189 0.466903
O O9 0.000000 0.000000 0.500000
O O10 0.972154 0.112381 0.216553
O O11 0.098300 0.438835 0.548395
O O12 0.000000 0.500000 0.500000
O O13 0.480052 0.785046 0.832276
O O14 0.049063 0.412287 0.788632
O O15 0.179207 0.430272 0.398015
O O16 0.351233 0.593551 0.188153
O O17 0.915510 0.195695 0.963172
#
# Coordination Sequence:
#
# PCOD9086202 Si02
#       8
#     2   2   2   2   2   2   2   2
#     4  10  19  36  56  86 133 167 202 247 284 366
#     4  11  22  35  63  91 128 169 208 243 299 376
#     4  11  20  34  57  89 134 172 202 236 302 367
#     4  11  24  46  69  89 118 158 213 278 317 361
#     4  11  23  37  59  93 135 169 192 251 308 364
#     4  11  21  39  60  91 120 161 213 254 307 372
#     4  11  24  41  61  97 130 160 218 248 304 373
#     4  12  22  40  66  89 122 170 210 258 304 369
#
# _framework density 20.171847
#
# number of rings (size 3 to 8) (size 9 to 14) (size 15 to 20)
#    0.000    1.000    7.500    1.125    1.750    6.000 
#    0.000    0.625    0.000    1.500    0.000    0.000 
#    0.000    0.000    0.000    0.000    0.000    0.000 
#
# Total GULP energy -89217.870443 kJ/mol
# GULP energy per Si atom -5576.116903 kJ/mol
# Density = 2.012593 g / cm^3
# Si number density = 20.171847 Si / 1000 Ang^3
#
#
#
# Elastic Constant Matrix: (Units=GPa)
#
#
# Indices 1 2 3 4 5 6 
#
# 1 70.5050 27.9051 45.7975 -19.7561 18.1404 -15.1774
# 2 27.9051 88.1309 29.2331 -28.2720 11.9897 -21.5471
# 3 45.7975 29.2331 85.2581 -27.3275 6.4247 -5.6893
# 4 -19.7561 -28.2720 -27.3275 27.2996 -9.9775 -2.9353
# 5 18.1404 11.9897 6.4247 -9.9775 36.3694 -9.5176
# 6 -15.1774 -21.5471 -5.6893 -2.9353 -9.5176 23.9196
#
#
#
# Elastic Compliance Matrix: (Units=1/GPa)
#
#
# Indices 1 2 3 4 5 6 
#
# 1 0.029299 0.005668 -0.010269 0.017622 -0.004137 0.021770
# 2 0.005668 0.036821 0.005153 0.057573 0.013071 0.050257
# 3 -0.010269 0.005153 0.023975 0.026445 0.009258 0.010757
# 4 0.017622 0.057573 0.026445 0.161033 0.039126 0.104664
# 5 -0.004137 0.013071 0.009258 0.039126 0.043059 0.033286
# 6 0.021770 0.050257 0.010757 0.104664 0.033286 0.129540
#
#
# Mechanical properties :
#
#
# Convention : Reuss Voigt Hill
#
# Bulk Modulus (GPa) = 10.96508 49.97395 30.46951
# Shear Modulus (GPa) = 11.03696 26.91493 18.97594
#
# Velocity S-wave (km/s) = 2.34165 3.65675 3.07043
# Velocity P-wave (km/s) = 3.57194 6.53123 5.26382
#
# Compressibility (1/GPa) = 0.09119858
#
# Stress axis : x y z
#
# Youngs Moduli (GPa) = 34.13068 27.15810 41.71051
#
# Poissons Ratio (x) = -0.15392 0.42832
# Poissons Ratio (y) = -0.19344 -0.21493
# Poissons Ratio (z) = 0.35048 -0.13994
#
# Static dielectric constant tensor:
#      x y z
#    x 1.764080 -0.021120 -0.001640 
#    y -0.021120 1.780760 -0.025100 
#    z -0.001640 -0.025100 1.715110 
# 
# From -- ./inp_files/337683.got.cif
#   From: 2010.05.17/outbox.cif.g08.bks.cpg/sg2_169_cif.got.tgz:337683.got - 2010.06.03 11:33:40.
