data_PCOD9086465
_publ_section_title
;
Structure prediction by ZEFSAII (Michael W. Deem and Ramdas Pophale) SiO2 
 PCOD9086465
Probable space group: P -1
;
_chemical_formula_sum "Si O2"
_cell_formula_units_Z 16
_cell_length_a 9.252670
_cell_length_b 5.386392
_cell_length_c 16.203705
_cell_angle_alpha 73.301397
_cell_angle_beta 90.395159
_cell_angle_gamma 109.029428
_cell_volume 727.874609
_symmetry_space_group_name_H-M "P -1"
_symmetry_group_IT_number 2
_symmetry_cell_setting 'triclinic'
loop_
_space_group_symop_operation_xyz
x,y,z
-x,-y,-z
loop_
_atom_site_type_symbol
_atom_site_label
_atom_site_fract_x
_atom_site_fract_y
_atom_site_fract_z
Si Si1 0.555390 0.676593 0.582251
Si Si2 0.987047 0.692345 0.058185
Si Si3 0.979187 0.486828 0.659680
Si Si4 0.578904 0.876974 0.290111
Si Si5 0.732510 0.133587 0.426137
Si Si6 0.908693 0.680512 0.807978
Si Si7 0.830060 0.776405 0.199850
Si Si8 0.309388 0.043099 0.272897
O O1 0.517158 0.354282 0.622965
O O2 0.681526 0.845757 0.501813
O O3 0.394238 0.729007 0.561629
O O4 0.617652 0.791752 0.660932
O O5 0.842205 0.632180 0.126913
O O6 0.107576 0.620718 0.127787
O O7 0.000000 0.500000 0.000000
O O8 0.000000 0.000000 0.000000
O O9 0.092937 0.351791 0.717282
O O10 0.937872 0.672823 0.711277
O O11 0.823545 0.234336 0.669981
O O12 0.091516 0.682636 0.574712
O O13 0.704164 0.080260 0.332393
O O14 0.665686 0.762488 0.233106
O O15 0.453187 0.984313 0.238893
O O16 0.767030 0.789725 0.802412
O O17 0.055826 0.905094 0.829807
#
# Coordination Sequence:
#
# PCOD9086465 Si02
#       8
#     2   2   2   2   2   2   2   2
#     4  10  21  37  52  86 124 169 216 274 328 369
#     4  11  22  39  66 105 133 157 205 265 319 385
#     4  10  19  36  58  87 115 165 219 270 319 376
#     4  11  20  38  59  89 120 167 225 262 317 385
#     4  10  20  34  60  82 121 165 222 283 319 362
#     4  10  20  39  62  92 124 165 208 256 320 382
#     4  10  20  35  66  92 121 166 209 266 308 386
#     4  10  23  36  57  87 127 168 214 264 325 384
#
# _framework density 21.981809999999999
#
# number of rings (size 3 to 8) (size 9 to 14) (size 15 to 20)
#    0.000    1.750    3.750    1.125    0.000    0.500 
#    0.000    2.500    0.000    1.500    0.000    0.000 
#    0.000    0.000    0.000    0.000    0.000    0.000 
#
# Total GULP energy -89185.147079 kJ/mol
# GULP energy per Si atom -5574.071692 kJ/mol
# Density = 2.193178 g / cm^3
# Si number density = 21.981810 Si / 1000 Ang^3
#
#
#
# Elastic Constant Matrix: (Units=GPa)
#
#
# Indices 1 2 3 4 5 6 
#
# 1 124.6788 25.6588 31.0043 -3.2238 -1.5420 -20.9269
# 2 25.6588 90.0290 13.4053 -2.5377 -0.0213 -2.3832
# 3 31.0043 13.4053 54.4265 -3.4487 -7.6683 -12.1447
# 4 -3.2238 -2.5377 -3.4487 26.8847 -13.5628 2.4710
# 5 -1.5420 -0.0213 -7.6683 -13.5628 17.0540 -0.4578
# 6 -20.9269 -2.3832 -12.1447 2.4710 -0.4578 35.9408
#
#
#
# Elastic Compliance Matrix: (Units=1/GPa)
#
#
# Indices 1 2 3 4 5 6 
#
# 1 0.010307 -0.002151 -0.004673 -0.000828 -0.001715 0.004315
# 2 -0.002151 0.012012 -0.002130 0.000206 -0.001006 -0.001203
# 3 -0.004673 -0.002130 0.026842 0.013561 0.022578 0.005563
# 4 -0.000828 0.000206 0.013561 0.069952 0.061657 0.000090
# 5 -0.001715 -0.001006 0.022578 0.061657 0.117770 0.003825
# 6 0.004315 -0.001203 0.005563 0.000090 0.003825 0.032179
#
#
# Mechanical properties :
#
#
# Convention : Reuss Voigt Hill
#
# Bulk Modulus (GPa) = 31.99816 45.47457 38.73637
# Shear Modulus (GPa) = 16.81312 29.24695 23.03004
#
# Velocity S-wave (km/s) = 2.76862 3.65157 3.24031
# Velocity P-wave (km/s) = 4.98082 6.20571 5.62670
#
# Compressibility (1/GPa) = 0.03125180
#
# Stress axis : x y z
#
# Youngs Moduli (GPa) = 97.02199 83.25325 37.25557
#
# Poissons Ratio (x) = 0.17910 0.17409
# Poissons Ratio (y) = 0.20872 0.07936
# Poissons Ratio (z) = 0.45336 0.17734
#
# Static dielectric constant tensor:
#      x y z
#    x 1.811150 -0.023740 0.003270 
#    y -0.023740 1.949070 -0.030530 
#    z 0.003270 -0.030530 1.873510 
# 
# From -- ./inp_files/45305.got.cif
#   From: 2010.05.17/outbox.cif.g08.bks.cpg/sg2_23_cif.got.tgz:45305.got - 2010.06.03 11:33:40.
