data_PCOD9086191
_publ_section_title
;
Structure prediction by ZEFSAII (Michael W. Deem and Ramdas Pophale) SiO2 
 PCOD9086191
Probable space group: P -1
;
_chemical_formula_sum "Si O2"
_cell_formula_units_Z 16
_cell_length_a 16.076353
_cell_length_b 12.504141
_cell_length_c 9.138681
_cell_angle_alpha 118.481232
_cell_angle_beta 67.231719
_cell_angle_gamma 157.212516
_cell_volume 617.885949
_symmetry_space_group_name_H-M "P -1"
_symmetry_group_IT_number 2
_symmetry_cell_setting 'triclinic'
loop_
_space_group_symop_operation_xyz
x,y,z
-x,-y,-z
loop_
_atom_site_type_symbol
_atom_site_label
_atom_site_fract_x
_atom_site_fract_y
_atom_site_fract_z
Si Si1 0.930762 0.224991 0.926806
Si Si2 0.319099 0.562773 0.323595
Si Si3 0.467573 0.432326 0.735731
Si Si4 0.759095 0.756781 0.492695
Si Si5 0.869322 0.020094 0.128234
Si Si6 0.223187 0.844519 0.553852
Si Si7 0.713200 0.144886 0.815293
Si Si8 0.733437 0.454693 0.324272
O O1 0.114807 0.534414 0.084140
O O2 0.842504 0.025643 0.981846
O O3 0.060627 0.320996 0.768721
O O4 0.767406 0.120842 0.896535
O O5 0.413820 0.545779 0.283266
O O6 0.229322 0.505600 0.501315
O O7 0.121049 0.301348 0.176009
O O8 0.546537 0.914044 0.369375
O O9 0.651516 0.695942 0.661150
O O10 0.270198 0.197979 0.599485
O O11 0.324170 0.303802 0.888471
O O12 0.647047 0.486023 0.372896
O O13 0.000000 0.000000 0.500000
O O14 0.826309 0.088662 0.294275
O O15 0.261721 0.888954 0.382516
O O16 0.000000 0.500000 0.500000
O O17 0.460939 0.872043 0.805368
#
# Coordination Sequence:
#
# PCOD9086191 Si02
#       8
#     2   2   2   2   2   2   2   2
#     4  11  23  38  59  83 124 169 193 242 294 363
#     4   9  20  35  58  83 117 152 195 253 294 349
#     4   9  19  35  58  88 115 145 189 244 298 352
#     4  10  20  37  66  92 117 151 197 253 308 354
#     4  11  21  37  58  89 121 156 201 246 303 351
#     4  10  19  36  56  84 114 153 205 252 291 339
#     4  10  22  41  57  83 122 164 206 240 291 353
#     4  10  21  38  59  89 115 154 202 245 295 362
#
# _framework density 25.894748
#
# number of rings (size 3 to 8) (size 9 to 14) (size 15 to 20)
#    0.000    2.000    1.250    3.375    0.000    6.500 
#    2.250    0.625    0.000    2.250    0.000    0.000 
#    0.000    0.000    0.000    0.000    0.000    0.000 
#
# Total GULP energy -89223.775394 kJ/mol
# GULP energy per Si atom -5576.485962 kJ/mol
# Density = 2.583581 g / cm^3
# Si number density = 25.894748 Si / 1000 Ang^3
#
#
#
# Elastic Constant Matrix: (Units=GPa)
#
#
# Indices 1 2 3 4 5 6 
#
# 1 50.6653 -4.9323 23.2363 -11.7271 7.6704 20.5598
# 2 -4.9323 128.5042 29.3945 -27.7947 18.0064 21.3003
# 3 23.2363 29.3945 124.3401 -3.0511 11.8753 6.9669
# 4 -11.7271 -27.7947 -3.0511 42.1005 -5.1501 4.8567
# 5 7.6704 18.0064 11.8753 -5.1501 42.1602 1.3715
# 6 20.5598 21.3003 6.9669 4.8567 1.3715 35.1053
#
#
#
# Elastic Compliance Matrix: (Units=1/GPa)
#
#
# Indices 1 2 3 4 5 6 
#
# 1 0.054310 0.020527 -0.010652 0.031982 -0.010239 -0.046173
# 2 0.020527 0.019434 -0.005847 0.020158 -0.007107 -0.025164
# 3 -0.010652 -0.005847 0.010734 -0.007009 0.000275 0.008615
# 4 0.031982 0.020158 -0.007009 0.048983 -0.005294 -0.036140
# 5 -0.010239 -0.007107 0.000275 -0.005294 0.027571 0.009909
# 6 -0.046173 -0.025164 0.008615 -0.036140 0.009909 0.073699
#
#
# Mechanical properties :
#
#
# Convention : Reuss Voigt Hill
#
# Bulk Modulus (GPa) = 10.80683 44.32295 27.56489
# Shear Modulus (GPa) = 19.41592 40.92727 30.17160
#
# Velocity S-wave (km/s) = 2.74122 3.97989 3.41715
# Velocity P-wave (km/s) = 3.76849 6.18653 5.12224
#
# Compressibility (1/GPa) = 0.09253408
#
# Stress axis : x y z
#
# Youngs Moduli (GPa) = 18.41268 51.45589 93.15872
#
# Poissons Ratio (x) = -1.05622 0.99235
# Poissons Ratio (y) = -0.37795 0.54469
# Poissons Ratio (z) = 0.19614 0.30086
#
# Static dielectric constant tensor:
#      x y z
#    x 2.060120 -0.165040 -0.039110 
#    y -0.165040 2.324020 0.046750 
#    z -0.039110 0.046750 2.017220 
# 
# From -- ./inp_files/100663.got.cif
#   From: 2010.05.17/outbox.cif.g08.bks.cpg/sg2_51_cif.got.tgz:100663.got - 2010.06.03 11:33:40.
