data_PCOD9086970
_publ_section_title
;
Structure prediction by ZEFSAII (Michael W. Deem and Ramdas Pophale) SiO2 
 PCOD9086970
Probable space group: P -1
;
_chemical_formula_sum "Si O2"
_cell_formula_units_Z 16
_cell_length_a 9.609458
_cell_length_b 12.501359
_cell_length_c 12.631795
_cell_angle_alpha 34.633973
_cell_angle_beta 55.605627
_cell_angle_gamma 50.354278
_cell_volume 661.306565
_symmetry_space_group_name_H-M "P -1"
_symmetry_group_IT_number 2
_symmetry_cell_setting 'triclinic'
loop_
_space_group_symop_operation_xyz
x,y,z
-x,-y,-z
loop_
_atom_site_type_symbol
_atom_site_label
_atom_site_fract_x
_atom_site_fract_y
_atom_site_fract_z
Si Si1 0.167934 0.179043 0.637589
Si Si2 0.319573 0.444220 0.217183
Si Si3 0.423736 0.973115 0.166779
Si Si4 0.583655 0.889599 0.728522
Si Si5 0.062381 0.827814 0.902104
Si Si6 0.700337 0.361403 0.483878
Si Si7 0.695132 0.268126 0.320420
Si Si8 0.180630 0.318028 0.740979
O O1 0.199072 0.352897 0.413973
O O2 0.097083 0.272894 0.705930
O O3 0.371957 0.008522 0.696382
O O4 0.052501 0.052770 0.747185
O O5 0.353775 0.308872 0.207010
O O6 0.215644 0.673350 0.040343
O O7 0.506988 0.399780 0.235271
O O8 0.278056 0.866757 0.310486
O O9 0.605992 0.803040 0.276048
O O10 0.379142 0.146806 0.132315
O O11 0.500000 0.000000 0.000000
O O12 0.679374 0.047683 0.525606
O O13 0.888681 0.779078 0.052419
O O14 0.137809 0.765210 0.802817
O O15 0.500000 0.500000 0.500000
O O16 0.709040 0.360668 0.353272
O O17 0.830962 0.460480 0.400096
#
# Coordination Sequence:
#
# PCOD9086970 Si02
#       8
#     2   2   2   2   2   2   2   2
#     4  10  20  41  57  80 127 155 192 252 287 343
#     4  11  20  35  61  91 112 154 205 238 297 346
#     4   9  19  38  63  88 108 155 201 244 287 350
#     4   9  17  35  60  85 118 146 198 253 292 330
#     4  12  23  36  60  90 121 158 196 237 298 356
#     4   9  19  39  61  80 116 153 192 244 295 339
#     4  10  19  36  61  86 119 158 192 249 289 341
#     4  10  23  41  55  85 122 157 193 239 303 347
#
# _framework density 24.194527999999998
#
# number of rings (size 3 to 8) (size 9 to 14) (size 15 to 20)
#    0.000    2.000    2.500    3.750    0.000    3.000 
#   11.250    0.000    0.000    3.000    0.000    0.000 
#    0.000    0.000    0.000    0.000    0.000    0.000 
#
# Total GULP energy -89450.917186 kJ/mol
# GULP energy per Si atom -5590.682324 kJ/mol
# Density = 2.413946 g / cm^3
# Si number density = 24.194528 Si / 1000 Ang^3
#
#
#
# Elastic Constant Matrix: (Units=GPa)
#
#
# Indices 1 2 3 4 5 6 
#
# 1 50.2382 46.5457 14.8599 8.1076 -14.1556 6.7141
# 2 46.5457 129.8912 54.3684 18.5349 -1.9530 29.4940
# 3 14.8599 54.3684 131.5903 19.7692 -10.2861 10.4985
# 4 8.1076 18.5349 19.7692 42.5998 -2.9469 10.9547
# 5 -14.1556 -1.9530 -10.2861 -2.9469 37.1298 7.8433
# 6 6.7141 29.4940 10.4985 10.9547 7.8433 27.3795
#
#
#
# Elastic Compliance Matrix: (Units=1/GPa)
#
#
# Indices 1 2 3 4 5 6 
#
# 1 0.035774 -0.014095 0.002882 -0.001680 0.013092 0.002228
# 2 -0.014095 0.017670 -0.004977 0.000428 -0.003050 -0.012968
# 3 0.002882 -0.004977 0.009941 -0.003089 0.003094 0.001193
# 4 -0.001680 0.000428 -0.003089 0.028077 0.003074 -0.010979
# 5 0.013092 -0.003050 0.003094 0.003074 0.035507 -0.012513
# 6 0.002228 -0.012968 0.001193 -0.010979 -0.012513 0.057467
#
#
# Mechanical properties :
#
#
# Convention : Reuss Voigt Hill
#
# Bulk Modulus (GPa) = 32.25287 60.36308 46.30798
# Shear Modulus (GPa) = 22.01167 34.48487 28.24827
#
# Velocity S-wave (km/s) = 3.01953 3.77943 3.42065
# Velocity P-wave (km/s) = 5.05137 6.63692 5.89767
#
# Compressibility (1/GPa) = 0.03100499
#
# Stress axis : x y z
#
# Youngs Moduli (GPa) = 27.95334 56.59152 100.59297
#
# Poissons Ratio (x) = 0.79764 -0.28988
# Poissons Ratio (y) = 0.39400 0.50067
# Poissons Ratio (z) = -0.08055 0.28167
#
# Static dielectric constant tensor:
#      x y z
#    x 2.027930 -0.022660 0.029060 
#    y -0.022660 1.906470 -0.017740 
#    z 0.029060 -0.017740 1.941520 
# 
# From -- ./inp_files/269640.got.cif
#   From: 2010.05.17/outbox.cif.g08.bks.cpg/sg2_135_cif.got.tgz:269640.got - 2010.06.03 11:33:40.
