data_PCOD9086060
_publ_section_title
;
Structure prediction by ZEFSAII (Michael W. Deem and Ramdas Pophale) SiO2 
 PCOD9086060
Probable space group: P -1
;
_chemical_formula_sum "Si O2"
_cell_formula_units_Z 16
_cell_length_a 15.333319
_cell_length_b 12.035875
_cell_length_c 5.171853
_cell_angle_alpha 85.382318
_cell_angle_beta 80.281612
_cell_angle_gamma 123.155247
_cell_volume 770.134626
_symmetry_space_group_name_H-M "P -1"
_symmetry_group_IT_number 2
_symmetry_cell_setting 'triclinic'
loop_
_space_group_symop_operation_xyz
x,y,z
-x,-y,-z
loop_
_atom_site_type_symbol
_atom_site_label
_atom_site_fract_x
_atom_site_fract_y
_atom_site_fract_z
Si Si1 0.552930 0.883307 0.838787
Si Si2 0.642678 0.182991 0.764478
Si Si3 0.180262 0.802328 0.970899
Si Si4 0.148970 0.601805 0.638848
Si Si5 0.061662 0.178079 0.189283
Si Si6 0.323534 0.092925 0.705866
Si Si7 0.143668 0.134555 0.659949
Si Si8 0.004553 0.682088 0.424387
O O1 0.582682 0.844032 0.566059
O O2 0.570041 0.027558 0.732356
O O3 0.434044 0.792338 0.036540
O O4 0.630299 0.894038 0.030898
O O5 0.723465 0.300665 0.503554
O O6 0.723618 0.175159 0.910300
O O7 0.131211 0.654532 0.903339
O O8 0.240331 0.929628 0.721723
O O9 0.087734 0.803909 0.167470
O O10 0.095966 0.444831 0.648319
O O11 0.083229 0.638358 0.479073
O O12 0.141780 0.182242 0.363477
O O13 0.029534 0.271905 0.319015
O O14 0.113724 0.205733 0.875998
O O15 0.954235 0.025047 0.262796
O O16 0.251574 0.149994 0.690164
#
# Coordination Sequence:
#
# PCOD9086060 Si02
#       8
#     2   2   2   2   2   2   2   2
#     4  10  21  33  55  81 111 141 181 218 276 324
#     4   9  20  33  49  80 109 145 175 224 265 321
#     4  10  20  31  53  76 115 145 178 219 262 329
#     4  10  19  36  52  76 114 146 186 216 259 329
#     4  10  22  36  54  79 109 145 178 227 265 323
#     4  11  21  34  56  81 108 146 175 223 275 328
#     4  10  22  36  55  79 109 140 183 226 274 316
#     4  10  22  33  52  80 108 152 185 213 268 321
#
# _framework density 20.775587000000002
#
# number of rings (size 3 to 8) (size 9 to 14) (size 15 to 20)
#    0.000    2.000    1.250    1.875   12.250    1.500 
#    0.000    0.000    0.000    0.000    0.000    5.250 
#    0.000    0.000    0.000    0.000    0.000    0.000 
#
# Total GULP energy -89220.056039 kJ/mol
# GULP energy per Si atom -5576.253502 kJ/mol
# Density = 2.072830 g / cm^3
# Si number density = 20.775587 Si / 1000 Ang^3
#
#
#
# Elastic Constant Matrix: (Units=GPa)
#
#
# Indices 1 2 3 4 5 6 
#
# 1 73.9708 12.8580 23.6126 -5.9060 -14.0836 -6.8133
# 2 12.8580 47.6043 16.9118 11.3643 -10.1268 -2.2251
# 3 23.6126 16.9118 81.0587 21.0979 -9.0997 -2.8590
# 4 -5.9060 11.3643 21.0979 18.3152 -2.1520 -0.0251
# 5 -14.0836 -10.1268 -9.0997 -2.1520 37.1380 5.0564
# 6 -6.8133 -2.2251 -2.8590 -0.0251 5.0564 16.6668
#
#
#
# Elastic Compliance Matrix: (Units=1/GPa)
#
#
# Indices 1 2 3 4 5 6 
#
# 1 0.020919 -0.006364 -0.010033 0.022779 0.004423 0.004674
# 2 -0.006364 0.028037 0.002052 -0.021285 0.004487 0.000100
# 3 -0.010033 0.002052 0.022922 -0.030843 0.000601 -0.000125
# 4 0.022779 -0.021285 -0.030843 0.110868 0.001583 0.000866
# 5 0.004423 0.004487 0.000601 0.001583 0.031005 -0.006894
# 6 0.004674 0.000100 -0.000125 0.000866 -0.006894 0.063995
#
#
# Mechanical properties :
#
#
# Convention : Reuss Voigt Hill
#
# Bulk Modulus (GPa) = 23.15544 34.37763 28.76654
# Shear Modulus (GPa) = 15.58435 24.37410 19.97922
#
# Velocity S-wave (km/s) = 2.74182 3.42893 3.10444
# Velocity P-wave (km/s) = 4.60360 5.67977 5.16976
#
# Compressibility (1/GPa) = 0.04318639
#
# Stress axis : x y z
#
# Youngs Moduli (GPa) = 47.80280 35.66695 43.62557
#
# Poissons Ratio (x) = 0.22700 0.43772
# Poissons Ratio (y) = 0.30424 -0.08951
# Poissons Ratio (z) = 0.47963 -0.07318
#
# Static dielectric constant tensor:
#      x y z
#    x 1.774320 0.003670 0.030900 
#    y 0.003670 1.769010 -0.001390 
#    z 0.030900 -0.001390 1.821040 
# 
# From -- ./inp_files/94760.got.cif
#   From: 2010.05.17/outbox.cif.g08.bks.cpg/sg2_48_cif.got.tgz:94760.got - 2010.06.03 11:33:40.
