data_PCOD9086169
_publ_section_title
;
Structure prediction by ZEFSAII (Michael W. Deem and Ramdas Pophale) SiO2 
 PCOD9086169
Probable space group: P -1
;
_chemical_formula_sum "Si O2"
_cell_formula_units_Z 14
_cell_length_a 17.172450
_cell_length_b 9.269126
_cell_length_c 11.425800
_cell_angle_alpha 98.497549
_cell_angle_beta 44.257956
_cell_angle_gamma 134.085377
_cell_volume 651.779890
_symmetry_space_group_name_H-M "P -1"
_symmetry_group_IT_number 2
_symmetry_cell_setting 'triclinic'
loop_
_space_group_symop_operation_xyz
x,y,z
-x,-y,-z
loop_
_atom_site_type_symbol
_atom_site_label
_atom_site_fract_x
_atom_site_fract_y
_atom_site_fract_z
Si Si1 0.287064 0.185046 0.141668
Si Si2 0.564834 0.239389 0.798165
Si Si3 0.091398 0.223299 0.658907
Si Si4 0.386366 0.283782 0.440012
Si Si5 0.188377 0.876686 0.420350
Si Si6 0.827426 0.916359 0.119173
Si Si7 0.270206 0.687206 0.142610
O O1 0.099307 0.048558 0.252854
O O2 0.174444 0.983449 0.348665
O O3 0.500000 0.500000 0.000000
O O4 0.390378 0.169206 0.953408
O O5 0.641097 0.334401 0.864619
O O6 0.766705 0.498885 0.530177
O O7 0.431806 0.939900 0.906399
O O8 0.247424 0.265835 0.536845
O O9 0.966110 0.148014 0.896792
O O10 0.629663 0.607252 0.236381
O O11 0.283992 0.127193 0.657044
O O12 0.361706 0.126376 0.355710
O O13 0.226470 0.770521 0.294239
O O14 0.958045 0.608904 0.698578
O O15 0.000000 0.000000 0.000000
#
# Coordination Sequence:
#
# PCOD9086169 Si02
#       7
#     2   2   2   2   2   2   2
#     4  11  22  31  51  88 117 142 181 229 283 342
#     4  10  20  35  52  75 113 155 185 220 271 321
#     4  11  20  34  57  84 112 146 179 233 283 335
#     4  10  21  37  61  85 111 146 180 235 288 333
#     4  10  19  36  56  80 117 150 189 220 272 333
#     4   9  20  39  57  85 110 141 186 229 295 335
#     4   9  20  36  52  79 114 161 188 219 261 331
#
# _framework density 21.479642999999999
#
# number of rings (size 3 to 8) (size 9 to 14) (size 15 to 20)
#    0.000    2.000    1.429    2.571    2.000    1.143 
#    7.714    0.000    0.000    1.714    0.000    0.000 
#    0.000    0.000    0.000    0.000    0.000    0.000 
#
# Total GULP energy -78024.434021 kJ/mol
# GULP energy per Si atom -5573.173859 kJ/mol
# Density = 2.143075 g / cm^3
# Si number density = 21.479643 Si / 1000 Ang^3
#
#
#
# Elastic Constant Matrix: (Units=GPa)
#
#
# Indices 1 2 3 4 5 6 
#
# 1 88.3088 36.3698 43.7756 -16.4879 -13.1058 11.3895
# 2 36.3698 51.9510 31.0807 -9.5819 0.4067 12.0030
# 3 43.7756 31.0807 141.5193 -30.5193 28.9950 -3.0204
# 4 -16.4879 -9.5819 -30.5193 37.0926 1.9851 -3.0842
# 5 -13.1058 0.4067 28.9950 1.9851 50.1155 -8.3229
# 6 11.3895 12.0030 -3.0204 -3.0842 -8.3229 28.7554
#
#
#
# Elastic Compliance Matrix: (Units=1/GPa)
#
#
# Indices 1 2 3 4 5 6 
#
# 1 0.019739 -0.010088 -0.005292 0.001245 0.007970 -0.001723
# 2 -0.010088 0.030565 -0.003247 0.000061 -0.002648 -0.009864
# 3 -0.005292 -0.003247 0.013054 0.008281 -0.008708 0.003190
# 4 0.001245 0.000061 0.008281 0.034842 -0.005428 0.002517
# 5 0.007970 -0.002648 -0.008708 -0.005428 0.028073 0.004577
# 6 -0.001723 -0.009864 0.003190 0.002517 0.004577 0.041506
#
#
# Mechanical properties :
#
#
# Convention : Reuss Voigt Hill
#
# Bulk Modulus (GPa) = 38.30633 56.02569 47.16601
# Shear Modulus (GPa) = 23.39358 34.56289 28.97823
#
# Velocity S-wave (km/s) = 3.30374 4.01571 3.67700
# Velocity P-wave (km/s) = 5.69433 6.90225 6.32718
#
# Compressibility (1/GPa) = 0.02610535
#
# Stress axis : x y z
#
# Youngs Moduli (GPa) = 50.66101 32.71735 76.60311
#
# Poissons Ratio (x) = 0.33005 0.40535
# Poissons Ratio (y) = 0.51106 0.24873
# Poissons Ratio (z) = 0.26808 0.10623
#
# Static dielectric constant tensor:
#      x y z
#    x 1.835200 -0.012050 -0.035570 
#    y -0.012050 1.793280 0.006670 
#    z -0.035570 0.006670 1.896100 
# 
# From -- ./inp_files/461358.got.cif
#   From: 2010.05.17/outbox.cif.g08.bks.cpg/sg2_231_cif.got.tgz:461358.got - 2010.06.03 11:33:40.
