data_PCOD9086355
_publ_section_title
;
Structure prediction by ZEFSAII (Michael W. Deem and Ramdas Pophale) SiO2 
 PCOD9086355
Probable space group: P -1
;
_chemical_formula_sum "Si O2"
_cell_formula_units_Z 16
_cell_length_a 10.186492
_cell_length_b 7.930182
_cell_length_c 18.085435
_cell_angle_alpha 33.796793
_cell_angle_beta 59.547706
_cell_angle_gamma 60.044585
_cell_volume 691.183769
_symmetry_space_group_name_H-M "P -1"
_symmetry_group_IT_number 2
_symmetry_cell_setting 'triclinic'
loop_
_space_group_symop_operation_xyz
x,y,z
-x,-y,-z
loop_
_atom_site_type_symbol
_atom_site_label
_atom_site_fract_x
_atom_site_fract_y
_atom_site_fract_z
Si Si1 0.156246 0.948289 0.385296
Si Si2 0.682280 0.995762 0.362267
Si Si3 0.866289 0.801253 0.094070
Si Si4 0.012595 0.177392 0.199700
Si Si5 0.221442 0.890107 0.131899
Si Si6 0.503024 0.171091 0.658180
Si Si7 0.452353 0.521919 0.316088
Si Si8 0.052940 0.490202 0.681837
O O1 0.323817 0.015834 0.333212
O O2 0.137879 0.619857 0.542765
O O3 0.123610 0.965292 0.302366
O O4 0.027148 0.206504 0.362410
O O5 0.860106 0.024160 0.289826
O O6 0.597708 0.295985 0.321848
O O7 0.606790 0.989022 0.304864
O O8 0.646152 0.708728 0.527723
O O9 0.951861 0.502340 0.135801
O O10 0.829999 0.697010 0.224920
O O11 0.745518 0.992537 0.002453
O O12 0.000000 0.000000 0.000000
O O13 0.125672 0.181035 0.096924
O O14 0.358032 0.709777 0.207816
O O15 0.087549 0.679480 0.238382
O O16 0.500000 0.500000 0.500000
O O17 0.498355 0.252733 0.717052
#
# Coordination Sequence:
#
# PCOD9086355 Si02
#       8
#     2   2   2   2   2   2   2   2
#     4  10  19  36  57  92 121 154 199 249 309 363
#     4  10  23  39  58  92 133 160 195 253 315 367
#     4   9  21  40  56  88 118 161 203 252 308 359
#     4  11  22  37  64  91 121 150 208 260 300 358
#     4  11  20  36  63  87 118 161 208 251 298 362
#     4  10  21  35  56  85 130 163 193 235 312 379
#     4  10  21  39  61  88 130 169 195 242 316 379
#     4   9  20  32  59  89 121 150 199 263 299 352
#
# _framework density 23.148693000000002
#
# number of rings (size 3 to 8) (size 9 to 14) (size 15 to 20)
#    0.000    2.000    1.250    1.875    3.500    9.000 
#    2.250    0.625    0.000    0.750    0.000    0.000 
#    0.000    0.000    0.000    0.000    0.000    0.000 
#
# Total GULP energy -89350.479637 kJ/mol
# GULP energy per Si atom -5584.404977 kJ/mol
# Density = 2.309601 g / cm^3
# Si number density = 23.148693 Si / 1000 Ang^3
#
#
#
# Elastic Constant Matrix: (Units=GPa)
#
#
# Indices 1 2 3 4 5 6 
#
# 1 139.7969 -1.8404 52.0922 8.0579 37.3432 1.8256
# 2 -1.8404 47.9934 19.7290 7.2442 10.4704 7.1933
# 3 52.0922 19.7290 68.4722 -0.0740 32.0038 8.7265
# 4 8.0579 7.2442 -0.0740 19.6897 12.2825 1.2468
# 5 37.3432 10.4704 32.0038 12.2825 48.2054 1.7460
# 6 1.8256 7.1933 8.7265 1.2468 1.7460 39.5193
#
#
#
# Elastic Compliance Matrix: (Units=1/GPa)
#
#
# Indices 1 2 3 4 5 6 
#
# 1 0.011743 0.005561 -0.009321 -0.005174 -0.002827 0.000792
# 2 0.005561 0.028394 -0.012925 -0.013672 0.001669 -0.002214
# 3 -0.009321 -0.012925 0.034292 0.020015 -0.017670 -0.004640
# 4 -0.005174 -0.013672 0.020015 0.073795 -0.025008 -0.002915
# 5 -0.002827 0.001669 -0.017670 -0.025008 0.040576 0.002725
# 6 0.000792 -0.002214 -0.004640 -0.002915 0.002725 0.026667
#
#
# Mechanical properties :
#
#
# Convention : Reuss Voigt Hill
#
# Bulk Modulus (GPa) = 24.35567 44.02491 34.19029
# Shear Modulus (GPa) = 19.04600 33.90167 26.47384
#
# Velocity S-wave (km/s) = 2.87150 3.83105 3.38545
# Velocity P-wave (km/s) = 4.64094 6.21521 5.48485
#
# Compressibility (1/GPa) = 0.04105820
#
# Stress axis : x y z
#
# Youngs Moduli (GPa) = 85.15920 35.21904 29.16149
#
# Poissons Ratio (x) = -0.19585 0.27182
# Poissons Ratio (y) = -0.47356 0.37690
# Poissons Ratio (z) = 0.79379 0.45520
#
# Static dielectric constant tensor:
#      x y z
#    x 1.852430 0.028010 0.022870 
#    y 0.028010 1.923960 0.016460 
#    z 0.022870 0.016460 1.885710 
# 
# From -- ./inp_files/499906.got.cif
#   From: 2010.05.17/outbox.cif.g08.bks.cpg/sg2_250_cif.got.tgz:499906.got - 2010.06.03 11:33:40.
