data_PCOD9086758
_publ_section_title
;
Structure prediction by ZEFSAII (Michael W. Deem and Ramdas Pophale) SiO2 
 PCOD9086758
Probable space group: P -1
;
_chemical_formula_sum "Si O2"
_cell_formula_units_Z 16
_cell_length_a 7.068099
_cell_length_b 7.644798
_cell_length_c 17.581123
_cell_angle_alpha 81.749781
_cell_angle_beta 116.641492
_cell_angle_gamma 58.505033
_cell_volume 628.844495
_symmetry_space_group_name_H-M "P -1"
_symmetry_group_IT_number 2
_symmetry_cell_setting 'triclinic'
loop_
_space_group_symop_operation_xyz
x,y,z
-x,-y,-z
loop_
_atom_site_type_symbol
_atom_site_label
_atom_site_fract_x
_atom_site_fract_y
_atom_site_fract_z
Si Si1 0.971245 0.132644 0.909361
Si Si2 0.394619 0.920469 0.232880
Si Si3 0.713091 0.151150 0.362892
Si Si4 0.998315 0.468410 0.634337
Si Si5 0.166848 0.635854 0.519966
Si Si6 0.214379 0.381815 0.137343
Si Si7 0.390058 0.698779 0.907757
Si Si8 0.060860 0.165154 0.302260
O O1 0.981952 0.338310 0.904641
O O2 0.680449 0.222724 0.812321
O O3 0.201688 0.943522 0.902306
O O4 0.000000 0.000000 0.000000
O O5 0.173803 0.193138 0.145336
O O6 0.313808 0.959994 0.305770
O O7 0.714439 0.792810 0.273206
O O8 0.644501 0.320058 0.409114
O O9 0.448292 0.269890 0.253794
O O10 0.966427 0.095570 0.360232
O O11 0.856847 0.898056 0.438612
O O12 0.133543 0.510024 0.587618
O O13 0.894315 0.663312 0.666655
O O14 0.778777 0.472269 0.547002
O O15 0.355310 0.345617 0.084851
O O16 0.211495 0.697976 0.810396
O O17 0.500000 0.500000 0.000000
#
# Coordination Sequence:
#
# PCOD9086758 Si02
#       8
#     2   2   2   2   2   2   2   2
#     4  11  23  40  62  87 122 154 197 249 296 352
#     4  11  23  40  61  89 121 157 201 246 297 352
#     4   9  17  36  59  85 118 159 195 241 300 347
#     4  10  19  36  60  86 118 157 195 246 299 343
#     4   9  17  32  62  84 114 158 198 239 296 357
#     4  11  22  40  65  87 118 164 197 242 298 357
#     4  10  20  39  62  86 117 155 197 244 299 354
#     4   9  21  37  58  83 121 154 195 248 299 349
#
# _framework density 25.443490000000001
#
# number of rings (size 3 to 8) (size 9 to 14) (size 15 to 20)
#    0.000    2.000    2.500    2.250    0.000    1.500 
#    2.250    6.875    0.000    0.000    0.000    0.000 
#    0.000    0.000    0.000    0.000    0.000    0.000 
#
# Total GULP energy -89399.524151 kJ/mol
# GULP energy per Si atom -5587.470259 kJ/mol
# Density = 2.538558 g / cm^3
# Si number density = 25.443490 Si / 1000 Ang^3
#
#
#
# Elastic Constant Matrix: (Units=GPa)
#
#
# Indices 1 2 3 4 5 6 
#
# 1 57.0664 18.9758 4.5298 6.3652 -12.5514 -4.0824
# 2 18.9758 119.5864 41.3298 25.8314 -9.8134 8.2079
# 3 4.5298 41.3298 94.3073 14.7943 -4.9804 5.4605
# 4 6.3652 25.8314 14.7943 48.1541 13.7436 -6.9495
# 5 -12.5514 -9.8134 -4.9804 13.7436 31.0353 10.2337
# 6 -4.0824 8.2079 5.4605 -6.9495 10.2337 40.2849
#
#
#
# Elastic Compliance Matrix: (Units=1/GPa)
#
#
# Indices 1 2 3 4 5 6 
#
# 1 0.020934 -0.001444 0.001238 -0.005846 0.011338 -0.001641
# 2 -0.001444 0.012892 -0.003296 -0.009206 0.009093 -0.006224
# 3 0.001238 -0.003296 0.012992 -0.003978 0.004201 -0.002718
# 4 -0.005846 -0.009206 -0.003978 0.037842 -0.027750 0.015400
# 5 0.011338 0.009093 0.004201 -0.027750 0.059639 -0.021210
# 6 -0.001641 -0.006224 -0.002718 0.015400 -0.021210 0.034338
#
#
# Mechanical properties :
#
#
# Convention : Reuss Voigt Hill
#
# Bulk Modulus (GPa) = 25.11647 44.51454 34.81550
# Shear Modulus (GPa) = 25.13676 37.63652 31.38664
#
# Velocity S-wave (km/s) = 3.14657 3.85024 3.51605
# Velocity P-wave (km/s) = 4.80563 6.10731 5.49515
#
# Compressibility (1/GPa) = 0.03981452
#
# Stress axis : x y z
#
# Youngs Moduli (GPa) = 47.76990 77.56617 76.97100
#
# Poissons Ratio (x) = 0.11199 -0.09530
# Poissons Ratio (y) = 0.06897 0.25369
# Poissons Ratio (z) = -0.05914 0.25565
#
# Static dielectric constant tensor:
#      x y z
#    x 2.268300 0.054360 0.005600 
#    y 0.054360 2.010510 -0.011860 
#    z 0.005600 -0.011860 2.054160 
# 
# From -- ./inp_files/208489.got.cif
#   From: 2010.05.17/outbox.cif.g08.bks.cpg/sg2_105_cif.got.tgz:208489.got - 2010.06.03 11:33:40.
