data_PCOD9086466
_publ_section_title
;
Structure prediction by ZEFSAII (Michael W. Deem and Ramdas Pophale) SiO2 
 PCOD9086466
Probable space group: P -1
;
_chemical_formula_sum "Si O2"
_cell_formula_units_Z 14
_cell_length_a 11.781188
_cell_length_b 9.418453
_cell_length_c 12.899590
_cell_angle_alpha 37.602146
_cell_angle_beta 44.781945
_cell_angle_gamma 65.439046
_cell_volume 578.276986
_symmetry_space_group_name_H-M "P -1"
_symmetry_group_IT_number 2
_symmetry_cell_setting 'triclinic'
loop_
_space_group_symop_operation_xyz
x,y,z
-x,-y,-z
loop_
_atom_site_type_symbol
_atom_site_label
_atom_site_fract_x
_atom_site_fract_y
_atom_site_fract_z
Si Si1 0.881580 0.310402 0.955384
Si Si2 0.747542 0.499717 0.422705
Si Si3 0.453645 0.808580 0.862664
Si Si4 0.553826 0.357407 0.427962
Si Si5 0.730441 0.040159 0.396792
Si Si6 0.635373 0.942810 0.870790
Si Si7 0.047177 0.184602 0.263780
O O1 0.933856 0.544042 0.864364
O O2 0.061118 0.320939 0.784294
O O3 0.741291 0.343883 0.948097
O O4 0.788420 0.065551 0.226005
O O5 0.687464 0.520110 0.331605
O O6 0.592907 0.535142 0.568275
O O7 0.742629 0.219831 0.601199
O O8 0.539130 0.775645 0.933091
O O9 0.461023 0.095286 0.699665
O O10 0.581796 0.816552 0.678701
O O11 0.648542 0.258606 0.336030
O O12 0.896239 0.099086 0.327444
O O13 0.774526 0.830049 0.888065
O O14 0.500000 0.000000 0.000000
O O15 0.000000 0.000000 0.500000
#
# Coordination Sequence:
#
# PCOD9086466 Si02
#       7
#     2   2   2   2   2   2   2
#     4  12  22  35  67  92 123 160 198 253 310 352
#     4  10  19  36  58  87 116 160 206 245 291 351
#     4   9  21  41  57  92 129 149 204 252 307 354
#     4   8  18  36  57  78 128 146 199 248 291 344
#     4  10  21  39  60  93 118 158 204 245 301 359
#     4  11  24  41  62  84 119 170 204 244 300 366
#     4  12  21  41  62  89 125 157 211 252 286 365
#
# _framework density 24.209851
#
# number of rings (size 3 to 8) (size 9 to 14) (size 15 to 20)
#    0.857    0.857    4.286    0.857    2.000    3.429 
#    0.000    0.714    0.000    0.000    0.000    0.000 
#    0.000    0.000    0.000    0.000    0.000    0.000 
#
# Total GULP energy -78173.431595 kJ/mol
# GULP energy per Si atom -5583.816542 kJ/mol
# Density = 2.415475 g / cm^3
# Si number density = 24.209851 Si / 1000 Ang^3
#
#
#
# Elastic Constant Matrix: (Units=GPa)
#
#
# Indices 1 2 3 4 5 6 
#
# 1 114.1393 24.8656 43.2046 16.1903 -36.8029 -8.2460
# 2 24.8656 68.0931 28.7046 14.4030 -9.1882 -27.6150
# 3 43.2046 28.7046 101.3585 32.8480 -27.4619 -1.1473
# 4 16.1903 14.4030 32.8480 41.7288 -10.8382 -8.3056
# 5 -36.8029 -9.1882 -27.4619 -10.8382 52.9959 8.3217
# 6 -8.2460 -27.6150 -1.1473 -8.3056 8.3217 32.7892
#
#
#
# Elastic Compliance Matrix: (Units=1/GPa)
#
#
# Indices 1 2 3 4 5 6 
#
# 1 0.012606 -0.003101 -0.002497 -0.000295 0.007083 -0.001401
# 2 -0.003101 0.028138 -0.008220 0.001486 -0.005044 0.024287
# 3 -0.002497 -0.008220 0.018406 -0.011416 0.005814 -0.011274
# 4 -0.000295 0.001486 -0.011416 0.034370 -0.000337 0.009569
# 5 0.007083 -0.005044 0.005814 -0.000337 0.027315 -0.009281
# 6 -0.001401 0.024287 -0.011274 0.009569 -0.009281 0.054984
#
#
# Mechanical properties :
#
#
# Convention : Reuss Voigt Hill
#
# Bulk Modulus (GPa) = 31.73181 53.01561 42.37371
# Shear Modulus (GPa) = 23.36904 37.95721 30.66312
#
# Velocity S-wave (km/s) = 3.11025 3.96389 3.56273
# Velocity P-wave (km/s) = 5.10232 6.54949 5.87067
#
# Compressibility (1/GPa) = 0.03151412
#
# Stress axis : x y z
#
# Youngs Moduli (GPa) = 79.32649 35.53941 54.33152
#
# Poissons Ratio (x) = 0.11021 0.13565
# Poissons Ratio (y) = 0.24600 0.44660
# Poissons Ratio (z) = 0.19805 0.29213
#
# Static dielectric constant tensor:
#      x y z
#    x 1.910190 -0.011010 0.031790 
#    y -0.011010 1.936170 -0.014740 
#    z 0.031790 -0.014740 2.037150 
# 
# From -- ./inp_files/518656.got.cif
#   From: 2010.05.17/outbox.cif.g08.bks.cpg/sg2_260_cif.got.tgz:518656.got - 2010.06.03 11:33:40.
