data_PCOD9086911
_publ_section_title
;
Structure prediction by ZEFSAII (Michael W. Deem and Ramdas Pophale) SiO2 
 PCOD9086911
Probable space group: P -1
;
_chemical_formula_sum "Si O2"
_cell_formula_units_Z 16
_cell_length_a 24.339081
_cell_length_b 14.769067
_cell_length_c 18.245046
_cell_angle_alpha 21.392898
_cell_angle_beta 20.678389
_cell_angle_gamma 31.657057
_cell_volume 834.609343
_symmetry_space_group_name_H-M "P -1"
_symmetry_group_IT_number 2
_symmetry_cell_setting 'triclinic'
loop_
_space_group_symop_operation_xyz
x,y,z
-x,-y,-z
loop_
_atom_site_type_symbol
_atom_site_label
_atom_site_fract_x
_atom_site_fract_y
_atom_site_fract_z
Si Si1 0.663154 0.333769 0.743428
Si Si2 0.917331 0.206091 0.242011
Si Si3 0.194967 0.882157 0.022186
Si Si4 0.611238 0.342909 0.170636
Si Si5 0.089119 0.367494 0.354322
Si Si6 0.017878 0.328536 0.867415
Si Si7 0.249602 0.548469 0.612759
Si Si8 0.413222 0.099397 0.721011
O O1 0.545918 0.539961 0.738902
O O2 0.835144 0.449159 0.471548
O O3 0.693717 0.290343 0.651936
O O4 0.591747 0.102110 0.057090
O O5 0.785788 0.288115 0.397187
O O6 0.917595 0.906964 0.467832
O O7 0.908767 0.287822 0.106432
O O8 0.084824 0.364002 0.939822
O O9 0.060642 0.660796 0.383491
O O10 0.324147 0.795623 0.873677
O O11 0.102082 0.080856 0.947413
O O12 0.279148 0.001266 0.901340
O O13 0.567608 0.160651 0.432057
O O14 0.748980 0.563085 0.856765
O O15 0.072725 0.587318 0.151967
O O16 0.374051 0.357539 0.609853
#
# Coordination Sequence:
#
# PCOD9086911 Si02
#       8
#     2   2   2   2   2   2   2   2
#     4  10  20  37  59  83 114 150 187 231 277 334
#     4   9  18  34  60  84 116 143 185 233 282 328
#     4  11  21  39  59  80 115 152 190 234 275 330
#     4  11  25  37  56  85 117 148 190 233 282 331
#     4  11  22  39  57  86 116 147 186 236 282 330
#     4  10  19  36  61  82 114 147 190 233 276 330
#     4   9  17  35  59  89 109 144 189 234 272 335
#     4  11  20  37  58  84 115 148 190 233 274 333
#
# _framework density 19.170646000000001
#
# number of rings (size 3 to 8) (size 9 to 14) (size 15 to 20)
#    0.000    1.750    6.250    0.750    0.000    5.000 
#    0.000    6.250    0.000    4.500    0.000    0.000 
#    0.000    0.000    0.000    0.000    0.000    0.000 
#
# Total GULP energy -89221.931127 kJ/mol
# GULP energy per Si atom -5576.370695 kJ/mol
# Density = 1.912701 g / cm^3
# Si number density = 19.170646 Si / 1000 Ang^3
#
#
#
# Elastic Constant Matrix: (Units=GPa)
#
#
# Indices 1 2 3 4 5 6 
#
# 1 40.8622 50.9002 39.9737 2.7077 24.4671 5.2245
# 2 50.9002 93.5057 28.0457 10.4530 32.4754 31.9962
# 3 39.9737 28.0457 56.8868 -0.7696 18.9761 2.6397
# 4 2.7077 10.4530 -0.7696 21.5386 -2.5578 16.3024
# 5 24.4671 32.4754 18.9761 -2.5578 35.0027 1.8368
# 6 5.2245 31.9962 2.6397 16.3024 1.8368 25.4895
#
#
#
# Elastic Compliance Matrix: (Units=1/GPa)
#
#
# Indices 1 2 3 4 5 6 
#
# 1 -0.090462 0.084361 0.036774 0.071364 -0.022665 -0.135172
# 2 0.084361 -0.032162 -0.042496 -0.037450 -0.011570 0.052267
# 3 0.036774 -0.042496 0.008014 -0.033244 0.003485 0.065988
# 4 0.071364 -0.037450 -0.033244 0.055297 0.006928 -0.000041
# 5 -0.022665 -0.011570 0.003485 0.006928 0.053210 0.010543
# 6 -0.135172 0.052267 0.065988 -0.000041 0.010543 -0.006239
#
#
# Mechanical properties :
#
#
# Convention : Reuss Voigt Hill
#
# Bulk Modulus (GPa) = 23.43603 47.67710 35.55656
# Shear Modulus (GPa) = -32.17580 21.22852 -5.47364
#
# Velocity S-wave (km/s) = -4.10126 3.33129 -1.69157
# Velocity P-wave (km/s) = 3.18992 6.30242 3.84349
#
# Compressibility (1/GPa) = 0.04266935
#
# Stress axis : x y z
#
# Youngs Moduli (GPa) = -11.05433 -31.09285 124.77474
#
# Poissons Ratio (x) = 2.62303 -4.58851
# Poissons Ratio (y) = 0.93256 5.30244
# Poissons Ratio (z) = 0.40652 -1.32132
#
# Static dielectric constant tensor:
#      x y z
#    x 1.659990 0.010200 -0.002040 
#    y 0.010200 1.656810 -0.002270 
#    z -0.002040 -0.002270 1.694940 
# 
# From -- ./inp_files/47945.got.cif
#   From: 2010.05.17/outbox.cif.g08.bks.cpg/sg2_24_cif.got.tgz:47945.got - 2010.06.03 11:33:40.
