data_PCOD9086072
_publ_section_title
;
Structure prediction by ZEFSAII (Michael W. Deem and Ramdas Pophale) SiO2 
 PCOD9086072
Probable space group: P -1
;
_chemical_formula_sum "Si O2"
_cell_formula_units_Z 16
_cell_length_a 22.918242
_cell_length_b 5.155988
_cell_length_c 15.847422
_cell_angle_alpha 85.633311
_cell_angle_beta 159.819344
_cell_angle_gamma 100.335398
_cell_volume 611.607946
_symmetry_space_group_name_H-M "P -1"
_symmetry_group_IT_number 2
_symmetry_cell_setting 'triclinic'
loop_
_space_group_symop_operation_xyz
x,y,z
-x,-y,-z
loop_
_atom_site_type_symbol
_atom_site_label
_atom_site_fract_x
_atom_site_fract_y
_atom_site_fract_z
Si Si1 0.276292 0.584509 0.237217
Si Si2 0.267312 0.244993 0.594502
Si Si3 0.629718 0.308920 0.129799
Si Si4 0.219490 0.231528 0.799642
Si Si5 0.417957 0.956689 0.178199
Si Si6 0.033922 0.895442 0.411525
Si Si7 0.660630 0.576501 0.499838
Si Si8 0.294167 0.110570 0.178607
O O1 0.229839 0.415606 0.265394
O O2 0.220745 0.362368 0.092336
O O3 0.491935 0.733727 0.521840
O O4 0.215414 0.851927 0.139543
O O5 0.330787 0.512576 0.734560
O O6 0.256306 0.299592 0.479641
O O7 0.079166 0.050587 0.380435
O O8 0.425756 0.115201 0.839520
O O9 0.636324 0.520514 0.055265
O O10 0.806194 0.227737 0.359441
O O11 0.142666 0.307708 0.781307
O O12 0.074967 0.135885 0.531712
O O13 0.303396 0.992878 0.942233
O O14 0.572260 0.250511 0.377593
O O15 0.297987 0.972625 0.096179
O O16 0.511458 0.724293 0.314548
#
# Coordination Sequence:
#
# PCOD9086072 Si02
#       8
#     2   2   2   2   2   2   2   2
#     4   9  16  29  47  73 106 141 162 214 265 323
#     4  10  21  32  51  79 102 142 174 223 265 320
#     4  10  19  36  53  72 104 137 179 226 266 316
#     4  10  21  35  52  77 100 142 186 220 269 310
#     4  11  21  33  52  81 108 142 176 224 260 325
#     4  10  21  36  53  71 106 142 182 224 266 317
#     4  11  21  32  53  80 112 138 180 214 270 320
#     4   9  16  29  47  72 108 136 170 206 274 312
#
# _framework density 26.160551000000002
#
# number of rings (size 3 to 8) (size 9 to 14) (size 15 to 20)
#    0.000    2.000    1.250    5.250    1.750    0.000 
#    0.000    0.000    0.000    0.000    0.000    1.750 
#    0.000    0.000    0.000    0.125    0.000    0.000 
#
# Total GULP energy -89251.447652 kJ/mol
# GULP energy per Si atom -5578.215478 kJ/mol
# Density = 2.610101 g / cm^3
# Si number density = 26.160551 Si / 1000 Ang^3
#
#
#
# Elastic Constant Matrix: (Units=GPa)
#
#
# Indices 1 2 3 4 5 6 
#
# 1 180.4077 43.9890 16.7221 0.4802 0.3321 25.1084
# 2 43.9890 73.9723 4.9454 -11.6329 -4.0483 -14.5678
# 3 16.7221 4.9454 32.7769 0.4296 -1.1533 -9.0458
# 4 0.4802 -11.6329 0.4296 25.4043 1.9890 -8.3051
# 5 0.3321 -4.0483 -1.1533 1.9890 38.5704 2.3452
# 6 25.1084 -14.5678 -9.0458 -8.3051 2.3452 24.9970
#
#
#
# Elastic Compliance Matrix: (Units=1/GPa)
#
#
# Indices 1 2 3 4 5 6 
#
# 1 0.023426 -0.029437 -0.023720 -0.033410 0.001401 -0.060501
# 2 -0.029437 0.055745 0.031219 0.055746 -0.001431 0.092008
# 3 -0.023720 0.031219 0.058358 0.038761 -0.001403 0.076147
# 4 -0.033410 0.055746 0.038761 0.102745 -0.004973 0.114676
# 5 0.001401 -0.001431 -0.001403 -0.004973 0.026397 -0.006878
# 6 -0.060501 0.092008 0.076147 0.114676 -0.006878 0.220698
#
#
# Mechanical properties :
#
#
# Convention : Reuss Voigt Hill
#
# Bulk Modulus (GPa) = 10.67773 46.49665 28.58719
# Shear Modulus (GPa) = 8.88948 32.56104 20.72526
#
# Velocity S-wave (km/s) = 1.84538 3.53180 2.81772
# Velocity P-wave (km/s) = 2.93786 5.86887 4.64084
#
# Compressibility (1/GPa) = 0.09365291
#
# Stress axis : x y z
#
# Youngs Moduli (GPa) = 42.68784 17.93890 17.13555
#
# Poissons Ratio (x) = 0.52807 0.40645
# Poissons Ratio (y) = 1.25660 -0.53495
# Poissons Ratio (z) = 1.01255 -0.56003
#
# Static dielectric constant tensor:
#      x y z
#    x 2.132080 0.103410 0.004780 
#    y 0.103410 2.220900 -0.001450 
#    z 0.004780 -0.001450 2.185240 
# 
# From -- ./inp_files/539775.got.cif
#   From: 2010.05.17/outbox.cif.g08.bks.cpg/sg2_270_cif.got.tgz:539775.got - 2010.06.03 11:33:40.
