data_PCOD9086261
_publ_section_title
;
Structure prediction by ZEFSAII (Michael W. Deem and Ramdas Pophale) SiO2 
 PCOD9086261
Probable space group: P -1
;
_chemical_formula_sum "Si O2"
_cell_formula_units_Z 14
_cell_length_a 21.707541
_cell_length_b 8.823470
_cell_length_c 12.483682
_cell_angle_alpha 77.211784
_cell_angle_beta 28.256140
_cell_angle_gamma 58.571063
_cell_volume 780.524555
_symmetry_space_group_name_H-M "P -1"
_symmetry_group_IT_number 2
_symmetry_cell_setting 'triclinic'
loop_
_space_group_symop_operation_xyz
x,y,z
-x,-y,-z
loop_
_atom_site_type_symbol
_atom_site_label
_atom_site_fract_x
_atom_site_fract_y
_atom_site_fract_z
Si Si1 0.277787 0.367980 0.260936
Si Si2 0.638171 0.749183 0.291451
Si Si3 0.323770 0.456837 0.945027
Si Si4 0.551293 0.290102 0.003743
Si Si5 0.556927 0.296243 0.247197
Si Si6 0.114741 0.199937 0.438035
Si Si7 0.114133 0.220889 0.183998
O O1 0.356377 0.361094 0.028309
O O2 0.427339 0.264278 0.139471
O O3 0.195087 0.267480 0.379910
O O4 0.102190 0.624557 0.519386
O O5 0.607281 0.641611 0.442648
O O6 0.500000 0.000000 0.500000
O O7 0.592091 0.717478 0.250963
O O8 0.827776 0.680936 0.992254
O O9 0.101582 0.646792 0.239454
O O10 0.402726 0.562747 0.803184
O O11 0.517604 0.322210 0.177049
O O12 0.500000 0.500000 0.000000
O O13 0.761816 0.058260 0.699871
O O14 0.744821 0.036945 0.016821
O O15 0.139151 0.235040 0.270936
#
# Coordination Sequence:
#
# PCOD9086261 Si02
#       7
#     2   2   2   2   2   2   2
#     4  11  19  35  59  82 112 140 180 227 273 323
#     4  10  19  36  57  82 110 138 185 229 267 319
#     4  11  19  35  60  84 108 138 186 229 273 313
#     4  11  23  36  52  84 118 142 176 222 277 327
#     4  10  22  34  55  84 113 146 174 222 276 324
#     4  10  20  34  58  84 108 141 183 228 270 317
#     4   9  18  34  58  85 107 138 183 228 269 318
#
# _framework density 17.936654999999998
#
# number of rings (size 3 to 8) (size 9 to 14) (size 15 to 20)
#    0.000    1.714    4.286    1.714    2.000    1.714 
#    0.000    0.714    0.000    0.857    0.000    0.000 
#    0.000    0.000    0.000    0.000    0.000    0.000 
#
# Total GULP energy -78052.464000 kJ/mol
# GULP energy per Si atom -5575.176000 kJ/mol
# Density = 1.789583 g / cm^3
# Si number density = 17.936655 Si / 1000 Ang^3
#
#
#
# Elastic Constant Matrix: (Units=GPa)
#
#
# Indices 1 2 3 4 5 6 
#
# 1 78.1283 25.1417 35.2955 -1.8599 4.2676 12.7906
# 2 25.1417 79.5013 31.4725 -13.7086 7.8114 4.1103
# 3 35.2955 31.4725 67.6313 -2.2275 18.5359 -2.2298
# 4 -1.8599 -13.7086 -2.2275 29.7409 -1.6691 -1.7460
# 5 4.2676 7.8114 18.5359 -1.6691 25.1418 0.7405
# 6 12.7906 4.1103 -2.2298 -1.7460 0.7405 25.8859
#
#
#
# Elastic Compliance Matrix: (Units=1/GPa)
#
#
# Indices 1 2 3 4 5 6 
#
# 1 0.020102 -0.001920 -0.011634 -0.000798 0.006028 -0.010856
# 2 -0.001920 0.017252 -0.007042 0.007230 0.000694 -0.001929
# 3 -0.011634 -0.007042 0.029277 -0.002210 -0.017856 0.009750
# 4 -0.000798 0.007230 -0.002210 0.036937 0.001927 0.001492
# 5 0.006028 0.000694 -0.017856 0.001927 0.052004 -0.005985
# 6 -0.010856 -0.001929 0.009750 0.001492 -0.005985 0.045413
#
#
# Mechanical properties :
#
#
# Convention : Reuss Voigt Hill
#
# Bulk Modulus (GPa) = 39.30960 45.45337 42.38148
# Shear Modulus (GPa) = 19.94774 25.04383 22.49579
#
# Velocity S-wave (km/s) = 3.33847 3.74068 3.54528
# Velocity P-wave (km/s) = 6.06827 6.63724 6.35912
#
# Compressibility (1/GPa) = 0.02543908
#
# Stress axis : x y z
#
# Youngs Moduli (GPa) = 49.74607 57.96596 34.15682
#
# Poissons Ratio (x) = 0.11132 0.39737
# Poissons Ratio (y) = 0.09553 0.24052
# Poissons Ratio (z) = 0.57873 0.40817
#
# Static dielectric constant tensor:
#      x y z
#    x 1.598960 0.019530 0.004870 
#    y 0.019530 1.655960 0.003520 
#    z 0.004870 0.003520 1.620990 
# 
# From -- ./inp_files/159507.got.cif
#   From: 2010.05.17/outbox.cif.g08.bks.cpg/sg2_80_cif.got.tgz:159507.got - 2010.06.03 11:33:40.
