data_PCOD9086301
_publ_section_title
;
Structure prediction by ZEFSAII (Michael W. Deem and Ramdas Pophale) SiO2 
 PCOD9086301
Probable space group: P -1
;
_chemical_formula_sum "Si O2"
_cell_formula_units_Z 16
_cell_length_a 8.105586
_cell_length_b 17.736057
_cell_length_c 16.369176
_cell_angle_alpha 157.574583
_cell_angle_beta 134.142138
_cell_angle_gamma 53.460932
_cell_volume 634.066593
_symmetry_space_group_name_H-M "P -1"
_symmetry_group_IT_number 2
_symmetry_cell_setting 'triclinic'
loop_
_space_group_symop_operation_xyz
x,y,z
-x,-y,-z
loop_
_atom_site_type_symbol
_atom_site_label
_atom_site_fract_x
_atom_site_fract_y
_atom_site_fract_z
Si Si1 0.087496 0.902671 0.850938
Si Si2 0.356031 0.092739 0.611427
Si Si3 0.841133 0.579715 0.762722
Si Si4 0.024108 0.250998 0.850503
Si Si5 0.239416 0.831968 0.061434
Si Si6 0.454090 0.252309 0.312307
Si Si7 0.653881 0.511729 0.938943
Si Si8 0.272831 0.456945 0.616473
O O1 0.924203 0.002371 0.831982
O O2 0.987531 0.667749 0.582614
O O3 0.354319 0.014215 0.045419
O O4 0.000000 0.000000 0.000000
O O5 0.505030 0.074692 0.726980
O O6 0.500000 0.000000 0.500000
O O7 0.089243 0.981444 0.412967
O O8 0.384251 0.330525 0.847001
O O9 0.728151 0.343133 0.490373
O O10 0.678898 0.672368 0.735388
O O11 0.834878 0.669037 0.940272
O O12 0.103286 0.661865 0.905253
O O13 0.793612 0.350624 0.860743
O O14 0.177006 0.337184 0.912706
O O15 0.265445 0.694825 0.853691
O O16 0.367202 0.363059 0.473529
O O17 0.440108 0.426502 0.720125
#
# Coordination Sequence:
#
# PCOD9086301 Si02
#       8
#     2   2   2   2   2   2   2   2
#     4   9  19  34  57  84 112 146 188 239 282 334
#     4  11  22  39  61  89 119 150 196 244 293 353
#     4  10  19  36  57  84 116 156 184 239 295 336
#     4  11  21  40  61  85 125 152 196 244 288 358
#     4  10  21  37  58  86 113 152 191 235 297 340
#     4   9  19  35  60  82 114 154 196 231 289 344
#     4  10  23  38  63  90 113 161 195 238 299 347
#     4  10  19  38  61  84 115 149 195 237 283 354
#
# _framework density 25.233941000000002
#
# number of rings (size 3 to 8) (size 9 to 14) (size 15 to 20)
#    0.000    2.000    2.500    1.125    0.000    5.000 
#    2.250    0.625    0.000    4.500    0.000    0.000 
#    0.000    0.000    0.000    0.000    0.000    0.000 
#
# Total GULP energy -89368.299619 kJ/mol
# GULP energy per Si atom -5585.518726 kJ/mol
# Density = 2.517651 g / cm^3
# Si number density = 25.233941 Si / 1000 Ang^3
#
#
#
# Elastic Constant Matrix: (Units=GPa)
#
#
# Indices 1 2 3 4 5 6 
#
# 1 72.8206 -1.7382 17.5040 -0.5599 9.3387 8.4321
# 2 -1.7382 34.5388 38.5546 -2.2778 -8.7773 0.8971
# 3 17.5040 38.5546 156.9943 -31.2655 18.6980 13.8185
# 4 -0.5599 -2.2778 -31.2655 20.5854 -4.3242 3.8399
# 5 9.3387 -8.7773 18.6980 -4.3242 56.3373 2.3649
# 6 8.4321 0.8971 13.8185 3.8399 2.3649 24.1123
#
#
#
# Elastic Compliance Matrix: (Units=1/GPa)
#
#
# Indices 1 2 3 4 5 6 
#
# 1 0.014945 0.003237 -0.002586 -0.002796 -0.001191 -0.003303
# 2 0.003237 0.054129 -0.021381 -0.026016 0.012491 0.012025
# 3 -0.002586 -0.021381 0.019506 0.028280 -0.006646 -0.013330
# 4 -0.002796 -0.026016 0.028280 0.092936 -0.004641 -0.028606
# 5 -0.001191 0.012491 -0.006646 -0.004641 0.021644 0.002377
# 6 -0.003303 0.012025 -0.013330 -0.028606 0.002377 0.054142
#
#
# Mechanical properties :
#
#
# Convention : Reuss Voigt Hill
#
# Bulk Modulus (GPa) = 21.22232 41.44382 31.33307
# Shear Modulus (GPa) = 15.89988 34.20922 25.05455
#
# Velocity S-wave (km/s) = 2.51290 3.68595 3.15444
# Velocity P-wave (km/s) = 4.10464 5.88001 5.07063
#
# Compressibility (1/GPa) = 0.04712020
#
# Stress axis : x y z
#
# Youngs Moduli (GPa) = 66.91291 18.47425 51.26749
#
# Poissons Ratio (x) = -0.05980 0.13256
# Poissons Ratio (y) = -0.21660 1.09616
# Poissons Ratio (z) = 0.17301 0.39500
#
# Static dielectric constant tensor:
#      x y z
#    x 2.075310 0.027820 -0.029370 
#    y 0.027820 2.142380 0.015050 
#    z -0.029370 0.015050 2.012060 
# 
# From -- ./inp_files/347665.got.cif
#   From: 2010.05.17/outbox.cif.g08.bks.cpg/sg2_174_cif.got.tgz:347665.got - 2010.06.03 11:33:40.
