data_PCOD9086354
_publ_section_title
;
Structure prediction by ZEFSAII (Michael W. Deem and Ramdas Pophale) SiO2 
 PCOD9086354
Probable space group: P -1
;
_chemical_formula_sum "Si O2"
_cell_formula_units_Z 16
_cell_length_a 11.477633
_cell_length_b 10.287659
_cell_length_c 11.651908
_cell_angle_alpha 85.981063
_cell_angle_beta 51.554950
_cell_angle_gamma 120.063861
_cell_volume 770.799331
_symmetry_space_group_name_H-M "P -1"
_symmetry_group_IT_number 2
_symmetry_cell_setting 'triclinic'
loop_
_space_group_symop_operation_xyz
x,y,z
-x,-y,-z
loop_
_atom_site_type_symbol
_atom_site_label
_atom_site_fract_x
_atom_site_fract_y
_atom_site_fract_z
Si Si1 0.731748 0.212088 0.219396
Si Si2 0.031304 0.765418 0.302791
Si Si3 0.558597 0.906045 0.044139
Si Si4 0.812128 0.853194 0.537042
Si Si5 0.451566 0.608106 0.958382
Si Si6 0.755270 0.070461 0.418652
Si Si7 0.829235 0.292990 0.568239
Si Si8 0.078156 0.557652 0.125823
O O1 0.490942 0.082293 0.398898
O O2 0.874255 0.403458 0.186539
O O3 0.793364 0.120056 0.258079
O O4 0.776949 0.262952 0.055871
O O5 0.133525 0.805548 0.362893
O O6 0.012187 0.611769 0.266970
O O7 0.838129 0.735728 0.456159
O O8 0.193614 0.940215 0.111819
O O9 0.406241 0.807077 0.252795
O O10 0.503089 0.749198 0.011077
O O11 0.500000 0.000000 0.000000
O O12 0.604641 0.717445 0.749121
O O13 0.829181 0.980125 0.428179
O O14 0.000000 0.000000 0.500000
O O15 0.500000 0.500000 0.000000
O O16 0.220225 0.516296 0.067653
O O17 0.839773 0.240568 0.437490
O O18 0.000000 0.500000 0.500000
#
# Coordination Sequence:
#
# PCOD9086354 Si02
#       8
#     2   2   2   2   2   2   2   2
#     4  10  24  41  69  86 123 192 227 265 303 389
#     4  11  22  37  66  96 128 172 208 274 344 389
#     4  10  19  36  57  91 131 168 201 254 340 395
#     4  12  23  39  63  99 136 169 201 281 353 392
#     4  12  25  38  64 100 139 164 206 283 345 395
#     4  11  22  42  63  96 131 171 230 261 326 402
#     4  11  21  33  63  98 132 154 212 284 328 388
#     4  11  22  45  66  94 130 172 233 265 322 400
#
# _framework density 20.757673
#
# number of rings (size 3 to 8) (size 9 to 14) (size 15 to 20)
#    0.000    1.000    6.250    2.250    3.500    0.000 
#    0.000    1.250    0.000    0.000    0.000    0.000 
#    0.000    0.000    0.000    0.000    0.000    0.000 
#
# Total GULP energy -89129.894540 kJ/mol
# GULP energy per Si atom -5570.618409 kJ/mol
# Density = 2.071043 g / cm^3
# Si number density = 20.757673 Si / 1000 Ang^3
#
#
#
# Elastic Constant Matrix: (Units=GPa)
#
#
# Indices 1 2 3 4 5 6 
#
# 1 86.3061 26.3546 18.1135 8.4971 9.5099 -17.0910
# 2 26.3546 71.2319 23.6589 9.4468 -16.7990 -14.2641
# 3 18.1135 23.6589 100.6388 10.1514 -6.1568 -6.9061
# 4 8.4971 9.4468 10.1514 37.3741 0.4067 -7.2925
# 5 9.5099 -16.7990 -6.1568 0.4067 37.1180 -9.6633
# 6 -17.0910 -14.2641 -6.9061 -7.2925 -9.6633 33.5786
#
#
#
# Elastic Compliance Matrix: (Units=1/GPa)
#
#
# Indices 1 2 3 4 5 6 
#
# 1 0.014964 -0.005729 -0.001406 -0.000922 -0.005868 0.003005
# 2 -0.005729 0.022421 -0.002545 -0.001948 0.013716 0.009609
# 3 -0.001406 -0.002545 0.011086 -0.001985 0.001171 0.000389
# 4 -0.000922 -0.001948 -0.001985 0.028884 -0.000110 0.004536
# 5 -0.005868 0.013716 0.001171 -0.000110 0.038530 0.014145
# 6 0.003005 0.009609 0.000389 0.004536 0.014145 0.040528
#
#
# Mechanical properties :
#
#
# Convention : Reuss Voigt Hill
#
# Bulk Modulus (GPa) = 34.35161 43.82564 39.08862
# Shear Modulus (GPa) = 26.95767 34.28412 30.62089
#
# Velocity S-wave (km/s) = 3.60764 4.06844 3.84495
# Velocity P-wave (km/s) = 5.82565 6.57483 6.21155
#
# Compressibility (1/GPa) = 0.02911072
#
# Stress axis : x y z
#
# Youngs Moduli (GPa) = 66.82923 44.60156 90.20057
#
# Poissons Ratio (x) = 0.25553 0.12684
# Poissons Ratio (y) = 0.38287 0.22953
# Poissons Ratio (z) = 0.09397 0.11350
#
# Static dielectric constant tensor:
#      x y z
#    x 1.738600 -0.054580 -0.004070 
#    y -0.054580 1.746750 -0.055580 
#    z -0.004070 -0.055580 1.845320 
# 
# From -- ./inp_files/419414.got.cif
#   From: 2010.05.17/outbox.cif.g08.bks.cpg/sg2_210_cif.got.tgz:419414.got - 2010.06.03 11:33:40.
