data_PCOD9086030
_publ_section_title
;
Structure prediction by ZEFSAII (Michael W. Deem and Ramdas Pophale) SiO2 
 PCOD9086030
Probable space group: P -1
;
_chemical_formula_sum "Si O2"
_cell_formula_units_Z 16
_cell_length_a 13.696346
_cell_length_b 11.451469
_cell_length_c 7.730524
_cell_angle_alpha 41.320022
_cell_angle_beta 58.865597
_cell_angle_gamma 46.404513
_cell_volume 579.783870
_symmetry_space_group_name_H-M "P -1"
_symmetry_group_IT_number 2
_symmetry_cell_setting 'triclinic'
loop_
_space_group_symop_operation_xyz
x,y,z
-x,-y,-z
loop_
_atom_site_type_symbol
_atom_site_label
_atom_site_fract_x
_atom_site_fract_y
_atom_site_fract_z
Si Si1 0.357717 0.217231 0.923230
Si Si2 0.915512 0.296006 0.798509
Si Si3 0.785199 0.177650 0.549616
Si Si4 0.905471 0.635332 0.211088
Si Si5 0.501078 0.392732 0.396822
Si Si6 0.983404 0.789484 0.566008
Si Si7 0.381707 0.024971 0.464875
Si Si8 0.285130 0.818203 0.996876
O O1 0.232194 0.237826 0.912225
O O2 0.335641 0.202255 0.164489
O O3 0.389191 0.381983 0.627637
O O4 0.500000 0.000000 0.000000
O O5 0.010540 0.267746 0.902469
O O6 0.994975 0.157579 0.709210
O O7 0.789412 0.269655 0.952257
O O8 0.867921 0.530445 0.517942
O O9 0.636201 0.327050 0.447903
O O10 0.884533 0.262506 0.387757
O O11 0.767443 0.128217 0.818214
O O12 0.008468 0.425181 0.241123
O O13 0.861953 0.980695 0.566375
O O14 0.553020 0.198812 0.438141
O O15 0.434174 0.615919 0.119538
O O16 0.500000 0.000000 0.500000
O O17 0.275942 0.016986 0.696550
#
# Coordination Sequence:
#
# PCOD9086030 Si02
#       8
#     2   2   2   2   2   2   2   2
#     4  10  21  41  72 108 154 196 257 317 389 465
#     4   8  17  35  73 114 152 203 257 325 372 468
#     4  10  19  35  68 107 151 196 257 326 380 462
#     4   9  16  38  70 115 153 206 257 322 390 455
#     4  11  22  42  71 110 146 200 263 321 389 462
#     4   8  17  34  63 111 153 197 252 322 391 451
#     4  11  26  45  65 109 163 203 245 321 399 471
#     4  11  21  42  74 113 155 202 260 319 397 459
#
# _framework density 27.596492000000001
#
# number of rings (size 3 to 8) (size 9 to 14) (size 15 to 20)
#    0.750    1.500    1.250    1.500    0.000    1.000 
#    6.750    0.625   11.000    7.500    0.000    3.500 
#    0.000    0.375    0.000    0.000    0.000    0.000 
#
# Total GULP energy -89581.670103 kJ/mol
# GULP energy per Si atom -5598.854381 kJ/mol
# Density = 2.753368 g / cm^3
# Si number density = 27.596492 Si / 1000 Ang^3
#
#
#
# Elastic Constant Matrix: (Units=GPa)
#
#
# Indices 1 2 3 4 5 6 
#
# 1 270.3298 58.5407 49.9800 -2.8207 -4.6956 12.7227
# 2 58.5407 113.6898 -1.8422 -2.9936 -7.0769 21.8179
# 3 49.9800 -1.8422 127.0784 25.1189 14.6042 -4.2673
# 4 -2.8207 -2.9936 25.1189 32.1937 0.4465 1.0062
# 5 -4.6956 -7.0769 14.6042 0.4465 42.0041 -6.0750
# 6 12.7227 21.8179 -4.2673 1.0062 -6.0750 51.1248
#
#
#
# Elastic Compliance Matrix: (Units=1/GPa)
#
#
# Indices 1 2 3 4 5 6 
#
# 1 0.004690 -0.002280 -0.002402 0.002071 0.000906 -0.000328
# 2 -0.002280 0.010782 0.000778 0.000307 0.000725 -0.003889
# 3 -0.002402 0.000778 0.011005 -0.008702 -0.003740 0.000911
# 4 0.002071 0.000307 -0.008702 0.038081 0.002642 -0.001808
# 5 0.000906 0.000725 -0.003740 0.002642 0.025613 0.002144
# 6 -0.000328 -0.003889 0.000911 -0.001808 0.002144 0.021668
#
#
# Mechanical properties :
#
#
# Convention : Reuss Voigt Hill
#
# Bulk Modulus (GPa) = 53.56131 80.49500 67.02816
# Shear Modulus (GPa) = 39.72377 52.02581 45.87479
#
# Velocity S-wave (km/s) = 3.79812 4.34664 4.08161
# Velocity P-wave (km/s) = 6.21974 7.37719 6.82305
#
# Compressibility (1/GPa) = 0.01867019
#
# Stress axis : x y z
#
# Youngs Moduli (GPa) = 213.23037 92.74735 90.86387
#
# Poissons Ratio (x) = 0.21146 0.21825
# Poissons Ratio (y) = 0.48616 -0.07073
# Poissons Ratio (z) = 0.51217 -0.07219
#
# Static dielectric constant tensor:
#      x y z
#    x 2.084430 -0.006570 0.025340 
#    y -0.006570 2.214710 0.063590 
#    z 0.025340 0.063590 2.329290 
# 
# From -- ./inp_files/309043.got.cif
#   From: 2010.05.17/outbox.cif.g08.bks.cpg/sg2_155_cif.got.tgz:309043.got - 2010.06.03 11:33:40.
