data_PCOD9086010
_publ_section_title
;
Structure prediction by ZEFSAII (Michael W. Deem and Ramdas Pophale) SiO2 
 PCOD9086010
Probable space group: P -1
;
_chemical_formula_sum "Si O2"
_cell_formula_units_Z 15
_cell_length_a 15.812365
_cell_length_b 13.042760
_cell_length_c 11.212491
_cell_angle_alpha 59.681328
_cell_angle_beta 145.574698
_cell_angle_gamma 143.062365
_cell_volume 699.675024
_symmetry_space_group_name_H-M "P -1"
_symmetry_group_IT_number 2
_symmetry_cell_setting 'triclinic'
loop_
_space_group_symop_operation_xyz
x,y,z
-x,-y,-z
loop_
_atom_site_type_symbol
_atom_site_label
_atom_site_fract_x
_atom_site_fract_y
_atom_site_fract_z
Si Si1 0.702291 0.234471 0.459748
Si Si2 0.844651 0.109405 0.070331
Si Si3 0.699681 0.243967 0.973694
Si Si4 0.479925 0.563465 0.135597
Si Si5 0.919915 0.635477 0.017289
Si Si6 0.791917 0.169341 0.363717
Si Si7 0.290164 0.492508 0.693954
Si Si8 0.000000 0.000000 0.500000
O O1 0.833698 0.269028 0.473298
O O2 0.771877 0.412374 0.466145
O O3 0.814992 0.224595 0.700188
O O4 0.420465 0.061773 0.199512
O O5 0.832142 0.221355 0.069810
O O6 0.896686 0.031299 0.261039
O O7 0.041973 0.252190 0.113412
O O8 0.417024 0.055476 0.723727
O O9 0.813070 0.441679 0.966606
O O10 0.706450 0.209824 0.140714
O O11 0.550206 0.471751 0.239346
O O12 0.718576 0.779523 0.328305
O O13 0.263016 0.436685 0.050500
O O14 0.406338 0.565145 0.917382
O O15 0.037845 0.263571 0.547946
#
# Coordination Sequence:
#
# PCOD9086010 Si02
#       8
#     2   2   2   2   2   2   2   1
#     4  11  21  41  71 100 131 174 226 284 331 394
#     4  11  26  45  68  99 138 182 221 278 342 397
#     4  10  22  36  67 103 132 170 224 280 338 389
#     4  11  26  39  69  96 134 182 224 271 336 397
#     4  12  24  44  69 104 138 172 224 285 341 393
#     4  10  19  35  67 103 129 168 227 280 326 396
#     4  11  20  40  64  99 133 179 226 268 329 406
#     4  12  26  46  66  92 138 182 230 266 330 410
#
# _framework density 21.438524999999998
#
# number of rings (size 3 to 8) (size 9 to 14) (size 15 to 20)
#    0.000    1.067    4.000    2.800    5.600    0.533 
#    0.000    0.667    0.000    0.000    0.000    0.000 
#    0.000    0.000    0.000    0.000    0.000    0.000 
#
# Total GULP energy -83569.037200 kJ/mol
# GULP energy per Si atom -5571.269147 kJ/mol
# Density = 2.138973 g / cm^3
# Si number density = 21.438525 Si / 1000 Ang^3
#
#
#
# Elastic Constant Matrix: (Units=GPa)
#
#
# Indices 1 2 3 4 5 6 
#
# 1 87.4947 56.6178 35.0342 -9.2973 9.0240 11.7705
# 2 56.6178 83.8861 41.2462 -3.0334 0.1225 13.9941
# 3 35.0342 41.2462 100.8799 12.0724 12.0661 5.4986
# 4 -9.2973 -3.0334 12.0724 28.3426 2.5092 1.8155
# 5 9.0240 0.1225 12.0661 2.5092 21.4020 3.3262
# 6 11.7705 13.9941 5.4986 1.8155 3.3262 16.2803
#
#
#
# Elastic Compliance Matrix: (Units=1/GPa)
#
#
# Indices 1 2 3 4 5 6 
#
# 1 0.023627 -0.013995 -0.002195 0.008208 -0.009083 -0.003370
# 2 -0.013995 0.027041 -0.006995 0.001103 0.011621 -0.013261
# 3 -0.002195 -0.006995 0.015057 -0.007539 -0.007396 0.004867
# 4 0.008208 0.001103 -0.007539 0.042097 -0.002839 -0.008451
# 5 -0.009083 0.011621 -0.007396 -0.002839 0.056891 -0.012232
# 6 -0.003370 -0.013261 0.004867 -0.008451 -0.012232 0.077057
#
#
# Mechanical properties :
#
#
# Convention : Reuss Voigt Hill
#
# Bulk Modulus (GPa) = 51.66929 59.78414 55.72672
# Shear Modulus (GPa) = 16.97263 22.49580 19.73422
#
# Velocity S-wave (km/s) = 2.81675 3.24283 3.03727
# Velocity P-wave (km/s) = 5.89340 6.47828 6.19275
#
# Compressibility (1/GPa) = 0.01935386
#
# Stress axis : x y z
#
# Youngs Moduli (GPa) = 42.32499 36.98070 66.41487
#
# Poissons Ratio (x) = 0.51754 0.14581
# Poissons Ratio (y) = 0.59233 0.46459
# Poissons Ratio (z) = 0.09292 0.25869
#
# Static dielectric constant tensor:
#      x y z
#    x 1.800060 -0.041880 -0.018090 
#    y -0.041880 1.754840 0.053720 
#    z -0.018090 0.053720 1.812010 
# 
# From -- ./inp_files/465835.got.cif
#   From: 2010.05.17/outbox.cif.g08.bks.cpg/sg2_233_cif.got.tgz:465835.got - 2010.06.03 11:33:40.
