data_PCOD9086525
_publ_section_title
;
Structure prediction by ZEFSAII (Michael W. Deem and Ramdas Pophale) SiO2 
 PCOD9086525
Probable space group: P -1
;
_chemical_formula_sum "Si O2"
_cell_formula_units_Z 14
_cell_length_a 9.886041
_cell_length_b 7.051760
_cell_length_c 14.538464
_cell_angle_alpha 60.415099
_cell_angle_beta 137.921419
_cell_angle_gamma 106.886107
_cell_volume 585.625009
_symmetry_space_group_name_H-M "P -1"
_symmetry_group_IT_number 2
_symmetry_cell_setting 'triclinic'
loop_
_space_group_symop_operation_xyz
x,y,z
-x,-y,-z
loop_
_atom_site_type_symbol
_atom_site_label
_atom_site_fract_x
_atom_site_fract_y
_atom_site_fract_z
Si Si1 0.886007 0.828838 0.182940
Si Si2 0.154094 0.450323 0.477618
Si Si3 0.217113 0.088541 0.237426
Si Si4 0.243410 0.780522 0.660674
Si Si5 0.335947 0.259581 0.067164
Si Si6 0.356302 0.100821 0.779155
Si Si7 0.355312 0.157891 0.492257
O O1 0.072580 0.703000 0.366140
O O2 0.706133 0.898782 0.147029
O O3 0.992689 0.020526 0.145165
O O4 0.819605 0.664033 0.110532
O O5 0.944602 0.348967 0.414383
O O6 0.310576 0.347918 0.658519
O O7 0.257393 0.354821 0.459093
O O8 0.399456 0.883799 0.369231
O O9 0.235453 0.230953 0.121109
O O10 0.275506 0.186708 0.341281
O O11 0.457401 0.636329 0.833654
O O12 0.204542 0.952619 0.685100
O O13 0.295326 0.936130 0.565300
O O14 0.433780 0.022843 0.127222
#
# Coordination Sequence:
#
# PCOD9086525 Si02
#       7
#     2   2   2   2   2   2   2
#     4  12  22  31  55  84 109 137 165 219 272 306
#     4  11  19  33  55  85 108 124 176 230 265 288
#     4  10  19  36  59  73 103 142 185 204 254 317
#     4   8  17  33  58  72 104 136 176 215 244 311
#     4   9  21  37  54  74 108 143 181 202 251 323
#     4   9  19  37  54  76 103 141 181 207 250 316
#     4   9  18  35  57  80  95 141 182 218 246 310
#
# _framework density 23.906082000000001
#
# number of rings (size 3 to 8) (size 9 to 14) (size 15 to 20)
#    0.857    1.429    1.429    4.714    0.000    1.143 
#    0.000    0.714    0.000    0.000    0.000    0.000 
#    0.000    0.000    0.000    0.000    0.000    0.000 
#
# Total GULP energy -78071.104134 kJ/mol
# GULP energy per Si atom -5576.507438 kJ/mol
# Density = 2.385167 g / cm^3
# Si number density = 23.906082 Si / 1000 Ang^3
#
#
#
# Elastic Constant Matrix: (Units=GPa)
#
#
# Indices 1 2 3 4 5 6 
#
# 1 145.5982 16.1958 26.4218 14.2779 -18.3822 -16.4281
# 2 16.1958 21.5762 7.5803 14.4928 -5.1283 -6.2027
# 3 26.4218 7.5803 53.6785 23.2237 -5.5287 -3.7064
# 4 14.2779 14.4928 23.2237 27.2286 -13.9692 -2.2567
# 5 -18.3822 -5.1283 -5.5287 -13.9692 43.3090 5.3027
# 6 -16.4281 -6.2027 -3.7064 -2.2567 5.3027 33.3130
#
#
#
# Elastic Compliance Matrix: (Units=1/GPa)
#
#
# Indices 1 2 3 4 5 6 
#
# 1 0.008779 -0.007114 -0.005301 0.005849 0.003824 0.002203
# 2 -0.007114 0.089769 0.018733 -0.065473 -0.012693 0.012876
# 3 -0.005301 0.018733 0.036406 -0.042902 -0.009658 0.003555
# 4 0.005849 -0.065473 -0.042902 0.119078 0.028962 -0.010623
# 5 0.003824 -0.012693 -0.009658 0.028962 0.031890 -0.004666
# 6 0.002203 0.012876 0.003555 -0.010623 -0.004666 0.033921
#
#
# Mechanical properties :
#
#
# Convention : Reuss Voigt Hill
#
# Bulk Modulus (GPa) = 6.77557 35.69429 21.23493
# Shear Modulus (GPa) = 14.02900 32.14712 23.08806
#
# Velocity S-wave (km/s) = 2.42510 3.67103 3.11107
# Velocity P-wave (km/s) = 3.26832 5.73865 4.66979
#
# Compressibility (1/GPa) = 0.14758914
#
# Stress axis : x y z
#
# Youngs Moduli (GPa) = 113.90341 11.13971 27.46817
#
# Poissons Ratio (x) = 0.07925 0.14562
# Poissons Ratio (y) = 0.81035 -0.51457
# Poissons Ratio (z) = 0.60385 -0.20868
#
# Static dielectric constant tensor:
#      x y z
#    x 1.894200 -0.002570 -0.007080 
#    y -0.002570 1.913710 -0.024450 
#    z -0.007080 -0.024450 2.039580 
# 
# From -- ./inp_files/239967.got.cif
#   From: 2010.05.17/outbox.cif.g08.bks.cpg/sg2_120_cif.got.tgz:239967.got - 2010.06.03 11:33:40.
