data_PCOD9086488
_publ_section_title
;
Structure prediction by ZEFSAII (Michael W. Deem and Ramdas Pophale) SiO2 
 PCOD9086488
Probable space group: P -1
;
_chemical_formula_sum "Si O2"
_cell_formula_units_Z 14
_cell_length_a 11.165256
_cell_length_b 12.082691
_cell_length_c 10.305428
_cell_angle_alpha 49.000504
_cell_angle_beta 136.351277
_cell_angle_gamma 125.499580
_cell_volume 709.085322
_symmetry_space_group_name_H-M "P -1"
_symmetry_group_IT_number 2
_symmetry_cell_setting 'triclinic'
loop_
_space_group_symop_operation_xyz
x,y,z
-x,-y,-z
loop_
_atom_site_type_symbol
_atom_site_label
_atom_site_fract_x
_atom_site_fract_y
_atom_site_fract_z
Si Si1 0.215038 0.196945 0.258730
Si Si2 0.989424 0.174881 0.863500
Si Si3 0.795712 0.341157 0.209345
Si Si4 0.479564 0.464259 0.164839
Si Si5 0.850144 0.643744 0.395504
Si Si6 0.323049 0.900825 0.491585
Si Si7 0.057431 0.178113 0.420593
O O1 0.395091 0.294118 0.265760
O O2 0.176220 0.234051 0.346338
O O3 0.222120 0.021716 0.386154
O O4 0.057877 0.226269 0.019244
O O5 0.793298 0.177410 0.659596
O O6 0.113299 0.269442 0.778728
O O7 0.000000 0.000000 0.000000
O O8 0.674937 0.223039 0.302486
O O9 0.970611 0.414126 0.377224
O O10 0.883793 0.252016 0.238788
O O11 0.674191 0.448608 0.979027
O O12 0.668847 0.524991 0.331956
O O13 0.500000 0.500000 0.000000
O O14 0.843521 0.764932 0.411125
O O15 0.500000 0.000000 0.500000
O O16 0.000000 0.000000 0.500000
#
# Coordination Sequence:
#
# PCOD9086488 Si02
#       7
#     2   2   2   2   2   2   2
#     4  11  21  36  64  86 118 165 198 243 310 354
#     4   9  17  34  56  86 111 156 202 247 295 343
#     4   9  22  40  62  86 125 159 199 248 308 351
#     4  12  23  39  62  93 127 157 203 253 299 365
#     4   9  21  40  60  85 128 161 194 251 308 350
#     4  10  19  36  58  89 120 150 207 259 295 347
#     4  10  19  43  64  83 123 166 198 249 305 360
#
# _framework density 19.743744
#
# number of rings (size 3 to 8) (size 9 to 14) (size 15 to 20)
#    0.857    1.143    2.857    1.714    2.000    1.714 
#    2.571    2.143    0.000    0.000    0.000    0.000 
#    0.000    0.000    0.000    0.000    0.000    0.000 
#
# Total GULP energy -78030.530636 kJ/mol
# GULP energy per Si atom -5573.609331 kJ/mol
# Density = 1.969881 g / cm^3
# Si number density = 19.743744 Si / 1000 Ang^3
#
#
#
# Elastic Constant Matrix: (Units=GPa)
#
#
# Indices 1 2 3 4 5 6 
#
# 1 73.8492 8.6592 12.8974 5.2200 -3.5624 0.0594
# 2 8.6592 100.6416 20.7209 10.6145 0.3208 13.1265
# 3 12.8974 20.7209 45.6854 -6.0702 1.3690 -2.0200
# 4 5.2200 10.6145 -6.0702 29.0108 -2.8510 3.4035
# 5 -3.5624 0.3208 1.3690 -2.8510 31.3575 -1.6367
# 6 0.0594 13.1265 -2.0200 3.4035 -1.6367 29.6903
#
#
#
# Elastic Compliance Matrix: (Units=1/GPa)
#
#
# Indices 1 2 3 4 5 6 
#
# 1 0.014673 0.000047 -0.004670 -0.003495 0.001559 0.000119
# 2 0.000047 0.012588 -0.006666 -0.005432 -0.000610 -0.005430
# 3 -0.004670 -0.006666 0.027553 0.008529 -0.000691 0.003815
# 4 -0.003495 -0.005432 0.008529 0.039305 0.002789 -0.001363
# 5 0.001559 -0.000610 -0.000691 0.002789 0.032445 0.001688
# 6 0.000119 -0.005430 0.003815 -0.001363 0.001688 0.036590
#
#
# Mechanical properties :
#
#
# Convention : Reuss Voigt Hill
#
# Bulk Modulus (GPa) = 31.02028 33.85904 32.43966
# Shear Modulus (GPa) = 25.44822 29.87162 27.65992
#
# Velocity S-wave (km/s) = 3.59406 3.89391 3.74698
# Velocity P-wave (km/s) = 5.74182 6.11581 5.93177
#
# Compressibility (1/GPa) = 0.03223697
#
# Stress axis : x y z
#
# Youngs Moduli (GPa) = 68.15113 79.44277 36.29349
#
# Poissons Ratio (x) = -0.00374 0.16948
# Poissons Ratio (y) = -0.00321 0.24193
# Poissons Ratio (z) = 0.31824 0.52957
#
# Static dielectric constant tensor:
#      x y z
#    x 1.718260 -0.014540 0.040570 
#    y -0.014540 1.712330 -0.005880 
#    z 0.040570 -0.005880 1.722390 
# 
# From -- ./inp_files/204380.got.cif
#   From: 2010.05.17/outbox.cif.g08.bks.cpg/sg2_103_cif.got.tgz:204380.got - 2010.06.03 11:33:40.
