data_PCOD9086181
_publ_section_title
;
Structure prediction by ZEFSAII (Michael W. Deem and Ramdas Pophale) SiO2 
 PCOD9086181
Probable space group: P -1
;
_chemical_formula_sum "Si O2"
_cell_formula_units_Z 12
_cell_length_a 7.346116
_cell_length_b 7.876736
_cell_length_c 18.523036
_cell_angle_alpha 37.597110
_cell_angle_beta 87.127522
_cell_angle_gamma 64.616276
_cell_volume 502.714480
_symmetry_space_group_name_H-M "P -1"
_symmetry_group_IT_number 2
_symmetry_cell_setting 'triclinic'
loop_
_space_group_symop_operation_xyz
x,y,z
-x,-y,-z
loop_
_atom_site_type_symbol
_atom_site_label
_atom_site_fract_x
_atom_site_fract_y
_atom_site_fract_z
Si Si1 0.743379 0.321136 0.927580
Si Si2 0.569143 0.298019 0.471578
Si Si3 0.886851 0.179085 0.629165
Si Si4 0.446396 0.053673 0.899318
Si Si5 0.258203 0.109875 0.178489
Si Si6 0.674277 0.226416 0.332949
O O1 0.754513 0.594314 0.878989
O O2 0.562179 0.544207 0.788712
O O3 0.661837 0.147000 0.040536
O O4 0.000000 0.000000 0.000000
O O5 0.764793 0.106067 0.593904
O O6 0.321729 0.424764 0.466730
O O7 0.639760 0.137696 0.444049
O O8 0.492651 0.699723 0.332266
O O9 0.940380 0.916335 0.783141
O O10 0.112298 0.080609 0.618546
O O11 0.281310 0.485624 0.748008
O O12 0.686167 0.879765 0.908749
O O13 0.500000 0.000000 0.000000
#
# Coordination Sequence:
#
# PCOD9086181 Si02
#       6
#     2   2   2   2   2   2
#     4  11  22  36  50  78 114 144 182 221 267 314
#     4   8  18  35  60  82 104 138 182 220 270 320
#     4   9  17  35  63  78 107 137 182 219 272 321
#     4   9  19  36  53  78 104 141 190 217 262 323
#     4   9  18  36  55  78 109 141 173 229 272 311
#     4  10  19  36  56  83 107 143 181 219 262 326
#
# _framework density 23.870408000000001
#
# number of rings (size 3 to 8) (size 9 to 14) (size 15 to 20)
#    1.000    1.667    0.000    2.000    0.000    0.000 
#    9.000    7.500    0.000    0.000    0.000    0.000 
#    0.000    0.000    0.000    0.000    0.000    0.000 
#
# Total GULP energy -66840.598641 kJ/mol
# GULP energy per Si atom -5570.049887 kJ/mol
# Density = 2.381608 g / cm^3
# Si number density = 23.870408 Si / 1000 Ang^3
#
#
#
# Elastic Constant Matrix: (Units=GPa)
#
#
# Indices 1 2 3 4 5 6 
#
# 1 88.2704 51.3945 20.6758 6.0286 -15.2409 -25.1069
# 2 51.3945 188.8776 33.5158 27.8173 4.9988 -39.7397
# 3 20.6758 33.5158 45.0472 18.3494 2.8117 -24.9448
# 4 6.0286 27.8173 18.3494 41.4145 -8.0696 -13.5690
# 5 -15.2409 4.9988 2.8117 -8.0696 36.2047 -6.7669
# 6 -25.1069 -39.7397 -24.9448 -13.5690 -6.7669 42.9429
#
#
#
# Elastic Compliance Matrix: (Units=1/GPa)
#
#
# Indices 1 2 3 4 5 6 
#
# 1 0.018707 -0.003768 -0.004419 0.007052 0.011993 0.009001
# 2 -0.003768 0.007691 -0.000614 -0.003996 -0.002963 0.002828
# 3 -0.004419 -0.000614 0.037720 -0.011899 -0.004692 0.014260
# 4 0.007052 -0.003996 -0.011899 0.036092 0.013815 0.007094
# 5 0.011993 -0.002963 -0.004692 0.013815 0.038768 0.012019
# 6 0.009001 0.002828 0.014260 0.007094 0.012019 0.043585
#
#
# Mechanical properties :
#
#
# Convention : Reuss Voigt Hill
#
# Bulk Modulus (GPa) = 21.49843 59.26304 40.38074
# Shear Modulus (GPa) = 23.18347 38.55305 30.86826
#
# Velocity S-wave (km/s) = 3.11982 4.02319 3.59995
# Velocity P-wave (km/s) = 4.69080 6.81632 5.85089
#
# Compressibility (1/GPa) = 0.04651502
#
# Stress axis : x y z
#
# Youngs Moduli (GPa) = 53.45519 130.02895 26.51097
#
# Poissons Ratio (x) = 0.48999 0.11716
# Poissons Ratio (y) = 0.20143 0.01628
# Poissons Ratio (z) = 0.23623 0.07983
#
# Static dielectric constant tensor:
#      x y z
#    x 1.981490 -0.030020 -0.043380 
#    y -0.030020 1.921950 0.004460 
#    z -0.043380 0.004460 1.975780 
# 
# From -- ./inp_files/193776.got.cif
#   From: 2010.05.17/outbox.cif.g08.bks.cpg/sg2_97_cif.got.tgz:193776.got - 2010.06.03 11:33:40.
