data_PCOD9086313
_publ_section_title
;
Structure prediction by ZEFSAII (Michael W. Deem and Ramdas Pophale) SiO2 
 PCOD9086313
Probable space group: P -1
;
_chemical_formula_sum "Si O2"
_cell_formula_units_Z 16
_cell_length_a 15.580401
_cell_length_b 11.171279
_cell_length_c 16.622697
_cell_angle_alpha 147.329893
_cell_angle_beta 27.362264
_cell_angle_gamma 143.274397
_cell_volume 700.670007
_symmetry_space_group_name_H-M "P -1"
_symmetry_group_IT_number 2
_symmetry_cell_setting 'triclinic'
loop_
_space_group_symop_operation_xyz
x,y,z
-x,-y,-z
loop_
_atom_site_type_symbol
_atom_site_label
_atom_site_fract_x
_atom_site_fract_y
_atom_site_fract_z
Si Si1 0.283602 0.382251 0.289524
Si Si2 0.294932 0.500111 0.079926
Si Si3 0.595402 0.660362 0.373411
Si Si4 0.657856 0.007615 0.656284
Si Si5 0.685622 0.167311 0.403931
Si Si6 0.248783 0.093829 0.014022
Si Si7 0.100989 0.203481 0.945194
Si Si8 0.392529 0.166022 0.232286
O O1 0.238966 0.626092 0.481218
O O2 0.169694 0.215499 0.223825
O O3 0.276137 0.259723 0.312239
O O4 0.505307 0.438125 0.102523
O O5 0.311196 0.298974 0.013875
O O6 0.259692 0.725949 0.280061
O O7 0.127713 0.402916 0.100822
O O8 0.682053 0.816038 0.464484
O O9 0.402897 0.738478 0.547486
O O10 0.744263 0.711216 0.205202
O O11 0.534055 0.389067 0.278685
O O12 0.715238 0.959839 0.672144
O O13 0.430318 0.002385 0.841241
O O14 0.500000 0.000000 0.500000
O O15 0.834173 0.008200 0.185282
O O16 0.095052 0.892972 0.990339
O O17 0.500000 0.000000 0.000000
#
# Coordination Sequence:
#
# PCOD9086313 Si02
#       8
#     2   2   2   2   2   2   2   2
#     4  10  19  36  57  86 109 153 195 235 279 342
#     4  11  20  36  57  82 118 153 192 226 286 345
#     4  10  21  36  61  88 113 149 200 234 281 341
#     4  11  22  37  63  87 113 149 200 245 272 333
#     4   9  17  31  58  78 114 152 185 226 282 340
#     4  11  24  33  58  91 121 146 194 236 287 345
#     4  11  21  38  56  86 123 156 182 231 300 344
#     4  11  18  38  65  86 110 149 203 239 278 336
#
# _framework density 22.835284999999999
#
# number of rings (size 3 to 8) (size 9 to 14) (size 15 to 20)
#    0.000    1.500    6.250    3.000    5.250    0.500 
#    0.000    0.625    0.000    0.750    0.000    0.000 
#    0.000    0.000    0.000    0.000    0.000    0.000 
#
# Total GULP energy -89403.194599 kJ/mol
# GULP energy per Si atom -5587.699662 kJ/mol
# Density = 2.278331 g / cm^3
# Si number density = 22.835285 Si / 1000 Ang^3
#
#
#
# Elastic Constant Matrix: (Units=GPa)
#
#
# Indices 1 2 3 4 5 6 
#
# 1 83.8104 12.3974 12.0041 3.4217 21.9555 1.5156
# 2 12.3974 56.5052 21.0660 16.0751 -5.5117 3.0388
# 3 12.0041 21.0660 86.8360 24.6454 23.3240 9.3349
# 4 3.4217 16.0751 24.6454 35.3358 7.9311 7.8624
# 5 21.9555 -5.5117 23.3240 7.9311 35.9462 6.6844
# 6 1.5156 3.0388 9.3349 7.8624 6.6844 44.9912
#
#
#
# Elastic Compliance Matrix: (Units=1/GPa)
#
#
# Indices 1 2 3 4 5 6 
#
# 1 0.015722 -0.006134 0.001833 0.002588 -0.012472 0.000905
# 2 -0.006134 0.025530 -0.006305 -0.009628 0.013989 -0.000605
# 3 0.001833 -0.006305 0.018137 -0.007142 -0.012216 -0.000336
# 4 0.002588 -0.009628 -0.007142 0.039736 -0.006457 -0.003940
# 5 -0.012472 0.013989 -0.012216 -0.006457 0.047667 -0.003943
# 6 0.000905 -0.000605 -0.000336 -0.003940 -0.003943 0.023581
#
#
# Mechanical properties :
#
#
# Convention : Reuss Voigt Hill
#
# Bulk Modulus (GPa) = 26.19502 35.34294 30.76898
# Shear Modulus (GPa) = 24.47251 35.36690 29.91971
#
# Velocity S-wave (km/s) = 3.27723 3.93973 3.62365
# Velocity P-wave (km/s) = 5.08099 6.01716 5.56878
#
# Compressibility (1/GPa) = 0.03817520
#
# Stress axis : x y z
#
# Youngs Moduli (GPa) = 63.60632 39.16935 55.13715
#
# Poissons Ratio (x) = 0.24027 -0.10106
# Poissons Ratio (y) = 0.39017 0.34767
# Poissons Ratio (z) = -0.11659 0.24698
#
# Static dielectric constant tensor:
#      x y z
#    x 1.870980 0.009970 0.023290 
#    y 0.009970 1.894560 -0.008870 
#    z 0.023290 -0.008870 1.891770 
# 
# From -- ./inp_files/419223.got.cif
#   From: 2010.05.17/outbox.cif.g08.bks.cpg/sg2_210_cif.got.tgz:419223.got - 2010.06.03 11:33:40.
