data_PCOD9086158
_publ_section_title
;
Structure prediction by ZEFSAII (Michael W. Deem and Ramdas Pophale) SiO2 
 PCOD9086158
Probable space group: P -1
;
_chemical_formula_sum "Si O2"
_cell_formula_units_Z 16
_cell_length_a 5.280725
_cell_length_b 17.778099
_cell_length_c 17.019706
_cell_angle_alpha 141.676807
_cell_angle_beta 115.836314
_cell_angle_gamma 52.251636
_cell_volume 780.209870
_symmetry_space_group_name_H-M "P -1"
_symmetry_group_IT_number 2
_symmetry_cell_setting 'triclinic'
loop_
_space_group_symop_operation_xyz
x,y,z
-x,-y,-z
loop_
_atom_site_type_symbol
_atom_site_label
_atom_site_fract_x
_atom_site_fract_y
_atom_site_fract_z
Si Si1 0.795857 0.247037 0.974899
Si Si2 0.098422 0.570551 0.733767
Si Si3 0.527770 0.527793 0.617952
Si Si4 0.273973 0.956528 0.884522
Si Si5 0.252879 0.120555 0.242441
Si Si6 0.342321 0.991352 0.552955
Si Si7 0.724260 0.833256 0.161528
Si Si8 0.158010 0.286779 0.520470
O O1 0.815903 0.356052 0.125389
O O2 0.444960 0.261742 0.936563
O O3 0.947277 0.239245 0.903157
O O4 0.021115 0.097556 0.922770
O O5 0.214714 0.592478 0.682469
O O6 0.261223 0.405258 0.633115
O O7 0.721957 0.613896 0.720716
O O8 0.500000 0.500000 0.500000
O O9 0.782492 0.377885 0.566941
O O10 0.526556 0.857761 0.772984
O O11 0.053738 0.895515 0.840933
O O12 0.500000 0.000000 0.000000
O O13 0.151892 0.234305 0.389116
O O14 0.491943 0.973118 0.195495
O O15 0.605152 0.845953 0.507248
O O16 0.500000 0.000000 0.500000
O O17 0.274891 0.111085 0.705682
O O18 0.000000 0.000000 0.500000
#
# Coordination Sequence:
#
# PCOD9086158 Si02
#       8
#     2   2   2   2   2   2   2   2
#     4  10  19  36  56  78 111 152 198 227 284 353
#     4  10  22  36  59  84 116 164 198 243 289 343
#     4  10  22  37  56  85 120 158 204 236 288 340
#     4  10  20  31  49  76 106 143 189 238 283 330
#     4   9  19  33  52  73 105 148 178 237 287 337
#     4  11  23  39  66  95 118 147 190 247 308 358
#     4   9  19  36  57  82 110 144 189 233 288 345
#     4   9  24  37  61  85 122 148 197 239 303 342
#
# _framework density 20.507303
#
# number of rings (size 3 to 8) (size 9 to 14) (size 15 to 20)
#    0.750    1.500    0.000    2.250    3.500    4.000 
#    0.000    0.000    0.000    4.500    0.000    0.000 
#    0.000    0.000    0.000    0.000    0.000    0.000 
#
# Total GULP energy -89210.715000 kJ/mol
# GULP energy per Si atom -5575.669687 kJ/mol
# Density = 2.046063 g / cm^3
# Si number density = 20.507303 Si / 1000 Ang^3
#
#
#
# Elastic Constant Matrix: (Units=GPa)
#
#
# Indices 1 2 3 4 5 6 
#
# 1 70.7301 8.2998 17.6636 4.5205 -6.9936 12.6220
# 2 8.2998 52.0865 11.7435 -4.6894 2.7657 1.4071
# 3 17.6636 11.7435 97.3795 0.5302 10.4423 14.7431
# 4 4.5205 -4.6894 0.5302 24.5530 -1.1164 -2.6083
# 5 -6.9936 2.7657 10.4423 -1.1164 30.5443 -4.9450
# 6 12.6220 1.4071 14.7431 -2.6083 -4.9450 23.2342
#
#
#
# Elastic Compliance Matrix: (Units=1/GPa)
#
#
# Indices 1 2 3 4 5 6 
#
# 1 0.016878 -0.002606 -0.001949 -0.004208 0.003395 -0.007524
# 2 -0.002606 0.020533 -0.002165 0.004581 -0.001258 0.001792
# 3 -0.001949 -0.002165 0.012811 -0.001498 -0.006044 -0.008393
# 4 -0.004208 0.004581 -0.001498 0.043382 0.002058 0.008267
# 5 0.003395 -0.001258 -0.006044 0.002058 0.037434 0.010265
# 6 -0.007524 0.001792 -0.008393 0.008267 0.010265 0.055458
#
#
# Mechanical properties :
#
#
# Convention : Reuss Voigt Hill
#
# Bulk Modulus (GPa) = 27.18728 32.84554 30.01641
# Shear Modulus (GPa) = 23.56309 27.83224 25.69767
#
# Velocity S-wave (km/s) = 3.39338 3.68800 3.54375
# Velocity P-wave (km/s) = 5.35159 5.84691 5.60473
#
# Compressibility (1/GPa) = 0.03678190
#
# Stress axis : x y z
#
# Youngs Moduli (GPa) = 59.24804 48.70206 78.05972
#
# Poissons Ratio (x) = 0.12691 0.15216
# Poissons Ratio (y) = 0.15439 0.16899
# Poissons Ratio (z) = 0.11549 0.10543
#
# Static dielectric constant tensor:
#      x y z
#    x 1.756120 0.000160 0.004490 
#    y 0.000160 1.744830 0.006310 
#    z 0.004490 0.006310 1.728830 
# 
# From -- ./inp_files/551008.got.cif
#   From: 2010.05.17/outbox.cif.g08.bks.cpg/sg2_276_cif.got.tgz:551008.got - 2010.06.03 11:33:40.
