data_PCOD9086850
_publ_section_title
;
Structure prediction by ZEFSAII (Michael W. Deem and Ramdas Pophale) SiO2 
 PCOD9086850
Probable space group: P -1
;
_chemical_formula_sum "Si O2"
_cell_formula_units_Z 16
_cell_length_a 12.668898
_cell_length_b 17.630173
_cell_length_c 9.234122
_cell_angle_alpha 118.193625
_cell_angle_beta 63.495331
_cell_angle_gamma 158.116320
_cell_volume 677.336921
_symmetry_space_group_name_H-M "P -1"
_symmetry_group_IT_number 2
_symmetry_cell_setting 'triclinic'
loop_
_space_group_symop_operation_xyz
x,y,z
-x,-y,-z
loop_
_atom_site_type_symbol
_atom_site_label
_atom_site_fract_x
_atom_site_fract_y
_atom_site_fract_z
Si Si1 0.417132 0.872194 0.054303
Si Si2 0.447629 0.568213 0.109837
Si Si3 0.462411 0.593676 0.577973
Si Si4 0.912339 0.180532 0.253670
Si Si5 0.870049 0.841889 0.331962
Si Si6 0.823630 0.156398 0.609097
Si Si7 0.545802 0.841666 0.708799
Si Si8 0.218193 0.201506 0.139463
O O1 0.215060 0.784928 0.214546
O O2 0.671018 0.010084 0.127873
O O3 0.351561 0.752538 0.873898
O O4 0.500000 0.000000 0.000000
O O5 0.713919 0.775648 0.228954
O O6 0.159819 0.397229 0.214323
O O7 0.500000 0.500000 0.000000
O O8 0.488662 0.622495 0.969624
O O9 0.606163 0.632082 0.398768
O O10 0.433033 0.670640 0.598072
O O11 0.684280 0.749485 0.713293
O O12 0.157485 0.357440 0.595908
O O13 0.789709 0.139178 0.439989
O O14 0.067439 0.194574 0.214188
O O15 0.000000 0.000000 0.500000
O O16 0.129539 0.951220 0.240703
O O17 0.611062 0.944447 0.620748
O O18 0.000000 0.000000 0.000000
#
# Coordination Sequence:
#
# PCOD9086850 Si02
#       8
#     2   2   2   2   2   2   2   2
#     4  10  23  42  68  89 121 172 221 271 322 371
#     4  10  21  34  58  90 126 164 205 260 315 388
#     4  11  23  39  64 102 129 171 212 255 330 401
#     4  11  22  41  63  92 128 165 215 270 321 384
#     4  10  19  36  60  90 133 166 200 259 326 391
#     4  11  24  40  67  92 127 176 219 260 320 380
#     4  10  22  40  63  93 133 164 212 267 311 379
#     4  11  23  38  61  98 134 169 207 259 336 396
#
# _framework density 23.621924
#
# number of rings (size 3 to 8) (size 9 to 14) (size 15 to 20)
#    0.000    1.500    1.250    4.875    7.000    2.500 
#    0.000    0.000    0.000    3.750    0.000    0.000 
#    0.000    0.000    0.000    0.000    0.000    0.000 
#
# Total GULP energy -89190.941070 kJ/mol
# GULP energy per Si atom -5574.433817 kJ/mol
# Density = 2.356816 g / cm^3
# Si number density = 23.621924 Si / 1000 Ang^3
#
#
#
# Elastic Constant Matrix: (Units=GPa)
#
#
# Indices 1 2 3 4 5 6 
#
# 1 38.8365 6.8176 32.2857 -7.9725 3.5518 -3.0048
# 2 6.8176 45.4462 26.7830 -10.0807 3.6208 -9.2476
# 3 32.2857 26.7830 157.7728 -39.8833 11.8329 -8.9219
# 4 -7.9725 -10.0807 -39.8833 49.7544 0.6076 2.2228
# 5 3.5518 3.6208 11.8329 0.6076 44.6473 -0.9841
# 6 -3.0048 -9.2476 -8.9219 2.2228 -0.9841 18.2968
#
#
#
# Elastic Compliance Matrix: (Units=1/GPa)
#
#
# Indices 1 2 3 4 5 6 
#
# 1 0.031147 -0.000666 -0.006138 -0.000134 -0.000756 0.001761
# 2 -0.000666 0.026905 -0.003096 0.002356 -0.001084 0.011635
# 3 -0.006138 -0.003096 0.009943 0.006321 -0.001951 0.001403
# 4 -0.000134 0.002356 0.006321 0.025602 -0.002182 0.001023
# 5 -0.000756 -0.001084 -0.001951 -0.002182 0.023090 -0.000116
# 6 0.001761 0.011635 0.001403 0.001023 -0.000116 0.061378
#
#
# Mechanical properties :
#
#
# Convention : Reuss Voigt Hill
#
# Bulk Modulus (GPa) = 20.74936 41.53645 31.14290
# Shear Modulus (GPa) = 23.37203 34.28431 28.82817
#
# Velocity S-wave (km/s) = 3.14892 3.81383 3.49721
# Velocity P-wave (km/s) = 4.69297 6.08406 5.43322
#
# Compressibility (1/GPa) = 0.04819426
#
# Stress axis : x y z
#
# Youngs Moduli (GPa) = 32.10619 37.16763 100.56896
#
# Poissons Ratio (x) = 0.02476 0.61730
# Poissons Ratio (y) = 0.02139 0.31138
# Poissons Ratio (z) = 0.19707 0.11508
#
# Static dielectric constant tensor:
#      x y z
#    x 1.945740 -0.059230 -0.022370 
#    y -0.059230 1.994090 -0.043950 
#    z -0.022370 -0.043950 1.911490 
# 
# From -- ./inp_files/319418.got.cif
#   From: 2010.05.17/outbox.cif.g08.bks.cpg/sg2_160_cif.got.tgz:319418.got - 2010.06.03 11:33:40.
