data_PCOD9086143
_publ_section_title
;
Structure prediction by ZEFSAII (Michael W. Deem and Ramdas Pophale) SiO2 
 PCOD9086143
Probable space group: P -1
;
_chemical_formula_sum "Si O2"
_cell_formula_units_Z 12
_cell_length_a 12.222510
_cell_length_b 9.583561
_cell_length_c 5.242940
_cell_angle_alpha 69.242349
_cell_angle_beta 60.132938
_cell_angle_gamma 75.407929
_cell_volume 495.835753
_symmetry_space_group_name_H-M "P -1"
_symmetry_group_IT_number 2
_symmetry_cell_setting 'triclinic'
loop_
_space_group_symop_operation_xyz
x,y,z
-x,-y,-z
loop_
_atom_site_type_symbol
_atom_site_label
_atom_site_fract_x
_atom_site_fract_y
_atom_site_fract_z
Si Si1 0.289804 0.074399 0.554562
Si Si2 0.899283 0.099651 0.388224
Si Si3 0.789804 0.574400 0.554564
Si Si4 0.865403 0.414912 0.076093
Si Si5 0.399283 0.599650 0.388222
Si Si6 0.365403 0.914911 0.076091
O O1 0.250000 0.250000 0.499997
O O2 0.161332 0.994029 0.704108
O O3 0.372833 0.021595 0.244179
O O4 0.362132 0.007589 0.761615
O O5 0.942475 0.253967 0.129246
O O6 0.780280 0.132531 0.699212
O O7 0.000000 0.000000 0.500000
O O8 0.872832 0.521597 0.244180
O O9 0.661331 0.494030 0.704110
O O10 0.862131 0.507588 0.761616
O O11 0.719720 0.367469 0.300791
O O12 0.500000 0.500000 0.500000
O O13 0.442475 0.753966 0.129242
#
# Coordination Sequence:
#
# PCOD9086143 Si02
#       6
#     2   2   2   2   2   2
#     4  10  19  36  56  75 107 139 168 214 262 300
#     4   9  20  35  57  78 102 138 176 211 254 309
#     4  10  19  36  56  75 107 139 168 214 262 300
#     4   9  20  36  55  75 107 137 172 210 258 308
#     4   9  20  35  57  78 102 138 176 211 254 309
#     4   9  20  36  55  75 107 137 172 210 258 308
#
# _framework density 24.201563
#
# number of rings (size 3 to 8) (size 9 to 14) (size 15 to 20)
#    2.000    0.667    0.000    2.000    0.000    1.333 
#    0.000    3.333    0.000    0.000    0.000    0.000 
#    0.000    0.000    0.000    0.000    0.000    0.000 
#
# Total GULP energy -67012.361574 kJ/mol
# GULP energy per Si atom -5584.363464 kJ/mol
# Density = 2.414648 g / cm^3
# Si number density = 24.201563 Si / 1000 Ang^3
#
#
#
# Elastic Constant Matrix: (Units=GPa)
#
#
# Indices 1 2 3 4 5 6 
#
# 1 47.4307 45.3037 48.9971 -17.3744 18.7950 -4.5940
# 2 45.3037 248.1190 119.3987 -37.1983 33.9194 7.0301
# 3 48.9971 119.3987 226.8130 -19.4411 59.5592 -6.5650
# 4 -17.3744 -37.1983 -19.4411 45.0513 -7.5716 7.3383
# 5 18.7950 33.9194 59.5592 -7.5716 46.4293 -7.5163
# 6 -4.5940 7.0301 -6.5650 7.3383 -7.5163 41.0532
#
#
#
# Elastic Compliance Matrix: (Units=1/GPa)
#
#
# Indices 1 2 3 4 5 6 
#
# 1 0.032057 -0.002211 -0.003698 0.007908 -0.005164 0.001015
# 2 -0.002211 0.006296 -0.002528 0.003605 -0.000266 -0.002423
# 3 -0.003698 -0.002528 0.008456 -0.001182 -0.007667 0.000179
# 4 0.007908 0.003605 -0.001182 0.028459 -0.000503 -0.005101
# 5 -0.005164 -0.000266 -0.007667 -0.000503 0.034323 0.004616
# 6 0.001015 -0.002423 0.000179 -0.005101 0.004616 0.026673
#
#
# Mechanical properties :
#
#
# Convention : Reuss Voigt Hill
#
# Bulk Modulus (GPa) = 33.40604 105.52909 69.46756
# Shear Modulus (GPa) = 30.65314 47.08430 38.86872
#
# Velocity S-wave (km/s) = 3.56276 4.41557 4.01189
# Velocity P-wave (km/s) = 5.54595 8.34837 7.08706
#
# Compressibility (1/GPa) = 0.02993471
#
# Stress axis : x y z
#
# Youngs Moduli (GPa) = 31.19469 158.83110 118.26422
#
# Poissons Ratio (x) = 0.35116 0.43733
# Poissons Ratio (y) = 0.06897 0.29897
# Poissons Ratio (z) = 0.11536 0.40152
#
# Static dielectric constant tensor:
#      x y z
#    x 2.116580 0.021880 -0.129170 
#    y 0.021880 1.924570 0.006460 
#    z -0.129170 0.006460 1.913830 
# 
# From -- ./inp_files/86355.got.cif
#   From: 2010.05.17/outbox.cif.g08.bks.cpg/sg2_44_cif.got.tgz:86355.got - 2010.06.03 11:33:40.
