data_PCOD9086329
_publ_section_title
;
Structure prediction by ZEFSAII (Michael W. Deem and Ramdas Pophale) SiO2 
 PCOD9086329
Probable space group: P -1
;
_chemical_formula_sum "Si O2"
_cell_formula_units_Z 16
_cell_length_a 21.136887
_cell_length_b 11.741260
_cell_length_c 15.449864
_cell_angle_alpha 127.076744
_cell_angle_beta 150.926858
_cell_angle_gamma 32.403951
_cell_volume 853.723524
_symmetry_space_group_name_H-M "P -1"
_symmetry_group_IT_number 2
_symmetry_cell_setting 'triclinic'
loop_
_space_group_symop_operation_xyz
x,y,z
-x,-y,-z
loop_
_atom_site_type_symbol
_atom_site_label
_atom_site_fract_x
_atom_site_fract_y
_atom_site_fract_z
Si Si1 0.374201 0.222525 0.617592
Si Si2 0.761160 0.638705 0.798078
Si Si3 0.330425 0.955195 0.961365
Si Si4 0.650407 0.723793 0.897078
Si Si5 0.202758 0.577010 0.420945
Si Si6 0.076751 0.509045 0.717357
Si Si7 0.842612 0.855267 0.445329
Si Si8 0.205543 0.871067 0.627811
O O1 0.285189 0.391056 0.506996
O O2 0.164504 0.330344 0.461155
O O3 0.563325 0.934891 0.688407
O O4 0.491361 0.219210 0.827765
O O5 0.755588 0.592225 0.869591
O O6 0.730696 0.542186 0.647473
O O7 0.000000 0.500000 0.000000
O O8 0.362646 0.820635 0.857617
O O9 0.072381 0.169169 0.785308
O O10 0.348661 0.103524 0.021382
O O11 0.394639 0.900208 0.679809
O O12 0.785069 0.556318 0.066426
O O13 0.299817 0.645491 0.591371
O O14 0.030604 0.658715 0.652658
O O15 0.186953 0.268384 0.697355
O O16 0.888974 0.934752 0.467438
O O17 0.000000 0.000000 0.500000
#
# Coordination Sequence:
#
# PCOD9086329 Si02
#       8
#     2   2   2   2   2   2   2   2
#     4  11  20  35  61  93 112 146 200 245 288 337
#     4  11  20  37  61  87 117 152 192 250 288 328
#     4  10  19  36  57  87 120 146 190 241 292 334
#     4  11  20  36  59  89 120 145 196 248 289 326
#     4  11  21  38  57  85 119 160 190 229 291 347
#     4  11  20  34  61  92 117 146 194 244 296 336
#     4  11  22  36  58  90 119 153 188 241 294 343
#     4  10  22  39  59  80 123 160 185 230 292 362
#
# _framework density 18.741430000000001
#
# number of rings (size 3 to 8) (size 9 to 14) (size 15 to 20)
#    0.000    1.250    7.500    1.500    0.000    0.500 
#    0.000    3.125    0.000    0.750    0.000    0.000 
#    0.000    0.000    0.000    0.000    0.000    0.000 
#
# Total GULP energy -89339.688923 kJ/mol
# GULP energy per Si atom -5583.730558 kJ/mol
# Density = 1.869877 g / cm^3
# Si number density = 18.741430 Si / 1000 Ang^3
#
#
#
# Elastic Constant Matrix: (Units=GPa)
#
#
# Indices 1 2 3 4 5 6 
#
# 1 117.8374 30.7974 21.6156 5.3189 -25.4122 -7.5326
# 2 30.7974 75.4543 20.4793 20.5233 -12.5629 -18.9807
# 3 21.6156 20.4793 42.3021 9.7141 -24.0163 -7.3957
# 4 5.3189 20.5233 9.7141 34.6401 -9.0530 -1.8577
# 5 -25.4122 -12.5629 -24.0163 -9.0530 36.5635 2.5265
# 6 -7.5326 -18.9807 -7.3957 -1.8577 2.5265 23.2677
#
#
#
# Elastic Compliance Matrix: (Units=1/GPa)
#
#
# Indices 1 2 3 4 5 6 
#
# 1 0.010895 -0.004002 -0.000632 0.002535 0.006440 -0.000435
# 2 -0.004002 0.022690 -0.004888 -0.011177 -0.001999 0.014985
# 3 -0.000632 -0.004888 0.041706 -0.002004 0.024347 0.006261
# 4 0.002535 -0.011177 -0.002004 0.036928 0.006209 -0.006659
# 5 0.006440 -0.001999 0.024347 0.006209 0.048431 0.003430
# 6 -0.000435 0.014985 0.006261 -0.006659 0.003430 0.056147
#
#
# Mechanical properties :
#
#
# Convention : Reuss Voigt Hill
#
# Bulk Modulus (GPa) = 17.77891 42.37536 30.07714
# Shear Modulus (GPa) = 19.63952 29.74103 24.69027
#
# Velocity S-wave (km/s) = 3.24067 3.98793 3.63356
# Velocity P-wave (km/s) = 4.84867 6.62302 5.80405
#
# Compressibility (1/GPa) = 0.05624641
#
# Stress axis : x y z
#
# Youngs Moduli (GPa) = 91.78849 44.07252 23.97751
#
# Poissons Ratio (x) = 0.17639 0.01515
# Poissons Ratio (y) = 0.36735 0.11720
# Poissons Ratio (z) = 0.05798 0.21543
#
# Static dielectric constant tensor:
#      x y z
#    x 1.656720 -0.017590 -0.011710 
#    y -0.017590 1.658220 0.000240 
#    z -0.011710 0.000240 1.672780 
# 
# From -- ./inp_files/423507.got.cif
#   From: 2010.05.17/outbox.cif.g08.bks.cpg/sg2_212_cif.got.tgz:423507.got - 2010.06.03 11:33:40.
