data_PCOD9086119
_publ_section_title
;
Structure prediction by ZEFSAII (Michael W. Deem and Ramdas Pophale) SiO2 
 PCOD9086119
Probable space group: P -1
;
_chemical_formula_sum "Si O2"
_cell_formula_units_Z 16
_cell_length_a 10.798346
_cell_length_b 11.676411
_cell_length_c 17.194971
_cell_angle_alpha 152.763675
_cell_angle_beta 41.477259
_cell_angle_gamma 129.438359
_cell_volume 653.752872
_symmetry_space_group_name_H-M "P -1"
_symmetry_group_IT_number 2
_symmetry_cell_setting 'triclinic'
loop_
_space_group_symop_operation_xyz
x,y,z
-x,-y,-z
loop_
_atom_site_type_symbol
_atom_site_label
_atom_site_fract_x
_atom_site_fract_y
_atom_site_fract_z
Si Si1 0.007940 0.631784 0.355343
Si Si2 0.465164 0.715417 0.045776
Si Si3 0.625218 0.172161 0.663185
Si Si4 0.795066 0.916509 0.062469
Si Si5 0.162056 0.346521 0.385006
Si Si6 0.038327 0.649591 0.184095
Si Si7 0.637020 0.217663 0.469382
Si Si8 0.955982 0.886693 0.203284
O O1 0.154297 0.818600 0.427470
O O2 0.934904 0.714876 0.354704
O O3 0.875789 0.608165 0.477222
O O4 0.146611 0.377341 0.124229
O O5 0.450413 0.768167 0.177316
O O6 0.633847 0.893269 0.057370
O O7 0.246927 0.747215 0.143862
O O8 0.534956 0.426153 0.815861
O O9 0.553418 0.911841 0.513464
O O10 0.720395 0.100490 0.277877
O O11 0.000000 0.000000 0.000000
O O12 0.345952 0.484697 0.360877
O O13 0.000000 0.500000 0.500000
O O14 0.131649 0.054351 0.211261
O O15 0.954681 0.747567 0.201728
O O16 0.047447 0.346250 0.994017
O O17 0.776844 0.084045 0.387267
#
# Coordination Sequence:
#
# PCOD9086119 Si02
#       8
#     2   2   2   2   2   2   2   2
#     4  10  18  32  54  81  98 131 176 213 256 305
#     4   8  14  26  47  77 105 119 170 223 250 282
#     4   8  14  26  50  77 100 124 168 217 255 295
#     4  10  16  26  53  86  98 126 173 217 255 304
#     4  10  22  34  48  78 111 133 162 218 269 301
#     4  10  18  33  56  74  99 143 177 210 239 305
#     4  10  16  32  51  77 109 130 165 215 264 298
#     4  10  20  32  49  77 105 141 172 205 255 302
#
# _framework density 24.474081000000002
#
# number of rings (size 3 to 8) (size 9 to 14) (size 15 to 20)
#    0.000    2.500    3.750    1.500    0.000    0.500 
#    0.000    2.500    0.000    7.500    6.500    0.000 
#    0.000    0.000    0.000    0.000    0.000    0.000 
#
# Total GULP energy -89185.254986 kJ/mol
# GULP energy per Si atom -5574.078437 kJ/mol
# Density = 2.441838 g / cm^3
# Si number density = 24.474081 Si / 1000 Ang^3
#
#
#
# Elastic Constant Matrix: (Units=GPa)
#
#
# Indices 1 2 3 4 5 6 
#
# 1 87.1440 48.8048 19.8312 3.5775 34.3649 1.8857
# 2 48.8048 145.2161 31.2165 21.6043 21.9499 23.8307
# 3 19.8312 31.2165 66.7783 17.7123 16.5089 7.4668
# 4 3.5775 21.6043 17.7123 38.4395 7.8160 11.6108
# 5 34.3649 21.9499 16.5089 7.8160 25.1033 4.8079
# 6 1.8857 23.8307 7.4668 11.6108 4.8079 44.5621
#
#
#
# Elastic Compliance Matrix: (Units=1/GPa)
#
#
# Indices 1 2 3 4 5 6 
#
# 1 0.029521 -0.006018 0.001456 0.006619 -0.038974 0.004206
# 2 -0.006018 0.010187 -0.002268 -0.003393 0.002687 -0.004219
# 3 0.001456 -0.002268 0.019916 -0.005899 -0.011382 0.000579
# 4 0.006619 -0.003393 -0.005899 0.033952 -0.011819 -0.005049
# 5 -0.038974 0.002687 -0.011382 -0.011819 0.103140 -0.005929
# 6 0.004206 -0.004219 0.000579 -0.005049 -0.005929 0.026377
#
#
# Mechanical properties :
#
#
# Convention : Reuss Voigt Hill
#
# Bulk Modulus (GPa) = 21.75591 55.42704 38.59147
# Shear Modulus (GPa) = 19.83538 34.90671 27.37105
#
# Velocity S-wave (km/s) = 2.84995 3.78070 3.34783
# Velocity P-wave (km/s) = 4.44278 6.46178 5.54495
#
# Compressibility (1/GPa) = 0.04596452
#
# Stress axis : x y z
#
# Youngs Moduli (GPa) = 33.87426 98.16019 50.21008
#
# Poissons Ratio (x) = 0.59076 -0.07310
# Poissons Ratio (y) = 0.20387 0.11386
# Poissons Ratio (z) = -0.04931 0.22259
#
# Static dielectric constant tensor:
#      x y z
#    x 1.974030 0.002480 0.034470 
#    y 0.002480 2.136080 -0.007260 
#    z 0.034470 -0.007260 2.082590 
# 
# From -- ./inp_files/568327.got.cif
#   From: 2010.05.17/outbox.cif.g08.bks.cpg/sg2_285_cif.got.tgz:568327.got - 2010.06.03 11:33:40.
