data_PCOD9086095
_publ_section_title
;
Structure prediction by ZEFSAII (Michael W. Deem and Ramdas Pophale) SiO2 
 PCOD9086095
Probable space group: P -1
;
_chemical_formula_sum "Si O2"
_cell_formula_units_Z 15
_cell_length_a 14.152187
_cell_length_b 9.001981
_cell_length_c 16.455741
_cell_angle_alpha 60.047205
_cell_angle_beta 23.133097
_cell_angle_gamma 52.631386
_cell_volume 642.835331
_symmetry_space_group_name_H-M "P -1"
_symmetry_group_IT_number 2
_symmetry_cell_setting 'triclinic'
loop_
_space_group_symop_operation_xyz
x,y,z
-x,-y,-z
loop_
_atom_site_type_symbol
_atom_site_label
_atom_site_fract_x
_atom_site_fract_y
_atom_site_fract_z
Si Si1 0.817170 0.299182 0.449705
Si Si2 0.659568 0.382012 0.157782
Si Si3 0.740521 0.359038 0.792813
Si Si4 0.500000 0.500000 0.500000
Si Si5 0.445068 0.965051 0.229826
Si Si6 0.376981 0.258160 0.012519
Si Si7 0.839388 0.698075 0.120629
Si Si8 0.716816 0.699406 0.621018
O O1 0.565254 0.479855 0.638717
O O2 0.769773 0.352187 0.378055
O O3 0.773058 0.114812 0.556462
O O4 0.100012 0.278166 0.262842
O O5 0.691821 0.534241 0.029894
O O6 0.539828 0.250711 0.245990
O O7 0.939015 0.271224 0.011997
O O8 0.628148 0.220768 0.881491
O O9 0.778225 0.483851 0.655523
O O10 0.031975 0.281450 0.623589
O O11 0.500000 0.500000 0.000000
O O12 0.623607 0.657848 0.353329
O O13 0.536088 0.895295 0.086261
O O14 0.687434 0.851731 0.130740
O O15 0.343943 0.178873 0.281751
O O16 0.000000 0.500000 0.000000
#
# Coordination Sequence:
#
# PCOD9086095 Si02
#       8
#     2   2   2   1   2   2   2   2
#     4  10  18  31  56  83 110 147 191 228 264 323
#     4  10  19  33  58  82 112 154 190 222 269 339
#     4  10  22  42  65  78 105 151 193 234 287 340
#     4  10  16  26  52  80 108 144 182 230 252 312
#     4  10  22  35  55  87 121 146 178 238 279 329
#     4  10  19  35  59  85 108 146 195 231 275 328
#     4  11  17  33  55  85 114 151 190 216 272 330
#     4  10  23  41  56  84 117 143 186 238 287 332
#
# _framework density 23.334126000000001
#
# number of rings (size 3 to 8) (size 9 to 14) (size 15 to 20)
#    0.000    1.867    5.333    0.800    0.000    3.200 
#    0.000    1.333    0.000    1.600    0.000    0.000 
#    0.000    0.000    0.000    0.000    0.000    0.000 
#
# Total GULP energy -83534.195710 kJ/mol
# GULP energy per Si atom -5568.946381 kJ/mol
# Density = 2.328102 g / cm^3
# Si number density = 23.334126 Si / 1000 Ang^3
#
#
#
# Elastic Constant Matrix: (Units=GPa)
#
#
# Indices 1 2 3 4 5 6 
#
# 1 91.8961 29.2368 71.7499 -10.8237 -43.9841 22.8892
# 2 29.2368 71.5099 28.9560 -9.4808 -10.6048 17.1776
# 3 71.7499 28.9560 146.4496 -12.5352 -47.8589 17.5827
# 4 -10.8237 -9.4808 -12.5352 24.9211 8.1752 -4.6600
# 5 -43.9841 -10.6048 -47.8589 8.1752 42.0164 -11.7414
# 6 22.8892 17.1776 17.5827 -4.6600 -11.7414 32.3658
#
#
#
# Elastic Compliance Matrix: (Units=1/GPa)
#
#
# Indices 1 2 3 4 5 6 
#
# 1 0.027794 -0.004550 -0.005391 -0.000219 0.019854 -0.007142
# 2 -0.004550 0.017978 -0.001778 0.004365 -0.004920 -0.006514
# 3 -0.005391 -0.001778 0.012449 0.000742 0.008249 0.001092
# 4 -0.000219 0.004365 0.000742 0.044482 -0.006526 0.001472
# 5 0.019854 -0.004920 0.008249 -0.006526 0.054861 0.003051
# 6 -0.007142 -0.006514 0.001092 0.001472 0.003051 0.040131
#
#
# Mechanical properties :
#
#
# Convention : Reuss Voigt Hill
#
# Bulk Modulus (GPa) = 28.74832 63.30458 46.02645
# Shear Modulus (GPa) = 21.48461 31.85485 26.66973
#
# Velocity S-wave (km/s) = 3.03766 3.69882 3.38442
# Velocity P-wave (km/s) = 4.96490 6.74019 5.91947
#
# Compressibility (1/GPa) = 0.03478464
#
# Stress axis : x y z
#
# Youngs Moduli (GPa) = 35.97905 55.62339 80.32836
#
# Poissons Ratio (x) = 0.25309 0.43302
# Poissons Ratio (y) = 0.16370 0.14278
# Poissons Ratio (z) = 0.19395 0.09887
#
# Static dielectric constant tensor:
#      x y z
#    x 2.004410 -0.020840 0.018160 
#    y -0.020840 1.855870 0.010170 
#    z 0.018160 0.010170 1.948390 
# 
# From -- ./inp_files/521560.got.cif
#   From: 2010.05.17/outbox.cif.g08.bks.cpg/sg2_261_cif.got.tgz:521560.got - 2010.06.03 11:33:40.
