data_PCOD9086960
_publ_section_title
;
Structure prediction by ZEFSAII (Michael W. Deem and Ramdas Pophale) SiO2 
 PCOD9086960
Probable space group: P -1
;
_chemical_formula_sum "Si O2"
_cell_formula_units_Z 16
_cell_length_a 12.315180
_cell_length_b 7.744861
_cell_length_c 11.928919
_cell_angle_alpha 146.232994
_cell_angle_beta 77.073307
_cell_angle_gamma 100.518828
_cell_volume 616.354477
_symmetry_space_group_name_H-M "P -1"
_symmetry_group_IT_number 2
_symmetry_cell_setting 'triclinic'
loop_
_space_group_symop_operation_xyz
x,y,z
-x,-y,-z
loop_
_atom_site_type_symbol
_atom_site_label
_atom_site_fract_x
_atom_site_fract_y
_atom_site_fract_z
Si Si1 0.587887 0.297410 0.504134
Si Si2 0.799713 0.283105 0.855303
Si Si3 0.010502 0.264245 0.232253
Si Si4 0.249923 0.178200 0.679620
Si Si5 0.988664 0.067166 0.387421
Si Si6 0.750534 0.784067 0.785494
Si Si7 0.384965 0.714088 0.855281
Si Si8 0.438572 0.817239 0.157777
O O1 0.690438 0.528733 0.584655
O O2 0.493766 0.539139 0.694679
O O3 0.645763 0.052052 0.443585
O O4 0.520705 0.091582 0.320526
O O5 0.687018 0.186754 0.762948
O O6 0.796089 0.052522 0.839401
O O7 0.776840 0.627683 0.093885
O O8 0.925262 0.210314 0.750031
O O9 0.958324 0.604259 0.408119
O O10 0.141467 0.349576 0.253050
O O11 0.975923 0.130478 0.289717
O O12 0.000000 0.000000 0.000000
O O13 0.292424 0.445634 0.731174
O O14 0.134215 0.022477 0.591565
O O15 0.672082 0.959750 0.990104
O O16 0.417241 0.805916 0.024630
O O17 0.500000 0.500000 0.000000
#
# Coordination Sequence:
#
# PCOD9086960 Si02
#       8
#     2   2   2   2   2   2   2   2
#     4  12  20  37  63  82 118 159 196 238 291 341
#     4   9  20  37  60  85 120 154 189 243 292 342
#     4  10  21  39  62  88 118 152 192 243 290 348
#     4  10  19  36  61  86 112 159 194 236 289 347
#     4  10  20  39  62  85 119 154 193 239 294 342
#     4   9  20  39  57  88 118 147 199 240 288 349
#     4  10  23  38  57  86 121 157 190 243 292 340
#     4  10  20  37  57  85 116 148 199 236 284 347
#
# _framework density 25.959088000000001
#
# number of rings (size 3 to 8) (size 9 to 14) (size 15 to 20)
#    0.000    2.250    3.750    1.125    0.000    3.000 
#    2.250    2.500    0.000    8.250    0.000    0.000 
#    0.000    0.000    0.000    0.000    0.000    0.000 
#
# Total GULP energy -89341.419843 kJ/mol
# GULP energy per Si atom -5583.838740 kJ/mol
# Density = 2.590000 g / cm^3
# Si number density = 25.959088 Si / 1000 Ang^3
#
#
#
# Elastic Constant Matrix: (Units=GPa)
#
#
# Indices 1 2 3 4 5 6 
#
# 1 148.3076 15.2388 28.4849 5.9458 -3.5116 19.8213
# 2 15.2388 36.3849 24.3322 2.1549 11.0922 2.7841
# 3 28.4849 24.3322 110.6762 8.1787 17.1146 2.0753
# 4 5.9458 2.1549 8.1787 32.6838 -4.4312 5.3542
# 5 -3.5116 11.0922 17.1146 -4.4312 52.2407 12.9069
# 6 19.8213 2.7841 2.0753 5.3542 12.9069 31.1992
#
#
#
# Elastic Compliance Matrix: (Units=1/GPa)
#
#
# Indices 1 2 3 4 5 6 
#
# 1 0.008327 -0.002748 -0.002003 0.000694 0.003455 -0.006460
# 2 -0.002748 0.034346 -0.005820 -0.001447 -0.006153 0.001862
# 3 -0.002003 -0.005820 0.011583 -0.003165 -0.003730 0.003108
# 4 0.000694 -0.001447 -0.003165 0.033608 0.006340 -0.008492
# 5 0.003455 -0.006153 -0.003730 0.006340 0.025679 -0.013109
# 6 -0.006460 0.001862 0.003108 -0.008492 -0.013109 0.042664
#
#
# Mechanical properties :
#
#
# Convention : Reuss Voigt Hill
#
# Bulk Modulus (GPa) = 30.19917 47.94231 39.07074
# Shear Modulus (GPa) = 26.54090 38.37891 32.45991
#
# Velocity S-wave (km/s) = 3.20099 3.84922 3.53997
# Velocity P-wave (km/s) = 5.03194 6.18577 5.63845
#
# Compressibility (1/GPa) = 0.03311349
#
# Stress axis : x y z
#
# Youngs Moduli (GPa) = 120.08781 29.11530 86.33357
#
# Poissons Ratio (x) = 0.08000 0.17297
# Poissons Ratio (y) = 0.32997 0.50248
# Poissons Ratio (z) = 0.24059 0.16946
#
# Static dielectric constant tensor:
#      x y z
#    x 2.175190 0.074890 -0.135270 
#    y 0.074890 2.137330 -0.098470 
#    z -0.135270 -0.098470 2.175140 
# 
# From -- ./inp_files/569265.got.cif
#   From: 2010.05.17/outbox.cif.g08.bks.cpg/sg2_285_cif.got.tgz:569265.got - 2010.06.03 11:33:40.
