data_PCOD9086114
_publ_section_title
;
Structure prediction by ZEFSAII (Michael W. Deem and Ramdas Pophale) SiO2 
 PCOD9086114
Probable space group: P -1
;
_chemical_formula_sum "Si O2"
_cell_formula_units_Z 16
_cell_length_a 5.255565
_cell_length_b 12.570924
_cell_length_c 12.525209
_cell_angle_alpha 83.894993
_cell_angle_beta 74.120432
_cell_angle_gamma 110.683118
_cell_volume 725.435286
_symmetry_space_group_name_H-M "P -1"
_symmetry_group_IT_number 2
_symmetry_cell_setting 'triclinic'
loop_
_space_group_symop_operation_xyz
x,y,z
-x,-y,-z
loop_
_atom_site_type_symbol
_atom_site_label
_atom_site_fract_x
_atom_site_fract_y
_atom_site_fract_z
Si Si1 0.175117 0.715458 0.132318
Si Si2 0.286706 0.098204 0.003457
Si Si3 0.632811 0.957400 0.773588
Si Si4 0.188773 0.488117 0.078833
Si Si5 0.899487 0.058131 0.402120
Si Si6 0.031925 0.225853 0.647948
Si Si7 0.424591 0.814853 0.453054
Si Si8 0.954015 0.235322 0.105186
O O1 0.208843 0.593138 0.142560
O O2 0.941425 0.718735 0.243697
O O3 0.472592 0.825328 0.115185
O O4 0.120717 0.742372 0.012364
O O5 0.369052 0.036476 0.098620
O O6 0.217535 0.198795 0.059924
O O7 0.000000 0.000000 0.000000
O O8 0.301651 0.874277 0.801542
O O9 0.818038 0.890898 0.707871
O O10 0.827797 0.087702 0.699415
O O11 0.031000 0.354266 0.147742
O O12 0.500000 0.500000 0.000000
O O13 0.000000 0.500000 0.000000
O O14 0.765893 0.150481 0.441561
O O15 0.645486 0.949045 0.385819
O O16 0.000000 0.000000 0.500000
O O17 0.818662 0.260505 0.594820
O O18 0.335530 0.240092 0.558495
#
# Coordination Sequence:
#
# PCOD9086114 Si02
#       8
#     2   2   2   2   2   2   2   2
#     4  10  22  35  53  78 109 153 189 227 272 325
#     4  11  21  32  51  78 119 152 179 213 275 336
#     4  10  22  33  51  83 112 149 181 226 273 338
#     4  10  20  38  58  75 104 148 197 236 264 311
#     4  10  19  36  55  77 110 148 187 225 279 323
#     4  11  22  34  53  80 114 144 184 221 279 330
#     4  10  21  34  52  79 108 143 182 229 269 332
#     4  10  21  35  52  79 112 149 189 229 271 322
#
# _framework density 22.055724999999999
#
# number of rings (size 3 to 8) (size 9 to 14) (size 15 to 20)
#    0.000    1.750    3.750    1.500    8.750    2.000 
#    0.000    0.000    0.000    0.000    0.000    1.750 
#    0.000    0.125    0.000    0.000    0.000    0.000 
#
# Total GULP energy -89114.024455 kJ/mol
# GULP energy per Si atom -5569.626528 kJ/mol
# Density = 2.200552 g / cm^3
# Si number density = 22.055725 Si / 1000 Ang^3
#
#
#
# Elastic Constant Matrix: (Units=GPa)
#
#
# Indices 1 2 3 4 5 6 
#
# 1 104.9388 8.2026 23.4953 9.9390 -19.4267 -3.8010
# 2 8.2026 84.0657 1.4658 19.5855 1.0392 -10.6852
# 3 23.4953 1.4658 74.1451 19.7485 -20.7497 -5.3345
# 4 9.9390 19.5855 19.7485 21.1222 -8.8365 -5.2909
# 5 -19.4267 1.0392 -20.7497 -8.8365 37.0215 10.0160
# 6 -3.8010 -10.6852 -5.3345 -5.2909 10.0160 21.8161
#
#
#
# Elastic Compliance Matrix: (Units=1/GPa)
#
#
# Indices 1 2 3 4 5 6 
#
# 1 0.010988 -0.001189 -0.002062 -0.000457 0.004956 -0.001558
# 2 -0.001189 0.017679 0.004487 -0.020526 -0.005414 0.007056
# 3 -0.002062 0.004487 0.021164 -0.020684 0.005911 -0.000717
# 4 -0.000457 -0.020526 -0.020684 0.090583 0.009740 0.002306
# 5 0.004956 -0.005414 0.005911 0.009740 0.039799 -0.016253
# 6 -0.001558 0.007056 -0.000717 0.002306 -0.016253 0.056868
#
#
# Mechanical properties :
#
#
# Convention : Reuss Voigt Hill
#
# Bulk Modulus (GPa) = 19.11928 36.60856 27.86392
# Shear Modulus (GPa) = 19.83793 31.32436 25.58114
#
# Velocity S-wave (km/s) = 3.00233 3.77269 3.40934
# Velocity P-wave (km/s) = 4.55039 5.96757 5.30650
#
# Compressibility (1/GPa) = 0.05230322
#
# Stress axis : x y z
#
# Youngs Moduli (GPa) = 91.00570 56.56373 47.25113
#
# Poissons Ratio (x) = 0.06726 0.09742
# Poissons Ratio (y) = 0.10821 -0.21202
# Poissons Ratio (z) = 0.18764 -0.25380
#
# Static dielectric constant tensor:
#      x y z
#    x 1.939330 -0.045100 0.060310 
#    y -0.045100 1.832200 0.035440 
#    z 0.060310 0.035440 1.852140 
# 
# From -- ./inp_files/75745.got.cif
#   From: 2010.05.17/outbox.cif.g08.bks.cpg/sg2_38_cif.got.tgz:75745.got - 2010.06.03 11:33:40.
