data_PCOD9086467
_publ_section_title
;
Structure prediction by ZEFSAII (Michael W. Deem and Ramdas Pophale) SiO2 
 PCOD9086467
Probable space group: P -1
;
_chemical_formula_sum "Si O2"
_cell_formula_units_Z 16
_cell_length_a 14.604428
_cell_length_b 7.917191
_cell_length_c 22.642275
_cell_angle_alpha 58.669848
_cell_angle_beta 161.855474
_cell_angle_gamma 117.856896
_cell_volume 692.857607
_symmetry_space_group_name_H-M "P -1"
_symmetry_group_IT_number 2
_symmetry_cell_setting 'triclinic'
loop_
_space_group_symop_operation_xyz
x,y,z
-x,-y,-z
loop_
_atom_site_type_symbol
_atom_site_label
_atom_site_fract_x
_atom_site_fract_y
_atom_site_fract_z
Si Si1 0.680173 0.058755 0.657128
Si Si2 0.373715 0.693002 0.087525
Si Si3 0.612985 0.766025 0.101221
Si Si4 0.394237 0.134123 0.178244
Si Si5 0.656875 0.862815 0.984415
Si Si6 0.819903 0.378887 0.458665
Si Si7 0.195994 0.370085 0.190207
Si Si8 0.295592 0.730605 0.248799
O O1 0.704449 0.839010 0.742053
O O2 0.500000 0.000000 0.500000
O O3 0.581981 0.211932 0.622069
O O4 0.991014 0.126666 0.812112
O O5 0.446240 0.652900 0.070380
O O6 0.539557 0.542308 0.263747
O O7 0.466030 0.909730 0.118573
O O8 0.028550 0.695379 0.885739
O O9 0.957447 0.705000 0.339250
O O10 0.581250 0.735682 0.017549
O O11 0.500000 0.000000 0.000000
O O12 0.461432 0.186156 0.142606
O O13 0.668614 0.198998 0.370504
O O14 0.364413 0.902767 0.214052
O O15 0.065274 0.243675 0.970340
O O16 0.000000 0.500000 0.500000
O O17 0.394505 0.514847 0.320852
O O18 0.000000 0.500000 0.000000
#
# Coordination Sequence:
#
# PCOD9086467 Si02
#       8
#     2   2   2   2   2   2   2   2
#     4  10  23  36  56  90 124 160 198 249 307 362
#     4   9  18  35  55  84 111 147 201 239 291 356
#     4   9  19  36  57  82 112 153 190 237 303 352
#     4  10  19  36  58  87 117 153 199 249 295 352
#     4   9  19  36  58  80 115 153 196 244 299 355
#     4  10  20  35  61  84 109 155 199 238 289 355
#     4  11  20  35  62  87 117 160 202 247 299 358
#     4  10  20  36  59  88 124 159 200 251 302 355
#
# _framework density 23.092768
#
# number of rings (size 3 to 8) (size 9 to 14) (size 15 to 20)
#    0.000    2.250    1.250    3.000    1.750    0.500 
#    0.000    8.125    0.000    1.500    0.000    0.000 
#    0.000    0.000    0.000    0.000    0.000    0.000 
#
# Total GULP energy -89161.062341 kJ/mol
# GULP energy per Si atom -5572.566396 kJ/mol
# Density = 2.304021 g / cm^3
# Si number density = 23.092768 Si / 1000 Ang^3
#
#
#
# Elastic Constant Matrix: (Units=GPa)
#
#
# Indices 1 2 3 4 5 6 
#
# 1 125.8914 15.1564 19.7574 6.3223 -24.9719 5.9282
# 2 15.1564 83.1466 0.0235 7.7088 -0.6314 -4.3453
# 3 19.7574 0.0235 49.5874 -3.8557 -14.2314 8.1181
# 4 6.3223 7.7088 -3.8557 30.1992 2.0465 -6.9620
# 5 -24.9719 -0.6314 -14.2314 2.0465 31.8637 -2.7949
# 6 5.9282 -4.3453 8.1181 -6.9620 -2.7949 15.4527
#
#
#
# Elastic Compliance Matrix: (Units=1/GPa)
#
#
# Indices 1 2 3 4 5 6 
#
# 1 0.010143 -0.001687 -0.001665 -0.003229 0.007057 -0.003669
# 2 -0.001687 0.012695 -0.000250 -0.002117 -0.000761 0.003257
# 3 -0.001665 -0.000250 0.025217 0.000530 0.008969 -0.010818
# 4 -0.003229 -0.002117 0.000530 0.038575 -0.003310 0.017146
# 5 0.007057 -0.000761 0.008969 -0.003310 0.040968 -0.001715
# 6 -0.003669 0.003257 -0.010818 0.017146 -0.001715 0.080135
#
#
# Mechanical properties :
#
#
# Convention : Reuss Voigt Hill
#
# Bulk Modulus (GPa) = 24.48008 36.50000 30.49004
# Shear Modulus (GPa) = 21.87675 30.41566 26.14620
#
# Velocity S-wave (km/s) = 3.08123 3.63313 3.36851
# Velocity P-wave (km/s) = 4.82519 5.78271 5.32551
#
# Compressibility (1/GPa) = 0.04084953
#
# Stress axis : x y z
#
# Youngs Moduli (GPa) = 98.59318 78.76952 39.65648
#
# Poissons Ratio (x) = 0.13289 0.06605
# Poissons Ratio (y) = 0.16634 0.00991
# Poissons Ratio (z) = 0.16420 0.01969
#
# Static dielectric constant tensor:
#      x y z
#    x 1.978150 -0.035370 0.036690 
#    y -0.035370 1.927190 -0.047010 
#    z 0.036690 -0.047010 1.947690 
# 
# From -- ./inp_files/597353.got.cif
#   From: 2010.05.17/outbox.cif.g08.bks.cpg/sg2_299_cif.got.tgz:597353.got - 2010.06.03 11:33:40.
