data_PCOD9086858
_publ_section_title
;
Structure prediction by ZEFSAII (Michael W. Deem and Ramdas Pophale) SiO2 
 PCOD9086858
Probable space group: P -1
;
_chemical_formula_sum "Si O2"
_cell_formula_units_Z 16
_cell_length_a 12.260126
_cell_length_b 9.446404
_cell_length_c 18.253768
_cell_angle_alpha 140.297323
_cell_angle_beta 49.774692
_cell_angle_gamma 101.055972
_cell_volume 804.464725
_symmetry_space_group_name_H-M "P -1"
_symmetry_group_IT_number 2
_symmetry_cell_setting 'triclinic'
loop_
_space_group_symop_operation_xyz
x,y,z
-x,-y,-z
loop_
_atom_site_type_symbol
_atom_site_label
_atom_site_fract_x
_atom_site_fract_y
_atom_site_fract_z
Si Si1 0.318693 0.876279 0.910583
Si Si2 0.556186 0.771299 0.175100
Si Si3 0.904503 0.832813 0.667018
Si Si4 0.865350 0.765533 0.495573
Si Si5 0.333713 0.827010 0.713178
Si Si6 0.462107 0.633880 0.894573
Si Si7 0.739074 0.550164 0.853478
Si Si8 0.938231 0.176232 0.267502
O O1 0.299793 0.832695 0.816944
O O2 0.479798 0.648449 0.805444
O O3 0.315720 0.143943 0.018908
O O4 0.139182 0.959499 0.060591
O O5 0.599256 0.554512 0.133250
O O6 0.336937 0.997678 0.351824
O O7 0.625241 0.954151 0.230060
O O8 0.648889 0.591906 0.988149
O O9 0.886156 0.882548 0.608571
O O10 0.000000 0.500000 0.500000
O O11 0.033206 0.863439 0.673271
O O12 0.700744 0.047601 0.876467
O O13 0.876967 0.489148 0.398648
O O14 0.040243 0.663704 0.330309
O O15 0.500000 0.500000 0.500000
O O16 0.184589 0.881741 0.743152
O O17 0.642987 0.506423 0.812956
#
# Coordination Sequence:
#
# PCOD9086858 Si02
#       8
#     2   2   2   2   2   2   2   2
#     4   9  21  36  59  88 113 154 203 247 289 358
#     4  11  23  39  59  90 126 157 197 247 295 360
#     4   9  19  34  60  87 119 151 191 246 290 349
#     4  10  19  36  60  91 121 154 200 243 293 350
#     4  11  21  37  63  83 114 157 207 244 292 353
#     4  11  21  39  58  88 130 156 190 249 307 345
#     4  10  21  36  63  87 119 163 197 236 301 362
#     4   9  18  36  59  86 112 153 203 247 288 342
#
# _framework density 19.889001
#
# number of rings (size 3 to 8) (size 9 to 14) (size 15 to 20)
#    0.000    2.000    2.500    1.875    0.000    1.500 
#    0.000    3.125    0.000    0.000    0.000    0.000 
#    0.000    0.000    0.000    0.000    0.000    0.000 
#
# Total GULP energy -89213.759023 kJ/mol
# GULP energy per Si atom -5575.859939 kJ/mol
# Density = 1.984373 g / cm^3
# Si number density = 19.889001 Si / 1000 Ang^3
#
#
#
# Elastic Constant Matrix: (Units=GPa)
#
#
# Indices 1 2 3 4 5 6 
#
# 1 138.8007 36.7643 28.0994 -4.3344 20.4418 6.2663
# 2 36.7643 51.5642 14.0905 2.6034 3.9671 -3.5318
# 3 28.0994 14.0905 63.5540 -0.1391 -3.6066 4.8195
# 4 -4.3344 2.6034 -0.1391 16.5363 2.1534 2.4931
# 5 20.4418 3.9671 -3.6066 2.1534 22.1200 -5.5457
# 6 6.2663 -3.5318 4.8195 2.4931 -5.5457 9.8467
#
#
#
# Elastic Compliance Matrix: (Units=1/GPa)
#
#
# Indices 1 2 3 4 5 6 
#
# 1 0.015542 -0.010991 -0.003543 0.012595 -0.020992 -0.027111
# 2 -0.010991 0.029909 -0.003352 -0.013908 0.013202 0.030320
# 3 -0.003543 -0.003352 0.018735 -0.000266 0.005749 -0.004812
# 4 0.012595 -0.013908 -0.000266 0.077059 -0.028889 -0.048654
# 5 -0.020992 0.013202 0.005749 -0.028889 0.083436 0.069587
# 6 -0.027111 0.030320 -0.004812 -0.048654 0.069587 0.183552
#
#
# Mechanical properties :
#
#
# Convention : Reuss Voigt Hill
#
# Bulk Modulus (GPa) = 35.19357 45.75859 40.47608
# Shear Modulus (GPa) = 11.02599 21.36492 16.19545
#
# Velocity S-wave (km/s) = 2.35707 3.28107 2.85668
# Velocity P-wave (km/s) = 5.01409 6.11644 5.59249
#
# Compressibility (1/GPa) = 0.02841428
#
# Stress axis : x y z
#
# Youngs Moduli (GPa) = 64.34253 33.43506 53.37677
#
# Poissons Ratio (x) = 0.36748 0.18910
# Poissons Ratio (y) = 0.70717 0.17892
# Poissons Ratio (z) = 0.22794 0.11208
#
# Static dielectric constant tensor:
#      x y z
#    x 1.930380 -0.128190 -0.077240 
#    y -0.128190 1.824070 0.110730 
#    z -0.077240 0.110730 1.975850 
# 
# From -- ./inp_files/280109.got.cif
#   From: 2010.05.17/outbox.cif.g08.bks.cpg/sg2_141_cif.got.tgz:280109.got - 2010.06.03 11:33:40.
