data_PCOD9086101
_publ_section_title
;
Structure prediction by ZEFSAII (Michael W. Deem and Ramdas Pophale) SiO2 
 PCOD9086101
Probable space group: P -1
;
_chemical_formula_sum "Si O2"
_cell_formula_units_Z 14
_cell_length_a 8.272515
_cell_length_b 15.199619
_cell_length_c 11.249162
_cell_angle_alpha 75.393625
_cell_angle_beta 53.187728
_cell_angle_gamma 115.984619
_cell_volume 711.472358
_symmetry_space_group_name_H-M "P -1"
_symmetry_group_IT_number 2
_symmetry_cell_setting 'triclinic'
loop_
_space_group_symop_operation_xyz
x,y,z
-x,-y,-z
loop_
_atom_site_type_symbol
_atom_site_label
_atom_site_fract_x
_atom_site_fract_y
_atom_site_fract_z
Si Si1 0.504769 0.650316 0.002219
Si Si2 0.927977 0.172166 0.638424
Si Si3 0.830305 0.868024 0.980839
Si Si4 0.681269 0.840791 0.658599
Si Si5 0.530069 0.903335 0.502875
Si Si6 0.024740 0.331663 0.336919
Si Si7 0.756535 0.048821 0.012312
O O1 0.602234 0.722995 0.061828
O O2 0.512324 0.737658 0.879364
O O3 0.767821 0.671181 0.827264
O O4 0.190731 0.485002 0.199718
O O5 0.884776 0.146093 0.807391
O O6 0.197385 0.197368 0.468289
O O7 0.007632 0.292854 0.494173
O O8 0.586162 0.028341 0.784598
O O9 0.693800 0.920252 0.053796
O O10 0.113341 0.989451 0.726131
O O11 0.996501 0.875062 0.016274
O O12 0.466313 0.832582 0.679066
O O13 0.000000 0.000000 0.500000
O O14 0.310057 0.789415 0.536059
O O15 0.500000 0.000000 0.500000
#
# Coordination Sequence:
#
# PCOD9086101 Si02
#       7
#     2   2   2   2   2   2   2
#     4  10  21  38  56  84 115 146 178 230 292 336
#     4  10  19  36  54  84 112 146 186 232 274 321
#     4  11  20  36  56  85 111 146 192 229 270 329
#     4  11  20  33  59  86 113 138 186 237 282 329
#     4  12  20  34  59  88 111 142 185 234 283 329
#     4  10  21  36  59  82 116 146 176 232 293 331
#     4  10  21  33  59  82 110 149 195 230 259 321
#
# _framework density 19.677503999999999
#
# number of rings (size 3 to 8) (size 9 to 14) (size 15 to 20)
#    0.000    1.429    5.714    0.857    0.000    0.571 
#    0.000    1.429    0.000    0.000    0.000    0.000 
#    0.000    0.000    0.000    0.000    0.000    0.000 
#
# Total GULP energy -78132.910562 kJ/mol
# GULP energy per Si atom -5580.922183 kJ/mol
# Density = 1.963272 g / cm^3
# Si number density = 19.677504 Si / 1000 Ang^3
#
#
#
# Elastic Constant Matrix: (Units=GPa)
#
#
# Indices 1 2 3 4 5 6 
#
# 1 124.6779 37.6278 21.9269 -11.5568 37.5480 8.5185
# 2 37.6278 83.1001 22.4782 -20.8098 12.7978 11.5924
# 3 21.9269 22.4782 51.3184 -13.5347 21.0753 -0.8780
# 4 -11.5568 -20.8098 -13.5347 30.6425 -7.9737 0.8704
# 5 37.5480 12.7978 21.0753 -7.9737 42.2226 6.6973
# 6 8.5185 11.5924 -0.8780 0.8704 6.6973 22.0543
#
#
#
# Elastic Compliance Matrix: (Units=1/GPa)
#
#
# Indices 1 2 3 4 5 6 
#
# 1 0.012147 -0.004435 0.000700 -0.000764 -0.010071 0.000756
# 2 -0.004435 0.018838 -0.005784 0.010065 0.004644 -0.010227
# 3 0.000700 -0.005784 0.028791 0.005326 -0.013471 0.007797
# 4 -0.000764 0.010065 0.005326 0.042874 0.004301 -0.007782
# 5 -0.010071 0.004644 -0.013471 0.004301 0.040607 -0.011589
# 6 0.000756 -0.010227 0.007797 -0.007782 -0.011589 0.054563
#
#
# Mechanical properties :
#
#
# Convention : Reuss Voigt Hill
#
# Bulk Modulus (GPa) = 24.54721 47.01801 35.78261
# Shear Modulus (GPa) = 21.69785 30.78811 26.24298
#
# Velocity S-wave (km/s) = 3.32425 3.95984 3.65588
# Velocity P-wave (km/s) = 5.21882 6.69726 6.00372
#
# Compressibility (1/GPa) = 0.04073783
#
# Stress axis : x y z
#
# Youngs Moduli (GPa) = 82.32728 53.08324 34.73309
#
# Poissons Ratio (x) = 0.23543 -0.02432
# Poissons Ratio (y) = 0.36513 0.20090
# Poissons Ratio (z) = -0.05765 0.30704
#
# Static dielectric constant tensor:
#      x y z
#    x 1.743920 -0.029690 0.002130 
#    y -0.029690 1.716250 0.054580 
#    z 0.002130 0.054580 1.700950 
# 
# From -- ./inp_files/155486.got.cif
#   From: 2010.05.17/outbox.cif.g08.bks.cpg/sg2_78_cif.got.tgz:155486.got - 2010.06.03 11:33:40.
