data_PCOD9086179
_publ_section_title
;
Structure prediction by ZEFSAII (Michael W. Deem and Ramdas Pophale) SiO2 
 PCOD9086179
Probable space group: P -1
;
_chemical_formula_sum "Si O2"
_cell_formula_units_Z 14
_cell_length_a 9.552791
_cell_length_b 10.116450
_cell_length_c 13.181708
_cell_angle_alpha 106.497775
_cell_angle_beta 65.953039
_cell_angle_gamma 134.696207
_cell_volume 826.939242
_symmetry_space_group_name_H-M "P -1"
_symmetry_group_IT_number 2
_symmetry_cell_setting 'triclinic'
loop_
_space_group_symop_operation_xyz
x,y,z
-x,-y,-z
loop_
_atom_site_type_symbol
_atom_site_label
_atom_site_fract_x
_atom_site_fract_y
_atom_site_fract_z
Si Si1 0.486130 0.561407 0.126985
Si Si2 0.752904 0.696731 0.255826
Si Si3 0.989313 0.673838 0.739604
Si Si4 0.490290 0.758721 0.472445
Si Si5 0.860468 0.964291 0.126529
Si Si6 0.880308 0.551802 0.345998
Si Si7 0.802502 0.190802 0.513782
O O1 0.609371 0.551386 0.175549
O O2 0.622303 0.783711 0.133457
O O3 0.500000 0.500000 0.000000
O O4 0.253295 0.445148 0.203927
O O5 0.608301 0.709524 0.368372
O O6 0.855372 0.644292 0.283168
O O7 0.907423 0.893261 0.193676
O O8 0.043482 0.552958 0.732582
O O9 0.069976 0.735495 0.613502
O O10 0.102649 0.858127 0.812857
O O11 0.340242 0.605339 0.568098
O O12 0.344141 0.762671 0.442578
O O13 0.655889 0.968425 0.512631
O O14 0.000000 0.000000 0.000000
O O15 0.041609 0.701986 0.415883
#
# Coordination Sequence:
#
# PCOD9086179 Si02
#       7
#     2   2   2   2   2   2   2
#     4  10  20  36  62  81 100 144 197 234 272 335
#     4  10  21  38  55  84 118 142 184 241 279 317
#     4  11  19  37  60  80 113 153 186 223 277 333
#     4  10  19  36  56  82 118 154 189 216 264 344
#     4  10  21  39  61  82 102 142 198 237 272 333
#     4  11  23  34  54  89 121 147 178 231 282 328
#     4  10  20  34  57  85 115 155 190 215 266 343
#
# _framework density 16.9299
#
# number of rings (size 3 to 8) (size 9 to 14) (size 15 to 20)
#    0.857    0.857    2.857    3.857    0.000    0.571 
#    2.571    2.857    0.000    1.714    0.000    0.000 
#    0.000    0.000    0.000    0.000    0.000    0.000 
#
# Total GULP energy -78039.468149 kJ/mol
# GULP energy per Si atom -5574.247725 kJ/mol
# Density = 1.689137 g / cm^3
# Si number density = 16.929900 Si / 1000 Ang^3
#
#
#
# Elastic Constant Matrix: (Units=GPa)
#
#
# Indices 1 2 3 4 5 6 
#
# 1 89.8220 46.5905 62.2776 10.8112 5.8869 -4.9526
# 2 46.5905 89.8399 39.3653 11.6756 4.0890 14.6921
# 3 62.2776 39.3653 83.3348 17.6256 3.9344 -6.5055
# 4 10.8112 11.6756 17.6256 30.5755 6.6717 -0.6583
# 5 5.8869 4.0890 3.9344 6.6717 10.2706 -5.4973
# 6 -4.9526 14.6921 -6.5055 -0.6583 -5.4973 25.9420
#
#
#
# Elastic Compliance Matrix: (Units=1/GPa)
#
#
# Indices 1 2 3 4 5 6 
#
# 1 0.026772 -0.007371 -0.016901 0.004703 -0.007022 0.003679
# 2 -0.007371 0.020215 -0.004718 -0.000471 -0.010411 -0.016257
# 3 -0.016901 -0.004718 0.029476 -0.011835 0.012927 0.009276
# 4 0.004703 -0.000471 -0.011835 0.044613 -0.030808 -0.007199
# 5 -0.007022 -0.010411 0.012927 -0.030808 0.140258 0.036737
# 6 0.003679 -0.016257 0.009276 -0.007199 0.036737 0.058385
#
#
# Mechanical properties :
#
#
# Convention : Reuss Voigt Hill
#
# Bulk Modulus (GPa) = 54.10786 62.16261 58.13524
# Shear Modulus (GPa) = 13.02558 21.00852 17.01705
#
# Velocity S-wave (km/s) = 2.77678 3.52648 3.17385
# Velocity P-wave (km/s) = 6.50462 7.30608 6.91696
#
# Compressibility (1/GPa) = 0.01848160
#
# Stress axis : x y z
#
# Youngs Moduli (GPa) = 37.35260 49.46893 33.92608
#
# Poissons Ratio (x) = 0.36466 0.57338
# Poissons Ratio (y) = 0.27534 0.16006
# Poissons Ratio (z) = 0.63130 0.23339
#
# Static dielectric constant tensor:
#      x y z
#    x 1.551930 0.010740 0.005440 
#    y 0.010740 1.594150 -0.000490 
#    z 0.005440 -0.000490 1.569680 
# 
# From -- ./inp_files/388761.got.cif
#   From: 2010.05.17/outbox.cif.g08.bks.cpg/sg2_195_cif.got.tgz:388761.got - 2010.06.03 11:33:40.
