data_PCOD9086710
_publ_section_title
;
Structure prediction by ZEFSAII (Michael W. Deem and Ramdas Pophale) SiO2 
 PCOD9086710
Probable space group: P -1
;
_chemical_formula_sum "Si O2"
_cell_formula_units_Z 16
_cell_length_a 14.942224
_cell_length_b 9.448677
_cell_length_c 7.509557
_cell_angle_alpha 126.110016
_cell_angle_beta 130.151427
_cell_angle_gamma 58.276007
_cell_volume 636.180097
_symmetry_space_group_name_H-M "P -1"
_symmetry_group_IT_number 2
_symmetry_cell_setting 'triclinic'
loop_
_space_group_symop_operation_xyz
x,y,z
-x,-y,-z
loop_
_atom_site_type_symbol
_atom_site_label
_atom_site_fract_x
_atom_site_fract_y
_atom_site_fract_z
Si Si1 0.777862 0.115158 0.771298
Si Si2 0.227837 0.496277 0.864745
Si Si3 0.122802 0.076184 0.911754
Si Si4 0.866293 0.566394 0.957390
Si Si5 0.838371 0.190146 0.541966
Si Si6 0.489656 0.325073 0.239836
Si Si7 0.495008 0.844096 0.516947
Si Si8 0.623197 0.478784 0.257812
O O1 0.781833 0.086931 0.545328
O O2 0.640417 0.176247 0.701531
O O3 0.823414 0.294626 0.994263
O O4 0.848594 0.958037 0.869717
O O5 0.262914 0.514735 0.717023
O O6 0.139459 0.415665 0.820612
O O7 0.358523 0.387967 0.028695
O O8 0.980900 0.134445 0.734018
O O9 0.170153 0.893544 0.724535
O O10 0.180614 0.234479 0.032382
O O11 0.803120 0.407769 0.690443
O O12 0.000000 0.500000 0.000000
O O13 0.500000 0.500000 0.500000
O O14 0.496417 0.157856 0.258099
O O15 0.599802 0.316722 0.235968
O O16 0.593843 0.668686 0.461002
O O17 0.500000 0.000000 0.500000
O O18 0.500000 0.500000 0.000000
#
# Coordination Sequence:
#
# PCOD9086710 Si02
#       8
#     2   2   2   2   2   2   2   2
#     4  11  21  37  59  91 121 159 210 256 311 373
#     4  10  19  36  60  83 115 162 205 244 311 366
#     4  10  21  40  64  91 125 157 206 263 316 373
#     4   9  20  39  64  93 123 157 206 257 310 381
#     4   9  21  42  64  88 121 166 202 254 324 376
#     4   9  17  35  56  76 112 162 198 242 297 362
#     4  11  23  36  53  87 125 154 205 257 304 360
#     4   9  17  37  56  76 107 157 205 243 285 367
#
# _framework density 25.150107999999999
#
# number of rings (size 3 to 8) (size 9 to 14) (size 15 to 20)
#    0.000    2.250    3.750    0.375    1.750    2.000 
#    2.250    5.000    0.000   12.750    0.000    0.000 
#    0.000    0.000    0.000    0.000    0.000    0.000 
#
# Total GULP energy -89178.760341 kJ/mol
# GULP energy per Si atom -5573.672521 kJ/mol
# Density = 2.509287 g / cm^3
# Si number density = 25.150108 Si / 1000 Ang^3
#
#
#
# Elastic Constant Matrix: (Units=GPa)
#
#
# Indices 1 2 3 4 5 6 
#
# 1 165.6200 43.0706 21.0281 -3.7485 -19.2654 29.3795
# 2 43.0706 151.2770 19.1686 -10.9500 -17.2849 45.6098
# 3 21.0281 19.1686 38.4967 -5.1686 -14.7290 7.7414
# 4 -3.7485 -10.9500 -5.1686 24.8017 7.4342 -10.3394
# 5 -19.2654 -17.2849 -14.7290 7.4342 24.8177 -15.2586
# 6 29.3795 45.6098 7.7414 -10.3394 -15.2586 60.9462
#
#
#
# Elastic Compliance Matrix: (Units=1/GPa)
#
#
# Indices 1 2 3 4 5 6 
#
# 1 0.007219 -0.000949 -0.002171 -0.001481 0.002849 -0.002032
# 2 -0.000949 0.009041 -0.002636 0.000830 0.000190 -0.005785
# 3 -0.002171 -0.002636 0.035297 0.001625 0.019159 0.003608
# 4 -0.001481 0.000830 0.001625 0.046007 -0.010236 0.005129
# 5 0.002849 0.000190 0.019159 -0.010236 0.063327 0.010169
# 6 -0.002032 -0.005785 0.003608 0.005129 0.010169 0.024674
#
#
# Mechanical properties :
#
#
# Convention : Reuss Voigt Hill
#
# Bulk Modulus (GPa) = 24.97169 57.99204 41.48187
# Shear Modulus (GPa) = 23.76150 40.25487 32.00819
#
# Velocity S-wave (km/s) = 3.07707 4.00507 3.57134
# Velocity P-wave (km/s) = 4.75133 6.67052 5.79098
#
# Compressibility (1/GPa) = 0.04004534
#
# Stress axis : x y z
#
# Youngs Moduli (GPa) = 138.52965 110.61272 28.33078
#
# Poissons Ratio (x) = 0.10501 0.06150
# Poissons Ratio (y) = 0.13152 0.07467
# Poissons Ratio (z) = 0.30071 0.29152
#
# Static dielectric constant tensor:
#      x y z
#    x 2.115430 0.069370 0.072110 
#    y 0.069370 2.087240 -0.020520 
#    z 0.072110 -0.020520 2.341970 
# 
# From -- ./inp_files/299567.got.cif
#   From: 2010.05.17/outbox.cif.g08.bks.cpg/sg2_150_cif.got.tgz:299567.got - 2010.06.03 11:33:40.
