data_PCOD9086822
_publ_section_title
;
Structure prediction by ZEFSAII (Michael W. Deem and Ramdas Pophale) SiO2 
 PCOD9086822
Probable space group: P -1
;
_chemical_formula_sum "Si O2"
_cell_formula_units_Z 16
_cell_length_a 8.271016
_cell_length_b 12.303587
_cell_length_c 9.228008
_cell_angle_alpha 51.204739
_cell_angle_beta 92.835474
_cell_angle_gamma 101.193103
_cell_volume 714.776389
_symmetry_space_group_name_H-M "P -1"
_symmetry_group_IT_number 2
_symmetry_cell_setting 'triclinic'
loop_
_space_group_symop_operation_xyz
x,y,z
-x,-y,-z
loop_
_atom_site_type_symbol
_atom_site_label
_atom_site_fract_x
_atom_site_fract_y
_atom_site_fract_z
Si Si1 0.100971 0.871083 0.273419
Si Si2 0.483555 0.012772 0.159303
Si Si3 0.643091 0.741395 0.935612
Si Si4 0.859877 0.390170 0.994457
Si Si5 0.989369 0.441624 0.387224
Si Si6 0.652448 0.423053 0.220038
Si Si7 0.992346 0.151289 0.046350
Si Si8 0.578138 0.873780 0.531629
O O1 0.296679 0.927627 0.263908
O O2 0.025059 0.726395 0.472066
O O3 0.999497 0.989291 0.214838
O O4 0.081179 0.845306 0.120770
O O5 0.615642 0.950341 0.312808
O O6 0.484264 0.175987 0.063512
O O7 0.500000 0.000000 0.000000
O O8 0.812752 0.776661 0.004754
O O9 0.679951 0.817505 0.714405
O O10 0.594057 0.570883 0.074203
O O11 0.861214 0.472431 0.774366
O O12 0.707324 0.372486 0.108803
O O13 0.000000 0.500000 0.000000
O O14 0.910647 0.242421 0.079832
O O15 0.816041 0.459470 0.295615
O O16 0.000000 0.500000 0.500000
O O17 0.531990 0.280961 0.388941
O O18 0.500000 0.000000 0.500000
#
# Coordination Sequence:
#
# PCOD9086822 Si02
#       8
#     2   2   2   2   2   2   2   2
#     4  10  20  36  63  88 118 162 195 249 305 355
#     4  10  22  41  64  87 117 157 208 251 294 359
#     4  10  20  39  61  84 125 157 195 251 301 357
#     4  10  20  35  59  88 121 153 196 247 294 367
#     4  11  19  36  60  89 121 155 197 241 308 360
#     4  11  21  39  61  88 123 159 199 244 309 353
#     4  10  19  36  60  89 122 156 200 244 305 352
#     4  10  22  40  61  85 117 164 202 243 300 354
#
# _framework density 22.384622
#
# number of rings (size 3 to 8) (size 9 to 14) (size 15 to 20)
#    0.000    1.750    5.000    0.375    0.000    2.000 
#    0.000   10.625    0.000    0.000    0.000    0.000 
#    0.000    0.000    0.000    0.000    0.000    0.000 
#
# Total GULP energy -89245.539100 kJ/mol
# GULP energy per Si atom -5577.846194 kJ/mol
# Density = 2.233367 g / cm^3
# Si number density = 22.384622 Si / 1000 Ang^3
#
#
#
# Elastic Constant Matrix: (Units=GPa)
#
#
# Indices 1 2 3 4 5 6 
#
# 1 40.4172 23.5530 7.1491 -5.0257 16.9410 3.6175
# 2 23.5530 163.6119 65.7293 -19.1051 12.8877 -13.7227
# 3 7.1491 65.7293 114.3498 -18.0104 15.6091 -16.1580
# 4 -5.0257 -19.1051 -18.0104 57.9521 0.2717 10.7514
# 5 16.9410 12.8877 15.6091 0.2717 27.4068 7.5329
# 6 3.6175 -13.7227 -16.1580 10.7514 7.5329 35.7950
#
#
#
# Elastic Compliance Matrix: (Units=1/GPa)
#
#
# Indices 1 2 3 4 5 6 
#
# 1 0.036723 -0.004751 0.004051 0.002943 -0.022864 0.000224
# 2 -0.004751 0.008751 -0.004565 0.000806 0.001053 0.001311
# 3 0.004051 -0.004565 0.013496 0.002101 -0.009523 0.005306
# 4 0.002943 0.000806 0.002101 0.019241 -0.002400 -0.004314
# 5 -0.022864 0.001053 -0.009523 -0.002400 0.059236 -0.013330
# 6 0.000224 0.001311 0.005306 -0.004314 -0.013330 0.034913
#
#
# Mechanical properties :
#
#
# Convention : Reuss Voigt Hill
#
# Bulk Modulus (GPa) = 20.64341 56.80464 38.72402
# Shear Modulus (GPa) = 25.12106 39.02727 32.07417
#
# Velocity S-wave (km/s) = 3.35363 4.18004 3.78943
# Velocity P-wave (km/s) = 4.92320 6.98059 6.04014
#
# Compressibility (1/GPa) = 0.04844162
#
# Stress axis : x y z
#
# Youngs Moduli (GPa) = 27.23079 114.27521 74.09471
#
# Poissons Ratio (x) = 0.54287 -0.30015
# Poissons Ratio (y) = 0.12936 0.33821
# Poissons Ratio (z) = -0.11031 0.52162
#
# Static dielectric constant tensor:
#      x y z
#    x 1.960470 0.053020 -0.088430 
#    y 0.053020 1.841980 -0.032890 
#    z -0.088430 -0.032890 1.941270 
# 
# From -- ./inp_files/184250.got.cif
#   From: 2010.05.17/outbox.cif.g08.bks.cpg/sg2_93_cif.got.tgz:184250.got - 2010.06.03 11:33:40.
