data_PCOD9086847
_publ_section_title
;
Structure prediction by ZEFSAII (Michael W. Deem and Ramdas Pophale) SiO2 
 PCOD9086847
Probable space group: P -1
;
_chemical_formula_sum "Si O2"
_cell_formula_units_Z 16
_cell_length_a 15.336033
_cell_length_b 11.592200
_cell_length_c 4.958184
_cell_angle_alpha 105.560939
_cell_angle_beta 70.257533
_cell_angle_gamma 122.010755
_cell_volume 699.089037
_symmetry_space_group_name_H-M "P -1"
_symmetry_group_IT_number 2
_symmetry_cell_setting 'triclinic'
loop_
_space_group_symop_operation_xyz
x,y,z
-x,-y,-z
loop_
_atom_site_type_symbol
_atom_site_label
_atom_site_fract_x
_atom_site_fract_y
_atom_site_fract_z
Si Si1 0.583048 0.310904 0.932125
Si Si2 0.302926 0.719364 0.733761
Si Si3 0.924434 0.481405 0.316408
Si Si4 0.577900 0.974627 0.218371
Si Si5 0.180986 0.325847 0.510505
Si Si6 0.612376 0.656725 0.841628
Si Si7 0.887312 0.868785 0.040040
Si Si8 0.683612 0.840819 0.378493
O O1 0.677098 0.354546 0.075940
O O2 0.514734 0.392340 0.071290
O O3 0.626857 0.298404 0.587260
O O4 0.495139 0.151060 0.980261
O O5 0.184993 0.658936 0.704177
O O6 0.341851 0.875923 0.881615
O O7 0.876324 0.585718 0.438298
O O8 0.000000 0.500000 0.500000
O O9 0.000000 0.500000 0.000000
O O10 0.632937 0.921788 0.341546
O O11 0.500000 0.000000 0.500000
O O12 0.309974 0.402642 0.375562
O O13 0.141701 0.256090 0.799144
O O14 0.139720 0.200445 0.266320
O O15 0.659218 0.789213 0.675211
O O16 0.640422 0.704948 0.150470
O O17 0.807271 0.921889 0.249704
O O18 0.000000 0.000000 0.000000
#
# Coordination Sequence:
#
# PCOD9086847 Si02
#       8
#     2   2   2   2   2   2   2   2
#     4  10  19  36  60  90 125 154 190 256 320 378
#     4  11  23  38  59  88 119 163 214 249 297 370
#     4  12  27  48  65  85 122 173 226 270 297 348
#     4   9  18  32  54  86 123 157 188 243 312 371
#     4  10  22  40  63  86 121 164 202 254 320 368
#     4   9  17  34  56  84 116 148 181 233 308 377
#     4  10  20  37  61  91 118 150 202 266 321 372
#     4   9  18  29  49  80 116 151 185 227 298 374
#
# _framework density 22.88693
#
# number of rings (size 3 to 8) (size 9 to 14) (size 15 to 20)
#    0.000    2.000    0.000    4.500    0.000    5.000 
#    0.000    3.750    0.000    0.000    0.000    0.000 
#    0.000    0.000    0.000    0.000    0.000    0.000 
#
# Total GULP energy -89224.264709 kJ/mol
# GULP energy per Si atom -5576.516544 kJ/mol
# Density = 2.283484 g / cm^3
# Si number density = 22.886930 Si / 1000 Ang^3
#
#
#
# Elastic Constant Matrix: (Units=GPa)
#
#
# Indices 1 2 3 4 5 6 
#
# 1 163.8257 32.2396 24.7862 3.3188 -12.2362 -5.1912
# 2 32.2396 63.8969 0.3563 14.0434 -9.6771 10.2481
# 3 24.7862 0.3563 82.0969 -7.4986 -0.5129 -1.0186
# 4 3.3188 14.0434 -7.4986 18.1411 -0.8342 -7.4409
# 5 -12.2362 -9.6771 -0.5129 -0.8342 53.3800 -0.4303
# 6 -5.1912 10.2481 -1.0186 -7.4409 -0.4303 39.9697
#
#
#
# Elastic Compliance Matrix: (Units=1/GPa)
#
#
# Indices 1 2 3 4 5 6 
#
# 1 0.007387 -0.004513 -0.001953 0.002413 0.000914 0.002526
# 2 -0.004513 0.025539 -0.001064 -0.023998 0.003117 -0.011595
# 3 -0.001953 -0.001064 0.013475 0.007450 -0.000381 0.001745
# 4 0.002413 -0.023998 0.007450 0.085484 -0.002208 0.022546
# 5 0.000914 0.003117 -0.000381 -0.002208 0.019463 -0.000892
# 6 0.002526 -0.011595 0.001745 0.022546 -0.000892 0.032552
#
#
# Mechanical properties :
#
#
# Convention : Reuss Voigt Hill
#
# Bulk Modulus (GPa) = 31.90897 47.17596 39.54246
# Shear Modulus (GPa) = 23.87664 39.12732 31.50198
#
# Velocity S-wave (km/s) = 3.23343 4.13921 3.71404
# Velocity P-wave (km/s) = 5.28322 6.59556 5.97553
#
# Compressibility (1/GPa) = 0.03133915
#
# Stress axis : x y z
#
# Youngs Moduli (GPa) = 135.36894 39.15513 74.21278
#
# Poissons Ratio (x) = 0.17672 0.14496
# Poissons Ratio (y) = 0.61097 0.07900
# Poissons Ratio (z) = 0.26441 0.04168
#
# Static dielectric constant tensor:
#      x y z
#    x 1.838230 -0.011870 -0.063630 
#    y -0.011870 1.941750 0.006370 
#    z -0.063630 0.006370 1.787960 
# 
# From -- ./inp_files/95246.got.cif
#   From: 2010.05.17/outbox.cif.g08.bks.cpg/sg2_48_cif.got.tgz:95246.got - 2010.06.03 11:33:40.
