data_PCOD9086853
_publ_section_title
;
Structure prediction by ZEFSAII (Michael W. Deem and Ramdas Pophale) SiO2 
 PCOD9086853
Probable space group: P -1
;
_chemical_formula_sum "Si O2"
_cell_formula_units_Z 14
_cell_length_a 9.233053
_cell_length_b 8.714506
_cell_length_c 13.271218
_cell_angle_alpha 49.132493
_cell_angle_beta 114.605290
_cell_angle_gamma 125.208483
_cell_volume 658.462847
_symmetry_space_group_name_H-M "P -1"
_symmetry_group_IT_number 2
_symmetry_cell_setting 'triclinic'
loop_
_space_group_symop_operation_xyz
x,y,z
-x,-y,-z
loop_
_atom_site_type_symbol
_atom_site_label
_atom_site_fract_x
_atom_site_fract_y
_atom_site_fract_z
Si Si1 0.714585 0.625693 0.821545
Si Si2 0.240522 0.988069 0.650947
Si Si3 0.856188 0.665677 0.614394
Si Si4 0.813685 0.267664 0.046200
Si Si5 0.032683 0.987850 0.897956
Si Si6 0.453469 0.064803 0.351472
Si Si7 0.922713 0.329939 0.643573
O O1 0.785842 0.655104 0.713276
O O2 0.865814 0.798453 0.867920
O O3 0.554792 0.695880 0.751796
O O4 0.674764 0.371755 0.950358
O O5 0.201810 0.878528 0.796685
O O6 0.409095 0.960583 0.673050
O O7 0.065975 0.836254 0.600382
O O8 0.249317 0.235650 0.530481
O O9 0.860333 0.442093 0.667751
O O10 0.819067 0.102097 0.032487
O O11 0.000000 0.500000 0.000000
O O12 0.058384 0.227658 0.757896
O O13 0.000000 0.000000 0.000000
O O14 0.500000 0.000000 0.500000
O O15 0.255274 0.880815 0.351658
O O16 0.000000 0.500000 0.500000
#
# Coordination Sequence:
#
# PCOD9086853 Si02
#       7
#     2   2   2   2   2   2   2
#     4  10  21  39  62  90 123 163 213 251 306 380
#     4  11  22  37  69  89 127 164 206 258 320 355
#     4  11  21  39  67  95 116 168 217 252 303 384
#     4  10  19  36  60  91 117 161 213 247 303 374
#     4  10  20  36  59  92 125 156 203 266 301 359
#     4  11  23  43  60  93 133 162 200 266 316 361
#     4  11  24  38  64  96 124 159 217 255 306 375
#
# _framework density 21.261641999999998
#
# number of rings (size 3 to 8) (size 9 to 14) (size 15 to 20)
#    0.000    1.429    4.286    2.571    6.000    1.143 
#    0.000    0.000    0.000    4.286    0.000    0.000 
#    0.000    0.000    0.000    0.000    0.000    0.000 
#
# Total GULP energy -78063.914725 kJ/mol
# GULP energy per Si atom -5575.993909 kJ/mol
# Density = 2.121325 g / cm^3
# Si number density = 21.261642 Si / 1000 Ang^3
#
#
#
# Elastic Constant Matrix: (Units=GPa)
#
#
# Indices 1 2 3 4 5 6 
#
# 1 93.3687 27.9126 32.2189 -11.8323 19.3854 -29.6118
# 2 27.9126 55.0876 34.9783 -4.3145 8.3449 -35.1187
# 3 32.2189 34.9783 130.7457 -16.9397 15.7327 -31.0805
# 4 -11.8323 -4.3145 -16.9397 19.7151 -18.2863 8.2011
# 5 19.3854 8.3449 15.7327 -18.2863 48.7807 -10.9549
# 6 -29.6118 -35.1187 -31.0805 8.2011 -10.9549 37.2486
#
#
#
# Elastic Compliance Matrix: (Units=1/GPa)
#
#
# Indices 1 2 3 4 5 6 
#
# 1 0.014956 -0.000307 -0.000726 0.001534 -0.002879 0.009810
# 2 -0.000307 0.048330 -0.003736 -0.013039 -0.001827 0.044539
# 3 -0.000726 -0.003736 0.010433 0.007304 0.001043 0.003304
# 4 0.001534 -0.013039 0.007304 0.088459 0.028838 -0.015974
# 5 -0.002879 -0.001827 0.001043 0.028838 0.032442 0.000051
# 6 0.009810 0.044539 0.003304 -0.015974 0.000051 0.082927
#
#
# Mechanical properties :
#
#
# Convention : Reuss Voigt Hill
#
# Bulk Modulus (GPa) = 15.58100 52.15795 33.86947
# Shear Modulus (GPa) = 16.20861 33.42169 24.81515
#
# Velocity S-wave (km/s) = 2.76405 3.96905 3.42004
# Velocity P-wave (km/s) = 4.18697 6.75198 5.61783
#
# Compressibility (1/GPa) = 0.06418071
#
# Stress axis : x y z
#
# Youngs Moduli (GPa) = 66.86351 20.69122 95.84770
#
# Poissons Ratio (x) = 0.00635 0.06961
# Poissons Ratio (y) = 0.02051 0.35809
# Poissons Ratio (z) = 0.04856 0.07730
#
# Static dielectric constant tensor:
#      x y z
#    x 1.468360 0.092600 0.569620 
#    y 0.092600 1.754780 -0.202620 
#    z 0.569620 -0.202620 0.989010 
# 
# From -- ./inp_files/297702.got.cif
#   From: 2010.05.17/outbox.cif.g08.bks.cpg/sg2_149_cif.got.tgz:297702.got - 2010.06.03 11:33:40.
