data_PCOD9086410
_publ_section_title
;
Structure prediction by ZEFSAII (Michael W. Deem and Ramdas Pophale) SiO2 
 PCOD9086410
Probable space group: P -1
;
_chemical_formula_sum "Si O2"
_cell_formula_units_Z 14
_cell_length_a 9.744503
_cell_length_b 14.281613
_cell_length_c 15.869860
_cell_angle_alpha 148.179978
_cell_angle_beta 131.531679
_cell_angle_gamma 70.895334
_cell_volume 698.569478
_symmetry_space_group_name_H-M "P -1"
_symmetry_group_IT_number 2
_symmetry_cell_setting 'triclinic'
loop_
_space_group_symop_operation_xyz
x,y,z
-x,-y,-z
loop_
_atom_site_type_symbol
_atom_site_label
_atom_site_fract_x
_atom_site_fract_y
_atom_site_fract_z
Si Si1 0.013844 0.299162 0.367796
Si Si2 0.421924 0.272741 0.532650
Si Si3 0.678909 0.039589 0.173006
Si Si4 0.226459 0.259378 0.929279
Si Si5 0.718122 0.836539 0.418990
Si Si6 0.425055 0.642180 0.997612
Si Si7 0.355480 0.955264 0.115389
O O1 0.914419 0.212513 0.354414
O O2 0.000000 0.500000 0.500000
O O3 0.258125 0.346804 0.502010
O O4 0.845283 0.119196 0.090302
O O5 0.345326 0.161176 0.508388
O O6 0.380679 0.107891 0.317193
O O7 0.679715 0.496222 0.816034
O O8 0.679999 0.833201 0.037596
O O9 0.592613 0.081971 0.255668
O O10 0.500000 0.000000 0.000000
O O11 0.356622 0.295195 0.921790
O O12 0.957388 0.066315 0.668107
O O13 0.521960 0.775480 0.226188
O O14 0.718291 0.620056 0.244953
O O15 0.313110 0.735560 0.970065
#
# Coordination Sequence:
#
# PCOD9086410 Si02
#       7
#     2   2   2   2   2   2   2
#     4  11  20  38  62  83 113 154 198 235 278 344
#     4  11  22  37  56  89 123 150 183 238 298 343
#     4   9  18  35  57  80 108 151 194 230 273 337
#     4  10  19  36  58  83 117 149 197 232 282 343
#     4  10  19  37  62  84 113 154 198 237 282 337
#     4   9  20  37  60  86 110 154 200 240 274 339
#     4  10  22  38  56  87 122 147 189 242 293 341
#
# _framework density 20.040956000000001
#
# number of rings (size 3 to 8) (size 9 to 14) (size 15 to 20)
#    0.000    2.000    1.429    4.286    0.000    0.571 
#    2.571    4.286    0.000    0.000    0.000    0.000 
#    0.000    0.000    0.000    0.000    0.000    0.000 
#
# Total GULP energy -78072.732352 kJ/mol
# GULP energy per Si atom -5576.623739 kJ/mol
# Density = 1.999534 g / cm^3
# Si number density = 20.040956 Si / 1000 Ang^3
#
#
#
# Elastic Constant Matrix: (Units=GPa)
#
#
# Indices 1 2 3 4 5 6 
#
# 1 46.4152 7.1040 41.5302 4.4308 -9.2037 13.6658
# 2 7.1040 63.9145 8.1273 -12.0429 0.9114 16.1753
# 3 41.5302 8.1273 114.5634 -4.4289 5.3332 18.8387
# 4 4.4308 -12.0429 -4.4289 38.5797 5.9779 1.0705
# 5 -9.2037 0.9114 5.3332 5.9779 31.2085 -5.6596
# 6 13.6658 16.1753 18.8387 1.0705 -5.6596 19.3085
#
#
#
# Elastic Compliance Matrix: (Units=1/GPa)
#
#
# Indices 1 2 3 4 5 6 
#
# 1 0.041085 -0.002758 -0.014498 -0.009366 0.015075 -0.007685
# 2 -0.002758 0.023925 0.004300 0.010356 -0.008846 -0.025453
# 3 -0.014498 0.004300 0.016624 0.006980 -0.010966 -0.013162
# 4 -0.009366 0.010356 0.006980 0.033500 -0.013326 -0.014619
# 5 0.015075 -0.008846 -0.010966 -0.013326 0.045051 0.021384
# 6 -0.007685 -0.025453 -0.013162 -0.014619 0.021384 0.098472
#
#
# Mechanical properties :
#
#
# Convention : Reuss Voigt Hill
#
# Bulk Modulus (GPa) = 17.94636 37.60179 27.77408
# Shear Modulus (GPa) = 16.49381 29.02811 22.76096
#
# Velocity S-wave (km/s) = 2.87192 3.80997 3.37370
# Velocity P-wave (km/s) = 4.46895 6.17719 5.39116
#
# Compressibility (1/GPa) = 0.05572161
#
# Stress axis : x y z
#
# Youngs Moduli (GPa) = 24.33968 41.79809 60.15337
#
# Poissons Ratio (x) = 0.11528 0.87212
# Poissons Ratio (y) = 0.06713 -0.25867
# Poissons Ratio (z) = 0.35288 -0.17974
#
# Static dielectric constant tensor:
#      x y z
#    x 1.710640 -0.006950 0.027790 
#    y -0.006950 1.734910 -0.011020 
#    z 0.027790 -0.011020 1.739380 
# 
# From -- ./inp_files/55309.got.cif
#   From: 2010.05.17/outbox.cif.g08.bks.cpg/sg2_28_cif.got.tgz:55309.got - 2010.06.03 11:33:40.
