data_PCOD9086027
_publ_section_title
;
Structure prediction by ZEFSAII (Michael W. Deem and Ramdas Pophale) SiO2 
 PCOD9086027
Probable space group: P -1
;
_chemical_formula_sum "Si O2"
_cell_formula_units_Z 14
_cell_length_a 7.561741
_cell_length_b 13.010652
_cell_length_c 9.180391
_cell_angle_alpha 132.658411
_cell_angle_beta 105.766474
_cell_angle_gamma 65.411898
_cell_volume 603.916154
_symmetry_space_group_name_H-M "P -1"
_symmetry_group_IT_number 2
_symmetry_cell_setting 'triclinic'
loop_
_space_group_symop_operation_xyz
x,y,z
-x,-y,-z
loop_
_atom_site_type_symbol
_atom_site_label
_atom_site_fract_x
_atom_site_fract_y
_atom_site_fract_z
Si Si1 0.826114 0.805935 0.131471
Si Si2 0.607935 0.135737 0.910860
Si Si3 0.357509 0.880435 0.756762
Si Si4 0.065208 0.712514 0.824478
Si Si5 0.747696 0.813512 0.609363
Si Si6 0.001284 0.621823 0.235663
Si Si7 0.280244 0.586228 0.501363
O O1 0.618015 0.786536 0.106133
O O2 0.964896 0.766776 0.264888
O O3 0.769128 0.971217 0.210840
O O4 0.944423 0.701911 0.928106
O O5 0.688248 0.980790 0.694834
O O6 0.593439 0.095864 0.041189
O O7 0.763762 0.222432 0.025875
O O8 0.553104 0.806572 0.636926
O O9 0.252038 0.759149 0.636308
O O10 0.168640 0.572556 0.610920
O O11 0.903338 0.808370 0.766829
O O12 0.841688 0.686704 0.390237
O O13 0.198935 0.550544 0.299622
O O14 0.000000 0.500000 0.000000
O O15 0.500000 0.500000 0.500000
#
# Coordination Sequence:
#
# PCOD9086027 Si02
#       7
#     2   2   2   2   2   2   2
#     4  11  22  41  64 102 136 161 218 272 341 373
#     4  10  19  35  68 103 135 158 216 281 320 395
#     4  10  20  38  72 101 127 162 221 287 311 396
#     4  10  20  36  70  95 128 177 215 272 323 392
#     4  10  19  40  63  94 131 178 220 254 339 386
#     4  11  28  44  61  93 143 178 213 276 325 388
#     4  10  25  45  67  96 130 177 229 263 321 399
#
# _framework density 23.182027000000001
#
# number of rings (size 3 to 8) (size 9 to 14) (size 15 to 20)
#    0.000    1.714    2.857    1.286    8.000    4.000 
#    2.571    4.286    0.000    0.000    0.000    0.000 
#    0.000    0.000    0.000    0.000    0.000    0.000 
#
# Total GULP energy -78100.116643 kJ/mol
# GULP energy per Si atom -5578.579760 kJ/mol
# Density = 2.312926 g / cm^3
# Si number density = 23.182027 Si / 1000 Ang^3
#
#
#
# Elastic Constant Matrix: (Units=GPa)
#
#
# Indices 1 2 3 4 5 6 
#
# 1 88.6031 40.9660 29.1987 -13.7628 0.4258 -14.7364
# 2 40.9660 106.4245 34.6790 -15.3115 -12.3582 -11.5871
# 3 29.1987 34.6790 121.1078 -8.0951 -10.6162 -17.4303
# 4 -13.7628 -15.3115 -8.0951 20.3141 2.3254 4.9823
# 5 0.4258 -12.3582 -10.6162 2.3254 30.9988 12.3157
# 6 -14.7364 -11.5871 -17.4303 4.9823 12.3157 32.7411
#
#
#
# Elastic Compliance Matrix: (Units=1/GPa)
#
#
# Indices 1 2 3 4 5 6 
#
# 1 0.015922 -0.004739 -0.001749 0.005734 -0.005410 0.005720
# 2 -0.004739 0.013090 -0.001990 0.005616 0.004642 -0.001161
# 3 -0.001749 -0.001990 0.009846 0.000301 0.001303 0.003214
# 4 0.005734 0.005616 0.000301 0.058500 -0.000549 -0.003967
# 5 -0.005410 0.004642 0.001303 -0.000549 0.040770 -0.015351
# 6 0.005720 -0.001161 0.003214 -0.003967 -0.015351 0.040795
#
#
# Mechanical properties :
#
#
# Convention : Reuss Voigt Hill
#
# Bulk Modulus (GPa) = 45.66327 58.42475 52.04401
# Shear Modulus (GPa) = 24.60855 30.89692 27.75274
#
# Velocity S-wave (km/s) = 3.26166 3.65471 3.46376
# Velocity P-wave (km/s) = 5.82452 6.56251 6.20450
#
# Compressibility (1/GPa) = 0.02189944
#
# Stress axis : x y z
#
# Youngs Moduli (GPa) = 62.80591 76.39555 101.56730
#
# Poissons Ratio (x) = 0.36206 0.17768
# Poissons Ratio (y) = 0.29765 0.20216
# Poissons Ratio (z) = 0.10987 0.15206
#
# Static dielectric constant tensor:
#      x y z
#    x 1.925730 -0.008190 0.034190 
#    y -0.008190 1.931720 0.039090 
#    z 0.034190 0.039090 1.942500 
# 
# From -- ./inp_files/204373.got.cif
#   From: 2010.05.17/outbox.cif.g08.bks.cpg/sg2_103_cif.got.tgz:204373.got - 2010.06.03 11:33:40.
