data_PCOD9086976
_publ_section_title
;
Structure prediction by ZEFSAII (Michael W. Deem and Ramdas Pophale) SiO2 
 PCOD9086976
Probable space group: P -1
;
_chemical_formula_sum "Si O2"
_cell_formula_units_Z 12
_cell_length_a 12.670730
_cell_length_b 9.009378
_cell_length_c 10.188959
_cell_angle_alpha 132.376361
_cell_angle_beta 48.702304
_cell_angle_gamma 146.429433
_cell_volume 461.139148
_symmetry_space_group_name_H-M "P -1"
_symmetry_group_IT_number 2
_symmetry_cell_setting 'triclinic'
loop_
_space_group_symop_operation_xyz
x,y,z
-x,-y,-z
loop_
_atom_site_type_symbol
_atom_site_label
_atom_site_fract_x
_atom_site_fract_y
_atom_site_fract_z
Si Si1 0.855265 0.216654 0.540017
Si Si2 0.215075 0.446707 0.120481
Si Si3 0.582180 0.582703 0.298141
Si Si4 0.656752 0.237282 0.117357
Si Si5 0.070800 0.749737 0.970178
Si Si6 0.167015 0.238074 0.328578
O O1 0.727331 0.260566 0.738463
O O2 0.000000 0.500000 0.500000
O O3 0.004833 0.230738 0.510628
O O4 0.717311 0.911162 0.406913
O O5 0.222505 0.369189 0.214256
O O6 0.995476 0.228297 0.104198
O O7 0.348161 0.452400 0.916457
O O8 0.609117 0.425669 0.285144
O O9 0.357084 0.412954 0.364216
O O10 0.727215 0.173680 0.145510
O O11 0.867654 0.436890 0.987325
O O12 0.500000 0.000000 0.000000
O O13 0.085812 0.939234 0.179449
#
# Coordination Sequence:
#
# PCOD9086976 Si02
#       6
#     2   2   2   2   2   2
#     4  10  23  39  58  89 124 157 194 242 299 356
#     4  10  22  39  60  90 124 151 199 242 301 353
#     4  11  22  40  62  88 121 158 199 244 293 352
#     4  10  19  36  61  87 113 158 205 237 288 350
#     4  10  20  35  62  86 115 158 198 241 293 352
#     4  11  20  38  63  89 120 158 191 247 302 349
#
# _framework density 26.022516
#
# number of rings (size 3 to 8) (size 9 to 14) (size 15 to 20)
#    0.000    1.667    5.000    1.000    2.333    2.667 
#    3.000    0.833    0.000    5.000    0.000    0.000 
#    0.000    0.000    0.000    0.000    0.000    0.000 
#
# Total GULP energy -67075.858379 kJ/mol
# GULP energy per Si atom -5589.654865 kJ/mol
# Density = 2.596329 g / cm^3
# Si number density = 26.022516 Si / 1000 Ang^3
#
#
#
# Elastic Constant Matrix: (Units=GPa)
#
#
# Indices 1 2 3 4 5 6 
#
# 1 149.0847 42.3049 38.6415 5.7454 -17.4377 41.2990
# 2 42.3049 88.1605 55.5674 22.6731 -8.3103 35.9902
# 3 38.6415 55.5674 156.4153 34.4495 -14.5369 10.2672
# 4 5.7454 22.6731 34.4495 44.5617 -7.8970 1.0731
# 5 -17.4377 -8.3103 -14.5369 -7.8970 44.2341 -9.0288
# 6 41.2990 35.9902 10.2672 1.0731 -9.0288 54.5025
#
#
#
# Elastic Compliance Matrix: (Units=1/GPa)
#
#
# Indices 1 2 3 4 5 6 
#
# 1 0.009181 -0.001316 -0.001506 0.001129 0.001955 -0.005502
# 2 -0.001316 0.022226 -0.005362 -0.007036 -0.001986 -0.012860
# 3 -0.001506 -0.005362 0.009533 -0.004272 0.001423 0.003206
# 4 0.001129 -0.007036 -0.004272 0.029772 0.003988 0.004670
# 5 0.001955 -0.001986 0.001423 0.003988 0.024922 0.003612
# 6 -0.005502 -0.012860 0.003206 0.004670 0.003612 0.030912
#
#
# Mechanical properties :
#
#
# Convention : Reuss Voigt Hill
#
# Bulk Modulus (GPa) = 40.69667 74.07646 57.38656
# Shear Modulus (GPa) = 33.08971 45.80278 39.44625
#
# Velocity S-wave (km/s) = 3.56979 4.19993 3.89762
# Velocity P-wave (km/s) = 5.71526 7.21438 6.50813
#
# Compressibility (1/GPa) = 0.02457204
#
# Stress axis : x y z
#
# Youngs Moduli (GPa) = 108.92173 44.99192 104.89953
#
# Poissons Ratio (x) = 0.05921 0.15802
# Poissons Ratio (y) = 0.14334 0.56243
# Poissons Ratio (z) = 0.16408 0.24123
#
# Static dielectric constant tensor:
#      x y z
#    x 2.231470 -0.139830 -0.040870 
#    y -0.139830 2.139500 -0.008760 
#    z -0.040870 -0.008760 2.085300 
# 
# From -- ./inp_files/266942.got.cif
#   From: 2010.05.17/outbox.cif.g08.bks.cpg/sg2_134_cif.got.tgz:266942.got - 2010.06.03 11:33:40.
