data_PCOD9086454
_publ_section_title
;
Structure prediction by ZEFSAII (Michael W. Deem and Ramdas Pophale) SiO2 
 PCOD9086454
Probable space group: P -1
;
_chemical_formula_sum "Si O2"
_cell_formula_units_Z 16
_cell_length_a 19.021930
_cell_length_b 30.109310
_cell_length_c 23.589137
_cell_angle_alpha 9.761395
_cell_angle_beta 17.350382
_cell_angle_gamma 17.748390
_cell_volume 664.477681
_symmetry_space_group_name_H-M "P -1"
_symmetry_group_IT_number 2
_symmetry_cell_setting 'triclinic'
loop_
_space_group_symop_operation_xyz
x,y,z
-x,-y,-z
loop_
_atom_site_type_symbol
_atom_site_label
_atom_site_fract_x
_atom_site_fract_y
_atom_site_fract_z
Si Si1 0.549550 0.722890 0.368324
Si Si2 0.904587 0.877517 0.815659
Si Si3 0.242260 0.159735 0.727812
Si Si4 0.787040 0.434129 0.856545
Si Si5 0.108690 0.457862 0.857743
Si Si6 0.398739 0.896720 0.049985
Si Si7 0.077602 0.768309 0.277876
Si Si8 0.794052 0.961799 0.517048
O O1 0.658811 0.435899 0.673741
O O2 0.270214 0.833526 0.428974
O O3 0.606273 0.956031 0.071400
O O4 0.717835 0.723196 0.183631
O O5 0.993999 0.706405 0.905753
O O6 0.095238 0.920957 0.660821
O O7 0.300391 0.129812 0.786832
O O8 0.505884 0.028829 0.661922
O O9 0.157096 0.437165 0.408465
O O10 0.077405 0.947322 0.108668
O O11 0.894439 0.582009 0.638996
O O12 0.500000 0.500000 0.000000
O O13 0.858934 0.121618 0.210496
O O14 0.917736 0.653409 0.798261
O O15 0.317306 0.247905 0.995507
O O16 0.258016 0.658901 0.460262
O O17 0.000000 0.000000 0.000000
#
# Coordination Sequence:
#
# PCOD9086454 Si02
#       8
#     2   2   2   2   2   2   2   2
#     4  10  19  36  59  88 118 158 200 248 296 359
#     4  10  20  35  62  87 118 159 204 245 296 356
#     4  10  23  37  61  89 124 158 198 255 306 351
#     4   9  19  38  64  85 118 160 203 248 302 360
#     4  10  21  36  62  90 119 163 208 242 295 375
#     4  10  20  37  57  91 123 156 206 247 299 367
#     4  10  19  36  58  86 115 157 198 245 298 356
#     4  11  21  41  62  89 123 163 201 250 306 356
#
# _framework density 24.079062
#
# number of rings (size 3 to 8) (size 9 to 14) (size 15 to 20)
#    0.000    2.000    2.500    0.750    3.500    0.500 
#    2.250    8.125    0.000    2.250    0.000    0.000 
#    0.000    0.000    0.000    0.000    0.000    0.000 
#
# Total GULP energy -89362.791553 kJ/mol
# GULP energy per Si atom -5585.174472 kJ/mol
# Density = 2.402426 g / cm^3
# Si number density = 24.079062 Si / 1000 Ang^3
#
#
#
# Elastic Constant Matrix: (Units=GPa)
#
#
# Indices 1 2 3 4 5 6 
#
# 1 113.0828 15.8499 40.6606 -2.7826 7.0208 -17.5667
# 2 15.8499 67.7672 16.4212 -17.0792 11.6209 -22.0125
# 3 40.6606 16.4212 102.1430 -14.4781 8.5895 -10.4698
# 4 -2.7826 -17.0792 -14.4781 33.9730 -5.0017 14.6051
# 5 7.0208 11.6209 8.5895 -5.0017 39.1881 -1.5422
# 6 -17.5667 -22.0125 -10.4698 14.6051 -1.5422 41.4001
#
#
#
# Elastic Compliance Matrix: (Units=1/GPa)
#
#
# Indices 1 2 3 4 5 6 
#
# 1 0.011145 -0.000820 -0.004240 -0.003339 -0.001079 0.004358
# 2 -0.000820 0.019894 -0.000903 0.005485 -0.004544 0.007897
# 3 -0.004240 -0.000903 0.012287 0.004637 -0.001107 -0.000849
# 4 -0.003339 0.005485 0.004637 0.038987 0.002499 -0.010988
# 5 -0.001079 -0.004544 -0.001107 0.002499 0.027502 -0.003011
# 6 0.004358 0.007897 -0.000849 -0.010988 -0.003011 0.033752
#
#
# Mechanical properties :
#
#
# Convention : Reuss Voigt Hill
#
# Bulk Modulus (GPa) = 31.84846 47.65068 39.74957
# Shear Modulus (GPa) = 30.12805 36.91633 33.52219
#
# Velocity S-wave (km/s) = 3.54109 3.91977 3.73523
# Velocity P-wave (km/s) = 5.47489 6.34967 5.92844
#
# Compressibility (1/GPa) = 0.03139870
#
# Stress axis : x y z
#
# Youngs Moduli (GPa) = 89.73028 50.26720 81.38909
#
# Poissons Ratio (x) = 0.04121 0.34512
# Poissons Ratio (y) = 0.07357 0.07348
# Poissons Ratio (z) = 0.38049 0.04538
#
# Static dielectric constant tensor:
#      x y z
#    x 1.926440 -0.018840 0.036970 
#    y -0.018840 1.941410 0.024910 
#    z 0.036970 0.024910 1.961830 
# 
# From -- ./inp_files/356394.got.cif
#   From: 2010.05.17/outbox.cif.g08.bks.cpg/sg2_179_cif.got.tgz:356394.got - 2010.06.03 11:33:40.
