data_PCOD9086407
_publ_section_title
;
Structure prediction by ZEFSAII (Michael W. Deem and Ramdas Pophale) SiO2 
 PCOD9086407
Probable space group: P -1
;
_chemical_formula_sum "Si O2"
_cell_formula_units_Z 16
_cell_length_a 9.117198
_cell_length_b 8.602220
_cell_length_c 14.967591
_cell_angle_alpha 58.407471
_cell_angle_beta 111.824569
_cell_angle_gamma 131.222632
_cell_volume 751.438217
_symmetry_space_group_name_H-M "P -1"
_symmetry_group_IT_number 2
_symmetry_cell_setting 'triclinic'
loop_
_space_group_symop_operation_xyz
x,y,z
-x,-y,-z
loop_
_atom_site_type_symbol
_atom_site_label
_atom_site_fract_x
_atom_site_fract_y
_atom_site_fract_z
Si Si1 0.024771 0.723336 0.406322
Si Si2 0.285831 0.389505 0.888804
Si Si3 0.572699 0.270226 0.019855
Si Si4 0.403417 0.767625 0.162906
Si Si5 0.929911 0.193931 0.409881
Si Si6 0.929583 0.323420 0.755119
Si Si7 0.660379 0.727190 0.521244
Si Si8 0.408268 0.489932 0.691363
O O1 0.092106 0.856437 0.473122
O O2 0.148766 0.802989 0.319718
O O3 0.000000 0.500000 0.500000
O O4 0.812939 0.651119 0.351086
O O5 0.321208 0.542995 0.935525
O O6 0.403756 0.532812 0.782967
O O7 0.061640 0.258340 0.849726
O O8 0.367710 0.242595 0.970549
O O9 0.540045 0.038167 0.106775
O O10 0.666560 0.328581 0.924872
O O11 0.231135 0.709985 0.205728
O O12 0.512156 0.661425 0.252183
O O13 0.933672 0.407395 0.318982
O O14 0.146173 0.263545 0.417137
O O15 0.746389 0.948610 0.412092
O O16 0.500000 0.500000 0.500000
O O17 0.543949 0.699953 0.593515
#
# Coordination Sequence:
#
# PCOD9086407 Si02
#       8
#     2   2   2   2   2   2   2   2
#     4   9  19  37  56  79 122 155 191 241 285 347
#     4   9  20  38  58  79 117 147 193 240 296 368
#     4   9  20  39  57  83 110 150 190 243 303 367
#     4  10  20  35  60  84 113 145 197 245 299 354
#     4  10  21  37  55  87 122 155 199 238 287 343
#     4  10  20  36  57  86 115 149 192 250 288 348
#     4  11  21  35  59  84 118 162 197 242 287 336
#     4  10  19  36  58  83 112 160 195 238 292 348
#
# _framework density 21.292503
#
# number of rings (size 3 to 8) (size 9 to 14) (size 15 to 20)
#    0.000    2.250    2.500    0.000    0.000    3.000 
#    0.000    5.625    0.000    0.000    0.000    0.000 
#    0.000    0.000    0.000    0.000    0.000    0.000 
#
# Total GULP energy -89170.380253 kJ/mol
# GULP energy per Si atom -5573.148766 kJ/mol
# Density = 2.124404 g / cm^3
# Si number density = 21.292503 Si / 1000 Ang^3
#
#
#
# Elastic Constant Matrix: (Units=GPa)
#
#
# Indices 1 2 3 4 5 6 
#
# 1 109.2259 -0.4442 33.4900 10.4419 -25.9239 -2.5937
# 2 -0.4442 36.6601 1.4209 2.1291 -11.5896 6.7355
# 3 33.4900 1.4209 67.0815 11.8071 -13.6587 3.8993
# 4 10.4419 2.1291 11.8071 23.7641 -8.9283 -9.1821
# 5 -25.9239 -11.5896 -13.6587 -8.9283 40.3332 1.7588
# 6 -2.5937 6.7355 3.8993 -9.1821 1.7588 19.2418
#
#
#
# Elastic Compliance Matrix: (Units=1/GPa)
#
#
# Indices 1 2 3 4 5 6 
#
# 1 0.012318 0.002314 -0.004828 -0.000224 0.006850 0.001096
# 2 0.002314 0.034361 0.002788 -0.007813 0.011318 -0.017044
# 3 -0.004828 0.002788 0.020551 -0.011911 0.002531 -0.011707
# 4 -0.000224 -0.007813 -0.011911 0.064924 0.006400 0.035515
# 5 0.006850 0.011318 0.002531 0.006400 0.034883 -0.003686
# 6 0.001096 -0.017044 -0.011707 0.035515 -0.003686 0.077741
#
#
# Mechanical properties :
#
#
# Convention : Reuss Voigt Hill
#
# Bulk Modulus (GPa) = 14.75453 31.32231 23.03842
# Shear Modulus (GPa) = 18.73890 28.56789 23.65339
#
# Velocity S-wave (km/s) = 2.96982 3.66688 3.33660
# Velocity P-wave (km/s) = 4.32484 5.71580 5.06827
#
# Compressibility (1/GPa) = 0.06777580
#
# Stress axis : x y z
#
# Youngs Moduli (GPa) = 81.17936 29.10280 48.65921
#
# Poissons Ratio (x) = -0.06733 0.23495
# Poissons Ratio (y) = -0.18781 -0.13564
# Poissons Ratio (z) = 0.39197 -0.08113
#
# Static dielectric constant tensor:
#      x y z
#    x 1.787720 -0.037370 -0.038230 
#    y -0.037370 1.869690 0.034110 
#    z -0.038230 0.034110 1.815090 
# 
# From -- ./inp_files/494715.got.cif
#   From: 2010.05.17/outbox.cif.g08.bks.cpg/sg2_248_cif.got.tgz:494715.got - 2010.06.03 11:33:40.
