data_PCOD9086890
_publ_section_title
;
Structure prediction by ZEFSAII (Michael W. Deem and Ramdas Pophale) SiO2 
 PCOD9086890
Probable space group: P -1
;
_chemical_formula_sum "Si O2"
_cell_formula_units_Z 16
_cell_length_a 11.719262
_cell_length_b 12.062149
_cell_length_c 5.629221
_cell_angle_alpha 74.221716
_cell_angle_beta 95.461689
_cell_angle_gamma 123.042270
_cell_volume 640.522039
_symmetry_space_group_name_H-M "P -1"
_symmetry_group_IT_number 2
_symmetry_cell_setting 'triclinic'
loop_
_space_group_symop_operation_xyz
x,y,z
-x,-y,-z
loop_
_atom_site_type_symbol
_atom_site_label
_atom_site_fract_x
_atom_site_fract_y
_atom_site_fract_z
Si Si1 0.824416 0.116711 0.974212
Si Si2 0.694358 0.853171 0.891695
Si Si3 0.598619 0.160655 0.475956
Si Si4 0.874032 0.763124 0.168689
Si Si5 0.874120 0.319183 0.242322
Si Si6 0.834705 0.547934 0.923769
Si Si7 0.426764 0.715178 0.109607
Si Si8 0.840328 0.909473 0.448800
O O1 0.817454 0.234792 0.031947
O O2 0.831378 0.025845 0.239820
O O3 0.967573 0.181878 0.831598
O O4 0.703587 0.992887 0.875933
O O5 0.705792 0.845700 0.621658
O O6 0.836515 0.865970 0.979749
O O7 0.573054 0.734201 0.087595
O O8 0.762313 0.223743 0.469266
O O9 0.568153 0.204643 0.697808
O O10 0.500000 0.000000 0.500000
O O11 0.584292 0.229909 0.188857
O O12 0.826562 0.774154 0.411600
O O13 0.807946 0.633936 0.057242
O O14 0.029046 0.358860 0.260754
O O15 0.875945 0.457759 0.141244
O O16 0.702470 0.439554 0.813884
O O17 0.000000 0.000000 0.500000
#
# Coordination Sequence:
#
# PCOD9086890 Si02
#       8
#     2   2   2   2   2   2   2   2
#     4  10  19  36  60  95 125 158 211 272 333 387
#     4  11  22  36  62  92 127 168 209 269 343 375
#     4  11  24  45  67 100 133 170 222 275 335 389
#     4  10  20  38  63  88 129 165 215 271 318 392
#     4   9  20  41  70  90 126 175 212 273 325 384
#     4   9  21  45  63  93 128 174 228 256 319 397
#     4  11  26  43  65  95 137 175 219 274 321 402
#     4  11  19  35  58  96 126 161 212 272 331 388
#
# _framework density 24.979624000000001
#
# number of rings (size 3 to 8) (size 9 to 14) (size 15 to 20)
#    0.000    1.750    2.500    1.875    5.250    2.000 
#    4.500    0.625    0.000    0.000    0.000    0.000 
#    0.000    0.000    0.000    0.000    0.000    0.000 
#
# Total GULP energy -89224.145439 kJ/mol
# GULP energy per Si atom -5576.509090 kJ/mol
# Density = 2.492277 g / cm^3
# Si number density = 24.979624 Si / 1000 Ang^3
#
#
#
# Elastic Constant Matrix: (Units=GPa)
#
#
# Indices 1 2 3 4 5 6 
#
# 1 87.0372 38.7385 53.0566 7.7141 -28.7676 20.8188
# 2 38.7385 128.6779 42.0485 30.6706 -32.2015 -4.1061
# 3 53.0566 42.0485 104.0022 16.7891 -44.3335 6.8251
# 4 7.7141 30.6706 16.7891 41.7865 -9.9125 -6.3093
# 5 -28.7676 -32.2015 -44.3335 -9.9125 58.9609 -6.7897
# 6 20.8188 -4.1061 6.8251 -6.3093 -6.7897 39.9288
#
#
#
# Elastic Compliance Matrix: (Units=1/GPa)
#
#
# Indices 1 2 3 4 5 6 
#
# 1 0.020638 -0.003890 -0.008112 0.001103 0.000944 -0.009439
# 2 -0.003890 0.011517 -0.000408 -0.006347 0.003346 0.002848
# 3 -0.008112 -0.000408 0.018203 -0.002993 0.009255 0.002177
# 4 0.001103 -0.006347 -0.002993 0.030307 0.000393 0.004139
# 5 0.000944 0.003346 0.009255 0.000393 0.026602 0.002856
# 6 -0.009439 0.002848 0.002177 0.004139 0.002856 0.031027
#
#
# Mechanical properties :
#
#
# Convention : Reuss Voigt Hill
#
# Bulk Modulus (GPa) = 39.15604 65.26719 52.21161
# Shear Modulus (GPa) = 29.13315 40.52682 34.82998
#
# Velocity S-wave (km/s) = 3.41878 4.03227 3.73813
# Velocity P-wave (km/s) = 5.59404 6.91837 6.29115
#
# Compressibility (1/GPa) = 0.02553884
#
# Stress axis : x y z
#
# Youngs Moduli (GPa) = 48.45544 86.82894 54.93460
#
# Poissons Ratio (x) = 0.33778 0.44562
# Poissons Ratio (y) = 0.18850 0.02239
# Poissons Ratio (z) = 0.39306 0.03539
#
# Static dielectric constant tensor:
#      x y z
#    x 2.149670 0.085090 0.010510 
#    y 0.085090 1.978610 0.044640 
#    z 0.010510 0.044640 2.478250 
# 
# From -- ./inp_files/70504.got.cif
#   From: 2010.05.17/outbox.cif.g08.bks.cpg/sg2_36_cif.got.tgz:70504.got - 2010.06.03 11:33:40.
