data_PCOD9086207
_publ_section_title
;
Structure prediction by ZEFSAII (Michael W. Deem and Ramdas Pophale) SiO2 
 PCOD9086207
Probable space group: P -1
;
_chemical_formula_sum "Si O2"
_cell_formula_units_Z 16
_cell_length_a 19.893211
_cell_length_b 9.793218
_cell_length_c 5.076788
_cell_angle_alpha 97.877009
_cell_angle_beta 79.043438
_cell_angle_gamma 131.377965
_cell_volume 728.535064
_symmetry_space_group_name_H-M "P -1"
_symmetry_group_IT_number 2
_symmetry_cell_setting 'triclinic'
loop_
_space_group_symop_operation_xyz
x,y,z
-x,-y,-z
loop_
_atom_site_type_symbol
_atom_site_label
_atom_site_fract_x
_atom_site_fract_y
_atom_site_fract_z
Si Si1 0.026435 0.354784 0.186349
Si Si2 0.480193 0.613175 0.890817
Si Si3 0.912706 0.256633 0.739809
Si Si4 0.450450 0.037634 0.253255
Si Si5 0.324193 0.361147 0.565717
Si Si6 0.386179 0.695441 0.390318
Si Si7 0.229566 0.129834 0.088034
Si Si8 0.062132 0.113680 0.235010
O O1 0.941589 0.244462 0.424762
O O2 0.077399 0.566333 0.225673
O O3 0.085343 0.304081 0.223672
O O4 0.986492 0.296456 0.906109
O O5 0.562349 0.827349 0.823902
O O6 0.424953 0.494739 0.642206
O O7 0.500000 0.500000 0.000000
O O8 0.414292 0.629947 0.112947
O O9 0.817770 0.077014 0.869001
O O10 0.523437 0.166461 0.462187
O O11 0.369144 0.831629 0.355024
O O12 0.500000 0.000000 0.000000
O O13 0.311686 0.509211 0.555150
O O14 0.305078 0.258549 0.283146
O O15 0.265234 0.210359 0.793240
O O16 0.149721 0.135237 0.195486
O O17 0.000000 0.000000 0.500000
O O18 0.000000 0.000000 0.000000
#
# Coordination Sequence:
#
# PCOD9086207 Si02
#       8
#     2   2   2   2   2   2   2   2
#     4  10  19  36  56  88 110 144 198 248 280 335
#     4  10  20  37  63  90 116 150 202 254 288 345
#     4  10  20  34  60  81 114 153 190 236 293 341
#     4   8  16  30  59  87 113 146 193 249 281 339
#     4  11  23  37  57  87 120 158 195 232 304 367
#     4   9  17  36  57  86 115 150 195 242 287 353
#     4  12  22  37  58  85 121 159 189 241 302 356
#     4  12  21  36  60  91 115 144 202 251 282 333
#
# _framework density 21.961880000000001
#
# number of rings (size 3 to 8) (size 9 to 14) (size 15 to 20)
#    0.000    1.750    3.750    1.500    0.000    2.000 
#    0.000    0.000    2.750    6.000    0.000    0.000 
#    0.000    0.000    0.000    0.000    0.000    0.000 
#
# Total GULP energy -89212.484212 kJ/mol
# GULP energy per Si atom -5575.780263 kJ/mol
# Density = 2.191189 g / cm^3
# Si number density = 21.961880 Si / 1000 Ang^3
#
#
#
# Elastic Constant Matrix: (Units=GPa)
#
#
# Indices 1 2 3 4 5 6 
#
# 1 53.4052 28.2941 12.8158 2.1527 7.3833 -23.7609
# 2 28.2941 172.1116 13.8262 -36.9540 8.3495 -33.7951
# 3 12.8158 13.8262 90.4909 -10.6486 14.5072 2.9648
# 4 2.1527 -36.9540 -10.6486 41.9173 1.2446 12.2652
# 5 7.3833 8.3495 14.5072 1.2446 21.9929 -8.4335
# 6 -23.7609 -33.7951 2.9648 12.2652 -8.4335 34.3722
#
#
#
# Elastic Compliance Matrix: (Units=1/GPa)
#
#
# Indices 1 2 3 4 5 6 
#
# 1 0.034877 -0.002966 -0.008339 -0.015228 0.006917 0.029044
# 2 -0.002966 0.008492 -0.000033 0.006594 -0.001176 0.003660
# 3 -0.008339 -0.000033 0.015858 0.008798 -0.013354 -0.013580
# 4 -0.015228 0.006594 0.008798 0.039656 -0.014026 -0.022394
# 5 0.006917 -0.001176 -0.013354 -0.014026 0.062862 0.025206
# 6 0.029044 0.003660 -0.013580 -0.022394 0.025206 0.068116
#
#
# Mechanical properties :
#
#
# Convention : Reuss Voigt Hill
#
# Bulk Modulus (GPa) = 27.35829 47.32000 37.33914
# Shear Modulus (GPa) = 18.88790 37.06126 27.97458
#
# Velocity S-wave (km/s) = 2.93581 4.11241 3.57288
# Velocity P-wave (km/s) = 4.89655 6.64397 5.83603
#
# Compressibility (1/GPa) = 0.03655200
#
# Stress axis : x y z
#
# Youngs Moduli (GPa) = 28.67241 117.75689 63.05988
#
# Poissons Ratio (x) = 0.34925 0.52584
# Poissons Ratio (y) = 0.08504 0.00207
# Poissons Ratio (z) = 0.23909 0.00387
#
# Static dielectric constant tensor:
#      x y z
#    x 1.871580 -0.054530 0.003220 
#    y -0.054530 1.917910 -0.048550 
#    z 0.003220 -0.048550 1.861610 
# 
# From -- ./inp_files/116234.got.cif
#   From: 2010.05.17/outbox.cif.g08.bks.cpg/sg2_59_cif.got.tgz:116234.got - 2010.06.03 11:33:40.
