data_PCOD9086279
_publ_section_title
;
Structure prediction by ZEFSAII (Michael W. Deem and Ramdas Pophale) SiO2 
 PCOD9086279
Probable space group: P -1
;
_chemical_formula_sum "Si O2"
_cell_formula_units_Z 16
_cell_length_a 9.030153
_cell_length_b 13.752648
_cell_length_c 12.428821
_cell_angle_alpha 70.455043
_cell_angle_beta 39.614201
_cell_angle_gamma 47.509202
_cell_volume 666.638439
_symmetry_space_group_name_H-M "P -1"
_symmetry_group_IT_number 2
_symmetry_cell_setting 'triclinic'
loop_
_space_group_symop_operation_xyz
x,y,z
-x,-y,-z
loop_
_atom_site_type_symbol
_atom_site_label
_atom_site_fract_x
_atom_site_fract_y
_atom_site_fract_z
Si Si1 0.171207 0.490270 0.513980
Si Si2 0.745875 0.817245 0.047459
Si Si3 0.986815 0.749240 0.165767
Si Si4 0.343690 0.476614 0.797635
Si Si5 0.903296 0.515164 0.862277
Si Si6 0.649677 0.158670 0.106792
Si Si7 0.799220 0.026876 0.854908
Si Si8 0.476694 0.182177 0.433337
O O1 0.359324 0.538473 0.375813
O O2 0.930836 0.575023 0.718164
O O3 0.412090 0.318678 0.464270
O O4 0.000000 0.500000 0.500000
O O5 0.748910 0.839239 0.164218
O O6 0.398651 0.890376 0.172185
O O7 0.830980 0.894727 0.906549
O O8 0.033929 0.648015 0.926116
O O9 0.117590 0.593712 0.132573
O O10 0.786939 0.808466 0.365639
O O11 0.262764 0.748246 0.995674
O O12 0.234311 0.442034 0.769869
O O13 0.359652 0.404676 0.924794
O O14 0.582255 0.131416 0.038433
O O15 0.454219 0.194891 0.311594
O O16 0.000000 0.000000 0.000000
O O17 0.158757 0.960384 0.686323
#
# Coordination Sequence:
#
# PCOD9086279 Si02
#       8
#     2   2   2   2   2   2   2   2
#     4  11  22  37  59  87 116 152 195 238 285 344
#     4  10  19  36  59  85 110 148 188 236 277 339
#     4  10  19  36  59  84 117 146 192 233 280 347
#     4  10  19  40  62  80 119 154 188 238 289 335
#     4   9  21  37  61  88 110 156 194 231 293 341
#     4  10  19  36  57  83 111 154 190 229 281 341
#     4  10  20  35  58  84 112 145 194 228 283 337
#     4  10  20  37  58  80 116 153 181 236 292 322
#
# _framework density 24.001016
#
# number of rings (size 3 to 8) (size 9 to 14) (size 15 to 20)
#    0.000    2.000    3.750    1.125    0.000    4.000 
#    0.000    7.500    0.000    0.000    0.000    0.000 
#    0.000    0.000    0.000    0.000    0.000    0.000 
#
# Total GULP energy -89388.604361 kJ/mol
# GULP energy per Si atom -5586.787773 kJ/mol
# Density = 2.394639 g / cm^3
# Si number density = 24.001016 Si / 1000 Ang^3
#
#
#
# Elastic Constant Matrix: (Units=GPa)
#
#
# Indices 1 2 3 4 5 6 
#
# 1 111.0284 16.4097 66.9975 -15.4540 -1.8282 -7.6469
# 2 16.4097 59.0375 28.4389 -3.1412 -3.7718 4.0480
# 3 66.9975 28.4389 160.0051 -23.9118 0.3951 -14.8645
# 4 -15.4540 -3.1412 -23.9118 38.0008 5.8449 6.0826
# 5 -1.8282 -3.7718 0.3951 5.8449 40.2559 -10.4222
# 6 -7.6469 4.0480 -14.8645 6.0826 -10.4222 39.4366
#
#
#
# Elastic Compliance Matrix: (Units=1/GPa)
#
#
# Indices 1 2 3 4 5 6 
#
# 1 0.012251 -0.001103 -0.004607 0.001844 0.000378 0.000568
# 2 -0.001103 0.019082 -0.003309 -0.000633 0.001076 -0.003038
# 3 -0.004607 -0.003309 0.009516 0.003545 -0.000519 0.002349
# 4 0.001844 -0.000633 0.003545 0.030831 -0.005649 -0.004490
# 5 0.000378 0.001076 -0.000519 -0.005649 0.027855 0.008000
# 6 0.000568 -0.003038 0.002349 -0.004490 0.008000 0.029471
#
#
# Mechanical properties :
#
#
# Convention : Reuss Voigt Hill
#
# Bulk Modulus (GPa) = 43.83596 61.52926 52.68261
# Shear Modulus (GPa) = 32.33123 38.08699 35.20911
#
# Velocity S-wave (km/s) = 3.67424 3.98790 3.83428
# Velocity P-wave (km/s) = 6.02527 6.84808 6.44981
#
# Compressibility (1/GPa) = 0.02281232
#
# Stress axis : x y z
#
# Youngs Moduli (GPa) = 81.62352 52.40413 105.08476
#
# Poissons Ratio (x) = 0.05780 0.48408
# Poissons Ratio (y) = 0.09003 0.34775
# Poissons Ratio (z) = 0.37600 0.17342
#
# Static dielectric constant tensor:
#      x y z
#    x 1.940070 -0.038110 -0.000310 
#    y -0.038110 2.043840 0.049630 
#    z -0.000310 0.049630 1.951120 
# 
# From -- ./inp_files/398877.got.cif
#   From: 2010.05.17/outbox.cif.g08.bks.cpg/sg2_200_cif.got.tgz:398877.got - 2010.06.03 11:33:40.
