data_PCOD9086667
_publ_section_title
;
Structure prediction by ZEFSAII (Michael W. Deem and Ramdas Pophale) SiO2 
 PCOD9086667
Probable space group: P -1
;
_chemical_formula_sum "Si O2"
_cell_formula_units_Z 14
_cell_length_a 8.998884
_cell_length_b 14.419072
_cell_length_c 12.230429
_cell_angle_alpha 60.695238
_cell_angle_beta 56.701676
_cell_angle_gamma 107.549036
_cell_volume 720.411500
_symmetry_space_group_name_H-M "P -1"
_symmetry_group_IT_number 2
_symmetry_cell_setting 'triclinic'
loop_
_space_group_symop_operation_xyz
x,y,z
-x,-y,-z
loop_
_atom_site_type_symbol
_atom_site_label
_atom_site_fract_x
_atom_site_fract_y
_atom_site_fract_z
Si Si1 0.593053 0.197384 0.341406
Si Si2 0.306015 0.609531 0.262758
Si Si3 0.921781 0.498159 0.170413
Si Si4 0.344242 0.950954 0.415007
Si Si5 0.282985 0.478863 0.546965
Si Si6 0.219797 0.432578 0.185310
Si Si7 0.352698 0.866035 0.039220
O O1 0.649450 0.333586 0.304221
O O2 0.564179 0.098176 0.507436
O O3 0.359186 0.063475 0.420274
O O4 0.886528 0.329075 0.074658
O O5 0.444971 0.617924 0.305494
O O6 0.265131 0.507075 0.241794
O O7 0.434782 0.779963 0.070594
O O8 0.000000 0.500000 0.500000
O O9 0.828488 0.496362 0.326298
O O10 0.118327 0.485407 0.120772
O O11 0.037773 0.771776 0.598942
O O12 0.543711 0.051427 0.170448
O O13 0.500000 0.500000 0.500000
O O14 0.992686 0.289154 0.727619
O O15 0.500000 0.500000 0.000000
O O16 0.500000 0.000000 0.000000
#
# Coordination Sequence:
#
# PCOD9086667 Si02
#       7
#     2   2   2   2   2   2   2
#     4   9  19  33  61  86 121 162 195 258 331 379
#     4  10  20  41  64  90 127 178 211 261 329 391
#     4  10  19  39  61  86 127 169 210 259 329 387
#     4  10  19  36  59  92 122 161 206 264 325 378
#     4  11  23  40  67  93 126 170 225 264 316 397
#     4  11  22  38  66  92 124 170 227 262 316 396
#     4  11  22  40  69  90 126 174 220 267 332 381
#
# _framework density 19.433337999999999
#
# number of rings (size 3 to 8) (size 9 to 14) (size 15 to 20)
#    0.000    1.714    4.286    1.714    2.000    3.429 
#    0.000    5.000    0.000    0.000    0.000    0.000 
#    0.000    0.000    0.000    0.000    0.000    0.000 
#
# Total GULP energy -77980.552747 kJ/mol
# GULP energy per Si atom -5570.039482 kJ/mol
# Density = 1.938911 g / cm^3
# Si number density = 19.433338 Si / 1000 Ang^3
#
#
#
# Elastic Constant Matrix: (Units=GPa)
#
#
# Indices 1 2 3 4 5 6 
#
# 1 95.5804 33.9254 38.4597 3.9322 11.0281 2.4623
# 2 33.9254 179.0797 44.4587 -2.6751 0.1722 23.5380
# 3 38.4597 44.4587 87.3916 -1.7697 24.7956 3.2266
# 4 3.9322 -2.6751 -1.7697 33.7364 4.8943 2.8417
# 5 11.0281 0.1722 24.7956 4.8943 35.9793 10.7881
# 6 2.4623 23.5380 3.2266 2.8417 10.7881 23.1532
#
#
#
# Elastic Compliance Matrix: (Units=1/GPa)
#
#
# Indices 1 2 3 4 5 6 
#
# 1 0.013081 -0.001484 -0.004860 -0.001897 -0.000817 0.001409
# 2 -0.001484 0.008763 -0.005537 0.000445 0.007646 -0.011597
# 3 -0.004860 -0.005537 0.020675 0.002684 -0.016247 0.010506
# 4 -0.001897 0.000445 0.002684 0.030922 -0.004826 -0.002171
# 5 -0.000817 0.007646 -0.016247 -0.004826 0.048018 -0.027203
# 6 0.001409 -0.011597 0.010506 -0.002171 -0.027203 0.066307
#
#
# Mechanical properties :
#
#
# Convention : Reuss Voigt Hill
#
# Bulk Modulus (GPa) = 53.31608 66.19326 59.75467
# Shear Modulus (GPa) = 22.95881 34.92098 28.93990
#
# Velocity S-wave (km/s) = 3.44090 4.24366 3.86319
# Velocity P-wave (km/s) = 6.57885 7.62543 7.12139
#
# Compressibility (1/GPa) = 0.01875607
#
# Stress axis : x y z
#
# Youngs Moduli (GPa) = 76.44730 114.10974 48.36783
#
# Poissons Ratio (x) = 0.16936 0.23508
# Poissons Ratio (y) = 0.11346 0.26782
# Poissons Ratio (z) = 0.37155 0.63185
#
# Static dielectric constant tensor:
#      x y z
#    x 1.815490 -0.023000 -0.030000 
#    y -0.023000 1.728320 -0.009280 
#    z -0.030000 -0.009280 1.768790 
# 
# From -- ./inp_files/398758.got.cif
#   From: 2010.05.17/outbox.cif.g08.bks.cpg/sg2_200_cif.got.tgz:398758.got - 2010.06.03 11:33:40.
