data_PCOD9086752
_publ_section_title
;
Structure prediction by ZEFSAII (Michael W. Deem and Ramdas Pophale) SiO2 
 PCOD9086752
Probable space group: P -1
;
_chemical_formula_sum "Si O2"
_cell_formula_units_Z 16
_cell_length_a 5.269088
_cell_length_b 30.839165
_cell_length_c 9.015892
_cell_angle_alpha 139.881283
_cell_angle_beta 97.663604
_cell_angle_gamma 63.870398
_cell_volume 793.422467
_symmetry_space_group_name_H-M "P -1"
_symmetry_group_IT_number 2
_symmetry_cell_setting 'triclinic'
loop_
_space_group_symop_operation_xyz
x,y,z
-x,-y,-z
loop_
_atom_site_type_symbol
_atom_site_label
_atom_site_fract_x
_atom_site_fract_y
_atom_site_fract_z
Si Si1 0.042142 0.109228 0.754018
Si Si2 0.789720 0.575633 0.081994
Si Si3 0.280127 0.211662 0.641978
Si Si4 0.519224 0.424268 0.231350
Si Si5 0.319102 0.939593 0.201034
Si Si6 0.357007 0.948769 0.893517
Si Si7 0.716044 0.260591 0.932570
Si Si8 0.882222 0.341172 0.760808
O O1 0.370193 0.095490 0.775081
O O2 0.887996 0.091630 0.834003
O O3 0.811246 0.198599 0.912610
O O4 0.124160 0.035902 0.456714
O O5 0.749354 0.554773 0.853397
O O6 0.446124 0.626329 0.246550
O O7 0.000000 0.500000 0.000000
O O8 0.933703 0.628731 0.230876
O O9 0.516549 0.120370 0.396739
O O10 0.471958 0.251606 0.796987
O O11 0.033946 0.226209 0.782735
O O12 0.086732 0.249493 0.575725
O O13 0.500000 0.500000 0.500000
O O14 0.573894 0.355861 0.173739
O O15 0.798348 0.381589 0.024960
O O16 0.426091 0.916722 0.981980
O O17 0.500000 0.000000 0.000000
O O18 0.000000 0.000000 0.000000
#
# Coordination Sequence:
#
# PCOD9086752 Si02
#       8
#     2   2   2   2   2   2   2   2
#     4  10  20  36  59  78 118 153 195 238 301 365
#     4  10  19  36  60  86 116 154 198 240 302 374
#     4  11  20  38  59  85 120 153 200 253 292 360
#     4   9  21  37  61  89 121 150 205 262 298 363
#     4  10  21  37  55  85 114 154 191 248 297 351
#     4  12  24  37  60  90 120 155 207 250 298 349
#     4  11  21  38  62  87 113 163 206 241 313 365
#     4   9  19  36  58  84 112 158 193 241 302 358
#
# _framework density 20.165804000000001
#
# number of rings (size 3 to 8) (size 9 to 14) (size 15 to 20)
#    0.750    1.000    1.250    4.125    0.000    2.500 
#    0.000    1.250    2.750    0.000    0.000    0.000 
#    0.000    0.000    0.000    0.000    0.000    0.000 
#
# Total GULP energy -89143.679086 kJ/mol
# GULP energy per Si atom -5571.479943 kJ/mol
# Density = 2.011991 g / cm^3
# Si number density = 20.165804 Si / 1000 Ang^3
#
#
#
# Elastic Constant Matrix: (Units=GPa)
#
#
# Indices 1 2 3 4 5 6 
#
# 1 128.7784 15.6519 24.7799 17.5152 1.6659 0.9487
# 2 15.6519 91.8275 12.1811 27.2496 2.9431 -6.9300
# 3 24.7799 12.1811 47.3234 20.4419 -1.2705 8.4032
# 4 17.5152 27.2496 20.4419 25.5901 6.2928 -5.8211
# 5 1.6659 2.9431 -1.2705 6.2928 17.4044 9.1617
# 6 0.9487 -6.9300 8.4032 -5.8211 9.1617 34.7276
#
#
#
# Elastic Compliance Matrix: (Units=1/GPa)
#
#
# Indices 1 2 3 4 5 6 
#
# 1 0.008851 0.000044 -0.002725 -0.004211 0.000716 -0.000468
# 2 0.000044 0.018843 0.013419 -0.037175 0.016537 -0.010082
# 3 -0.002725 0.013419 0.068631 -0.092332 0.060184 -0.045209
# 4 -0.004211 -0.037175 -0.092332 0.201419 -0.114461 0.078997
# 5 0.000716 0.016537 0.060184 -0.114461 0.135183 -0.066132
# 6 -0.000468 -0.010082 -0.045209 0.078997 -0.066132 0.068424
#
#
# Mechanical properties :
#
#
# Convention : Reuss Voigt Hill
#
# Bulk Modulus (GPa) = 8.48880 41.46168 24.97524
# Shear Modulus (GPa) = 9.63129 29.89883 19.76506
#
# Velocity S-wave (km/s) = 2.18779 3.85470 3.13410
# Velocity P-wave (km/s) = 3.25585 6.35741 5.05060
#
# Compressibility (1/GPa) = 0.11780235
#
# Stress axis : x y z
#
# Youngs Moduli (GPa) = 112.97960 53.07013 14.57063
#
# Poissons Ratio (x) = -0.00234 0.03970
# Poissons Ratio (y) = -0.00499 -0.19552
# Poissons Ratio (z) = 0.30783 -0.71215
#
# Static dielectric constant tensor:
#      x y z
#    x 1.718900 -0.010700 0.005090 
#    y -0.010700 1.734470 0.001670 
#    z 0.005090 0.001670 1.726120 
# 
# From -- ./inp_files/143414.got.cif
#   From: 2010.05.17/outbox.cif.g08.bks.cpg/sg2_72_cif.got.tgz:143414.got - 2010.06.03 11:33:40.
