data_PCOD9086692
_publ_section_title
;
Structure prediction by ZEFSAII (Michael W. Deem and Ramdas Pophale) SiO2 
 PCOD9086692
Probable space group: P -1
;
_chemical_formula_sum "Si O2"
_cell_formula_units_Z 14
_cell_length_a 19.106503
_cell_length_b 9.927000
_cell_length_c 9.846809
_cell_angle_alpha 57.609160
_cell_angle_beta 54.685205
_cell_angle_gamma 21.503250
_cell_volume 558.605925
_symmetry_space_group_name_H-M "P -1"
_symmetry_group_IT_number 2
_symmetry_cell_setting 'triclinic'
loop_
_space_group_symop_operation_xyz
x,y,z
-x,-y,-z
loop_
_atom_site_type_symbol
_atom_site_label
_atom_site_fract_x
_atom_site_fract_y
_atom_site_fract_z
Si Si1 0.090797 0.498694 0.035288
Si Si2 0.426949 0.608575 0.298207
Si Si3 0.326915 0.326347 0.412413
Si Si4 0.441944 0.389260 0.051887
Si Si5 0.009496 0.285634 0.272751
Si Si6 0.527891 0.195548 0.636624
Si Si7 0.713022 0.559711 0.027330
O O1 0.997072 0.716102 0.882192
O O2 0.118819 0.591067 0.063822
O O3 0.323036 0.058435 0.980627
O O4 0.973959 0.537456 0.193836
O O5 0.514225 0.328993 0.448468
O O6 0.409740 0.796725 0.311509
O O7 0.546882 0.452864 0.111003
O O8 0.211096 0.928275 0.319384
O O9 0.366818 0.433674 0.249347
O O10 0.135211 0.599412 0.562080
O O11 0.500000 0.000000 0.500000
O O12 0.343173 0.172223 0.353044
O O13 0.288905 0.563890 0.022442
O O14 0.320080 0.471052 0.773639
O O15 0.500000 0.000000 0.000000
#
# Coordination Sequence:
#
# PCOD9086692 Si02
#       7
#     2   2   2   2   2   2   2
#     4   9  16  32  51  76 105 141 184 222 252 327
#     4   9  21  37  57  80 109 150 180 217 273 332
#     4  12  21  34  56  85 109 140 182 235 267 314
#     4   9  17  32  57  74 106 145 186 215 264 324
#     4  10  20  31  54  80 113 136 181 230 272 311
#     4  10  19  36  60  81 109 142 187 222 266 326
#     4   9  14  29  55  79  93 140 190 215 248 317
#
# _framework density 25.062391999999999
#
# number of rings (size 3 to 8) (size 9 to 14) (size 15 to 20)
#    0.000    2.286    4.286    0.857    0.000    0.571 
#    0.000    3.571    3.143    2.571    0.000    0.000 
#    0.000    0.000    0.000    0.000    0.000    0.000 
#
# Total GULP energy -78190.875050 kJ/mol
# GULP energy per Si atom -5585.062504 kJ/mol
# Density = 2.500535 g / cm^3
# Si number density = 25.062392 Si / 1000 Ang^3
#
#
#
# Elastic Constant Matrix: (Units=GPa)
#
#
# Indices 1 2 3 4 5 6 
#
# 1 62.1935 34.3306 27.2521 -1.2899 -7.0798 -19.8884
# 2 34.3306 67.0639 40.1454 -1.5974 -6.2756 -20.5787
# 3 27.2521 40.1454 230.6981 6.3302 -9.5145 -13.0342
# 4 -1.2899 -1.5974 6.3302 26.5851 -12.0099 -1.3633
# 5 -7.0798 -6.2756 -9.5145 -12.0099 39.3967 1.9485
# 6 -19.8884 -20.5787 -13.0342 -1.3633 1.9485 36.0804
#
#
#
# Elastic Compliance Matrix: (Units=1/GPa)
#
#
# Indices 1 2 3 4 5 6 
#
# 1 0.024470 -0.009304 -0.000772 0.002634 0.003145 0.007833
# 2 -0.009304 0.023797 -0.002615 0.002888 0.001996 0.007501
# 3 -0.000772 -0.002615 0.004915 -0.001259 0.000258 -0.000203
# 4 0.002634 0.002888 -0.001259 0.044769 0.014100 0.003574
# 5 0.003145 0.001996 0.000258 0.014100 0.030535 0.001849
# 6 0.007833 0.007501 -0.000203 0.003574 0.001849 0.036273
#
#
# Mechanical properties :
#
#
# Convention : Reuss Voigt Hill
#
# Bulk Modulus (GPa) = 35.97136 62.60128 49.28632
# Shear Modulus (GPa) = 25.07431 37.62759 31.35095
#
# Velocity S-wave (km/s) = 3.16646 3.87894 3.54067
# Velocity P-wave (km/s) = 5.26807 6.71520 6.03517
#
# Compressibility (1/GPa) = 0.02779990
#
# Stress axis : x y z
#
# Youngs Moduli (GPa) = 40.86603 42.02293 203.47558
#
# Poissons Ratio (x) = 0.39098 0.15701
# Poissons Ratio (y) = 0.38022 0.53210
# Poissons Ratio (z) = 0.03153 0.10989
#
# Static dielectric constant tensor:
#      x y z
#    x 2.098790 0.096940 -0.017770 
#    y 0.096940 1.989270 0.019420 
#    z -0.017770 0.019420 2.026220 
# 
# From -- ./inp_files/474923.got.cif
#   From: 2010.05.17/outbox.cif.g08.bks.cpg/sg2_238_cif.got.tgz:474923.got - 2010.06.03 11:33:40.
