data_PCOD9086391
_publ_section_title
;
Structure prediction by ZEFSAII (Michael W. Deem and Ramdas Pophale) SiO2 
 PCOD9086391
Probable space group: P -1
;
_chemical_formula_sum "Si O2"
_cell_formula_units_Z 14
_cell_length_a 12.026576
_cell_length_b 10.753701
_cell_length_c 12.218780
_cell_angle_alpha 146.282743
_cell_angle_beta 121.927989
_cell_angle_gamma 80.644526
_cell_volume 601.820370
_symmetry_space_group_name_H-M "P -1"
_symmetry_group_IT_number 2
_symmetry_cell_setting 'triclinic'
loop_
_space_group_symop_operation_xyz
x,y,z
-x,-y,-z
loop_
_atom_site_type_symbol
_atom_site_label
_atom_site_fract_x
_atom_site_fract_y
_atom_site_fract_z
Si Si1 0.434010 0.752474 0.621872
Si Si2 0.811357 0.657495 0.422923
Si Si3 0.702111 0.990256 0.562841
Si Si4 0.872185 0.819261 0.917951
Si Si5 0.400255 0.670625 0.311230
Si Si6 0.144263 0.806466 0.968922
Si Si7 0.518921 0.711546 0.877745
O O1 0.264266 0.458464 0.296737
O O2 0.505363 0.827203 0.590983
O O3 0.506399 0.712287 0.739966
O O4 0.417834 0.991321 0.826213
O O5 0.835097 0.426495 0.229012
O O6 0.661533 0.504097 0.320829
O O7 0.756652 0.798470 0.412170
O O8 0.984850 0.919225 0.748131
O O9 0.722491 0.244453 0.696205
O O10 0.511933 0.787922 0.346459
O O11 0.792336 0.110408 0.813750
O O12 0.959274 0.716288 0.813666
O O13 0.792309 0.940891 0.897224
O O14 0.365570 0.373325 0.086815
#
# Coordination Sequence:
#
# PCOD9086391 Si02
#       7
#     2   2   2   2   2   2   2
#     4  11  22  36  55  85 118 142 176 232 283 326
#     4  10  20  37  60  83 109 147 188 228 271 323
#     4   9  20  36  57  84 107 145 195 224 266 333
#     4  10  21  35  57  85 112 145 186 223 277 334
#     4  10  20  37  57  79 115 149 180 230 277 322
#     4  10  19  36  58  81 112 146 185 232 267 321
#     4  10  22  36  57  87 111 143 188 223 276 337
#
# _framework density 23.262756
#
# number of rings (size 3 to 8) (size 9 to 14) (size 15 to 20)
#    0.000    2.000    0.000    5.143    0.000    4.571 
#    0.000    7.143    0.000    5.143    0.000    0.000 
#    0.000    0.000    0.000    0.000    0.000    0.000 
#
# Total GULP energy -78006.591157 kJ/mol
# GULP energy per Si atom -5571.899368 kJ/mol
# Density = 2.320981 g / cm^3
# Si number density = 23.262756 Si / 1000 Ang^3
#
#
#
# Elastic Constant Matrix: (Units=GPa)
#
#
# Indices 1 2 3 4 5 6 
#
# 1 67.6502 25.8275 32.8460 20.3217 -19.3957 -25.7229
# 2 25.8275 160.2189 35.6756 35.6375 -11.2875 -52.5751
# 3 32.8460 35.6756 106.5555 28.6872 -8.5702 -15.7568
# 4 20.3217 35.6375 28.6872 34.2312 -13.3209 -14.7647
# 5 -19.3957 -11.2875 -8.5702 -13.3209 27.0904 14.6093
# 6 -25.7229 -52.5751 -15.7568 -14.7647 14.6093 47.0633
#
#
#
# Elastic Compliance Matrix: (Units=1/GPa)
#
#
# Indices 1 2 3 4 5 6 
#
# 1 0.023868 0.001959 -0.004612 -0.004780 0.009034 0.009386
# 2 0.001959 0.012154 -0.000516 -0.009926 -0.005650 0.013115
# 3 -0.004612 -0.000516 0.013136 -0.009391 -0.003713 -0.000493
# 4 -0.004780 -0.009926 -0.009391 0.055557 0.019787 -0.005558
# 5 0.009034 -0.005650 -0.003713 0.019787 0.057225 -0.014174
# 6 0.009386 0.013115 -0.000493 -0.005558 -0.014174 0.043521
#
#
# Mechanical properties :
#
#
# Convention : Reuss Voigt Hill
#
# Bulk Modulus (GPa) = 23.35337 58.12475 40.73906
# Shear Modulus (GPa) = 22.11687 37.68202 29.89944
#
# Velocity S-wave (km/s) = 3.08675 4.02909 3.58899
# Velocity P-wave (km/s) = 4.77125 6.83266 5.89279
#
# Compressibility (1/GPa) = 0.04282038
#
# Stress axis : x y z
#
# Youngs Moduli (GPa) = 41.89719 82.27732 76.12746
#
# Poissons Ratio (x) = -0.16118 0.35108
# Poissons Ratio (y) = -0.08207 0.03927
# Poissons Ratio (z) = 0.19322 0.04245
#
# Static dielectric constant tensor:
#      x y z
#    x 1.990720 0.028630 0.022910 
#    y 0.028630 1.970240 0.007900 
#    z 0.022910 0.007900 1.870020 
# 
# From -- ./inp_files/532172.got.cif
#   From: 2010.05.17/outbox.cif.g08.bks.cpg/sg2_267_cif.got.tgz:532172.got - 2010.06.03 11:33:40.
