data_PCOD9086786
_publ_section_title
;
Structure prediction by ZEFSAII (Michael W. Deem and Ramdas Pophale) SiO2 
 PCOD9086786
Probable space group: P -1
;
_chemical_formula_sum "Si O2"
_cell_formula_units_Z 13
_cell_length_a 14.447594
_cell_length_b 10.104469
_cell_length_c 14.820228
_cell_angle_alpha 132.529135
_cell_angle_beta 19.307786
_cell_angle_gamma 132.144858
_cell_volume 522.295352
_symmetry_space_group_name_H-M "P -1"
_symmetry_group_IT_number 2
_symmetry_cell_setting 'triclinic'
loop_
_space_group_symop_operation_xyz
x,y,z
-x,-y,-z
loop_
_atom_site_type_symbol
_atom_site_label
_atom_site_fract_x
_atom_site_fract_y
_atom_site_fract_z
Si Si1 0.925816 0.700763 0.174815
Si Si2 0.312491 0.827739 0.246509
Si Si3 0.670220 0.431635 0.537207
Si Si4 0.212610 0.669216 0.073697
Si Si5 0.500000 0.000000 0.500000
Si Si6 0.433000 0.900043 0.715147
Si Si7 0.223147 0.395741 0.295801
O O1 0.602822 0.727248 0.474814
O O2 0.051441 0.757680 0.183679
O O3 0.000000 0.500000 0.000000
O O4 0.101929 0.833258 0.001510
O O5 0.316011 0.803875 0.123288
O O6 0.986010 0.774940 0.549377
O O7 0.443146 0.001708 0.262041
O O8 0.516041 0.681824 0.025279
O O9 0.654841 0.475780 0.677016
O O10 0.983329 0.508625 0.251129
O O11 0.595531 0.218459 0.495825
O O12 0.458797 0.567383 0.757767
O O13 0.492864 0.025210 0.630012
O O14 0.000000 0.500000 0.500000
#
# Coordination Sequence:
#
# PCOD9086786 Si02
#       7
#     2   2   2   2   1   2   2
#     4  12  25  45  68  94 127 171 216 257 313 382
#     4  10  22  39  61  95 125 160 209 261 320 371
#     4  10  22  38  64  92 124 170 204 257 317 369
#     4  10  22  43  67  93 127 164 213 260 313 378
#     4  12  26  44  62  94 134 164 214 262 312 378
#     4  12  27  42  67  96 128 169 211 265 320 370
#     4  10  19  36  60  87 126 168 209 251 307 378
#
# _framework density 24.890131
#
# number of rings (size 3 to 8) (size 9 to 14) (size 15 to 20)
#    0.000    1.231    0.000    5.538    0.000    6.154 
#    0.000    0.000    0.000    0.000    0.000    0.000 
#    0.000    0.000    0.000    0.000    0.000    0.000 
#
# Total GULP energy -72447.984974 kJ/mol
# GULP energy per Si atom -5572.921921 kJ/mol
# Density = 2.483348 g / cm^3
# Si number density = 24.890131 Si / 1000 Ang^3
#
#
#
# Elastic Constant Matrix: (Units=GPa)
#
#
# Indices 1 2 3 4 5 6 
#
# 1 94.3368 18.3800 3.9974 4.0105 15.3491 -8.2572
# 2 18.3800 85.8240 18.3235 -5.7027 16.5435 14.0758
# 3 3.9974 18.3235 95.2205 -7.6322 -7.0296 9.1122
# 4 4.0105 -5.7027 -7.6322 26.5276 1.5727 1.6789
# 5 15.3491 16.5435 -7.0296 1.5727 25.5968 8.7355
# 6 -8.2572 14.0758 9.1122 1.6789 8.7355 44.3466
#
#
#
# Elastic Compliance Matrix: (Units=1/GPa)
#
#
# Indices 1 2 3 4 5 6 
#
# 1 0.012975 -0.001800 -0.001531 -0.002601 -0.008617 0.005098
# 2 -0.001800 0.015026 -0.002903 0.003365 -0.008635 -0.002934
# 3 -0.001531 -0.002903 0.012208 0.002912 0.007123 -0.003385
# 4 -0.002601 0.003365 0.002912 0.039934 -0.001093 -0.003447
# 5 -0.008617 -0.008635 0.007123 -0.001093 0.055680 -0.011254
# 6 0.005098 -0.002934 -0.003385 -0.003447 -0.011254 0.027473
#
#
# Mechanical properties :
#
#
# Convention : Reuss Voigt Hill
#
# Bulk Modulus (GPa) = 36.04603 39.64257 37.84430
# Shear Modulus (GPa) = 27.02556 34.93954 30.98255
#
# Velocity S-wave (km/s) = 3.29871 3.75073 3.53196
# Velocity P-wave (km/s) = 5.38722 5.89228 5.64540
#
# Compressibility (1/GPa) = 0.02774230
#
# Stress axis : x y z
#
# Youngs Moduli (GPa) = 77.07354 66.55007 81.91305
#
# Poissons Ratio (x) = 0.11976 0.12539
# Poissons Ratio (y) = 0.13870 0.23779
# Poissons Ratio (z) = 0.11799 0.19319
#
# Static dielectric constant tensor:
#      x y z
#    x 2.268200 -0.169850 -0.236970 
#    y -0.169850 2.062640 0.170520 
#    z -0.236970 0.170520 2.231500 
# 
# From -- ./inp_files/287974.got.cif
#   From: 2010.05.17/outbox.cif.g08.bks.cpg/sg2_144_cif.got.tgz:287974.got - 2010.06.03 11:33:40.
