data_PCOD9086568
_publ_section_title
;
Structure prediction by ZEFSAII (Michael W. Deem and Ramdas Pophale) SiO2 
 PCOD9086568
Probable space group: P -1
;
_chemical_formula_sum "Si O2"
_cell_formula_units_Z 16
_cell_length_a 8.016911
_cell_length_b 12.105334
_cell_length_c 8.781063
_cell_angle_alpha 110.635725
_cell_angle_beta 115.238416
_cell_angle_gamma 83.505818
_cell_volume 720.679135
_symmetry_space_group_name_H-M "P -1"
_symmetry_group_IT_number 2
_symmetry_cell_setting 'triclinic'
loop_
_space_group_symop_operation_xyz
x,y,z
-x,-y,-z
loop_
_atom_site_type_symbol
_atom_site_label
_atom_site_fract_x
_atom_site_fract_y
_atom_site_fract_z
Si Si1 0.541674 0.829225 0.017556
Si Si2 0.625069 0.560557 0.454714
Si Si3 0.424976 0.375437 0.850174
Si Si4 0.981792 0.665312 0.199071
Si Si5 0.155914 0.287239 0.138957
Si Si6 0.117070 0.852221 0.824273
Si Si7 0.877384 0.389019 0.465144
Si Si8 0.078550 0.062460 0.709511
O O1 0.668229 0.773711 0.903712
O O2 0.340018 0.875626 0.928598
O O3 0.493225 0.727875 0.072213
O O4 0.698486 0.915777 0.196987
O O5 0.500000 0.500000 0.500000
O O6 0.545386 0.633843 0.322649
O O7 0.767560 0.640859 0.650062
O O8 0.691774 0.437783 0.346865
O O9 0.206606 0.362696 0.793521
O O10 0.500000 0.500000 0.000000
O O11 0.002182 0.807340 0.255998
O O12 0.125144 0.616738 0.353525
O O13 0.936564 0.631455 0.988771
O O14 0.997431 0.195344 0.096556
O O15 0.088806 0.741368 0.642430
O O16 0.036125 0.971541 0.785816
O O17 0.000000 0.500000 0.500000
O O18 0.000000 0.000000 0.500000
#
# Coordination Sequence:
#
# PCOD9086568 Si02
#       8
#     2   2   2   2   2   2   2   2
#     4  10  25  41  64 100 128 168 224 265 322 398
#     4  12  23  37  58  92 132 174 211 266 325 388
#     4  10  19  36  59  83 129 166 203 256 323 373
#     4  10  22  40  60  95 125 165 218 263 317 396
#     4  10  23  40  63  96 133 171 211 271 333 377
#     4  12  22  42  71  93 130 174 220 266 328 387
#     4  12  22  38  62  91 124 167 221 253 316 397
#     4  10  21  42  71  93 125 177 217 268 333 384
#
# _framework density 22.201280000000001
#
# number of rings (size 3 to 8) (size 9 to 14) (size 15 to 20)
#    0.000    1.500    3.750    3.375    1.750    3.500 
#    0.000    0.000    0.000    3.750    0.000    0.000 
#    0.000    0.000    0.000    0.000    0.000    0.000 
#
# Total GULP energy -89068.113214 kJ/mol
# GULP energy per Si atom -5566.757076 kJ/mol
# Density = 2.215075 g / cm^3
# Si number density = 22.201280 Si / 1000 Ang^3
#
#
#
# Elastic Constant Matrix: (Units=GPa)
#
#
# Indices 1 2 3 4 5 6 
#
# 1 66.6376 21.9123 18.2646 -6.0889 -3.1456 16.4899
# 2 21.9123 125.9761 43.1257 -16.8269 -0.0299 15.7171
# 3 18.2646 43.1257 144.8408 -5.6757 0.7660 11.1331
# 4 -6.0889 -16.8269 -5.6757 45.9168 9.0640 -0.2886
# 5 -3.1456 -0.0299 0.7660 9.0640 27.6578 -2.7679
# 6 16.4899 15.7171 11.1331 -0.2886 -2.7679 33.1379
#
#
#
# Elastic Compliance Matrix: (Units=1/GPa)
#
#
# Indices 1 2 3 4 5 6 
#
# 1 0.017914 -0.001568 -0.001147 0.001448 0.000822 -0.007704
# 2 -0.001568 0.009871 -0.002353 0.003402 -0.001539 -0.003210
# 3 -0.001147 -0.002353 0.007829 0.000038 -0.000461 -0.000981
# 4 0.001448 0.003402 0.000038 0.024833 -0.008253 -0.002820
# 5 0.000822 -0.001539 -0.000461 -0.008253 0.039335 0.003689
# 6 -0.007704 -0.003210 -0.000981 -0.002820 0.003689 0.036146
#
#
# Mechanical properties :
#
#
# Convention : Reuss Voigt Hill
#
# Bulk Modulus (GPa) = 39.25265 56.00663 47.62964
# Shear Modulus (GPa) = 32.35034 38.28597 35.31816
#
# Velocity S-wave (km/s) = 3.82139 4.15721 3.99283
# Velocity P-wave (km/s) = 6.09831 6.95160 6.53889
#
# Compressibility (1/GPa) = 0.02547599
#
# Stress axis : x y z
#
# Youngs Moduli (GPa) = 55.82144 101.30846 127.73362
#
# Poissons Ratio (x) = 0.15889 0.14657
# Poissons Ratio (y) = 0.08755 0.30057
# Poissons Ratio (z) = 0.06405 0.23839
#
# Static dielectric constant tensor:
#      x y z
#    x 2.011630 -0.046210 0.036830 
#    y -0.046210 1.821040 0.013410 
#    z 0.036830 0.013410 1.895890 
# 
# From -- ./inp_files/181884.got.cif
#   From: 2010.05.17/outbox.cif.g08.bks.cpg/sg2_91_cif.got.tgz:181884.got - 2010.06.03 11:33:40.
