data_PCOD9086811
_publ_section_title
;
Structure prediction by ZEFSAII (Michael W. Deem and Ramdas Pophale) SiO2 
 PCOD9086811
Probable space group: P -1
;
_chemical_formula_sum "Si O2"
_cell_formula_units_Z 16
_cell_length_a 8.444421
_cell_length_b 16.808720
_cell_length_c 8.016850
_cell_angle_alpha 68.810122
_cell_angle_beta 95.963109
_cell_angle_gamma 137.212181
_cell_volume 696.916843
_symmetry_space_group_name_H-M "P -1"
_symmetry_group_IT_number 2
_symmetry_cell_setting 'triclinic'
loop_
_space_group_symop_operation_xyz
x,y,z
-x,-y,-z
loop_
_atom_site_type_symbol
_atom_site_label
_atom_site_fract_x
_atom_site_fract_y
_atom_site_fract_z
Si Si1 0.388927 0.214587 0.365566
Si Si2 0.951482 0.761669 0.592113
Si Si3 0.751999 0.779344 0.981531
Si Si4 0.407048 0.859217 0.104648
Si Si5 0.120195 0.891800 0.162650
Si Si6 0.564453 0.471970 0.694912
Si Si7 0.756562 0.020097 0.325920
Si Si8 0.272630 0.629932 0.398762
O O1 0.218428 0.224821 0.398241
O O2 0.430741 0.249194 0.146405
O O3 0.277515 0.075552 0.485577
O O4 0.601332 0.306390 0.455791
O O5 0.785394 0.611454 0.698306
O O6 0.050177 0.814363 0.378894
O O7 0.183601 0.868886 0.653891
O O8 0.643421 0.640494 0.111307
O O9 0.002643 0.896322 0.820298
O O10 0.879510 0.848914 0.122331
O O11 0.199428 0.846709 0.078178
O O12 0.533774 0.930099 0.244183
O O13 0.302909 0.724940 0.216452
O O14 0.632260 0.954756 0.929203
O O15 0.500000 0.500000 0.500000
O O16 0.627820 0.407050 0.671499
O O17 0.000000 0.500000 0.500000
#
# Coordination Sequence:
#
# PCOD9086811 Si02
#       8
#     2   2   2   2   2   2   2   2
#     4  10  21  40  60  90 117 152 202 248 304 353
#     4  11  20  35  59  83 120 152 196 248 289 351
#     4  10  20  36  61  84 121 152 196 252 290 352
#     4   9  21  38  59  86 119 155 204 241 301 365
#     4  10  19  36  60  89 116 157 200 250 298 351
#     4  12  23  39  58  93 120 157 210 240 292 361
#     4   9  21  38  58  89 115 155 195 252 307 346
#     4  11  23  41  63  84 123 163 194 245 304 357
#
# _framework density 22.958264
#
# number of rings (size 3 to 8) (size 9 to 14) (size 15 to 20)
#    0.000    1.750    2.500    2.250    0.000    4.500 
#    0.000    6.250    0.000    0.000    0.000    0.000 
#    0.000    0.000    0.000    0.000    0.000    0.000 
#
# Total GULP energy -89070.758931 kJ/mol
# GULP energy per Si atom -5566.922433 kJ/mol
# Density = 2.290601 g / cm^3
# Si number density = 22.958264 Si / 1000 Ang^3
#
#
#
# Elastic Constant Matrix: (Units=GPa)
#
#
# Indices 1 2 3 4 5 6 
#
# 1 45.1231 17.5022 7.2286 -17.1920 9.6615 -4.6209
# 2 17.5022 123.8914 29.9754 -33.3916 2.2969 -5.0602
# 3 7.2286 29.9754 100.7347 -35.0509 12.3922 -3.1965
# 4 -17.1920 -33.3916 -35.0509 47.4548 -4.2587 4.4716
# 5 9.6615 2.2969 12.3922 -4.2587 29.7679 -9.5061
# 6 -4.6209 -5.0602 -3.1965 4.4716 -9.5061 29.6049
#
#
#
# Elastic Compliance Matrix: (Units=1/GPa)
#
#
# Indices 1 2 3 4 5 6 
#
# 1 0.028272 -0.001758 0.003289 0.010637 -0.008885 0.000008
# 2 -0.001758 0.010135 -0.001013 0.005781 0.001325 0.000901
# 3 0.003289 -0.001013 0.014414 0.010744 -0.005978 -0.001646
# 4 0.010637 0.005781 0.010744 0.036852 -0.004078 -0.003067
# 5 -0.008885 0.001325 -0.005978 -0.004078 0.042230 0.012370
# 6 0.000008 0.000901 -0.001646 -0.003067 0.012370 0.038191
#
#
# Mechanical properties :
#
#
# Convention : Reuss Voigt Hill
#
# Bulk Modulus (GPa) = 18.56746 42.12909 30.34828
# Shear Modulus (GPa) = 26.73623 35.70171 31.21897
#
# Velocity S-wave (km/s) = 3.41626 3.94772 3.69157
# Velocity P-wave (km/s) = 4.86479 6.25855 5.60516
#
# Compressibility (1/GPa) = 0.05385765
#
# Stress axis : x y z
#
# Youngs Moduli (GPa) = 35.37012 98.66556 69.37717
#
# Poissons Ratio (x) = 0.17344 -0.22815
# Poissons Ratio (y) = 0.06218 0.07026
# Poissons Ratio (z) = -0.11632 0.09992
#
# Static dielectric constant tensor:
#      x y z
#    x 1.911280 -0.001140 0.247940 
#    y -0.001140 1.968100 0.310230 
#    z 0.247940 0.310230 0.373160 
# 
# From -- ./inp_files/217129.got.cif
#   From: 2010.05.17/outbox.cif.g08.bks.cpg/sg2_109_cif.got.tgz:217129.got - 2010.06.03 11:33:40.
