data_PCOD9086925
_publ_section_title
;
Structure prediction by ZEFSAII (Michael W. Deem and Ramdas Pophale) SiO2 
 PCOD9086925
Probable space group: P -1
;
_chemical_formula_sum "Si O2"
_cell_formula_units_Z 14
_cell_length_a 23.147640
_cell_length_b 8.748446
_cell_length_c 23.599200
_cell_angle_alpha 40.002657
_cell_angle_beta 12.367889
_cell_angle_gamma 38.625486
_cell_volume 638.807796
_symmetry_space_group_name_H-M "P -1"
_symmetry_group_IT_number 2
_symmetry_cell_setting 'triclinic'
loop_
_space_group_symop_operation_xyz
x,y,z
-x,-y,-z
loop_
_atom_site_type_symbol
_atom_site_label
_atom_site_fract_x
_atom_site_fract_y
_atom_site_fract_z
Si Si1 0.002562 0.976773 0.370836
Si Si2 0.364992 0.645143 0.215941
Si Si3 0.190597 0.581325 0.746743
Si Si4 0.012123 0.045378 0.841469
Si Si5 0.067562 0.389057 0.265073
Si Si6 0.383000 0.108841 0.641966
Si Si7 0.490595 0.742975 0.901708
O O1 0.178027 0.821887 0.298698
O O2 0.718036 0.889169 0.661737
O O3 0.007406 0.250628 0.305696
O O4 0.185751 0.903010 0.160392
O O5 0.446179 0.374777 0.186874
O O6 0.177177 0.636423 0.451986
O O7 0.642378 0.719342 0.949431
O O8 0.500000 0.500000 0.500000
O O9 0.233027 0.401245 0.702864
O O10 0.035025 0.868545 0.814154
O O11 0.000000 0.500000 0.000000
O O12 0.934335 0.330458 0.822799
O O13 0.330333 0.959771 0.579381
O O14 0.827002 0.997213 0.086356
O O15 0.500000 0.000000 0.500000
O O16 0.500000 0.500000 0.000000
#
# Coordination Sequence:
#
# PCOD9086925 Si02
#       7
#     2   2   2   2   2   2   2
#     4  11  21  37  58  82 113 154 197 241 287 333
#     4  11  21  37  57  81 108 154 204 233 275 345
#     4   8  16  32  55  76 102 136 172 210 263 330
#     4  10  21  37  54  82 115 145 178 228 291 336
#     4  12  23  36  56  84 119 151 187 244 289 334
#     4  10  19  36  61  84 106 142 187 228 271 342
#     4  10  20  37  58  79 106 144 196 250 285 328
#
# _framework density 21.915825000000002
#
# number of rings (size 3 to 8) (size 9 to 14) (size 15 to 20)
#    0.000    1.714    0.000    7.286    0.000    0.000 
#    0.000    4.286    0.000    0.000    0.000    0.000 
#    0.000    0.000    0.000    0.000    0.000    0.000 
#
# Total GULP energy -77989.499163 kJ/mol
# GULP energy per Si atom -5570.678512 kJ/mol
# Density = 2.186594 g / cm^3
# Si number density = 21.915825 Si / 1000 Ang^3
#
#
#
# Elastic Constant Matrix: (Units=GPa)
#
#
# Indices 1 2 3 4 5 6 
#
# 1 32.2019 22.8610 -18.2401 31.6489 -2.5037 28.8131
# 2 22.8610 143.0693 9.8316 6.3511 13.0973 22.8987
# 3 -18.2401 9.8316 47.8342 64.1632 -19.9523 46.7968
# 4 31.6489 6.3511 64.1632 1.6824 45.2783 -7.3818
# 5 -2.5037 13.0973 -19.9523 45.2783 10.9057 20.5501
# 6 28.8131 22.8987 46.7968 -7.3818 20.5501 22.0594
#
#
#
# Elastic Compliance Matrix: (Units=1/GPa)
#
#
# Indices 1 2 3 4 5 6 
#
# 1 0.028441 -0.001431 -0.001426 0.010914 -0.019785 -0.010555
# 2 -0.001431 0.008279 0.000909 0.001220 -0.002464 -0.005950
# 3 -0.001426 0.000909 0.008285 0.007591 -0.011681 -0.003235
# 4 0.010914 0.001220 0.007591 0.015396 -0.001180 -0.025374
# 5 -0.019785 -0.002464 -0.011681 -0.001180 0.034185 0.020939
# 6 -0.010555 -0.005950 -0.003235 -0.025374 0.020939 0.044160
#
#
# Mechanical properties :
#
#
# Convention : Reuss Voigt Hill
#
# Bulk Modulus (GPa) = 24.32519 28.00115 26.16317
# Shear Modulus (GPa) = 31.98019 20.83969 26.40994
#
# Velocity S-wave (km/s) = 3.82413 3.08701 3.47517
# Velocity P-wave (km/s) = 5.53372 5.05080 5.29777
#
# Compressibility (1/GPa) = 0.04110965
#
# Stress axis : x y z
#
# Youngs Moduli (GPa) = 35.15991 120.78117 120.69665
#
# Poissons Ratio (x) = 0.17278 0.17216
# Poissons Ratio (y) = 0.05030 -0.10967
# Poissons Ratio (z) = 0.05015 -0.10975
#
# Static dielectric constant tensor:
#      x y z
#    x 1.838160 0.056070 -0.015760 
#    y 0.056070 1.961290 -0.016460 
#    z -0.015760 -0.016460 1.745190 
# 
# From -- ./inp_files/613983.got.cif
#   From: 2010.05.17/outbox.cif.g08.bks.cpg/sg2_307_cif.got.tgz:613983.got - 2010.06.03 11:33:40.
