data_PCOD9086500
_publ_section_title
;
Structure prediction by ZEFSAII (Michael W. Deem and Ramdas Pophale) SiO2 
 PCOD9086500
Probable space group: P -1
;
_chemical_formula_sum "Si O2"
_cell_formula_units_Z 14
_cell_length_a 11.110813
_cell_length_b 7.866784
_cell_length_c 8.312634
_cell_angle_alpha 53.536979
_cell_angle_beta 72.093805
_cell_angle_gamma 59.297983
_cell_volume 502.429494
_symmetry_space_group_name_H-M "P -1"
_symmetry_group_IT_number 2
_symmetry_cell_setting 'triclinic'
loop_
_space_group_symop_operation_xyz
x,y,z
-x,-y,-z
loop_
_atom_site_type_symbol
_atom_site_label
_atom_site_fract_x
_atom_site_fract_y
_atom_site_fract_z
Si Si1 0.842084 0.549264 0.073967
Si Si2 0.397622 0.723414 0.244054
Si Si3 0.699310 0.648987 0.569997
Si Si4 0.986775 0.191680 0.642576
Si Si5 0.185888 0.042470 0.344647
Si Si6 0.777877 0.901618 0.162969
Si Si7 0.385429 0.421082 0.012227
O O1 0.771946 0.785242 0.870834
O O2 0.766281 0.402593 0.107330
O O3 0.814128 0.647280 0.208890
O O4 0.000000 0.500000 0.000000
O O5 0.393297 0.474584 0.391070
O O6 0.334097 0.820687 0.391084
O O7 0.538635 0.708046 0.112765
O O8 0.290452 0.886091 0.053017
O O9 0.680070 0.885899 0.355483
O O10 0.653875 0.681186 0.755012
O O11 0.859986 0.441687 0.601123
O O12 0.098659 0.167534 0.467287
O O13 0.082486 0.107668 0.808462
O O14 0.917722 0.033185 0.677837
O O15 0.500000 0.500000 0.000000
#
# Coordination Sequence:
#
# PCOD9086500 Si02
#       7
#     2   2   2   2   2   2   2
#     4  11  22  37  62  95 123 161 215 259 305 369
#     4   9  22  40  57  86 122 162 206 250 308 372
#     4  10  20  38  61  86 123 166 206 256 309 364
#     4  10  19  36  58  90 125 162 208 258 313 363
#     4   9  20  35  58  85 125 167 201 255 313 366
#     4  11  22  35  61  92 121 161 211 258 306 367
#     4  10  22  42  63  86 129 172 200 253 318 370
#
# _framework density 27.864604
#
# number of rings (size 3 to 8) (size 9 to 14) (size 15 to 20)
#    0.000    2.000    0.000    3.000    0.000   10.286 
#    0.000    4.286    0.000    1.714    0.000    0.000 
#    0.000    0.000    0.000    0.000    0.000    0.000 
#
# Total GULP energy -77935.522528 kJ/mol
# GULP energy per Si atom -5566.823038 kJ/mol
# Density = 2.780118 g / cm^3
# Si number density = 27.864604 Si / 1000 Ang^3
#
#
#
# Elastic Constant Matrix: (Units=GPa)
#
#
# Indices 1 2 3 4 5 6 
#
# 1 148.8967 53.1560 46.8042 13.9879 16.5647 -15.4262
# 2 53.1560 64.1032 16.0827 21.9477 4.3272 5.3390
# 3 46.8042 16.0827 124.1461 16.3478 -36.7306 -9.3712
# 4 13.9879 21.9477 16.3478 44.0454 -14.8495 -11.7104
# 5 16.5647 4.3272 -36.7306 -14.8495 47.3353 7.4699
# 6 -15.4262 5.3390 -9.3712 -11.7104 7.4699 41.0032
#
#
#
# Elastic Compliance Matrix: (Units=1/GPa)
#
#
# Indices 1 2 3 4 5 6 
#
# 1 0.014373 -0.011001 -0.006549 0.002145 -0.009650 0.007714
# 2 -0.011001 0.031138 0.000885 -0.016107 -0.001417 -0.012333
# 3 -0.006549 0.000885 0.014272 0.000522 0.013712 -0.001666
# 4 0.002145 -0.016107 0.000522 0.036545 0.010777 0.011498
# 5 -0.009650 -0.001417 0.013712 0.010777 0.039348 -0.004403
# 6 0.007714 -0.012333 -0.001666 0.011498 -0.004403 0.032601
#
#
# Mechanical properties :
#
#
# Convention : Reuss Voigt Hill
#
# Bulk Modulus (GPa) = 37.80462 63.24799 50.52630
# Shear Modulus (GPa) = 23.76110 41.21700 32.48905
#
# Velocity S-wave (km/s) = 2.92333 3.85019 3.41832
# Velocity P-wave (km/s) = 4.99912 6.52019 5.80965
#
# Compressibility (1/GPa) = 0.02645179
#
# Stress axis : x y z
#
# Youngs Moduli (GPa) = 69.57265 32.11489 70.06717
#
# Poissons Ratio (x) = 0.35331 0.45888
# Poissons Ratio (y) = 0.76539 -0.06198
# Poissons Ratio (z) = 0.45564 -0.02841
#
# Static dielectric constant tensor:
#      x y z
#    x -13.158160 20.717470 -12.772160 
#    y 20.717470 -24.829680 16.891440 
#    z -12.772160 16.891440 -8.282660 
# 
# From -- ./inp_files/237039.got.cif
#   From: 2010.05.17/outbox.cif.g08.bks.cpg/sg2_119_cif.got.tgz:237039.got - 2010.06.03 11:33:40.
