data_PCOD9086730
_publ_section_title
;
Structure prediction by ZEFSAII (Michael W. Deem and Ramdas Pophale) SiO2 
 PCOD9086730
Probable space group: P -1
;
_chemical_formula_sum "Si O2"
_cell_formula_units_Z 14
_cell_length_a 9.461888
_cell_length_b 11.763104
_cell_length_c 11.126237
_cell_angle_alpha 124.702924
_cell_angle_beta 107.832454
_cell_angle_gamma 117.178877
_cell_volume 573.112895
_symmetry_space_group_name_H-M "P -1"
_symmetry_group_IT_number 2
_symmetry_cell_setting 'triclinic'
loop_
_space_group_symop_operation_xyz
x,y,z
-x,-y,-z
loop_
_atom_site_type_symbol
_atom_site_label
_atom_site_fract_x
_atom_site_fract_y
_atom_site_fract_z
Si Si1 0.965034 0.605325 0.468137
Si Si2 0.395157 0.631430 0.984794
Si Si3 0.026123 0.814591 0.049798
Si Si4 0.738682 0.581025 0.606571
Si Si5 0.890234 0.842597 0.260122
Si Si6 0.729863 0.352100 0.800705
Si Si7 0.573510 0.145089 0.384536
O O1 0.759354 0.424613 0.201397
O O2 0.868693 0.658338 0.557240
O O3 0.000000 0.500000 0.500000
O O4 0.240956 0.822523 0.612762
O O5 0.214207 0.376739 0.839826
O O6 0.654844 0.752728 0.093643
O O7 0.432195 0.754306 0.186024
O O8 0.070198 0.947707 0.255854
O O9 0.933581 0.788527 0.879255
O O10 0.793454 0.548680 0.877682
O O11 0.276432 0.914678 0.151926
O O12 0.500000 0.500000 0.500000
O O13 0.651497 0.358843 0.486259
O O14 0.000000 0.000000 0.500000
O O15 0.629592 0.188773 0.566536
O O16 0.000000 0.500000 0.000000
#
# Coordination Sequence:
#
# PCOD9086730 Si02
#       7
#     2   2   2   2   2   2   2
#     4  10  21  39  61  85 118 163 199 237 294 350
#     4  10  20  38  61  86 120 153 194 245 293 354
#     4  10  22  37  59  87 116 152 192 242 294 348
#     4  10  22  40  61  82 115 162 202 239 288 345
#     4  10  21  38  60  91 117 149 194 245 304 354
#     4  10  19  36  60  85 115 150 185 235 303 347
#     4  10  21  39  59  87 122 149 196 246 292 356
#
# _framework density 24.427996
#
# number of rings (size 3 to 8) (size 9 to 14) (size 15 to 20)
#    0.000    2.000    1.429    1.714    0.000    5.143 
#    2.571    2.857    0.000    0.000    0.000    0.000 
#    0.000    0.000    0.000    0.000    0.000    0.000 
#
# Total GULP energy -78261.023262 kJ/mol
# GULP energy per Si atom -5590.073090 kJ/mol
# Density = 2.437240 g / cm^3
# Si number density = 24.427996 Si / 1000 Ang^3
#
#
#
# Elastic Constant Matrix: (Units=GPa)
#
#
# Indices 1 2 3 4 5 6 
#
# 1 149.2472 53.0075 48.9525 -23.7732 8.0012 42.3814
# 2 53.0075 97.4826 39.3017 -9.1713 -5.0512 28.1188
# 3 48.9525 39.3017 121.5113 -38.7369 9.9835 22.5134
# 4 -23.7732 -9.1713 -38.7369 39.5401 -3.2516 -10.5751
# 5 8.0012 -5.0512 9.9835 -3.2516 50.1660 -1.6495
# 6 42.3814 28.1188 22.5134 -10.5751 -1.6495 51.7390
#
#
#
# Elastic Compliance Matrix: (Units=1/GPa)
#
#
# Indices 1 2 3 4 5 6 
#
# 1 0.010416 -0.003454 -0.000967 0.002837 -0.001821 -0.005712
# 2 -0.003454 0.014684 -0.003874 -0.003354 0.002449 -0.004073
# 3 -0.000967 -0.003874 0.013978 0.011801 -0.002281 -0.000846
# 4 0.002837 -0.003354 0.011801 0.038313 -0.000584 0.002177
# 5 -0.001821 0.002449 -0.002281 -0.000584 0.020943 0.001701
# 6 -0.005712 -0.004073 -0.000846 0.002177 0.001701 0.027088
#
#
# Mechanical properties :
#
#
# Convention : Reuss Voigt Hill
#
# Bulk Modulus (GPa) = 44.46462 72.30717 58.38589
# Shear Modulus (GPa) = 33.44324 43.42098 38.43211
#
# Velocity S-wave (km/s) = 3.70409 4.22063 3.97076
# Velocity P-wave (km/s) = 6.04446 7.30862 6.70639
#
# Compressibility (1/GPa) = 0.02248979
#
# Stress axis : x y z
#
# Youngs Moduli (GPa) = 96.01019 68.10003 71.54016
#
# Poissons Ratio (x) = 0.23519 0.06916
# Poissons Ratio (y) = 0.33157 0.27713
# Poissons Ratio (z) = 0.09282 0.26380
#
# Static dielectric constant tensor:
#      x y z
#    x 2.003330 -0.059910 -0.093290 
#    y -0.059910 2.011190 0.036180 
#    z -0.093290 0.036180 1.943690 
# 
# From -- ./inp_files/63833.got.cif
#   From: 2010.05.17/outbox.cif.g08.bks.cpg/sg2_32_cif.got.tgz:63833.got - 2010.06.03 11:33:40.
