data_PCOD9086492
_publ_section_title
;
Structure prediction by ZEFSAII (Michael W. Deem and Ramdas Pophale) SiO2 
 PCOD9086492
Probable space group: P -1
;
_chemical_formula_sum "Si O2"
_cell_formula_units_Z 16
_cell_length_a 9.220100
_cell_length_b 9.605771
_cell_length_c 12.503912
_cell_angle_alpha 72.907152
_cell_angle_beta 125.777759
_cell_angle_gamma 116.164160
_cell_volume 805.390075
_symmetry_space_group_name_H-M "P -1"
_symmetry_group_IT_number 2
_symmetry_cell_setting 'triclinic'
loop_
_space_group_symop_operation_xyz
x,y,z
-x,-y,-z
loop_
_atom_site_type_symbol
_atom_site_label
_atom_site_fract_x
_atom_site_fract_y
_atom_site_fract_z
Si Si1 0.181992 0.485942 0.145601
Si Si2 0.743845 0.646506 0.169544
Si Si3 0.484110 0.790383 0.116083
Si Si4 0.898965 0.347301 0.562552
Si Si5 0.029226 0.835517 0.550119
Si Si6 0.397494 0.332090 0.132175
Si Si7 0.600464 0.132800 0.170248
Si Si8 0.719765 0.528878 0.569109
O O1 0.351866 0.647734 0.158837
O O2 0.258581 0.354605 0.158233
O O3 0.170610 0.465498 0.272515
O O4 0.000000 0.500000 0.000000
O O5 0.688358 0.773609 0.185351
O O6 0.590376 0.483219 0.178692
O O7 0.953109 0.652815 0.281700
O O8 0.708329 0.665040 0.025970
O O9 0.504746 0.952028 0.142048
O O10 0.397184 0.780116 0.961175
O O11 0.881095 0.202658 0.512418
O O12 0.726864 0.384272 0.533424
O O13 0.000000 0.500000 0.500000
O O14 0.187626 0.835020 0.705227
O O15 0.834335 0.691544 0.522504
O O16 0.000000 0.000000 0.500000
O O17 0.474970 0.189906 0.187484
O O18 0.500000 0.500000 0.500000
#
# Coordination Sequence:
#
# PCOD9086492 Si02
#       8
#     2   2   2   2   2   2   2   2
#     4  11  22  38  61  84 123 155 198 240 316 350
#     4   9  16  32  54  83 112 144 212 234 292 335
#     4   9  20  34  62  87 115 154 188 260 291 361
#     4  10  21  36  59  82 118 163 201 243 286 364
#     4  11  24  40  65  87 119 162 208 248 290 364
#     4   9  18  30  58  83 108 154 191 258 279 360
#     4  10  19  36  58  90 116 144 211 242 299 338
#     4  11  26  40  60  91 128 157 202 249 309 364
#
# _framework density 19.866150999999999
#
# number of rings (size 3 to 8) (size 9 to 14) (size 15 to 20)
#    0.000    2.000    0.000    4.500   10.500    0.000 
#    0.000    2.500    0.000    0.000    0.000    0.000 
#    0.000    0.000    0.000    0.000    0.000    0.000 
#
# Total GULP energy -89290.435331 kJ/mol
# GULP energy per Si atom -5580.652208 kJ/mol
# Density = 1.982093 g / cm^3
# Si number density = 19.866151 Si / 1000 Ang^3
#
#
#
# Elastic Constant Matrix: (Units=GPa)
#
#
# Indices 1 2 3 4 5 6 
#
# 1 100.0891 44.4794 27.2754 -4.0967 6.4162 -33.7534
# 2 44.4794 100.0842 20.6342 -6.2203 -6.5279 -40.1515
# 3 27.2754 20.6342 60.2454 1.0596 14.9943 -8.2155
# 4 -4.0967 -6.2203 1.0596 16.5935 -6.8896 1.2590
# 5 6.4162 -6.5279 14.9943 -6.8896 33.1682 1.8496
# 6 -33.7534 -40.1515 -8.2155 1.2590 1.8496 39.8306
#
#
#
# Elastic Compliance Matrix: (Units=1/GPa)
#
#
# Indices 1 2 3 4 5 6 
#
# 1 0.015857 -0.001701 -0.004837 0.002211 -0.001354 0.010718
# 2 -0.001701 0.019673 -0.005834 0.009335 0.007856 0.016527
# 3 -0.004837 -0.005834 0.023532 -0.009817 -0.012654 -0.004228
# 4 0.002211 0.009335 -0.009817 0.073073 0.020692 0.005988
# 5 -0.001354 0.007856 -0.012654 0.020692 0.041889 0.001562
# 6 0.010718 0.016527 -0.004228 0.005988 0.001562 0.049716
#
#
# Mechanical properties :
#
#
# Convention : Reuss Voigt Hill
#
# Bulk Modulus (GPa) = 29.13787 49.46630 39.30209
# Shear Modulus (GPa) = 19.23655 29.12044 24.17849
#
# Velocity S-wave (km/s) = 3.11514 3.83277 3.49244
# Velocity P-wave (km/s) = 5.25716 6.67388 6.00743
#
# Compressibility (1/GPa) = 0.03431960
#
# Stress axis : x y z
#
# Youngs Moduli (GPa) = 63.06412 50.83100 42.49517
#
# Poissons Ratio (x) = 0.08646 0.20553
# Poissons Ratio (y) = 0.10727 0.24790
# Poissons Ratio (z) = 0.30502 0.29653
#
# Static dielectric constant tensor:
#      x y z
#    x 1.712430 -0.032780 -0.011090 
#    y -0.032780 1.714850 0.001130 
#    z -0.011090 0.001130 1.738330 
# 
# From -- ./inp_files/200289.got.cif
#   From: 2010.05.17/outbox.cif.g08.bks.cpg/sg2_101_cif.got.tgz:200289.got - 2010.06.03 11:33:40.
