data_PCOD9086721
_publ_section_title
;
Structure prediction by ZEFSAII (Michael W. Deem and Ramdas Pophale) SiO2 
 PCOD9086721
Probable space group: P -1
;
_chemical_formula_sum "Si O2"
_cell_formula_units_Z 14
_cell_length_a 7.951999
_cell_length_b 16.877919
_cell_length_c 11.407674
_cell_angle_alpha 146.630389
_cell_angle_beta 52.987853
_cell_angle_gamma 129.092500
_cell_volume 643.343724
_symmetry_space_group_name_H-M "P -1"
_symmetry_group_IT_number 2
_symmetry_cell_setting 'triclinic'
loop_
_space_group_symop_operation_xyz
x,y,z
-x,-y,-z
loop_
_atom_site_type_symbol
_atom_site_label
_atom_site_fract_x
_atom_site_fract_y
_atom_site_fract_z
Si Si1 0.042008 0.847052 0.842435
Si Si2 0.786848 0.504328 0.165766
Si Si3 0.713519 0.184677 0.759171
Si Si4 0.404932 0.856320 0.510109
Si Si5 0.712267 0.644106 0.587144
Si Si6 0.219996 0.221321 0.630504
Si Si7 0.283649 0.048747 0.168710
O O1 0.240380 0.822059 0.648118
O O2 0.839548 0.701301 0.723702
O O3 0.099918 0.901081 0.016740
O O4 0.000000 0.000000 0.000000
O O5 0.855832 0.581367 0.356734
O O6 0.688978 0.617331 0.273316
O O7 0.652393 0.330342 0.012642
O O8 0.000000 0.500000 0.000000
O O9 0.716790 0.183584 0.613473
O O10 0.956194 0.192176 0.717799
O O11 0.524796 0.034741 0.684100
O O12 0.609784 0.785719 0.347625
O O13 0.500000 0.500000 0.500000
O O14 0.688005 0.797806 0.729018
O O15 0.239995 0.094744 0.373441
O O16 0.500000 0.000000 0.000000
#
# Coordination Sequence:
#
# PCOD9086721 Si02
#       7
#     2   2   2   2   2   2   2
#     4  10  20  35  59  85 115 155 196 238 300 361
#     4   9  19  37  58  80 121 157 193 240 304 353
#     4  10  22  36  57  90 117 154 203 247 291 355
#     4  11  21  36  61  86 118 155 202 245 294 356
#     4  10  22  37  60  86 115 154 202 247 296 355
#     4  10  20  38  59  86 122 154 197 248 295 355
#     4  10  19  36  60  84 116 154 193 239 297 355
#
# _framework density 21.761305
#
# number of rings (size 3 to 8) (size 9 to 14) (size 15 to 20)
#    0.000    2.000    1.429    3.857    4.000    0.571 
#    0.000    0.714    0.000    0.000    0.000    0.000 
#    0.000    0.000    0.000    0.000    0.000    0.000 
#
# Total GULP energy -78018.427709 kJ/mol
# GULP energy per Si atom -5572.744836 kJ/mol
# Density = 2.171178 g / cm^3
# Si number density = 21.761305 Si / 1000 Ang^3
#
#
#
# Elastic Constant Matrix: (Units=GPa)
#
#
# Indices 1 2 3 4 5 6 
#
# 1 72.8900 17.8761 29.0191 11.0015 0.8927 15.3452
# 2 17.8761 57.9738 20.8296 14.7838 9.6500 23.4157
# 3 29.0191 20.8296 125.2935 22.2720 0.3807 11.0924
# 4 11.0015 14.7838 22.2720 34.1551 12.5965 4.1482
# 5 0.8927 9.6500 0.3807 12.5965 18.3491 2.8464
# 6 15.3452 23.4157 11.0924 4.1482 2.8464 28.9297
#
#
#
# Elastic Compliance Matrix: (Units=1/GPa)
#
#
# Indices 1 2 3 4 5 6 
#
# 1 0.016974 -0.001174 -0.002455 -0.003824 0.003540 -0.006912
# 2 -0.001174 0.029542 -0.001751 -0.005656 -0.008305 -0.020990
# 3 -0.002455 -0.001751 0.010157 -0.007142 0.005845 -0.000726
# 4 -0.003824 -0.005656 -0.007142 0.048265 -0.030669 0.005442
# 5 0.003540 -0.008305 0.005845 -0.030669 0.079758 -0.000847
# 6 -0.006912 -0.020990 -0.000726 0.005442 -0.000847 0.054803
#
#
# Mechanical properties :
#
#
# Convention : Reuss Voigt Hill
#
# Bulk Modulus (GPa) = 21.78007 43.51189 32.64598
# Shear Modulus (GPa) = 18.82785 28.84894 23.83839
#
# Velocity S-wave (km/s) = 2.94462 3.64497 3.31335
# Velocity P-wave (km/s) = 4.64665 6.14433 5.44721
#
# Compressibility (1/GPa) = 0.04591353
#
# Stress axis : x y z
#
# Youngs Moduli (GPa) = 58.91494 33.84954 98.45397
#
# Poissons Ratio (x) = 0.03974 0.24171
# Poissons Ratio (y) = 0.06917 0.17235
# Poissons Ratio (z) = 0.14464 0.05926
#
# Static dielectric constant tensor:
#      x y z
#    x 1.901900 0.017350 0.006690 
#    y 0.017350 1.870950 0.006310 
#    z 0.006690 0.006310 1.784120 
# 
# From -- ./inp_files/240224.got.cif
#   From: 2010.05.17/outbox.cif.g08.bks.cpg/sg2_121_cif.got.tgz:240224.got - 2010.06.03 11:33:40.
