data_PCOD9086199
_publ_section_title
;
Structure prediction by ZEFSAII (Michael W. Deem and Ramdas Pophale) SiO2 
 PCOD9086199
Probable space group: P -1
;
_chemical_formula_sum "Si O2"
_cell_formula_units_Z 16
_cell_length_a 9.085066
_cell_length_b 12.758695
_cell_length_c 12.169874
_cell_angle_alpha 48.322155
_cell_angle_beta 127.074999
_cell_angle_gamma 108.324576
_cell_volume 831.723796
_symmetry_space_group_name_H-M "P -1"
_symmetry_group_IT_number 2
_symmetry_cell_setting 'triclinic'
loop_
_space_group_symop_operation_xyz
x,y,z
-x,-y,-z
loop_
_atom_site_type_symbol
_atom_site_label
_atom_site_fract_x
_atom_site_fract_y
_atom_site_fract_z
Si Si1 0.906002 0.413899 0.849554
Si Si2 0.090234 0.836575 0.403925
Si Si3 0.476939 0.645530 0.957812
Si Si4 0.961134 0.285059 0.304904
Si Si5 0.486171 0.502212 0.277515
Si Si6 0.098641 0.608260 0.393896
Si Si7 0.898770 0.859601 0.739324
Si Si8 0.465197 0.229002 0.315939
O O1 0.686234 0.432999 0.769451
O O2 0.950091 0.388225 0.758470
O O3 0.973340 0.565148 0.798070
O O4 0.011433 0.284172 0.058161
O O5 0.009716 0.755306 0.526301
O O6 0.052651 0.759840 0.327874
O O7 0.314946 0.812065 0.538253
O O8 0.029069 0.003576 0.272847
O O9 0.258261 0.699043 0.827753
O O10 0.568605 0.746074 0.847071
O O11 0.500000 0.500000 0.000000
O O12 0.541568 0.611572 0.133838
O O13 0.055111 0.163607 0.351502
O O14 0.677500 0.440987 0.465587
O O15 0.419060 0.374781 0.264199
O O16 0.000000 0.500000 0.500000
O O17 0.675822 0.873420 0.638226
#
# Coordination Sequence:
#
# PCOD9086199 Si02
#       8
#     2   2   2   2   2   2   2   2
#     4  12  22  36  61  88 116 151 195 241 283 335
#     4  10  23  41  57  85 121 160 189 230 292 346
#     4   9  17  30  54  85 120 141 181 242 288 336
#     4  11  20  37  59  90 118 150 188 234 296 346
#     4  10  19  36  56  86 115 144 197 241 282 334
#     4  11  24  40  61  80 110 161 205 233 273 341
#     4  12  22  35  62  92 123 144 186 245 296 347
#     4   9  19  33  58  86 118 151 185 233 294 345
#
# _framework density 19.237155999999999
#
# number of rings (size 3 to 8) (size 9 to 14) (size 15 to 20)
#    0.000    1.500    3.750    3.750    1.750    0.500 
#    0.000    0.000    0.000    0.750    0.000    0.000 
#    0.000    0.000    0.000    0.000    0.000    0.000 
#
# Total GULP energy -89271.156299 kJ/mol
# GULP energy per Si atom -5579.447269 kJ/mol
# Density = 1.919337 g / cm^3
# Si number density = 19.237156 Si / 1000 Ang^3
#
#
#
# Elastic Constant Matrix: (Units=GPa)
#
#
# Indices 1 2 3 4 5 6 
#
# 1 88.3893 20.8219 12.5035 -7.5383 -2.2178 -21.1364
# 2 20.8219 90.2790 15.2805 -11.4869 -9.0045 -18.4896
# 3 12.5035 15.2805 32.1784 0.4080 -6.7630 -7.6632
# 4 -7.5383 -11.4869 0.4080 26.7779 -3.6233 -5.9067
# 5 -2.2178 -9.0045 -6.7630 -3.6233 18.1640 6.8702
# 6 -21.1364 -18.4896 -7.6632 -5.9067 6.8702 27.5248
#
#
#
# Elastic Compliance Matrix: (Units=1/GPa)
#
#
# Indices 1 2 3 4 5 6 
#
# 1 0.015484 0.000424 -0.003733 0.007158 -0.002931 0.013403
# 2 0.000424 0.015528 -0.004271 0.009744 0.004079 0.010640
# 3 -0.003733 -0.004271 0.037137 -0.001688 0.010284 0.001675
# 4 0.007158 0.009744 -0.001688 0.049013 0.007176 0.020299
# 5 -0.002931 0.004079 0.010284 0.007176 0.066396 -0.011680
# 6 0.013403 0.010640 0.001675 0.020299 -0.011680 0.061508
#
#
# Mechanical properties :
#
#
# Convention : Reuss Voigt Hill
#
# Bulk Modulus (GPa) = 18.87164 34.22872 26.55018
# Shear Modulus (GPa) = 17.99283 25.30940 21.65111
#
# Velocity S-wave (km/s) = 3.06161 3.63113 3.35846
# Velocity P-wave (km/s) = 4.72538 5.95078 5.37313
#
# Compressibility (1/GPa) = 0.05298958
#
# Stress axis : x y z
#
# Youngs Moduli (GPa) = 64.58412 64.40121 26.92731
#
# Poissons Ratio (x) = -0.02731 0.10051
# Poissons Ratio (y) = -0.02739 0.11500
# Poissons Ratio (z) = 0.24107 0.27504
#
# Static dielectric constant tensor:
#      x y z
#    x 1.687590 -0.002490 -0.016130 
#    y -0.002490 1.627770 -0.009650 
#    z -0.016130 -0.009650 1.684370 
# 
# From -- ./inp_files/204199.got.cif
#   From: 2010.05.17/outbox.cif.g08.bks.cpg/sg2_103_cif.got.tgz:204199.got - 2010.06.03 11:33:40.
