data_PCOD9086704
_publ_section_title
;
Structure prediction by ZEFSAII (Michael W. Deem and Ramdas Pophale) SiO2 
 PCOD9086704
Probable space group: P -1
;
_chemical_formula_sum "Si O2"
_cell_formula_units_Z 16
_cell_length_a 11.225241
_cell_length_b 18.336264
_cell_length_c 9.054643
_cell_angle_alpha 98.686035
_cell_angle_beta 78.305246
_cell_angle_gamma 31.720144
_cell_volume 746.563024
_symmetry_space_group_name_H-M "P -1"
_symmetry_group_IT_number 2
_symmetry_cell_setting 'triclinic'
loop_
_space_group_symop_operation_xyz
x,y,z
-x,-y,-z
loop_
_atom_site_type_symbol
_atom_site_label
_atom_site_fract_x
_atom_site_fract_y
_atom_site_fract_z
Si Si1 0.050776 0.132992 0.291718
Si Si2 0.090134 0.483311 0.127921
Si Si3 0.759240 0.430598 0.309470
Si Si4 0.516478 0.375052 0.053900
Si Si5 0.344989 0.762295 0.706867
Si Si6 0.336456 0.198085 0.107820
Si Si7 0.751319 0.322951 0.712404
Si Si8 0.712751 0.700068 0.563479
O O1 0.819888 0.318709 0.336519
O O2 0.947339 0.109099 0.256418
O O3 0.014871 0.160218 0.484512
O O4 0.358865 0.986667 0.103146
O O5 0.312819 0.427741 0.042081
O O6 0.260639 0.322776 0.115618
O O7 0.818177 0.655559 0.355996
O O8 0.000000 0.500000 0.000000
O O9 0.608163 0.571459 0.502733
O O10 0.541364 0.541741 0.261236
O O11 0.073232 0.291825 0.149626
O O12 0.652514 0.262485 0.130474
O O13 0.305820 0.559261 0.210619
O O14 0.751837 0.279891 0.853514
O O15 0.438435 0.795259 0.671762
O O16 0.346002 0.197843 0.284029
O O17 0.000000 0.500000 0.500000
#
# Coordination Sequence:
#
# PCOD9086704 Si02
#       8
#     2   2   2   2   2   2   2   2
#     4  11  23  35  56  88 120 149 181 238 292 324
#     4  11  22  38  63  85 110 150 193 234 281 336
#     4  11  18  37  59  84 111 153 191 230 274 343
#     4  11  19  36  60  85 109 149 198 233 271 327
#     4  11  18  37  62  82 109 149 199 233 271 336
#     4  11  22  37  58  88 117 145 188 238 285 333
#     4  10  22  35  60  86 114 151 195 227 273 344
#     4  10  19  36  60  83 108 145 197 236 270 336
#
# _framework density 21.431543999999999
#
# number of rings (size 3 to 8) (size 9 to 14) (size 15 to 20)
#    0.000    1.250    7.500    1.875    1.750    0.500 
#    0.000    1.875    0.000    3.750    0.000    0.000 
#    0.000    0.000    0.000    0.000    0.000    0.000 
#
# Total GULP energy -89391.079890 kJ/mol
# GULP energy per Si atom -5586.942493 kJ/mol
# Density = 2.138276 g / cm^3
# Si number density = 21.431544 Si / 1000 Ang^3
#
#
#
# Elastic Constant Matrix: (Units=GPa)
#
#
# Indices 1 2 3 4 5 6 
#
# 1 74.3859 -8.8239 -5.1720 7.0791 3.0418 -11.9018
# 2 -8.8239 11.7904 21.8464 -2.4741 5.4605 -1.5854
# 3 -5.1720 21.8464 113.2227 0.1310 4.4742 -13.9294
# 4 7.0791 -2.4741 0.1310 27.3769 -10.1108 -5.3404
# 5 3.0418 5.4605 4.4742 -10.1108 31.8885 -6.2569
# 6 -11.9018 -1.5854 -13.9294 -5.3404 -6.2569 25.0453
#
#
#
# Elastic Compliance Matrix: (Units=1/GPa)
#
#
# Indices 1 2 3 4 5 6 
#
# 1 0.016975 0.018102 -0.001742 -0.002989 -0.004132 0.006574
# 2 0.018102 0.167806 -0.031084 -0.000370 -0.027186 -0.004934
# 3 -0.001742 -0.031084 0.015439 0.000821 0.004999 0.007215
# 4 -0.002989 -0.000370 0.000821 0.046323 0.017524 0.013268
# 5 -0.004132 -0.027186 0.004999 0.017524 0.043975 0.013818
# 6 0.006574 -0.004934 0.007215 0.013268 0.013818 0.053034
#
#
# Mechanical properties :
#
#
# Convention : Reuss Voigt Hill
#
# Bulk Modulus (GPa) = 5.85570 23.90001 14.87786
# Shear Modulus (GPa) = 11.62995 29.63204 20.63100
#
# Velocity S-wave (km/s) = 2.33202 3.72242 3.10602
# Velocity P-wave (km/s) = 3.16059 5.44529 4.45199
#
# Compressibility (1/GPa) = 0.17077363
#
# Stress axis : x y z
#
# Youngs Moduli (GPa) = 58.91050 5.95925 64.76927
#
# Poissons Ratio (x) = -0.10787 0.11282
# Poissons Ratio (y) = -1.06640 2.01327
# Poissons Ratio (z) = 0.10261 0.18524
#
# Static dielectric constant tensor:
#      x y z
#    x 1.824800 -0.013280 0.048620 
#    y -0.013280 1.792810 -0.028790 
#    z 0.048620 -0.028790 1.892130 
# 
# From -- ./inp_files/185913.got.cif
#   From: 2010.05.17/outbox.cif.g08.bks.cpg/sg2_93_cif.got.tgz:185913.got - 2010.06.03 11:33:40.
