data_PCOD9086288
_publ_section_title
;
Structure prediction by ZEFSAII (Michael W. Deem and Ramdas Pophale) SiO2 
 PCOD9086288
Probable space group: P -1
;
_chemical_formula_sum "Si O2"
_cell_formula_units_Z 16
_cell_length_a 19.983325
_cell_length_b 16.829236
_cell_length_c 13.782494
_cell_angle_alpha 38.287159
_cell_angle_beta 19.767804
_cell_angle_gamma 30.055299
_cell_volume 773.029796
_symmetry_space_group_name_H-M "P -1"
_symmetry_group_IT_number 2
_symmetry_cell_setting 'triclinic'
loop_
_space_group_symop_operation_xyz
x,y,z
-x,-y,-z
loop_
_atom_site_type_symbol
_atom_site_label
_atom_site_fract_x
_atom_site_fract_y
_atom_site_fract_z
Si Si1 0.293565 0.973471 0.337337
Si Si2 0.492854 0.095533 0.205959
Si Si3 0.259075 0.828681 0.340966
Si Si4 0.334506 0.937438 0.796387
Si Si5 0.091559 0.694848 0.549335
Si Si6 0.650877 0.783032 0.194891
Si Si7 0.488091 0.348452 0.322887
Si Si8 0.999921 0.854939 0.098149
O O1 0.289535 0.850057 0.391879
O O2 0.387895 0.897108 0.387633
O O3 0.039908 0.150753 0.491113
O O4 0.500000 0.000000 0.000000
O O5 0.625490 0.111654 0.099944
O O6 0.226627 0.140927 0.553735
O O7 0.661820 0.909491 0.120709
O O8 0.508093 0.188387 0.008571
O O9 0.227504 0.707455 0.444754
O O10 0.000000 0.000000 0.500000
O O11 0.434832 0.786009 0.734661
O O12 0.500000 0.000000 0.500000
O O13 0.069901 0.091242 0.970519
O O14 0.294973 0.529428 0.376843
O O15 0.868358 0.700496 0.897927
O O16 0.644411 0.672820 0.386357
O O17 0.740548 0.303940 0.068792
O O18 0.000000 0.000000 0.000000
#
# Coordination Sequence:
#
# PCOD9086288 Si02
#       8
#     2   2   2   2   2   2   2   2
#     4   9  18  35  59  88 109 154 195 222 290 342
#     4  11  18  35  62  85 109 146 214 229 271 338
#     4  10  19  36  57  83 115 151 189 235 279 354
#     4   9  18  34  59  85 110 156 195 235 277 339
#     4  10  22  38  57  89 123 149 181 246 302 338
#     4  11  19  36  65  89 110 152 194 242 285 346
#     4  11  21  39  58  88 124 144 190 244 298 336
#     4   9  18  33  53  82 112 153 187 236 272 340
#
# _framework density 20.697779000000001
#
# number of rings (size 3 to 8) (size 9 to 14) (size 15 to 20)
#    0.000    2.000    7.500    0.375    0.000    2.000 
#    0.000    6.875    0.000    0.000    0.000    0.000 
#    0.000    0.000    0.000    0.000    0.000    0.000 
#
# Total GULP energy -89118.174389 kJ/mol
# GULP energy per Si atom -5569.885899 kJ/mol
# Density = 2.065067 g / cm^3
# Si number density = 20.697779 Si / 1000 Ang^3
#
#
#
# Elastic Constant Matrix: (Units=GPa)
#
#
# Indices 1 2 3 4 5 6 
#
# 1 99.2383 32.2437 2.8164 12.0865 -14.7732 6.8216
# 2 32.2437 67.9159 21.4827 23.8242 -9.0550 -1.9472
# 3 2.8164 21.4827 100.9414 4.5435 -14.8710 3.4624
# 4 12.0865 23.8242 4.5435 27.9587 1.1331 -0.8862
# 5 -14.7732 -9.0550 -14.8710 1.1331 27.5134 -2.2602
# 6 6.8216 -1.9472 3.4624 -0.8862 -2.2602 18.6672
#
#
#
# Elastic Compliance Matrix: (Units=1/GPa)
#
#
# Indices 1 2 3 4 5 6 
#
# 1 0.013328 -0.005748 0.001981 -0.001592 0.005975 -0.005190
# 2 -0.005748 0.026249 -0.004065 -0.019241 0.004578 0.005233
# 3 0.001981 -0.004065 0.011640 0.000399 0.005789 -0.002587
# 4 -0.001592 -0.019241 0.000399 0.053155 -0.009168 -0.000086
# 5 0.005975 0.004578 0.005789 -0.009168 0.044748 0.002203
# 6 -0.005190 0.005233 -0.002587 -0.000086 0.002203 0.056755
#
#
# Mechanical properties :
#
#
# Convention : Reuss Voigt Hill
#
# Bulk Modulus (GPa) = 28.12628 42.35347 35.23988
# Shear Modulus (GPa) = 21.42337 28.93139 25.17738
#
# Velocity S-wave (km/s) = 3.22072 3.74277 3.49152
# Velocity P-wave (km/s) = 5.23920 6.25980 5.77210
#
# Compressibility (1/GPa) = 0.03555393
#
# Stress axis : x y z
#
# Youngs Moduli (GPa) = 75.02842 38.09698 85.90954
#
# Poissons Ratio (x) = 0.21898 -0.17022
# Poissons Ratio (y) = 0.43126 0.34922
# Poissons Ratio (z) = -0.14866 0.15487
#
# Static dielectric constant tensor:
#      x y z
#    x 1.834630 -0.031680 0.021280 
#    y -0.031680 1.764050 -0.027140 
#    z 0.021280 -0.027140 1.827450 
# 
# From -- ./inp_files/517967.got.cif
#   From: 2010.05.17/outbox.cif.g08.bks.cpg/sg2_259_cif.got.tgz:517967.got - 2010.06.03 11:33:40.
