data_PCOD9086743
_publ_section_title
;
Structure prediction by ZEFSAII (Michael W. Deem and Ramdas Pophale) SiO2 
 PCOD9086743
Probable space group: P -1
;
_chemical_formula_sum "Si O2"
_cell_formula_units_Z 16
_cell_length_a 14.554172
_cell_length_b 9.350779
_cell_length_c 12.485531
_cell_angle_alpha 127.241864
_cell_angle_beta 43.148814
_cell_angle_gamma 100.570672
_cell_volume 814.568594
_symmetry_space_group_name_H-M "P -1"
_symmetry_group_IT_number 2
_symmetry_cell_setting 'triclinic'
loop_
_space_group_symop_operation_xyz
x,y,z
-x,-y,-z
loop_
_atom_site_type_symbol
_atom_site_label
_atom_site_fract_x
_atom_site_fract_y
_atom_site_fract_z
Si Si1 0.893204 0.105776 0.267598
Si Si2 0.970687 0.711843 0.918629
Si Si3 0.602235 0.266282 0.435746
Si Si4 0.717919 0.646207 0.196967
Si Si5 0.467825 0.754244 0.751721
Si Si6 0.788330 0.202483 0.865888
Si Si7 0.226244 0.269144 0.567958
Si Si8 0.134426 0.913146 0.479641
O O1 0.996937 0.200351 0.177665
O O2 0.754154 0.171319 0.332473
O O3 0.832687 0.174202 0.468673
O O4 0.980715 0.859923 0.069565
O O5 0.100544 0.481413 0.721300
O O6 0.808018 0.718107 0.072289
O O7 0.465041 0.248966 0.604442
O O8 0.547628 0.507310 0.579036
O O9 0.612604 0.186457 0.269625
O O10 0.758908 0.686143 0.299527
O O11 0.776536 0.405887 0.021742
O O12 0.607520 0.803590 0.657577
O O13 0.344104 0.834198 0.986794
O O14 0.952552 0.012040 0.662924
O O15 0.779956 0.231120 0.758018
O O16 0.174467 0.098224 0.524164
#
# Coordination Sequence:
#
# PCOD9086743 Si02
#       8
#     2   2   2   2   2   2   2   2
#     4  11  23  35  55  91 121 142 186 245 292 322
#     4  11  21  33  59  87 112 147 187 241 281 331
#     4   9  19  34  57  86 121 142 186 240 288 328
#     4  10  19  36  60  86 110 151 193 231 278 338
#     4   9  19  35  58  85 112 154 187 231 282 341
#     4  10  22  38  61  81 117 152 193 227 285 342
#     4  11  19  37  63  86 111 147 200 233 273 343
#     4  11  23  39  58  86 116 152 190 237 278 341
#
# _framework density 19.642299999999999
#
# number of rings (size 3 to 8) (size 9 to 14) (size 15 to 20)
#    0.000    1.750    3.750    1.875    3.500    1.000 
#    0.000    3.125    0.000    0.000    0.000    0.000 
#    0.000    0.000    0.000    0.000    0.000    0.000 
#
# Total GULP energy -89342.888497 kJ/mol
# GULP energy per Si atom -5583.930531 kJ/mol
# Density = 1.959759 g / cm^3
# Si number density = 19.642300 Si / 1000 Ang^3
#
#
#
# Elastic Constant Matrix: (Units=GPa)
#
#
# Indices 1 2 3 4 5 6 
#
# 1 44.5744 12.7089 24.6438 -15.2098 -4.5445 -8.2795
# 2 12.7089 71.5424 22.4510 -31.8129 -18.6860 7.5684
# 3 24.6438 22.4510 93.8450 -37.9912 -8.4241 -0.9886
# 4 -15.2098 -31.8129 -37.9912 39.6107 8.0048 -0.4101
# 5 -4.5445 -18.6860 -8.4241 8.0048 20.8934 -3.8285
# 6 -8.2795 7.5684 -0.9886 -0.4101 -3.8285 19.0267
#
#
#
# Elastic Compliance Matrix: (Units=1/GPa)
#
#
# Indices 1 2 3 4 5 6 
#
# 1 0.030603 -0.002731 -0.005343 0.003924 0.003281 0.014870
# 2 -0.002731 0.028213 0.004449 0.022502 0.016267 -0.008421
# 3 -0.005343 0.004449 0.018964 0.019134 0.002739 -0.002146
# 4 0.003924 0.022502 0.019134 0.062312 0.004071 -0.004087
# 5 0.003281 0.016267 0.002739 0.004071 0.064152 0.008096
# 6 0.014870 -0.008421 -0.002146 -0.004087 0.008096 0.063808
#
#
# Mechanical properties :
#
#
# Convention : Reuss Voigt Hill
#
# Bulk Modulus (GPa) = 14.17865 36.61880 25.39873
# Shear Modulus (GPa) = 16.73293 25.91669 21.32481
#
# Velocity S-wave (km/s) = 2.92187 3.63634 3.29851
# Velocity P-wave (km/s) = 4.31476 6.02610 5.24076
#
# Compressibility (1/GPa) = 0.07052856
#
# Stress axis : x y z
#
# Youngs Moduli (GPa) = 32.67692 35.44508 52.73118
#
# Poissons Ratio (x) = 0.09680 0.28177
# Poissons Ratio (y) = 0.08924 -0.23459
# Poissons Ratio (z) = 0.17461 -0.15769
#
# Static dielectric constant tensor:
#      x y z
#    x 1.684590 -0.004640 -0.009510 
#    y -0.004640 1.702920 -0.017750 
#    z -0.009510 -0.017750 1.717040 
# 
# From -- ./inp_files/258927.got.cif
#   From: 2010.05.17/outbox.cif.g08.bks.cpg/sg2_130_cif.got.tgz:258927.got - 2010.06.03 11:33:40.
