data_PCOD9086398
_publ_section_title
;
Structure prediction by ZEFSAII (Michael W. Deem and Ramdas Pophale) SiO2 
 PCOD9086398
Probable space group: P -1
;
_chemical_formula_sum "Si O2"
_cell_formula_units_Z 14
_cell_length_a 5.888275
_cell_length_b 18.812854
_cell_length_c 8.059869
_cell_angle_alpha 132.079632
_cell_angle_beta 55.547280
_cell_angle_gamma 115.416428
_cell_volume 544.605204
_symmetry_space_group_name_H-M "P -1"
_symmetry_group_IT_number 2
_symmetry_cell_setting 'triclinic'
loop_
_space_group_symop_operation_xyz
x,y,z
-x,-y,-z
loop_
_atom_site_type_symbol
_atom_site_label
_atom_site_fract_x
_atom_site_fract_y
_atom_site_fract_z
Si Si1 0.815957 0.513631 0.262092
Si Si2 0.674363 0.967815 0.539442
Si Si3 0.516886 0.277308 0.552172
Si Si4 0.676916 0.489541 0.742103
Si Si5 0.085179 0.230439 0.889415
Si Si6 0.504263 0.865086 0.955737
Si Si7 0.916693 0.725189 0.664532
O O1 0.509625 0.469927 0.264687
O O2 0.792131 0.626698 0.482934
O O3 0.004279 0.481535 0.289691
O O4 0.000000 0.500000 0.000000
O O5 0.709080 0.855493 0.329202
O O6 0.500000 0.000000 0.500000
O O7 0.000000 0.000000 0.500000
O O8 0.515893 0.022470 0.834569
O O9 0.638235 0.373792 0.560209
O O10 0.230744 0.293836 0.783556
O O11 0.493338 0.183067 0.300713
O O12 0.784733 0.261617 0.526525
O O13 0.500000 0.500000 0.000000
O O14 0.089561 0.281123 0.143432
O O15 0.771938 0.186696 0.923889
O O16 0.771229 0.822743 0.853285
#
# Coordination Sequence:
#
# PCOD9086398 Si02
#       7
#     2   2   2   2   2   2   2
#     4   9  17  31  56  82 106 148 193 229 284 350
#     4  10  20  38  59  83 119 160 194 238 299 349
#     4  10  21  36  57  89 113 151 201 242 289 350
#     4   9  17  32  55  81 109 149 188 231 289 346
#     4  10  22  37  58  85 118 153 196 247 289 345
#     4  10  20  37  60  79 117 158 195 235 297 350
#     4  10  19  36  58  82 114 156 192 236 298 349
#
# _framework density 25.706695
#
# number of rings (size 3 to 8) (size 9 to 14) (size 15 to 20)
#    0.000    2.286    2.857    0.000    0.000    1.714 
#    0.000    0.714    0.000   21.429    0.000    0.000 
#    0.000    0.000    0.000    0.000    0.000    0.000 
#
# Total GULP energy -77970.048630 kJ/mol
# GULP energy per Si atom -5569.289188 kJ/mol
# Density = 2.564819 g / cm^3
# Si number density = 25.706695 Si / 1000 Ang^3
#
#
#
# Elastic Constant Matrix: (Units=GPa)
#
#
# Indices 1 2 3 4 5 6 
#
# 1 168.3751 14.5032 17.6542 -14.6460 -2.0732 18.3368
# 2 14.5032 56.9853 30.3095 -4.4926 -0.3921 7.4774
# 3 17.6542 30.3095 150.3119 28.5390 -6.9443 2.4287
# 4 -14.6460 -4.4926 28.5390 45.7984 6.4534 -14.2754
# 5 -2.0732 -0.3921 -6.9443 6.4534 48.3001 3.2803
# 6 18.3368 7.4774 2.4287 -14.2754 3.2803 25.6132
#
#
#
# Elastic Compliance Matrix: (Units=1/GPa)
#
#
# Indices 1 2 3 4 5 6 
#
# 1 0.006611 -0.000636 -0.000840 0.001382 0.000226 -0.003726
# 2 -0.000636 0.021042 -0.004974 0.004244 -0.000953 -0.002728
# 3 -0.000840 -0.004974 0.009499 -0.008223 0.002644 -0.003769
# 4 0.001382 0.004244 -0.008223 0.034649 -0.006992 0.018759
# 5 0.000226 -0.000953 0.002644 -0.006992 0.022490 -0.006912
# 6 -0.003726 -0.002728 -0.003769 0.018759 -0.006912 0.054204
#
#
# Mechanical properties :
#
#
# Convention : Reuss Voigt Hill
#
# Bulk Modulus (GPa) = 41.23529 55.62289 48.42909
# Shear Modulus (GPa) = 29.50221 44.82269 37.16245
#
# Velocity S-wave (km/s) = 3.39137 4.18020 3.80627
# Velocity P-wave (km/s) = 5.60452 6.70695 6.18037
#
# Compressibility (1/GPa) = 0.02425107
#
# Stress axis : x y z
#
# Youngs Moduli (GPa) = 151.26862 47.52411 105.27716
#
# Poissons Ratio (x) = 0.03025 0.08841
# Poissons Ratio (y) = 0.09627 0.52365
# Poissons Ratio (z) = 0.12703 0.23639
#
# Static dielectric constant tensor:
#      x y z
#    x 2.266640 -0.058560 0.012070 
#    y -0.058560 2.093390 -0.043460 
#    z 0.012070 -0.043460 2.037920 
# 
# From -- ./inp_files/8000.got.cif
#   From: 2010.05.17/outbox.cif.g08.bks.cpg/sg2_4_cif.got.tgz:8000.got - 2010.06.03 11:33:40.
