data_PCOD9086683
_publ_section_title
;
Structure prediction by ZEFSAII (Michael W. Deem and Ramdas Pophale) SiO2 
 PCOD9086683
Probable space group: P -1
;
_chemical_formula_sum "Si O2"
_cell_formula_units_Z 16
_cell_length_a 12.930641
_cell_length_b 18.402703
_cell_length_c 10.086036
_cell_angle_alpha 143.240448
_cell_angle_beta 146.164767
_cell_angle_gamma 35.703274
_cell_volume 718.232370
_symmetry_space_group_name_H-M "P -1"
_symmetry_group_IT_number 2
_symmetry_cell_setting 'triclinic'
loop_
_space_group_symop_operation_xyz
x,y,z
-x,-y,-z
loop_
_atom_site_type_symbol
_atom_site_label
_atom_site_fract_x
_atom_site_fract_y
_atom_site_fract_z
Si Si1 0.810817 0.893312 0.070861
Si Si2 0.359640 0.304846 0.854820
Si Si3 0.399708 0.710193 0.163712
Si Si4 0.354435 0.948840 0.612495
Si Si5 0.233599 0.523539 0.665332
Si Si6 0.775916 0.075131 0.045718
Si Si7 0.077717 0.583922 0.891410
Si Si8 0.840484 0.879725 0.578992
O O1 0.775145 0.978008 0.291000
O O2 0.819070 0.984437 0.090587
O O3 0.597232 0.877437 0.801467
O O4 0.994227 0.742431 0.060393
O O5 0.443892 0.271613 0.744871
O O6 0.265658 0.467529 0.002199
O O7 0.181110 0.255417 0.607523
O O8 0.557955 0.209913 0.013124
O O9 0.282066 0.844941 0.316369
O O10 0.536927 0.596553 0.248054
O O11 0.262885 0.656080 0.854276
O O12 0.324780 0.053426 0.616848
O O13 0.138901 0.561626 0.768470
O O14 0.105361 0.462731 0.358996
O O15 0.952126 0.122532 0.265051
O O16 0.778213 0.978211 0.784058
#
# Coordination Sequence:
#
# PCOD9086683 Si02
#       8
#     2   2   2   2   2   2   2   2
#     4  11  24  42  65  97 134 176 220 263 324 399
#     4  11  22  39  65  95 130 165 213 280 327 381
#     4  10  19  36  59  98 128 167 211 274 326 378
#     4  11  22  41  66  93 134 179 213 267 327 394
#     4   9  20  33  58  91 136 161 216 272 327 371
#     4  11  24  40  66  97 133 166 224 277 321 388
#     4  10  22  37  60  96 130 174 215 269 326 387
#     4  11  24  39  67  98 128 172 221 271 334 379
#
# _framework density 22.276911999999999
#
# number of rings (size 3 to 8) (size 9 to 14) (size 15 to 20)
#    0.000    1.500    3.750    1.125    7.000    0.500 
#    0.000    0.625    0.000    0.750    0.000    0.000 
#    0.000    0.000    0.000    0.000    0.000    0.000 
#
# Total GULP energy -89353.977360 kJ/mol
# GULP energy per Si atom -5584.623585 kJ/mol
# Density = 2.222621 g / cm^3
# Si number density = 22.276912 Si / 1000 Ang^3
#
#
#
# Elastic Constant Matrix: (Units=GPa)
#
#
# Indices 1 2 3 4 5 6 
#
# 1 90.6400 50.8364 47.2042 23.9170 6.0893 11.3353
# 2 50.8364 163.5683 38.4870 24.1847 7.0427 6.0305
# 3 47.2042 38.4870 40.8225 4.9563 5.9155 8.7303
# 4 23.9170 24.1847 4.9563 22.1002 -2.0711 8.8467
# 5 6.0893 7.0427 5.9155 -2.0711 32.6982 -2.8271
# 6 11.3353 6.0305 8.7303 8.8467 -2.8271 26.6790
#
#
#
# Elastic Compliance Matrix: (Units=1/GPa)
#
#
# Indices 1 2 3 4 5 6 
#
# 1 0.055970 0.006636 -0.066891 -0.059479 -0.002126 0.016106
# 2 0.006636 0.010271 -0.016355 -0.017173 -0.001076 0.005791
# 3 -0.066891 -0.016355 0.115016 0.076755 -0.002669 -0.031254
# 4 -0.059479 -0.017173 0.076755 0.126688 0.005683 -0.037371
# 5 -0.002126 -0.001076 -0.002669 0.005683 0.032361 0.003565
# 6 0.016106 0.005791 -0.031254 -0.037371 0.003565 0.052328
#
#
# Mechanical properties :
#
#
# Convention : Reuss Voigt Hill
#
# Bulk Modulus (GPa) = 35.66704 63.12066 49.39385
# Shear Modulus (GPa) = 9.00575 26.86235 17.93405
#
# Velocity S-wave (km/s) = 2.01281 3.47629 2.84042
# Velocity P-wave (km/s) = 4.63113 6.67149 5.74266
#
# Compressibility (1/GPa) = 0.02803709
#
# Stress axis : x y z
#
# Youngs Moduli (GPa) = 17.86666 97.35780 8.69445
#
# Poissons Ratio (x) = -0.64607 0.58158
# Poissons Ratio (y) = -0.11856 0.14220
# Poissons Ratio (z) = 1.19513 1.59226
#
# Static dielectric constant tensor:
#      x y z
#    x 1.825870 0.004980 0.071240 
#    y 0.004980 1.915700 -0.051120 
#    z 0.071240 -0.051120 1.850210 
# 
# From -- ./inp_files/280185.got.cif
#   From: 2010.05.17/outbox.cif.g08.bks.cpg/sg2_141_cif.got.tgz:280185.got - 2010.06.03 11:33:40.
