data_PCOD9086452
_publ_section_title
;
Structure prediction by ZEFSAII (Michael W. Deem and Ramdas Pophale) SiO2 
 PCOD9086452
Probable space group: P -1
;
_chemical_formula_sum "Si O2"
_cell_formula_units_Z 14
_cell_length_a 9.602121
_cell_length_b 7.326935
_cell_length_c 16.741716
_cell_angle_alpha 125.237849
_cell_angle_beta 132.853072
_cell_angle_gamma 44.967408
_cell_volume 599.706947
_symmetry_space_group_name_H-M "P -1"
_symmetry_group_IT_number 2
_symmetry_cell_setting 'triclinic'
loop_
_space_group_symop_operation_xyz
x,y,z
-x,-y,-z
loop_
_atom_site_type_symbol
_atom_site_label
_atom_site_fract_x
_atom_site_fract_y
_atom_site_fract_z
Si Si1 0.140830 0.614567 0.216331
Si Si2 0.824321 0.368124 0.307009
Si Si3 0.008046 0.923420 0.852593
Si Si4 0.606597 0.393949 0.429469
Si Si5 0.721342 0.957477 0.890505
Si Si6 0.254212 0.028918 0.736524
Si Si7 0.720971 0.755205 0.489710
O O1 0.065877 0.833848 0.174886
O O2 0.385557 0.525825 0.320968
O O3 0.154583 0.354844 0.123294
O O4 0.970529 0.731220 0.254161
O O5 0.707581 0.211416 0.250253
O O6 0.706555 0.658386 0.371446
O O7 0.067973 0.218244 0.407689
O O8 0.876301 0.328060 0.223932
O O9 0.797399 0.968887 0.832915
O O10 0.184355 0.911929 0.981577
O O11 0.500000 0.500000 0.500000
O O12 0.739907 0.089435 0.378798
O O13 0.756779 0.512643 0.496389
O O14 0.461691 0.068165 0.829796
O O15 0.500000 0.000000 0.500000
#
# Coordination Sequence:
#
# PCOD9086452 Si02
#       7
#     2   2   2   2   2   2   2
#     4  10  21  41  63  87 123 165 202 247 313 366
#     4   9  20  35  58  84 122 154 196 247 298 358
#     4  10  21  41  64  91 126 162 202 255 306 366
#     4  10  22  38  59  88 122 158 205 254 304 360
#     4  10  22  40  65  93 124 158 206 257 302 363
#     4   9  20  40  59  88 123 157 203 252 305 365
#     4  10  19  36  58  86 114 158 200 243 300 363
#
# _framework density 23.344735
#
# number of rings (size 3 to 8) (size 9 to 14) (size 15 to 20)
#    0.000    2.286    0.000    2.143    4.000    2.857 
#    2.571   11.429    0.000    0.000    0.000    0.000 
#    0.000    0.000    0.000    0.000    0.000    0.000 
#
# Total GULP energy -78232.209824 kJ/mol
# GULP energy per Si atom -5588.014987 kJ/mol
# Density = 2.329160 g / cm^3
# Si number density = 23.344735 Si / 1000 Ang^3
#
#
#
# Elastic Constant Matrix: (Units=GPa)
#
#
# Indices 1 2 3 4 5 6 
#
# 1 166.5124 29.4855 46.5128 -3.1486 -1.0448 -25.0667
# 2 29.4855 70.2192 14.3337 11.8560 -8.0472 -27.0734
# 3 46.5128 14.3337 86.8587 11.4653 -13.2508 -18.7386
# 4 -3.1486 11.8560 11.4653 18.8042 -9.9240 -4.0797
# 5 -1.0448 -8.0472 -13.2508 -9.9240 46.9667 5.7069
# 6 -25.0667 -27.0734 -18.7386 -4.0797 5.7069 45.8873
#
#
#
# Elastic Compliance Matrix: (Units=1/GPa)
#
#
# Indices 1 2 3 4 5 6 
#
# 1 0.008093 -0.003012 -0.004389 0.005988 -0.000485 0.001444
# 2 -0.003012 0.021379 0.002111 -0.012863 0.000178 0.010664
# 3 -0.004389 0.002111 0.016062 -0.009765 0.002214 0.004263
# 4 0.005988 -0.012863 -0.009765 0.073403 0.011068 -0.003156
# 5 -0.000485 0.000178 0.002214 0.011068 0.024434 -0.001311
# 6 0.001444 0.010664 0.004263 -0.003156 -0.001311 0.030496
#
#
# Mechanical properties :
#
#
# Convention : Reuss Voigt Hill
#
# Bulk Modulus (GPa) = 28.61095 56.02825 42.31960
# Shear Modulus (GPa) = 25.49748 37.88219 31.68984
#
# Velocity S-wave (km/s) = 3.30845 4.03268 3.68839
# Velocity P-wave (km/s) = 5.18430 6.76283 6.02548
#
# Compressibility (1/GPa) = 0.03495165
#
# Stress axis : x y z
#
# Youngs Moduli (GPa) = 123.57044 46.77500 62.26028
#
# Poissons Ratio (x) = 0.14089 0.27328
# Poissons Ratio (y) = 0.37219 -0.13141
# Poissons Ratio (z) = 0.54239 -0.09872
#
# Static dielectric constant tensor:
#      x y z
#    x 1.896120 0.027140 -0.026740 
#    y 0.027140 1.926060 0.047950 
#    z -0.026740 0.047950 1.891810 
# 
# From -- ./inp_files/196452.got.cif
#   From: 2010.05.17/outbox.cif.g08.bks.cpg/sg2_99_cif.got.tgz:196452.got - 2010.06.03 11:33:40.
