data_PCOD9086629
_publ_section_title
;
Structure prediction by ZEFSAII (Michael W. Deem and Ramdas Pophale) SiO2 
 PCOD9086629
Probable space group: P -1
;
_chemical_formula_sum "Si O2"
_cell_formula_units_Z 16
_cell_length_a 9.580478
_cell_length_b 11.974265
_cell_length_c 15.236430
_cell_angle_alpha 79.645514
_cell_angle_beta 42.228313
_cell_angle_gamma 52.889639
_cell_volume 812.284406
_symmetry_space_group_name_H-M "P -1"
_symmetry_group_IT_number 2
_symmetry_cell_setting 'triclinic'
loop_
_space_group_symop_operation_xyz
x,y,z
-x,-y,-z
loop_
_atom_site_type_symbol
_atom_site_label
_atom_site_fract_x
_atom_site_fract_y
_atom_site_fract_z
Si Si1 0.744010 0.481309 0.704376
Si Si2 0.247272 0.185402 0.018543
Si Si3 0.153812 0.607149 0.653909
Si Si4 0.187861 0.271752 0.381114
Si Si5 0.705330 0.091469 0.941622
Si Si6 0.806814 0.532789 0.847564
Si Si7 0.861311 0.967657 0.141291
Si Si8 0.121522 0.637713 0.994203
O O1 0.775335 0.605259 0.661274
O O2 0.783916 0.447606 0.794861
O O3 0.980350 0.332184 0.552838
O O4 0.418699 0.566745 0.819916
O O5 0.021473 0.278483 0.194389
O O6 0.290696 0.035247 0.998904
O O7 0.557753 0.119088 0.913049
O O8 0.107183 0.301405 0.984467
O O9 0.500000 0.500000 0.500000
O O10 0.976555 0.707974 0.633013
O O11 0.101194 0.492088 0.702184
O O12 0.512784 0.099838 0.272309
O O13 0.019759 0.026283 0.823006
O O14 0.467667 0.273373 0.065122
O O15 0.804987 0.487241 0.952679
O O16 0.994682 0.792596 0.086702
O O17 0.000000 0.000000 0.000000
#
# Coordination Sequence:
#
# PCOD9086629 Si02
#       8
#     2   2   2   2   2   2   2   2
#     4  10  19  36  59  87 119 157 197 247 301 354
#     4  10  21  34  59  90 115 156 202 249 292 358
#     4  10  21  39  61  85 123 161 200 249 300 358
#     4  10  21  35  60  91 117 152 211 252 286 351
#     4  10  20  35  55  87 121 148 203 251 290 342
#     4  10  22  38  59  92 121 156 201 254 297 365
#     4  12  19  35  60  91 118 156 204 257 292 345
#     4  12  22  35  65  89 125 159 198 246 313 358
#
# _framework density 19.697531999999999
#
# number of rings (size 3 to 8) (size 9 to 14) (size 15 to 20)
#    0.000    1.500    3.750    2.625    1.750    4.000 
#    0.000    0.625    2.750    0.750    0.000    0.000 
#    0.000    0.000    0.000    0.000    0.000    0.000 
#
# Total GULP energy -89231.967068 kJ/mol
# GULP energy per Si atom -5576.997942 kJ/mol
# Density = 1.965270 g / cm^3
# Si number density = 19.697532 Si / 1000 Ang^3
#
#
#
# Elastic Constant Matrix: (Units=GPa)
#
#
# Indices 1 2 3 4 5 6 
#
# 1 128.3330 20.5315 37.8156 8.2326 -10.6322 -19.9802
# 2 20.5315 51.2410 26.5996 15.2933 3.1700 -11.0240
# 3 37.8156 26.5996 64.7993 21.1272 -8.2391 -14.5758
# 4 8.2326 15.2933 21.1272 20.2067 -6.5673 -0.1820
# 5 -10.6322 3.1700 -8.2391 -6.5673 39.1878 4.6372
# 6 -19.9802 -11.0240 -14.5758 -0.1820 4.6372 25.5800
#
#
#
# Elastic Compliance Matrix: (Units=1/GPa)
#
#
# Indices 1 2 3 4 5 6 
#
# 1 0.010135 -0.001556 -0.005135 0.003049 0.001833 0.004009
# 2 -0.001556 0.031759 -0.002997 -0.023063 -0.008932 0.012219
# 3 -0.005135 -0.002997 0.031976 -0.029232 -0.000849 0.012864
# 4 0.003049 -0.023063 -0.029232 0.101449 0.016686 -0.026517
# 5 0.001833 -0.008932 -0.000849 0.016686 0.030336 -0.008282
# 6 0.004009 0.012219 0.012864 -0.026517 -0.008282 0.056133
#
#
# Mechanical properties :
#
#
# Convention : Reuss Voigt Hill
#
# Bulk Modulus (GPa) = 18.35068 46.02963 32.19015
# Shear Modulus (GPa) = 16.70408 27.62333 22.16370
#
# Velocity S-wave (km/s) = 2.91525 3.74889 3.35804
# Velocity P-wave (km/s) = 4.54621 6.49291 5.60473
#
# Compressibility (1/GPa) = 0.05449389
#
# Stress axis : x y z
#
# Youngs Moduli (GPa) = 98.67095 31.48671 31.27390
#
# Poissons Ratio (x) = 0.04900 0.16059
# Poissons Ratio (y) = 0.15355 0.09371
# Poissons Ratio (z) = 0.50669 0.09435
#
# Static dielectric constant tensor:
#      x y z
#    x 1.784860 -0.006030 0.018640 
#    y -0.006030 1.705770 -0.009200 
#    z 0.018640 -0.009200 1.687700 
# 
# From -- ./inp_files/305732.got.cif
#   From: 2010.05.17/outbox.cif.g08.bks.cpg/sg2_153_cif.got.tgz:305732.got - 2010.06.03 11:33:40.
