data_PCOD9086378
_publ_section_title
;
Structure prediction by ZEFSAII (Michael W. Deem and Ramdas Pophale) SiO2 
 PCOD9086378
Probable space group: P -1
;
_chemical_formula_sum "Si O2"
_cell_formula_units_Z 16
_cell_length_a 9.142916
_cell_length_b 20.241348
_cell_length_c 16.840352
_cell_angle_alpha 160.857831
_cell_angle_beta 137.613615
_cell_angle_gamma 43.008048
_cell_volume 680.983002
_symmetry_space_group_name_H-M "P -1"
_symmetry_group_IT_number 2
_symmetry_cell_setting 'triclinic'
loop_
_space_group_symop_operation_xyz
x,y,z
-x,-y,-z
loop_
_atom_site_type_symbol
_atom_site_label
_atom_site_fract_x
_atom_site_fract_y
_atom_site_fract_z
Si Si1 0.743616 0.241821 0.784017
Si Si2 0.623560 0.283656 0.369255
Si Si3 0.719867 0.508925 0.338076
Si Si4 0.436203 0.362767 0.931237
Si Si5 0.805242 0.666513 0.951277
Si Si6 0.382394 0.899325 0.681428
Si Si7 0.931356 0.798645 0.321353
Si Si8 0.819139 0.440577 0.480699
O O1 0.606514 0.412260 0.868053
O O2 0.969676 0.316140 0.985504
O O3 0.816035 0.031712 0.529231
O O4 0.595809 0.219614 0.775139
O O5 0.647064 0.102871 0.237201
O O6 0.762225 0.271376 0.329134
O O7 0.365384 0.369370 0.350911
O O8 0.709715 0.467279 0.661941
O O9 0.553727 0.383104 0.084716
O O10 0.598291 0.739993 0.566913
O O11 0.776926 0.410493 0.335627
O O12 0.931173 0.517186 0.376280
O O13 0.205202 0.287486 0.762026
O O14 0.888518 0.676811 0.087009
O O15 0.637419 0.871639 0.098443
O O16 0.177533 0.808374 0.456994
#
# Coordination Sequence:
#
# PCOD9086378 Si02
#       8
#     2   2   2   2   2   2   2   2
#     4  10  22  36  53  85 120 142 176 222 265 323
#     4  10  20  38  60  81 106 143 186 226 275 324
#     4  10  19  36  58  80 109 145 183 227 278 318
#     4  11  21  35  58  82 110 151 182 215 271 328
#     4  11  21  36  58  83 112 146 180 219 270 329
#     4  10  21  36  56  82 113 146 178 220 271 325
#     4  11  21  35  55  84 116 145 180 218 261 328
#     4   9  20  37  58  81 107 139 185 240 274 310
#
# _framework density 23.495446000000001
#
# number of rings (size 3 to 8) (size 9 to 14) (size 15 to 20)
#    0.000    1.750    0.000    6.375    0.000    2.500 
#    0.000    8.750    0.000    3.000    0.000    0.000 
#    0.000    0.000    0.000    0.000    0.000    0.000 
#
# Total GULP energy -89491.589994 kJ/mol
# GULP energy per Si atom -5593.224375 kJ/mol
# Density = 2.344197 g / cm^3
# Si number density = 23.495446 Si / 1000 Ang^3
#
#
#
# Elastic Constant Matrix: (Units=GPa)
#
#
# Indices 1 2 3 4 5 6 
#
# 1 142.1698 23.1016 11.9680 0.7139 -1.8381 -13.6149
# 2 23.1016 71.7932 15.4831 -2.1214 -8.1474 -0.7392
# 3 11.9680 15.4831 56.0821 -9.8373 -6.6726 -14.3698
# 4 0.7139 -2.1214 -9.8373 22.2489 3.8172 4.6932
# 5 -1.8381 -8.1474 -6.6726 3.8172 25.5906 -5.9139
# 6 -13.6149 -0.7392 -14.3698 4.6932 -5.9139 39.8547
#
#
#
# Elastic Compliance Matrix: (Units=1/GPa)
#
#
# Indices 1 2 3 4 5 6 
#
# 1 0.007721 -0.002333 -0.000502 -0.001334 0.000491 0.002643
# 2 -0.002333 0.015902 -0.003874 -0.000475 0.003656 -0.001300
# 3 -0.000502 -0.003874 0.022973 0.007170 0.005503 0.008012
# 4 -0.001334 -0.000475 0.007170 0.050338 -0.007006 -0.004847
# 5 0.000491 0.003656 0.005503 -0.007006 0.045003 0.009722
# 6 0.002643 -0.001300 0.008012 -0.004847 0.009722 0.030872
#
#
# Mechanical properties :
#
#
# Convention : Reuss Voigt Hill
#
# Bulk Modulus (GPa) = 30.13955 41.23894 35.68925
# Shear Modulus (GPa) = 25.34382 32.17169 28.75775
#
# Velocity S-wave (km/s) = 3.28787 3.70438 3.50233
# Velocity P-wave (km/s) = 5.22199 5.99054 5.61942
#
# Compressibility (1/GPa) = 0.03317899
#
# Stress axis : x y z
#
# Youngs Moduli (GPa) = 129.51101 62.88337 43.52962
#
# Poissons Ratio (x) = 0.14669 0.02185
# Poissons Ratio (y) = 0.30212 0.16864
# Poissons Ratio (z) = 0.06501 0.24361
#
# Static dielectric constant tensor:
#      x y z
#    x 1.944820 0.052250 0.014360 
#    y 0.052250 1.907700 -0.005580 
#    z 0.014360 -0.005580 1.885120 
# 
# From -- ./inp_files/544296.got.cif
#   From: 2010.05.17/outbox.cif.g08.bks.cpg/sg2_273_cif.got.tgz:544296.got - 2010.06.03 11:33:40.
