data_PCOD9086251
_publ_section_title
;
Structure prediction by ZEFSAII (Michael W. Deem and Ramdas Pophale) SiO2 
 PCOD9086251
Probable space group: P -1
;
_chemical_formula_sum "Si O2"
_cell_formula_units_Z 16
_cell_length_a 11.091831
_cell_length_b 12.678557
_cell_length_c 6.894601
_cell_angle_alpha 75.516553
_cell_angle_beta 125.298847
_cell_angle_gamma 104.947584
_cell_volume 758.238491
_symmetry_space_group_name_H-M "P -1"
_symmetry_group_IT_number 2
_symmetry_cell_setting 'triclinic'
loop_
_space_group_symop_operation_xyz
x,y,z
-x,-y,-z
loop_
_atom_site_type_symbol
_atom_site_label
_atom_site_fract_x
_atom_site_fract_y
_atom_site_fract_z
Si Si1 0.296847 0.231594 0.325548
Si Si2 0.385849 0.328817 0.983545
Si Si3 0.045752 0.030042 0.245771
Si Si4 0.309453 0.555832 0.660211
Si Si5 0.511149 0.833385 0.156851
Si Si6 0.241402 0.952534 0.767355
Si Si7 0.084503 0.560204 0.736103
Si Si8 0.831796 0.566058 0.754513
O O1 0.293450 0.245549 0.084724
O O2 0.154438 0.146127 0.296584
O O3 0.445124 0.192214 0.569609
O O4 0.280168 0.348405 0.351481
O O5 0.522139 0.387718 0.213568
O O6 0.306737 0.429147 0.786870
O O7 0.449262 0.264280 0.897616
O O8 0.892301 0.036161 0.214002
O O9 0.149639 0.948177 0.481093
O O10 0.000000 0.000000 0.000000
O O11 0.228841 0.615597 0.728616
O O12 0.235257 0.539854 0.387742
O O13 0.634038 0.938481 0.167152
O O14 0.344148 0.859512 0.955524
O O15 0.000000 0.500000 0.500000
O O16 0.972413 0.621834 0.729598
O O17 0.124323 0.474928 0.975496
#
# Coordination Sequence:
#
# PCOD9086251 Si02
#       8
#     2   2   2   2   2   2   2   2
#     4  11  22  36  61  88 114 155 201 239 292 351
#     4  11  22  35  56  86 114 155 193 236 288 342
#     4  10  21  40  63  89 118 149 189 242 295 353
#     4  10  21  36  55  80 118 153 195 238 286 339
#     4  10  21  40  62  87 122 152 192 241 292 354
#     4   9  21  41  64  89 117 154 188 236 302 354
#     4   9  19  36  56  77 110 152 194 242 290 332
#     4  10  19  36  57  81 111 151 197 241 285 341
#
# _framework density 21.101542999999999
#
# number of rings (size 3 to 8) (size 9 to 14) (size 15 to 20)
#    0.000    2.000    2.500    0.750    0.000    3.500 
#    0.000   10.000    0.000    0.000    0.000    0.000 
#    0.000    0.000    0.000    0.000    0.000    0.000 
#
# Total GULP energy -89151.322294 kJ/mol
# GULP energy per Si atom -5571.957643 kJ/mol
# Density = 2.105351 g / cm^3
# Si number density = 21.101543 Si / 1000 Ang^3
#
#
#
# Elastic Constant Matrix: (Units=GPa)
#
#
# Indices 1 2 3 4 5 6 
#
# 1 82.1569 -4.9883 42.4636 -1.1012 18.4943 -1.9183
# 2 -4.9883 16.7976 18.3690 1.9855 8.1439 -5.9785
# 3 42.4636 18.3690 138.6426 8.8772 5.1166 -3.5591
# 4 -1.1012 1.9855 8.8772 20.5924 -2.8336 -4.6964
# 5 18.4943 8.1439 5.1166 -2.8336 33.9546 0.8185
# 6 -1.9183 -5.9785 -3.5591 -4.6964 0.8185 20.6255
#
#
#
# Elastic Compliance Matrix: (Units=1/GPa)
#
#
# Indices 1 2 3 4 5 6 
#
# 1 0.024479 0.032336 -0.010954 0.002780 -0.019475 0.011165
# 2 0.032336 0.132684 -0.024902 0.002296 -0.046446 0.039537
# 3 -0.010954 -0.024902 0.013602 -0.004372 0.009700 -0.007270
# 4 0.002780 0.002296 -0.004372 0.053549 0.002767 0.012253
# 5 -0.019475 -0.046446 0.009700 0.002767 0.050329 -0.014968
# 6 0.011165 0.039537 -0.007270 0.012253 -0.014968 0.063112
#
#
# Mechanical properties :
#
#
# Convention : Reuss Voigt Hill
#
# Bulk Modulus (GPa) = 6.10775 38.80951 22.45863
# Shear Modulus (GPa) = 12.51971 27.15136 19.83553
#
# Velocity S-wave (km/s) = 2.43843 3.59095 3.06927
# Velocity P-wave (km/s) = 3.29070 5.96867 4.81942
#
# Compressibility (1/GPa) = 0.16372633
#
# Stress axis : x y z
#
# Youngs Moduli (GPa) = 40.85119 7.53668 73.51595
#
# Poissons Ratio (x) = -0.24371 0.80532
# Poissons Ratio (y) = -1.32097 1.83066
# Poissons Ratio (z) = 0.44750 0.18767
#
# Static dielectric constant tensor:
#      x y z
#    x 1.829240 0.040800 0.027730 
#    y 0.040800 1.759350 -0.011270 
#    z 0.027730 -0.011270 1.783280 
# 
# From -- ./inp_files/75865.got.cif
#   From: 2010.05.17/outbox.cif.g08.bks.cpg/sg2_38_cif.got.tgz:75865.got - 2010.06.03 11:33:40.
