data_PCOD9086852
_publ_section_title
;
Structure prediction by ZEFSAII (Michael W. Deem and Ramdas Pophale) SiO2 
 PCOD9086852
Probable space group: P -1
;
_chemical_formula_sum "Si O2"
_cell_formula_units_Z 14
_cell_length_a 11.532412
_cell_length_b 19.458779
_cell_length_c 15.804621
_cell_angle_alpha 21.711071
_cell_angle_beta 154.369231
_cell_angle_gamma 147.465080
_cell_volume 567.207477
_symmetry_space_group_name_H-M "P -1"
_symmetry_group_IT_number 2
_symmetry_cell_setting 'triclinic'
loop_
_space_group_symop_operation_xyz
x,y,z
-x,-y,-z
loop_
_atom_site_type_symbol
_atom_site_label
_atom_site_fract_x
_atom_site_fract_y
_atom_site_fract_z
Si Si1 0.374156 0.449048 0.695429
Si Si2 0.160210 0.693333 0.561501
Si Si3 0.335660 0.393442 0.441874
Si Si4 0.405455 0.405555 0.166707
Si Si5 0.136320 0.867145 0.518109
Si Si6 0.302214 0.853909 0.134545
Si Si7 0.270635 0.035462 0.584558
O O1 0.624611 0.478775 0.761598
O O2 0.468207 0.436705 0.867825
O O3 0.241762 0.655192 0.368037
O O4 0.144204 0.310516 0.667140
O O5 0.361189 0.699506 0.608358
O O6 0.230700 0.837984 0.517198
O O7 0.219811 0.497441 0.870497
O O8 0.500000 0.500000 0.500000
O O9 0.049656 0.316651 0.372152
O O10 0.496700 0.210703 0.732148
O O11 0.258912 0.251925 0.303131
O O12 0.298855 0.915427 0.655089
O O13 0.946853 0.043405 0.182581
O O14 0.474425 0.979425 0.169748
O O15 0.000000 0.000000 0.500000
#
# Coordination Sequence:
#
# PCOD9086852 Si02
#       7
#     2   2   2   2   2   2   2
#     4   9  19  39  61  82 116 157 194 249 293 340
#     4  11  23  38  62  86 119 162 194 248 294 348
#     4  10  19  36  60  91 115 150 203 240 293 353
#     4  10  23  42  59  86 118 156 209 239 290 360
#     4  12  21  37  58  89 119 156 195 238 307 346
#     4   9  21  36  59  87 117 154 191 246 289 352
#     4  11  22  39  63  86 118 159 195 243 302 348
#
# _framework density 24.682324999999999
#
# number of rings (size 3 to 8) (size 9 to 14) (size 15 to 20)
#    0.857    0.857    2.857    1.714    0.000    1.714 
#    0.000    4.286    0.000    0.000    0.000    0.000 
#    0.000    0.000    0.000    0.000    0.000    0.000 
#
# Total GULP energy -78259.338887 kJ/mol
# GULP energy per Si atom -5589.952778 kJ/mol
# Density = 2.462615 g / cm^3
# Si number density = 24.682325 Si / 1000 Ang^3
#
#
#
# Elastic Constant Matrix: (Units=GPa)
#
#
# Indices 1 2 3 4 5 6 
#
# 1 95.2627 34.2091 4.4993 8.0537 0.5299 -33.1231
# 2 34.2091 143.7389 9.8452 25.7402 -4.9822 -47.7581
# 3 4.4993 9.8452 47.5276 15.2880 -11.2380 6.7888
# 4 8.0537 25.7402 15.2880 31.1498 -8.9727 -12.6647
# 5 0.5299 -4.9822 -11.2380 -8.9727 29.1176 -5.2123
# 6 -33.1231 -47.7581 6.7888 -12.6647 -5.2123 51.1911
#
#
#
# Elastic Compliance Matrix: (Units=1/GPa)
#
#
# Indices 1 2 3 4 5 6 
#
# 1 0.013994 -0.000183 -0.003295 0.002531 0.001021 0.010051
# 2 -0.000183 0.011112 -0.002116 -0.003608 0.001733 0.009813
# 3 -0.003295 -0.002116 0.029289 -0.015120 0.004322 -0.011291
# 4 0.002531 -0.003608 -0.015120 0.050950 0.011721 0.014076
# 5 0.001021 0.001733 0.004322 0.011721 0.041482 0.008828
# 6 0.010051 0.009813 -0.011291 0.014076 0.008828 0.041072
#
#
# Mechanical properties :
#
#
# Convention : Reuss Voigt Hill
#
# Bulk Modulus (GPa) = 23.14478 42.62625 32.88552
# Shear Modulus (GPa) = 23.42053 38.15672 30.78862
#
# Velocity S-wave (km/s) = 3.08373 3.93608 3.53568
# Velocity P-wave (km/s) = 4.69857 6.16152 5.47909
#
# Compressibility (1/GPa) = 0.04320628
#
# Stress axis : x y z
#
# Youngs Moduli (GPa) = 71.46038 89.99222 34.14260
#
# Poissons Ratio (x) = 0.01648 0.11251
# Poissons Ratio (y) = 0.01309 0.07224
# Poissons Ratio (z) = 0.23547 0.19042
#
# Static dielectric constant tensor:
#      x y z
#    x 1.959730 -0.017090 -0.009410 
#    y -0.017090 1.972630 -0.040020 
#    z -0.009410 -0.040020 1.987570 
# 
# From -- ./inp_files/522763.got.cif
#   From: 2010.05.17/outbox.cif.g08.bks.cpg/sg2_262_cif.got.tgz:522763.got - 2010.06.03 11:33:40.
