data_PCOD9086995
_publ_section_title
;
Structure prediction by ZEFSAII (Michael W. Deem and Ramdas Pophale) SiO2 
 PCOD9086995
Probable space group: P -1
;
_chemical_formula_sum "Si O2"
_cell_formula_units_Z 12
_cell_length_a 16.243150
_cell_length_b 5.209252
_cell_length_c 12.326903
_cell_angle_alpha 130.736754
_cell_angle_beta 37.064653
_cell_angle_gamma 130.791582
_cell_volume 455.828570
_symmetry_space_group_name_H-M "P -1"
_symmetry_group_IT_number 2
_symmetry_cell_setting 'triclinic'
loop_
_space_group_symop_operation_xyz
x,y,z
-x,-y,-z
loop_
_atom_site_type_symbol
_atom_site_label
_atom_site_fract_x
_atom_site_fract_y
_atom_site_fract_z
Si Si1 0.409811 0.375421 0.726646
Si Si2 0.285256 0.547666 0.589812
Si Si3 0.421689 0.606099 0.010874
Si Si4 0.106362 0.248304 0.256130
Si Si5 0.846507 0.432417 0.047192
Si Si6 0.043314 0.416126 0.654814
O O1 0.570876 0.558269 0.567615
O O2 0.429128 0.369254 0.833500
O O3 0.297237 0.583796 0.872277
O O4 0.343514 0.975432 0.644951
O O5 0.178466 0.421689 0.769209
O O6 0.199367 0.429516 0.536393
O O7 0.500000 0.500000 0.000000
O O8 0.255065 0.544737 0.195363
O O9 0.500000 0.000000 0.000000
O O10 0.985692 0.394840 0.370533
O O11 0.058352 0.986071 0.335813
O O12 0.138391 0.960158 0.059834
O O13 0.977593 0.600685 0.874542
#
# Coordination Sequence:
#
# PCOD9086995 Si02
#       6
#     2   2   2   2   2   2
#     4  11  23  40  58  99 130 159 212 257 316 369
#     4  11  23  36  62  94 140 165 186 259 326 388
#     4  12  23  42  69  88 118 165 220 266 297 352
#     4  10  21  40  61  93 123 154 223 252 291 368
#     4  10  19  36  61  87 134 160 203 247 299 378
#     4  10  21  37  63  91 131 166 201 242 316 383
#
# _framework density 26.325685
#
# number of rings (size 3 to 8) (size 9 to 14) (size 15 to 20)
#    1.000    0.333    3.333    3.000    2.333    1.333 
#    0.000    0.000    0.000    6.000    0.000    0.000 
#    0.000    0.000    0.000    0.000    0.000    0.000 
#
# Total GULP energy -67150.520330 kJ/mol
# GULP energy per Si atom -5595.876694 kJ/mol
# Density = 2.626577 g / cm^3
# Si number density = 26.325685 Si / 1000 Ang^3
#
#
#
# Elastic Constant Matrix: (Units=GPa)
#
#
# Indices 1 2 3 4 5 6 
#
# 1 171.0151 37.2659 15.1280 -8.9252 -27.0511 -15.3802
# 2 37.2659 113.8147 4.1006 -15.5237 -10.6275 1.4054
# 3 15.1280 4.1006 78.9679 -12.9231 -18.9492 0.1349
# 4 -8.9252 -15.5237 -12.9231 40.0702 -4.3854 -5.8238
# 5 -27.0511 -10.6275 -18.9492 -4.3854 49.0087 -10.0135
# 6 -15.3802 1.4054 0.1349 -5.8238 -10.0135 37.9369
#
#
#
# Elastic Compliance Matrix: (Units=1/GPa)
#
#
# Indices 1 2 3 4 5 6 
#
# 1 0.007570 -0.001752 0.000237 0.002343 0.005088 0.004836
# 2 -0.001752 0.010057 0.000940 0.004029 0.001947 0.000046
# 3 0.000237 0.000940 0.015460 0.006665 0.007525 0.003016
# 4 0.002343 0.004029 0.006665 0.031359 0.009188 0.008016
# 5 0.005088 0.001947 0.007525 0.009188 0.029656 0.011202
# 6 0.004836 0.000046 0.003016 0.008016 0.011202 0.032495
#
#
# Mechanical properties :
#
#
# Convention : Reuss Voigt Hill
#
# Bulk Modulus (GPa) = 31.31202 52.97630 42.14416
# Shear Modulus (GPa) = 36.12873 45.89004 41.00939
#
# Velocity S-wave (km/s) = 3.70858 4.17965 3.95114
# Velocity P-wave (km/s) = 5.50073 6.59240 6.07115
#
# Compressibility (1/GPa) = 0.03193662
#
# Stress axis : x y z
#
# Youngs Moduli (GPa) = 132.09420 99.43507 64.68127
#
# Poissons Ratio (x) = 0.17424 -0.01532
# Poissons Ratio (y) = 0.23146 -0.06079
# Poissons Ratio (z) = -0.03129 -0.09346
#
# Static dielectric constant tensor:
#      x y z
#    x 2.041440 0.047380 0.114690 
#    y 0.047380 2.051250 0.020410 
#    z 0.114690 0.020410 2.223560 
# 
# From -- ./inp_files/526048.got.cif
#   From: 2010.05.17/outbox.cif.g08.bks.cpg/sg2_264_cif.got.tgz:526048.got - 2010.06.03 11:33:40.
