data_PCOD9086162
_publ_section_title
;
Structure prediction by ZEFSAII (Michael W. Deem and Ramdas Pophale) SiO2 
 PCOD9086162
Probable space group: P -1
;
_chemical_formula_sum "Si O2"
_cell_formula_units_Z 14
_cell_length_a 16.030568
_cell_length_b 14.619535
_cell_length_c 7.844352
_cell_angle_alpha 75.238943
_cell_angle_beta 88.914378
_cell_angle_gamma 26.193583
_cell_volume 683.492965
_symmetry_space_group_name_H-M "P -1"
_symmetry_group_IT_number 2
_symmetry_cell_setting 'triclinic'
loop_
_space_group_symop_operation_xyz
x,y,z
-x,-y,-z
loop_
_atom_site_type_symbol
_atom_site_label
_atom_site_fract_x
_atom_site_fract_y
_atom_site_fract_z
Si Si1 0.290124 0.789173 0.034842
Si Si2 0.906247 0.106115 0.700282
Si Si3 0.862786 0.555519 0.547530
Si Si4 0.750887 0.376023 0.252193
Si Si5 0.604604 0.744712 0.151337
Si Si6 0.175881 0.394639 0.093619
Si Si7 0.857721 0.852282 0.037782
O O1 0.244796 0.757648 0.196105
O O2 0.538531 0.550471 0.088444
O O3 0.215970 0.964513 0.040308
O O4 0.112879 0.953290 0.819677
O O5 0.774185 0.297818 0.469032
O O6 0.028287 0.884522 0.729557
O O7 0.706588 0.680569 0.348884
O O8 0.000000 0.500000 0.500000
O O9 0.033203 0.295227 0.719114
O O10 0.755639 0.693197 0.670459
O O11 0.703643 0.536130 0.208053
O O12 0.650636 0.766846 0.981086
O O13 0.350003 0.994844 0.060656
O O14 0.000000 0.500000 0.000000
O O15 0.039520 0.635206 0.998066
#
# Coordination Sequence:
#
# PCOD9086162 Si02
#       7
#     2   2   2   2   2   2   2
#     4  10  19  36  56  79 114 145 181 231 269 327
#     4  10  20  34  56  84 108 148 184 222 278 324
#     4  10  21  38  59  84 111 146 189 233 281 337
#     4  10  21  34  56  81 112 145 185 225 275 329
#     4  11  20  41  59  80 120 150 182 241 278 329
#     4  10  21  38  59  84 111 146 189 233 281 337
#     4   9  22  37  57  86 114 148 192 229 282 337
#
# _framework density 20.483018999999999
#
# number of rings (size 3 to 8) (size 9 to 14) (size 15 to 20)
#    0.857    1.143    1.429    2.571    0.000    2.286 
#    2.571    1.429   12.571    0.000    0.000    0.000 
#    0.000    0.000    0.000    0.000    0.000    0.000 
#
# Total GULP energy -78030.204381 kJ/mol
# GULP energy per Si atom -5573.586027 kJ/mol
# Density = 2.043640 g / cm^3
# Si number density = 20.483019 Si / 1000 Ang^3
#
#
#
# Elastic Constant Matrix: (Units=GPa)
#
#
# Indices 1 2 3 4 5 6 
#
# 1 58.8305 5.9259 28.5649 6.9700 3.7381 -2.8337
# 2 5.9259 46.0136 15.3369 2.8023 -3.2804 -5.5404
# 3 28.5649 15.3369 104.1650 13.2772 20.5138 -21.6115
# 4 6.9700 2.8023 13.2772 22.2376 10.1503 -4.1580
# 5 3.7381 -3.2804 20.5138 10.1503 26.4493 5.7071
# 6 -2.8337 -5.5404 -21.6115 -4.1580 5.7071 23.4266
#
#
#
# Elastic Compliance Matrix: (Units=1/GPa)
#
#
# Indices 1 2 3 4 5 6 
#
# 1 0.020791 -0.000038 -0.007935 -0.006629 0.007438 -0.007803
# 2 -0.000038 0.024165 -0.005261 -0.004557 0.009310 -0.002220
# 3 -0.007935 -0.005261 0.021584 0.005678 -0.023737 0.024498
# 4 -0.006629 -0.004557 0.005678 0.063752 -0.033421 0.022816
# 5 0.007438 0.009310 -0.023737 -0.033421 0.078616 -0.043880
# 6 -0.007803 -0.002220 0.024498 0.022816 -0.043880 0.078558
#
#
# Mechanical properties :
#
#
# Convention : Reuss Voigt Hill
#
# Bulk Modulus (GPa) = 24.95434 34.29604 29.62519
# Shear Modulus (GPa) = 15.27691 25.03480 20.15586
#
# Velocity S-wave (km/s) = 2.73396 3.49982 3.14032
# Velocity P-wave (km/s) = 4.70908 5.75427 5.25771
#
# Compressibility (1/GPa) = 0.04007318
#
# Stress axis : x y z
#
# Youngs Moduli (GPa) = 48.09687 41.38196 46.33002
#
# Poissons Ratio (x) = 0.00159 0.36762
# Poissons Ratio (y) = 0.00185 0.24373
# Poissons Ratio (z) = 0.38163 0.21770
#
# Static dielectric constant tensor:
#      x y z
#    x 1.707870 0.023970 -0.002320 
#    y 0.023970 1.754830 0.005180 
#    z -0.002320 0.005180 1.698280 
# 
# From -- ./inp_files/215630.got.cif
#   From: 2010.05.17/outbox.cif.g08.bks.cpg/sg2_108_cif.got.tgz:215630.got - 2010.06.03 11:33:40.
