data_PCOD9086016
_publ_section_title
;
Structure prediction by ZEFSAII (Michael W. Deem and Ramdas Pophale) SiO2 
 PCOD9086016
Probable space group: P -1
;
_chemical_formula_sum "Si O2"
_cell_formula_units_Z 16
_cell_length_a 20.746316
_cell_length_b 18.305374
_cell_length_c 9.108840
_cell_angle_alpha 55.505200
_cell_angle_beta 68.139330
_cell_angle_gamma 20.077594
_cell_volume 808.245132
_symmetry_space_group_name_H-M "P -1"
_symmetry_group_IT_number 2
_symmetry_cell_setting 'triclinic'
loop_
_space_group_symop_operation_xyz
x,y,z
-x,-y,-z
loop_
_atom_site_type_symbol
_atom_site_label
_atom_site_fract_x
_atom_site_fract_y
_atom_site_fract_z
Si Si1 0.658780 0.249725 0.761404
Si Si2 0.082983 0.892233 0.254755
Si Si3 0.408201 0.383831 0.372123
Si Si4 0.155175 0.396239 0.955156
Si Si5 0.613010 0.521064 0.029272
Si Si6 0.212582 0.592413 0.711828
Si Si7 0.349816 0.286770 0.705618
Si Si8 0.163819 0.076133 0.269580
O O1 0.500000 0.500000 0.500000
O O2 0.853717 0.081943 0.828215
O O3 0.547821 0.347689 0.891130
O O4 0.745706 0.061253 0.808394
O O5 0.201623 0.699122 0.238232
O O6 0.201021 0.697743 0.512419
O O7 0.818599 0.210084 0.150661
O O8 0.321003 0.391182 0.478579
O O9 0.630134 0.137293 0.563685
O O10 0.474022 0.323098 0.218539
O O11 0.164269 0.439075 0.742049
O O12 0.044160 0.602365 0.923993
O O13 0.000000 0.500000 0.000000
O O14 0.414736 0.049473 0.143571
O O15 0.699561 0.489058 0.109916
O O16 0.354709 0.347816 0.774259
O O17 0.957091 0.863961 0.628884
#
# Coordination Sequence:
#
# PCOD9086016 Si02
#       8
#     2   2   2   2   2   2   2   2
#     4  12  21  38  61  84 116 158 205 241 273 343
#     4  11  22  40  57  82 117 162 203 233 280 345
#     4  11  23  39  56  89 127 148 189 245 299 342
#     4  10  19  35  67  92 108 143 202 244 280 342
#     4  12  24  37  57  85 122 161 191 240 294 340
#     4  10  20  38  64  83 115 157 202 238 277 348
#     4   9  20  39  61  90 113 150 192 242 288 346
#     4  11  21  38  62  90 114 152 198 243 285 343
#
# _framework density 19.795974000000001
#
# number of rings (size 3 to 8) (size 9 to 14) (size 15 to 20)
#    0.000    1.250    5.000    2.250    0.000    0.500 
#    6.750    0.000    0.000    9.750    0.000    0.000 
#    0.000    0.000    0.000    0.000    0.000    0.000 
#
# Total GULP energy -89173.106424 kJ/mol
# GULP energy per Si atom -5573.319151 kJ/mol
# Density = 1.975092 g / cm^3
# Si number density = 19.795974 Si / 1000 Ang^3
#
#
#
# Elastic Constant Matrix: (Units=GPa)
#
#
# Indices 1 2 3 4 5 6 
#
# 1 55.4713 30.8557 35.5691 19.6387 -17.2818 -13.7576
# 2 30.8557 145.3321 49.0342 17.3139 -13.0033 0.7432
# 3 35.5691 49.0342 74.5465 28.7721 -14.1957 8.7198
# 4 19.6387 17.3139 28.7721 44.1060 -1.7703 -13.6570
# 5 -17.2818 -13.0033 -14.1957 -1.7703 25.9691 8.9544
# 6 -13.7576 0.7432 8.7198 -13.6570 8.9544 37.2404
#
#
#
# Elastic Compliance Matrix: (Units=1/GPa)
#
#
# Indices 1 2 3 4 5 6 
#
# 1 0.035600 -0.001396 -0.016165 0.000208 0.009044 0.014866
# 2 -0.001396 0.009005 -0.005859 0.001259 0.000077 0.001120
# 3 -0.016165 -0.005859 0.041965 -0.026329 0.017653 -0.029581
# 4 0.000208 0.001259 -0.026329 0.047244 -0.020195 0.028398
# 5 0.009044 0.000077 0.017653 -0.020195 0.060697 -0.022795
# 6 0.014866 0.001120 -0.029581 0.028398 -0.022795 0.055144
#
#
# Mechanical properties :
#
#
# Convention : Reuss Voigt Hill
#
# Bulk Modulus (GPa) = 25.16994 56.25199 40.71097
# Shear Modulus (GPa) = 16.14258 32.12251 24.13254
#
# Velocity S-wave (km/s) = 2.85870 4.03262 3.49530
# Velocity P-wave (km/s) = 4.86195 7.08239 6.07449
#
# Compressibility (1/GPa) = 0.03972993
#
# Stress axis : x y z
#
# Youngs Moduli (GPa) = 28.08981 111.04551 23.82916
#
# Poissons Ratio (x) = 0.15502 0.38520
# Poissons Ratio (y) = 0.03921 0.13963
# Poissons Ratio (z) = 0.45407 0.65066
#
# Static dielectric constant tensor:
#      x y z
#    x 1.747990 -0.023300 -0.011100 
#    y -0.023300 1.737980 0.018400 
#    z -0.011100 0.018400 1.740540 
# 
# From -- ./inp_files/276910.got.cif
#   From: 2010.05.17/outbox.cif.g08.bks.cpg/sg2_139_cif.got.tgz:276910.got - 2010.06.03 11:33:40.
