data_PCOD9086770
_publ_section_title
;
Structure prediction by ZEFSAII (Michael W. Deem and Ramdas Pophale) SiO2 
 PCOD9086770
Probable space group: P -1
;
_chemical_formula_sum "Si O2"
_cell_formula_units_Z 16
_cell_length_a 7.125818
_cell_length_b 17.364453
_cell_length_c 17.909581
_cell_angle_alpha 154.744257
_cell_angle_beta 52.032995
_cell_angle_gamma 114.644758
_cell_volume 678.364036
_symmetry_space_group_name_H-M "P -1"
_symmetry_group_IT_number 2
_symmetry_cell_setting 'triclinic'
loop_
_space_group_symop_operation_xyz
x,y,z
-x,-y,-z
loop_
_atom_site_type_symbol
_atom_site_label
_atom_site_fract_x
_atom_site_fract_y
_atom_site_fract_z
Si Si1 0.353064 0.427393 0.687733
Si Si2 0.463826 0.102562 0.264230
Si Si3 0.813952 0.755443 0.120003
Si Si4 0.324650 0.386005 0.414153
Si Si5 0.332946 0.711074 0.179665
Si Si6 0.083405 0.879549 0.534777
Si Si7 0.652082 0.616289 0.191241
Si Si8 0.285392 0.352369 0.215747
O O1 0.517019 0.257860 0.440690
O O2 0.289197 0.337463 0.699895
O O3 0.514581 0.556899 0.782079
O O4 0.061204 0.578023 0.867200
O O5 0.429991 0.186329 0.262177
O O6 0.182992 0.125823 0.382275
O O7 0.649386 0.871933 0.021145
O O8 0.548110 0.789238 0.171517
O O9 0.736057 0.714413 0.187600
O O10 0.887424 0.937715 0.272792
O O11 0.500000 0.500000 0.500000
O O12 0.335140 0.349886 0.291152
O O13 0.013886 0.512437 0.614295
O O14 0.130372 0.862548 0.419141
O O15 0.500000 0.500000 0.000000
O O16 0.226669 0.619944 0.060148
O O17 0.339188 0.694954 0.338212
#
# Coordination Sequence:
#
# PCOD9086770 Si02
#       8
#     2   2   2   2   2   2   2   2
#     4  12  23  42  61  99 138 174 231 284 333 409
#     4  12  24  46  71 102 143 179 220 291 350 403
#     4  10  19  36  60  86 135 179 233 279 333 393
#     4  11  25  52  80 102 140 178 218 286 352 425
#     4   8  16  33  56  82 121 180 226 271 326 389
#     4  10  19  37  60  92 129 177 234 277 343 397
#     4  10  20  36  57  90 130 187 231 280 332 393
#     4  11  26  49  74 110 136 175 233 273 349 436
#
# _framework density 23.586157
#
# number of rings (size 3 to 8) (size 9 to 14) (size 15 to 20)
#    0.000    1.750    2.500    5.250    0.000    0.500 
#   11.250    1.250    0.000    0.000    0.000    0.000 
#    0.000    0.000    0.000    0.000    0.000    0.000 
#
# Total GULP energy -89355.035926 kJ/mol
# GULP energy per Si atom -5584.689745 kJ/mol
# Density = 2.353247 g / cm^3
# Si number density = 23.586157 Si / 1000 Ang^3
#
#
#
# Elastic Constant Matrix: (Units=GPa)
#
#
# Indices 1 2 3 4 5 6 
#
# 1 37.0339 8.6356 -21.4979 3.1212 -0.7011 3.3093
# 2 8.6356 56.4817 8.3064 4.4912 -2.8305 5.8902
# 3 -21.4979 8.3064 74.0186 10.0723 10.0618 -8.9575
# 4 3.1212 4.4912 10.0723 27.6478 8.5118 4.0779
# 5 -0.7011 -2.8305 10.0618 8.5118 30.4814 -9.7848
# 6 3.3093 5.8902 -8.9575 4.0779 -9.7848 31.2926
#
#
#
# Elastic Compliance Matrix: (Units=1/GPa)
#
#
# Indices 1 2 3 4 5 6 
#
# 1 0.036565 -0.007132 0.012831 -0.007446 -0.001442 0.001668
# 2 -0.007132 0.020091 -0.004971 -0.000871 0.002438 -0.003575
# 3 0.012831 -0.004971 0.019897 -0.007822 -0.002812 0.005414
# 4 -0.007446 -0.000871 -0.007822 0.046155 -0.014342 -0.011787
# 5 -0.001442 0.002438 -0.002812 -0.014342 0.042436 0.014027
# 6 0.001668 -0.003575 0.005414 -0.011787 0.014027 0.039925
#
#
# Mechanical properties :
#
#
# Convention : Reuss Voigt Hill
#
# Bulk Modulus (GPa) = 12.81912 17.60252 15.21082
# Shear Modulus (GPa) = 21.77562 29.35703 25.56633
#
# Velocity S-wave (km/s) = 3.04178 3.53182 3.29592
# Velocity P-wave (km/s) = 4.21703 4.91029 4.57681
#
# Compressibility (1/GPa) = 0.07800850
#
# Stress axis : x y z
#
# Youngs Moduli (GPa) = 27.34863 49.77461 50.25975
#
# Poissons Ratio (x) = 0.35498 -0.64490
# Poissons Ratio (y) = 0.19504 0.24986
# Poissons Ratio (z) = -0.35092 0.24745
#
# Static dielectric constant tensor:
#      x y z
#    x 2.039830 -0.051620 0.065090 
#    y -0.051620 1.918690 0.009800 
#    z 0.065090 0.009800 1.933940 
# 
# From -- ./inp_files/586668.got.cif
#   From: 2010.05.17/outbox.cif.g08.bks.cpg/sg2_294_cif.got.tgz:586668.got - 2010.06.03 11:33:40.
