data_PCOD9086887
_publ_section_title
;
Structure prediction by ZEFSAII (Michael W. Deem and Ramdas Pophale) SiO2 
 PCOD9086887
Probable space group: P -1
;
_chemical_formula_sum "Si O2"
_cell_formula_units_Z 16
_cell_length_a 7.264122
_cell_length_b 33.471126
_cell_length_c 15.408210
_cell_angle_alpha 160.606803
_cell_angle_beta 44.852516
_cell_angle_gamma 126.570135
_cell_volume 833.764106
_symmetry_space_group_name_H-M "P -1"
_symmetry_group_IT_number 2
_symmetry_cell_setting 'triclinic'
loop_
_space_group_symop_operation_xyz
x,y,z
-x,-y,-z
loop_
_atom_site_type_symbol
_atom_site_label
_atom_site_fract_x
_atom_site_fract_y
_atom_site_fract_z
Si Si1 0.617227 0.406778 0.685828
Si Si2 0.939174 0.730815 0.196071
Si Si3 0.938741 0.628529 0.181657
Si Si4 0.404843 0.950289 0.841223
Si Si5 0.518687 0.641875 0.770774
Si Si6 0.821682 0.660032 0.542614
Si Si7 0.064681 0.518573 0.415908
Si Si8 0.942054 0.828037 0.713746
O O1 0.378175 0.343715 0.627169
O O2 0.917230 0.335303 0.476950
O O3 0.682796 0.454498 0.666391
O O4 0.500000 0.500000 0.000000
O O5 0.932269 0.685002 0.203417
O O6 0.683559 0.852030 0.510546
O O7 0.240790 0.741059 0.099943
O O8 0.925369 0.614071 0.903127
O O9 0.076278 0.704148 0.355037
O O10 0.081152 0.477444 0.818880
O O11 0.179423 0.876198 0.774901
O O12 0.500000 0.000000 0.000000
O O13 0.253402 0.064608 0.062024
O O14 0.500000 0.500000 0.500000
O O15 0.576797 0.660428 0.689180
O O16 0.794680 0.632272 0.710463
O O17 0.771628 0.777727 0.737667
O O18 0.000000 0.500000 0.500000
#
# Coordination Sequence:
#
# PCOD9086887 Si02
#       8
#     2   2   2   2   2   2   2   2
#     4   9  17  33  55  89 131 166 197 254 334 374
#     4  11  20  39  61  84 128 173 212 264 318 382
#     4  11  19  34  63  97 125 164 202 274 336 387
#     4  11  25  46  64  89 126 173 221 278 318 371
#     4   9  18  36  57  84 129 174 198 251 327 384
#     4  10  19  36  60  94 134 161 206 264 330 390
#     4  10  20  34  57  95 133 169 211 253 321 407
#     4  11  25  39  65  97 119 167 224 263 331 387
#
# _framework density 19.190079000000001
#
# number of rings (size 3 to 8) (size 9 to 14) (size 15 to 20)
#    0.000    1.750    6.250    1.125    1.750    3.000 
#    0.000    0.625    0.000    0.750    0.000    0.000 
#    0.000    0.000    0.000    0.000    0.000    0.000 
#
# Total GULP energy -89105.268902 kJ/mol
# GULP energy per Si atom -5569.079306 kJ/mol
# Density = 1.914640 g / cm^3
# Si number density = 19.190079 Si / 1000 Ang^3
#
#
#
# Elastic Constant Matrix: (Units=GPa)
#
#
# Indices 1 2 3 4 5 6 
#
# 1 90.1216 42.0944 31.6813 -5.4180 6.6688 4.2388
# 2 42.0944 159.0354 46.2249 -23.9386 3.4440 -2.7812
# 3 31.6813 46.2249 87.2083 -9.9335 -18.6639 10.0640
# 4 -5.4180 -23.9386 -9.9335 33.5790 0.8045 0.8495
# 5 6.6688 3.4440 -18.6639 0.8045 28.7038 -4.9704
# 6 4.2388 -2.7812 10.0640 0.8495 -4.9704 23.4137
#
#
#
# Elastic Compliance Matrix: (Units=1/GPa)
#
#
# Indices 1 2 3 4 5 6 
#
# 1 0.014653 -0.002274 -0.005458 -0.000652 -0.007016 -0.002043
# 2 -0.002274 0.008977 -0.004337 0.004760 -0.003066 0.002519
# 3 -0.005458 -0.004337 0.019396 0.001570 0.013480 -0.005060
# 4 -0.000652 0.004760 0.001570 0.033580 -0.000570 -0.001331
# 5 -0.007016 -0.003066 0.013480 -0.000570 0.046483 0.005000
# 6 -0.002043 0.002519 -0.005060 -0.001331 0.005000 0.046664
#
#
# Mechanical properties :
#
#
# Convention : Reuss Voigt Hill
#
# Bulk Modulus (GPa) = 52.94179 64.04073 58.49126
# Shear Modulus (GPa) = 24.97657 31.56361 28.27009
#
# Velocity S-wave (km/s) = 3.61159 4.06000 3.84234
# Velocity P-wave (km/s) = 6.71115 7.44462 7.08738
#
# Compressibility (1/GPa) = 0.01888867
#
# Stress axis : x y z
#
# Youngs Moduli (GPa) = 68.24566 111.39225 51.55676
#
# Poissons Ratio (x) = 0.25330 0.28139
# Poissons Ratio (y) = 0.15519 0.22360
# Poissons Ratio (z) = 0.37248 0.48311
#
# Static dielectric constant tensor:
#      x y z
#    x 1.916270 0.407580 0.022350 
#    y 0.407580 2.904740 0.085660 
#    z 0.022350 0.085660 1.695020 
# 
# From -- ./inp_files/509102.got.cif
#   From: 2010.05.17/outbox.cif.g08.bks.cpg/sg2_255_cif.got.tgz:509102.got - 2010.06.03 11:33:40.
