data_PCOD9086142
_publ_section_title
;
Structure prediction by ZEFSAII (Michael W. Deem and Ramdas Pophale) SiO2 
 PCOD9086142
Probable space group: P -1
;
_chemical_formula_sum "Si O2"
_cell_formula_units_Z 16
_cell_length_a 11.938103
_cell_length_b 8.961925
_cell_length_c 9.027843
_cell_angle_alpha 49.148443
_cell_angle_beta 73.615112
_cell_angle_gamma 73.020379
_cell_volume 693.187623
_symmetry_space_group_name_H-M "P -1"
_symmetry_group_IT_number 2
_symmetry_cell_setting 'triclinic'
loop_
_space_group_symop_operation_xyz
x,y,z
-x,-y,-z
loop_
_atom_site_type_symbol
_atom_site_label
_atom_site_fract_x
_atom_site_fract_y
_atom_site_fract_z
Si Si1 0.988376 0.649115 0.698857
Si Si2 0.235013 0.110058 0.017725
Si Si3 0.270545 0.843053 0.914789
Si Si4 0.972599 0.199178 0.092898
Si Si5 0.365712 0.444379 0.307444
Si Si6 0.771289 0.465035 0.401650
Si Si7 0.360736 0.615315 0.768059
Si Si8 0.721324 0.756353 0.783159
O O1 0.853899 0.754800 0.671208
O O2 0.037955 0.745399 0.765176
O O3 0.095299 0.642142 0.547342
O O4 0.971588 0.418689 0.879733
O O5 0.217127 0.339430 0.825958
O O6 0.299554 0.993698 0.931863
O O7 0.293563 0.091650 0.170697
O O8 0.100030 0.068448 0.107452
O O9 0.136210 0.891650 0.875358
O O10 0.346006 0.801722 0.764281
O O11 0.293114 0.635557 0.129957
O O12 0.304255 0.453519 0.482556
O O13 0.502428 0.466897 0.251575
O O14 0.355713 0.256037 0.326836
O O15 0.700965 0.341714 0.395025
O O16 0.299898 0.447513 0.988476
#
# Coordination Sequence:
#
# PCOD9086142 Si02
#       8
#     2   2   2   2   2   2   2   2
#     4   9  14  29  55  79  98 135 170 215 252 309
#     4   9  20  32  55  77 108 135 171 212 263 314
#     4  11  18  34  54  82 100 136 180 217 251 300
#     4   9  14  28  53  79 102 132 174 210 250 310
#     4  11  22  34  54  78 106 138 179 216 253 302
#     4  10  20  36  53  78 107 137 173 213 266 310
#     4  10  19  36  56  74 102 142 184 211 243 312
#     4   9  17  34  53  77 105 133 176 213 257 303
#
# _framework density 23.081772999999998
#
# number of rings (size 3 to 8) (size 9 to 14) (size 15 to 20)
#    0.000    2.250    3.750    3.750    0.000    0.500 
#    0.000    7.500    0.000    1.500    0.000    0.000 
#    0.000    0.000    0.000    0.000    0.000    0.000 
#
# Total GULP energy -89133.120602 kJ/mol
# GULP energy per Si atom -5570.820038 kJ/mol
# Density = 2.302924 g / cm^3
# Si number density = 23.081773 Si / 1000 Ang^3
#
#
#
# Elastic Constant Matrix: (Units=GPa)
#
#
# Indices 1 2 3 4 5 6 
#
# 1 95.0300 23.4450 37.3218 27.2466 -7.9064 1.4861
# 2 23.4450 52.0736 26.3789 35.0727 -13.5043 9.2368
# 3 37.3218 26.3789 62.5216 23.1116 -9.5094 -8.3168
# 4 27.2466 35.0727 23.1116 51.1041 -5.0668 -0.9172
# 5 -7.9064 -13.5043 -9.5094 -5.0668 5.9513 12.6791
# 6 1.4861 9.2368 -8.3168 -0.9172 12.6791 12.6264
#
#
#
# Elastic Compliance Matrix: (Units=1/GPa)
#
#
# Indices 1 2 3 4 5 6 
#
# 1 0.014219 -0.003040 -0.006748 -0.003042 -0.006483 0.002395
# 2 -0.003040 0.014709 -0.002976 -0.010470 -0.038291 0.025327
# 3 -0.006748 -0.002976 0.025786 -0.004246 0.017543 0.002032
# 4 -0.003042 -0.010470 -0.004246 0.032094 0.020493 -0.013027
# 5 -0.006483 -0.038291 0.017543 0.020493 -0.025380 0.067304
# 6 0.002395 0.025327 0.002032 -0.013027 0.067304 -0.006804
#
#
# Mechanical properties :
#
#
# Convention : Reuss Voigt Hill
#
# Bulk Modulus (GPa) = 34.26274 42.65739 38.46007
# Shear Modulus (GPa) = 55.63004 22.10167 38.86586
#
# Velocity S-wave (km/s) = 4.91463 3.09777 4.10791
# Velocity P-wave (km/s) = 6.86157 5.59607 6.26087
#
# Compressibility (1/GPa) = 0.02918623
#
# Stress axis : x y z
#
# Youngs Moduli (GPa) = 70.33002 67.98606 38.78063
#
# Poissons Ratio (x) = 0.20669 0.26169
# Poissons Ratio (y) = 0.21381 0.11540
# Poissons Ratio (z) = 0.47458 0.20231
#
# Static dielectric constant tensor:
#      x y z
#    x 1.870200 0.031180 0.009550 
#    y 0.031180 1.951520 -0.018350 
#    z 0.009550 -0.018350 1.883050 
# 
# From -- ./inp_files/178810.got.cif
#   From: 2010.05.17/outbox.cif.g08.bks.cpg/sg2_90_cif.got.tgz:178810.got - 2010.06.03 11:33:40.
