data_PCOD9086000
_publ_section_title
;
Structure prediction by ZEFSAII (Michael W. Deem and Ramdas Pophale) SiO2 
 PCOD9086000
Probable space group: P -1
;
_chemical_formula_sum "Si O2"
_cell_formula_units_Z 16
_cell_length_a 23.051419
_cell_length_b 12.887156
_cell_length_c 7.555190
_cell_angle_alpha 93.712932
_cell_angle_beta 68.684694
_cell_angle_gamma 156.108521
_cell_volume 596.978368
_symmetry_space_group_name_H-M "P -1"
_symmetry_group_IT_number 2
_symmetry_cell_setting 'triclinic'
loop_
_space_group_symop_operation_xyz
x,y,z
-x,-y,-z
loop_
_atom_site_type_symbol
_atom_site_label
_atom_site_fract_x
_atom_site_fract_y
_atom_site_fract_z
Si Si1 0.800342 0.758861 0.708030
Si Si2 0.076973 0.976704 0.761849
Si Si3 0.176090 0.904835 0.677357
Si Si4 0.848381 0.161542 0.694150
Si Si5 0.271511 0.727019 0.382201
Si Si6 0.318256 0.496991 0.831580
Si Si7 0.495291 0.101915 0.811781
Si Si8 0.290059 0.947426 0.849313
O O1 0.853474 0.922347 0.510271
O O2 0.758265 0.708677 0.955122
O O3 0.610780 0.380107 0.814075
O O4 0.000000 0.000000 0.500000
O O5 0.105374 0.908359 0.805172
O O6 0.240348 0.318041 0.716444
O O7 0.839502 0.652137 0.998388
O O8 0.253230 0.031456 0.402741
O O9 0.959965 0.488506 0.892927
O O10 0.333226 0.093404 0.654875
O O11 0.022757 0.365289 0.620423
O O12 0.000000 0.500000 0.500000
O O13 0.677022 0.927566 0.000607
O O14 0.337370 0.722019 0.391875
O O15 0.441957 0.080161 0.323297
O O16 0.321570 0.791656 0.121634
O O17 0.396483 0.003128 0.744120
#
# Coordination Sequence:
#
# PCOD9086000 Si02
#       8
#     2   2   2   2   2   2   2   2
#     4   9  20  36  58  85 121 161 194 248 301 355
#     4  10  20  39  58  86 121 166 201 241 303 368
#     4  10  21  37  64  86 121 165 200 247 302 365
#     4  10  20  38  61  92 123 158 198 246 309 365
#     4  10  19  35  66  96 118 157 202 259 306 349
#     4   9  20  37  59  87 127 154 201 256 298 351
#     4  10  19  36  64  93 121 153 207 254 302 354
#     4  10  21  41  61  92 123 158 199 255 306 354
#
# _framework density 26.801642000000001
#
# number of rings (size 3 to 8) (size 9 to 14) (size 15 to 20)
#    0.000    2.250    2.500    0.750    5.250    1.000 
#   11.250    1.250    0.000    3.750    0.000    0.000 
#    0.000    0.000    0.000    0.000    0.000    0.000 
#
# Total GULP energy -89351.041582 kJ/mol
# GULP energy per Si atom -5584.440099 kJ/mol
# Density = 2.674064 g / cm^3
# Si number density = 26.801642 Si / 1000 Ang^3
#
#
#
# Elastic Constant Matrix: (Units=GPa)
#
#
# Indices 1 2 3 4 5 6 
#
# 1 216.5943 37.8588 60.7783 29.1899 -12.7033 22.1955
# 2 37.8588 86.1000 36.7075 18.9538 2.0549 9.6109
# 3 60.7783 36.7075 60.9608 14.0774 -6.6173 16.1100
# 4 29.1899 18.9538 14.0774 36.0722 9.4822 -1.8960
# 5 -12.7033 2.0549 -6.6173 9.4822 35.6315 0.7847
# 6 22.1955 9.6109 16.1100 -1.8960 0.7847 35.5059
#
#
#
# Elastic Compliance Matrix: (Units=1/GPa)
#
#
# Indices 1 2 3 4 5 6 
#
# 1 0.007080 0.000368 -0.005214 -0.004769 0.002858 -0.002478
# 2 0.000368 0.016579 -0.009023 -0.005249 -0.001084 -0.000880
# 3 -0.005214 -0.009023 0.031276 -0.005312 0.006080 -0.008907
# 4 -0.004769 -0.005249 -0.005312 0.040406 -0.013341 0.009265
# 5 0.002858 -0.001084 0.006080 -0.013341 0.033952 -0.005715
# 6 -0.002478 -0.000880 -0.008907 0.009265 -0.005715 0.034614
#
#
# Mechanical properties :
#
#
# Convention : Reuss Voigt Hill
#
# Bulk Modulus (GPa) = 36.76870 70.48270 53.62570
# Shear Modulus (GPa) = 24.91150 36.66262 30.78706
#
# Velocity S-wave (km/s) = 3.05204 3.70256 3.39293
# Velocity P-wave (km/s) = 5.11552 6.68084 5.94988
#
# Compressibility (1/GPa) = 0.02719705
#
# Stress axis : x y z
#
# Youngs Moduli (GPa) = 141.24332 60.31722 31.97344
#
# Poissons Ratio (x) = -0.02220 0.16671
# Poissons Ratio (y) = -0.05198 0.28850
# Poissons Ratio (z) = 0.73644 0.54424
#
# Static dielectric constant tensor:
#      x y z
#    x 2.089740 0.018330 0.036620 
#    y 0.018330 2.080330 0.045220 
#    z 0.036620 0.045220 2.192910 
# 
# From -- ./inp_files/345329.got.cif
#   From: 2010.05.17/outbox.cif.g08.bks.cpg/sg2_173_cif.got.tgz:345329.got - 2010.06.03 11:33:40.
