data_PCOD9086418
_publ_section_title
;
Structure prediction by ZEFSAII (Michael W. Deem and Ramdas Pophale) SiO2 
 PCOD9086418
Probable space group: P -1
;
_chemical_formula_sum "Si O2"
_cell_formula_units_Z 10
_cell_length_a 17.644589
_cell_length_b 6.322597
_cell_length_c 14.246132
_cell_angle_alpha 121.714837
_cell_angle_beta 21.527866
_cell_angle_gamma 125.091362
_cell_volume 476.974481
_symmetry_space_group_name_H-M "P -1"
_symmetry_group_IT_number 2
_symmetry_cell_setting 'triclinic'
loop_
_space_group_symop_operation_xyz
x,y,z
-x,-y,-z
loop_
_atom_site_type_symbol
_atom_site_label
_atom_site_fract_x
_atom_site_fract_y
_atom_site_fract_z
Si Si1 0.879311 0.577065 0.067323
Si Si2 0.627882 0.480024 0.705010
Si Si3 0.013013 0.859824 0.244433
Si Si4 0.189859 0.369919 0.262613
Si Si5 0.197198 0.970002 0.652745
O O1 0.725446 0.743884 0.323246
O O2 0.000000 0.500000 0.000000
O O3 0.826561 0.313449 0.006941
O O4 0.050020 0.781387 0.854567
O O5 0.785949 0.667260 0.494147
O O6 0.722705 0.569828 0.719347
O O7 0.637945 0.186677 0.606587
O O8 0.382698 0.485126 0.993874
O O9 0.954134 0.004078 0.254565
O O10 0.105384 0.067573 0.266231
O O11 0.000000 0.500000 0.500000
#
# Coordination Sequence:
#
# PCOD9086418 Si02
#       5
#     2   2   2   2   2
#     4   8  16  30  59  86 111 149 183 227 289 331
#     4  10  22  38  57  84 116 149 191 233 279 333
#     4  10  19  36  58  84 114 152 186 231 285 331
#     4  11  22  39  57  83 116 151 192 236 276 334
#     4   9  16  34  57  84 115 147 184 234 280 333
#
# _framework density 20.965481
#
# number of rings (size 3 to 8) (size 9 to 14) (size 15 to 20)
#    0.000    2.400    2.000    0.600    0.000    0.800 
#    3.600    1.000    0.000   40.800    0.000    0.000 
#    0.000    0.000    0.000    0.000    0.000    0.000 
#
# Total GULP energy -55725.006476 kJ/mol
# GULP energy per Si atom -5572.500648 kJ/mol
# Density = 2.091776 g / cm^3
# Si number density = 20.965481 Si / 1000 Ang^3
#
#
#
# Elastic Constant Matrix: (Units=GPa)
#
#
# Indices 1 2 3 4 5 6 
#
# 1 48.3529 42.7701 39.5411 10.9852 19.2176 -7.6774
# 2 42.7701 126.4826 60.3459 30.6443 12.1056 20.5337
# 3 39.5411 60.3459 113.8300 24.7475 7.6028 17.9036
# 4 10.9852 30.6443 24.7475 38.4328 7.4688 21.9391
# 5 19.2176 12.1056 7.6028 7.4688 22.9980 2.4612
# 6 -7.6774 20.5337 17.9036 21.9391 2.4612 44.3064
#
#
#
# Elastic Compliance Matrix: (Units=1/GPa)
#
#
# Indices 1 2 3 4 5 6 
#
# 1 0.079589 -0.016714 -0.019337 -0.007158 -0.052826 0.035830
# 2 -0.016714 0.015426 -0.000774 -0.003919 0.008258 -0.008250
# 3 -0.019337 -0.000774 0.016966 -0.001671 0.012539 -0.009717
# 4 -0.007158 -0.003919 -0.001671 0.044834 -0.003744 -0.020741
# 5 -0.052826 0.008258 0.012539 -0.003744 0.082572 -0.020781
# 6 0.035830 -0.008250 -0.009717 -0.020741 -0.020781 0.047954
#
#
# Mechanical properties :
#
#
# Convention : Reuss Voigt Hill
#
# Bulk Modulus (GPa) = 26.08799 63.77551 44.93175
# Shear Modulus (GPa) = 13.37735 30.88132 22.12934
#
# Velocity S-wave (km/s) = 2.52874 3.84208 3.25239
# Velocity P-wave (km/s) = 4.58218 7.08290 5.96506
#
# Compressibility (1/GPa) = 0.03833181
#
# Stress axis : x y z
#
# Youngs Moduli (GPa) = 12.56462 64.82672 58.93995
#
# Poissons Ratio (x) = 1.08349 1.13972
# Poissons Ratio (y) = 0.21000 0.04561
# Poissons Ratio (z) = 0.24296 0.05017
#
# Static dielectric constant tensor:
#      x y z
#    x 1.727590 0.033760 0.039740 
#    y 0.033760 1.783400 0.024350 
#    z 0.039740 0.024350 1.777050 
# 
# From -- ./inp_files/1597.got.cif
#   From: 2010.05.17/outbox.cif.g08.bks.cpg/sg2_1_cif.got.tgz:1597.got - 2010.06.03 11:33:40.
