data_PCOD9086024
_publ_section_title
;
Structure prediction by ZEFSAII (Michael W. Deem and Ramdas Pophale) SiO2 
 PCOD9086024
Probable space group: P -1
;
_chemical_formula_sum "Si O2"
_cell_formula_units_Z 16
_cell_length_a 12.549742
_cell_length_b 18.581842
_cell_length_c 9.339137
_cell_angle_alpha 83.050777
_cell_angle_beta 82.043724
_cell_angle_gamma 157.049815
_cell_volume 643.870988
_symmetry_space_group_name_H-M "P -1"
_symmetry_group_IT_number 2
_symmetry_cell_setting 'triclinic'
loop_
_space_group_symop_operation_xyz
x,y,z
-x,-y,-z
loop_
_atom_site_type_symbol
_atom_site_label
_atom_site_fract_x
_atom_site_fract_y
_atom_site_fract_z
Si Si1 0.454746 0.759529 0.659419
Si Si2 0.222940 0.222301 0.504841
Si Si3 0.343114 0.326388 0.995784
Si Si4 0.739067 0.502634 0.103894
Si Si5 0.833718 0.107565 0.693527
Si Si6 0.344661 0.543781 0.371100
Si Si7 0.487362 0.791162 0.307583
Si Si8 0.387686 0.999656 0.935845
O O1 0.191191 0.532913 0.839174
O O2 0.420111 0.750665 0.500300
O O3 0.511238 0.869018 0.713610
O O4 0.836814 0.962332 0.564448
O O5 0.545620 0.421582 0.287561
O O6 0.348063 0.258742 0.611112
O O7 0.156730 0.261404 0.558131
O O8 0.465909 0.336020 0.065380
O O9 0.500000 0.500000 0.000000
O O10 0.522064 0.422950 0.787694
O O11 0.916631 0.060685 0.136461
O O12 0.092102 0.775159 0.939330
O O13 0.757483 0.049250 0.888437
O O14 0.982326 0.280451 0.574217
O O15 0.312539 0.606798 0.318448
O O16 0.375699 0.793135 0.248114
O O17 0.500000 0.000000 0.000000
#
# Coordination Sequence:
#
# PCOD9086024 Si02
#       8
#     2   2   2   2   2   2   2   2
#     4  10  22  37  66 101 127 168 202 259 332 386
#     4  10  19  35  67  97 136 158 201 252 325 392
#     4  12  23  35  61 105 134 166 201 267 328 380
#     4  12  21  41  65  94 139 165 205 261 327 383
#     4  10  23  39  64  93 129 166 213 252 323 389
#     4  12  22  36  61  98 136 168 203 255 322 393
#     4  12  23  40  62  96 133 164 215 262 324 383
#     4  12  28  47  64  87 127 178 222 267 314 375
#
# _framework density 24.849699000000001
#
# number of rings (size 3 to 8) (size 9 to 14) (size 15 to 20)
#    0.750    0.000    5.000    4.125    1.750    0.000 
#    0.000    3.750    0.000    0.000    0.000    0.000 
#    0.000    0.000    0.000    0.000    0.000    0.000 
#
# Total GULP energy -89407.482555 kJ/mol
# GULP energy per Si atom -5587.967660 kJ/mol
# Density = 2.479314 g / cm^3
# Si number density = 24.849699 Si / 1000 Ang^3
#
#
#
# Elastic Constant Matrix: (Units=GPa)
#
#
# Indices 1 2 3 4 5 6 
#
# 1 93.8540 26.7162 35.2005 -9.2334 37.5580 -11.8572
# 2 26.7162 74.0714 43.2808 5.4232 1.3957 -21.7548
# 3 35.2005 43.2808 115.7887 13.6679 25.9502 -8.6853
# 4 -9.2334 5.4232 13.6679 34.1996 -3.4429 10.1978
# 5 37.5580 1.3957 25.9502 -3.4429 40.6858 -5.2995
# 6 -11.8572 -21.7548 -8.6853 10.1978 -5.2995 38.2430
#
#
#
# Elastic Compliance Matrix: (Units=1/GPa)
#
#
# Indices 1 2 3 4 5 6 
#
# 1 0.020751 -0.008357 0.000183 0.005676 -0.018818 -0.002400
# 2 -0.008357 0.025453 -0.008317 -0.005600 0.013411 0.013351
# 3 0.000183 -0.008317 0.014312 -0.004886 -0.009615 -0.001453
# 4 0.005676 -0.005600 -0.004886 0.037312 -0.000407 -0.012541
# 5 -0.018818 0.013411 -0.009615 -0.000407 0.048425 0.006430
# 6 -0.002400 0.013351 -0.001453 -0.012541 0.006430 0.036904
#
#
# Mechanical properties :
#
#
# Convention : Reuss Voigt Hill
#
# Bulk Modulus (GPa) = 36.31903 54.90100 45.61001
# Shear Modulus (GPa) = 22.19101 34.52680 28.35890
#
# Velocity S-wave (km/s) = 2.99157 3.73154 3.38186
# Velocity P-wave (km/s) = 5.15556 6.38021 5.80030
#
# Compressibility (1/GPa) = 0.02753378
#
# Stress axis : x y z
#
# Youngs Moduli (GPa) = 48.19104 39.28875 69.87084
#
# Poissons Ratio (x) = 0.32834 -0.01277
# Poissons Ratio (y) = 0.40273 0.58109
# Poissons Ratio (z) = -0.00881 0.32675
#
# Static dielectric constant tensor:
#      x y z
#    x 2.057470 0.003460 0.010100 
#    y 0.003460 2.053100 -0.014940 
#    z 0.010100 -0.014940 1.949480 
# 
# From -- ./inp_files/318965.got.cif
#   From: 2010.05.17/outbox.cif.g08.bks.cpg/sg2_160_cif.got.tgz:318965.got - 2010.06.03 11:33:40.
