data_PCOD9086502
_publ_section_title
;
Structure prediction by ZEFSAII (Michael W. Deem and Ramdas Pophale) SiO2 
 PCOD9086502
Probable space group: P -1
;
_chemical_formula_sum "Si O2"
_cell_formula_units_Z 14
_cell_length_a 20.681624
_cell_length_b 12.194674
_cell_length_c 5.393494
_cell_angle_alpha 131.618439
_cell_angle_beta 124.010140
_cell_angle_gamma 35.085512
_cell_volume 584.123855
_symmetry_space_group_name_H-M "P -1"
_symmetry_group_IT_number 2
_symmetry_cell_setting 'triclinic'
loop_
_space_group_symop_operation_xyz
x,y,z
-x,-y,-z
loop_
_atom_site_type_symbol
_atom_site_label
_atom_site_fract_x
_atom_site_fract_y
_atom_site_fract_z
Si Si1 0.778699 0.692972 0.676623
Si Si2 0.098212 0.254621 0.313838
Si Si3 0.587459 0.822171 0.220168
Si Si4 0.047804 0.740593 0.344680
Si Si5 0.175184 0.808033 0.469509
Si Si6 0.259322 0.838772 0.220553
Si Si7 0.398448 0.925105 0.747335
O O1 0.806533 0.781322 0.672260
O O2 0.708551 0.652380 0.351612
O O3 0.894256 0.465064 0.679574
O O4 0.697207 0.885403 0.984256
O O5 0.000000 0.500000 0.500000
O O6 0.154498 0.095288 0.421817
O O7 0.037610 0.217571 0.963762
O O8 0.598350 0.945257 0.244531
O O9 0.500000 0.000000 0.500000
O O10 0.525071 0.765647 0.890764
O O11 0.151307 0.678955 0.334108
O O12 0.954704 0.983746 0.604325
O O13 0.250495 0.743040 0.292840
O O14 0.232993 0.807928 0.841796
O O15 0.364918 0.807717 0.410479
#
# Coordination Sequence:
#
# PCOD9086502 Si02
#       7
#     2   2   2   2   2   2   2
#     4  11  20  36  57  90 121 156 189 248 310 354
#     4  11  21  33  58  90 121 157 191 248 302 354
#     4   9  20  34  58  89 116 145 187 238 325 363
#     4  10  22  37  56  81 125 158 208 239 280 351
#     4  10  24  40  56  85 114 176 205 238 276 341
#     4  11  21  38  61  81 120 153 205 239 291 351
#     4  10  19  36  58  91 116 146 189 252 307 366
#
# _framework density 23.967521000000001
#
# number of rings (size 3 to 8) (size 9 to 14) (size 15 to 20)
#    0.000    1.714    1.429    3.857    2.000    6.286 
#    0.000    0.000    0.000    1.714    0.000    0.000 
#    0.000    0.000    0.000    0.000    0.000    0.000 
#
# Total GULP energy -77948.198719 kJ/mol
# GULP energy per Si atom -5567.728480 kJ/mol
# Density = 2.391297 g / cm^3
# Si number density = 23.967521 Si / 1000 Ang^3
#
#
#
# Elastic Constant Matrix: (Units=GPa)
#
#
# Indices 1 2 3 4 5 6 
#
# 1 178.1517 -14.9402 78.7642 -3.1515 25.0782 3.1844
# 2 -14.9402 67.3156 -9.9527 -25.3959 -12.2364 -4.0303
# 3 78.7642 -9.9527 138.0923 -32.9282 53.9486 -8.0029
# 4 -3.1515 -25.3959 -32.9282 36.3536 -12.2229 12.3063
# 5 25.0782 -12.2364 53.9486 -12.2229 65.7638 -5.6450
# 6 3.1844 -4.0303 -8.0029 12.3063 -5.6450 32.2317
#
#
#
# Elastic Compliance Matrix: (Units=1/GPa)
#
#
# Indices 1 2 3 4 5 6 
#
# 1 0.008119 -0.001005 -0.006348 -0.005340 0.000906 -0.000307
# 2 -0.001005 0.026940 0.007372 0.028466 0.004224 -0.004830
# 3 -0.006348 0.007372 0.019432 0.020274 -0.008627 -0.002878
# 4 -0.005340 0.028466 0.020274 0.072263 0.002585 -0.018017
# 5 0.000906 0.004224 -0.008627 0.002585 0.023324 0.001395
# 6 -0.000307 -0.004830 -0.002878 -0.018017 0.001395 0.036860
#
#
# Mechanical properties :
#
#
# Convention : Reuss Voigt Hill
#
# Bulk Modulus (GPa) = 18.33871 54.58913 36.46392
# Shear Modulus (GPa) = 24.38123 48.84904 36.61513
#
# Velocity S-wave (km/s) = 3.19291 4.51947 3.91282
# Velocity P-wave (km/s) = 4.61097 7.07530 5.97164
#
# Compressibility (1/GPa) = 0.05452945
#
# Stress axis : x y z
#
# Youngs Moduli (GPa) = 123.16549 37.11915 51.46207
#
# Poissons Ratio (x) = 0.03730 0.32670
# Poissons Ratio (y) = 0.12377 -0.37940
# Poissons Ratio (z) = 0.78190 -0.27366
#
# Static dielectric constant tensor:
#      x y z
#    x 1.831180 0.034360 0.008710 
#    y 0.034360 1.658900 -0.197660 
#    z 0.008710 -0.197660 1.896800 
# 
# From -- ./inp_files/65688.got.cif
#   From: 2010.05.17/outbox.cif.g08.bks.cpg/sg2_33_cif.got.tgz:65688.got - 2010.06.03 11:33:40.
