data_PCOD9086094
_publ_section_title
;
Structure prediction by ZEFSAII (Michael W. Deem and Ramdas Pophale) SiO2 
 PCOD9086094
Probable space group: P -1
;
_chemical_formula_sum "Si O2"
_cell_formula_units_Z 16
_cell_length_a 21.879024
_cell_length_b 13.124775
_cell_length_c 13.899306
_cell_angle_alpha 32.627633
_cell_angle_beta 147.705671
_cell_angle_gamma 156.174922
_cell_volume 816.287483
_symmetry_space_group_name_H-M "P -1"
_symmetry_group_IT_number 2
_symmetry_cell_setting 'triclinic'
loop_
_space_group_symop_operation_xyz
x,y,z
-x,-y,-z
loop_
_atom_site_type_symbol
_atom_site_label
_atom_site_fract_x
_atom_site_fract_y
_atom_site_fract_z
Si Si1 0.798021 0.222796 0.857920
Si Si2 0.479629 0.646329 0.929768
Si Si3 0.055591 0.991403 0.733127
Si Si4 0.243463 0.377588 0.494385
Si Si5 0.608721 0.677132 0.737509
Si Si6 0.879666 0.260351 0.719276
Si Si7 0.845348 0.595978 0.311540
Si Si8 0.139751 0.309600 0.965211
O O1 0.794102 0.442220 0.693576
O O2 0.798937 0.197069 0.764862
O O3 0.638353 0.951319 0.908612
O O4 0.928776 0.218043 0.069969
O O5 0.339702 0.621131 0.728162
O O6 0.500000 0.500000 0.000000
O O7 0.420211 0.473484 0.083419
O O8 0.882605 0.845165 0.575555
O O9 0.186959 0.219236 0.647451
O O10 0.087732 0.134702 0.763581
O O11 0.430331 0.550710 0.579423
O O12 0.744527 0.993913 0.687605
O O13 0.704236 0.626895 0.842933
O O14 0.927262 0.511479 0.533620
O O15 0.048025 0.343847 0.886314
O O16 0.839602 0.574517 0.205641
O O17 0.000000 0.000000 0.000000
#
# Coordination Sequence:
#
# PCOD9086094 Si02
#       8
#     2   2   2   2   2   2   2   2
#     4  12  21  35  57  84 118 144 185 227 280 339
#     4  11  18  30  54  82 113 145 169 229 292 324
#     4  11  22  37  53  81 117 149 184 227 276 328
#     4  11  23  36  55  82 112 153 188 221 276 335
#     4  10  19  36  54  79 117 142 184 229 279 329
#     4  11  21  33  58  88 109 147 184 227 284 335
#     4  11  20  35  56  82 116 143 186 231 276 337
#     4   9  20  36  57  81 109 148 180 233 283 323
#
# _framework density 19.600936999999998
#
# number of rings (size 3 to 8) (size 9 to 14) (size 15 to 20)
#    0.000    1.250    5.000    3.000    0.000    1.000 
#    0.000    0.000    0.000    7.500    0.000    0.000 
#    0.000    0.000    0.000    0.000    0.000    0.000 
#
# Total GULP energy -89069.868774 kJ/mol
# GULP energy per Si atom -5566.866798 kJ/mol
# Density = 1.955632 g / cm^3
# Si number density = 19.600937 Si / 1000 Ang^3
#
#
#
# Elastic Constant Matrix: (Units=GPa)
#
#
# Indices 1 2 3 4 5 6 
#
# 1 31.3147 17.4790 9.9673 5.3036 20.0178 6.9436
# 2 17.4790 48.3789 22.1567 18.3915 16.2636 8.6774
# 3 9.9673 22.1567 92.0905 -3.5071 22.7942 2.7236
# 4 5.3036 18.3915 -3.5071 38.6032 7.6709 2.2335
# 5 20.0178 16.2636 22.7942 7.6709 29.7114 6.5029
# 6 6.9436 8.6774 2.7236 2.2335 6.5029 16.9479
#
#
#
# Elastic Compliance Matrix: (Units=1/GPa)
#
#
# Indices 1 2 3 4 5 6 
#
# 1 0.064205 -0.014339 0.007259 0.007258 -0.041742 -0.005070
# 2 -0.014339 0.036867 -0.008171 -0.016172 0.002201 -0.010401
# 3 0.007259 -0.008171 0.016003 0.007190 -0.015333 0.003574
# 4 0.007258 -0.016172 0.007190 0.035330 -0.011533 0.003920
# 5 -0.041742 0.002201 -0.015333 -0.011533 0.077453 -0.009760
# 6 -0.005070 -0.010401 0.003574 0.003920 -0.009760 0.069061
#
#
# Mechanical properties :
#
#
# Convention : Reuss Voigt Hill
#
# Bulk Modulus (GPa) = 11.55094 30.11002 20.83048
# Shear Modulus (GPa) = 13.95563 25.19790 19.57677
#
# Velocity S-wave (km/s) = 2.67121 3.58934 3.16376
# Velocity P-wave (km/s) = 3.92678 5.70725 4.89859
#
# Compressibility (1/GPa) = 0.08657302
#
# Stress axis : x y z
#
# Youngs Moduli (GPa) = 15.57499 27.12488 62.49002
#
# Poissons Ratio (x) = 0.38894 -0.45362
# Poissons Ratio (y) = 0.22333 0.51061
# Poissons Ratio (z) = -0.11306 0.22164
#
# Static dielectric constant tensor:
#      x y z
#    x 1.261680 -0.014110 0.043190 
#    y -0.014110 1.692700 0.019630 
#    z 0.043190 0.019630 1.762810 
# 
# From -- ./inp_files/422776.got.cif
#   From: 2010.05.17/outbox.cif.g08.bks.cpg/sg2_212_cif.got.tgz:422776.got - 2010.06.03 11:33:40.
