data_PCOD9086817
_publ_section_title
;
Structure prediction by ZEFSAII (Michael W. Deem and Ramdas Pophale) SiO2 
 PCOD9086817
Probable space group: P -1
;
_chemical_formula_sum "Si O2"
_cell_formula_units_Z 16
_cell_length_a 10.437737
_cell_length_b 8.828764
_cell_length_c 11.476659
_cell_angle_alpha 58.549047
_cell_angle_beta 130.610487
_cell_angle_gamma 112.613504
_cell_volume 683.279354
_symmetry_space_group_name_H-M "P -1"
_symmetry_group_IT_number 2
_symmetry_cell_setting 'triclinic'
loop_
_space_group_symop_operation_xyz
x,y,z
-x,-y,-z
loop_
_atom_site_type_symbol
_atom_site_label
_atom_site_fract_x
_atom_site_fract_y
_atom_site_fract_z
Si Si1 0.803231 0.084060 0.996157
Si Si2 0.497244 0.013624 0.691910
Si Si3 0.324868 0.983312 0.829223
Si Si4 0.984325 0.194608 0.357092
Si Si5 0.151380 0.196839 0.199834
Si Si6 0.674348 0.171621 0.530907
Si Si7 0.742895 0.524696 0.520180
Si Si8 0.642303 0.457070 0.759541
O O1 0.715584 0.266759 0.903572
O O2 0.677348 0.987393 0.868110
O O3 0.800343 0.966715 0.160237
O O4 0.988831 0.155003 0.038067
O O5 0.377787 0.072801 0.701026
O O6 0.413720 0.846716 0.638990
O O7 0.534352 0.163550 0.555383
O O8 0.217777 0.806031 0.786207
O O9 0.500000 0.000000 0.000000
O O10 0.070417 0.213547 0.273798
O O11 0.095834 0.334937 0.444243
O O12 0.000000 0.000000 0.500000
O O13 0.265495 0.379856 0.178056
O O14 0.242346 0.014248 0.330392
O O15 0.791561 0.343113 0.560256
O O16 0.693126 0.492586 0.639636
O O17 0.560909 0.557401 0.340303
#
# Coordination Sequence:
#
# PCOD9086817 Si02
#       8
#     2   2   2   2   2   2   2   2
#     4  10  20  36  60  92 120 156 201 251 296 348
#     4  10  20  35  61  86 117 163 200 238 295 354
#     4   9  20  36  60  86 118 153 198 244 293 351
#     4  10  21  37  61  90 113 154 207 250 289 345
#     4  10  22  36  59  91 122 156 195 246 307 354
#     4  11  21  38  61  88 123 159 196 243 298 362
#     4  10  22  35  59  91 119 153 201 250 294 345
#     4  10  19  36  60  89 121 150 203 256 291 344
#
# _framework density 23.416484000000001
#
# number of rings (size 3 to 8) (size 9 to 14) (size 15 to 20)
#    0.000    2.000    1.250    2.625    7.000    0.500 
#    0.000    2.500    0.000    3.000    0.000    0.000 
#    0.000    0.000    0.000    0.000    0.000    0.000 
#
# Total GULP energy -89088.875037 kJ/mol
# GULP energy per Si atom -5568.054690 kJ/mol
# Density = 2.336319 g / cm^3
# Si number density = 23.416484 Si / 1000 Ang^3
#
#
#
# Elastic Constant Matrix: (Units=GPa)
#
#
# Indices 1 2 3 4 5 6 
#
# 1 53.7223 39.5617 23.9048 14.3561 3.2046 13.8849
# 2 39.5617 197.6558 38.3028 45.7034 24.5515 24.9366
# 3 23.9048 38.3028 81.1665 30.7843 5.9694 8.9132
# 4 14.3561 45.7034 30.7843 43.5690 3.9706 10.3507
# 5 3.2046 24.5515 5.9694 3.9706 41.6018 7.4138
# 6 13.8849 24.9366 8.9132 10.3507 7.4138 32.8219
#
#
#
# Elastic Compliance Matrix: (Units=1/GPa)
#
#
# Indices 1 2 3 4 5 6 
#
# 1 0.025140 -0.003509 -0.005387 0.000724 0.002124 -0.007214
# 2 -0.003509 0.007879 0.000247 -0.006559 -0.003484 -0.001714
# 3 -0.005387 0.000247 0.018100 -0.011403 -0.001435 0.001096
# 4 0.000724 -0.006559 -0.011403 0.038596 0.002658 -0.004998
# 5 0.002124 -0.003484 -0.001435 0.002658 0.026726 -0.004737
# 6 -0.007214 -0.001714 0.001096 -0.004998 -0.004737 0.037170
#
#
# Mechanical properties :
#
#
# Convention : Reuss Voigt Hill
#
# Bulk Modulus (GPa) = 29.56591 59.56480 44.56535
# Shear Modulus (GPa) = 27.44507 38.98356 33.21432
#
# Velocity S-wave (km/s) = 3.42722 4.08461 3.77027
# Velocity P-wave (km/s) = 5.32115 6.90925 6.16654
#
# Compressibility (1/GPa) = 0.03382273
#
# Stress axis : x y z
#
# Youngs Moduli (GPa) = 39.77788 126.91462 55.24819
#
# Poissons Ratio (x) = 0.44533 0.29760
# Poissons Ratio (y) = 0.13958 -0.01366
# Poissons Ratio (z) = 0.21426 -0.03139
#
# Static dielectric constant tensor:
#      x y z
#    x 1.978870 0.026660 0.028970 
#    y 0.026660 1.954690 0.007240 
#    z 0.028970 0.007240 2.040550 
# 
# From -- ./inp_files/416715.got.cif
#   From: 2010.05.17/outbox.cif.g08.bks.cpg/sg2_209_cif.got.tgz:416715.got - 2010.06.03 11:33:40.
