data_PCOD9086957
_publ_section_title
;
Structure prediction by ZEFSAII (Michael W. Deem and Ramdas Pophale) SiO2 
 PCOD9086957
Probable space group: P -1
;
_chemical_formula_sum "Si O2"
_cell_formula_units_Z 14
_cell_length_a 15.396262
_cell_length_b 5.253467
_cell_length_c 10.859154
_cell_angle_alpha 70.775454
_cell_angle_beta 71.729704
_cell_angle_gamma 48.210545
_cell_volume 612.816280
_symmetry_space_group_name_H-M "P -1"
_symmetry_group_IT_number 2
_symmetry_cell_setting 'triclinic'
loop_
_space_group_symop_operation_xyz
x,y,z
-x,-y,-z
loop_
_atom_site_type_symbol
_atom_site_label
_atom_site_fract_x
_atom_site_fract_y
_atom_site_fract_z
Si Si1 0.240476 0.660001 0.054752
Si Si2 0.271755 0.270448 0.721138
Si Si3 0.872886 0.012462 0.179015
Si Si4 0.546402 0.445836 0.126490
Si Si5 0.976417 0.271026 0.620303
Si Si6 0.195724 0.691131 0.469061
Si Si7 0.712543 0.032926 0.783544
O O1 0.254312 0.841168 0.133124
O O2 0.248012 0.339752 0.143221
O O3 0.128521 0.935088 0.974924
O O4 0.353546 0.512685 0.939653
O O5 0.203230 0.602925 0.788602
O O6 0.292579 0.377809 0.563444
O O7 0.192650 0.152334 0.747196
O O8 0.386847 0.938492 0.788965
O O9 0.992281 0.769057 0.243635
O O10 0.428494 0.719652 0.210693
O O11 0.500000 0.500000 0.000000
O O12 0.000000 0.500000 0.500000
O O13 0.852951 0.381751 0.614404
O O14 0.082293 0.895705 0.576617
O O15 0.231439 0.915391 0.365654
#
# Coordination Sequence:
#
# PCOD9086957 Si02
#       7
#     2   2   2   2   2   2   2
#     4  10  21  38  59  85 118 158 191 230 283 341
#     4  10  20  34  59  86 116 147 194 239 277 343
#     4  10  19  36  61  86 109 149 200 237 279 340
#     4   9  19  37  60  86 115 159 193 225 281 343
#     4  10  20  39  65  80 111 153 196 240 290 350
#     4  10  23  38  57  91 114 151 192 240 297 335
#     4  11  23  37  59  85 125 151 189 240 281 342
#
# _framework density 22.845347
#
# number of rings (size 3 to 8) (size 9 to 14) (size 15 to 20)
#    0.000    2.000    1.429    3.000    2.000    4.000 
#    0.000    1.429    0.000   12.000    0.000    0.000 
#    0.000    0.000    0.000    0.000    0.000    0.000 
#
# Total GULP energy -78149.343782 kJ/mol
# GULP energy per Si atom -5582.095984 kJ/mol
# Density = 2.279335 g / cm^3
# Si number density = 22.845347 Si / 1000 Ang^3
#
#
#
# Elastic Constant Matrix: (Units=GPa)
#
#
# Indices 1 2 3 4 5 6 
#
# 1 84.1377 35.3509 51.8406 -14.2370 8.2095 9.1148
# 2 35.3509 73.7936 38.7175 -21.1688 3.6961 15.8996
# 3 51.8406 38.7175 144.0541 -39.8796 1.2056 -2.6848
# 4 -14.2370 -21.1688 -39.8796 46.5211 -6.7648 -4.3702
# 5 8.2095 3.6961 1.2056 -6.7648 45.0957 -13.0593
# 6 9.1148 15.8996 -2.6848 -4.3702 -13.0593 34.6714
#
#
#
# Elastic Compliance Matrix: (Units=1/GPa)
#
#
# Indices 1 2 3 4 5 6 
#
# 1 0.018293 -0.005111 -0.006138 -0.003152 -0.004699 -0.005108
# 2 -0.005111 0.020655 -0.002643 0.004373 -0.002569 -0.008749
# 3 -0.006138 -0.002643 0.012364 0.008733 0.004184 0.006460
# 4 -0.003152 0.004373 0.008733 0.031492 0.006410 0.005883
# 5 -0.004699 -0.002569 0.004184 0.006410 0.028193 0.014165
# 6 -0.005108 -0.008749 0.006460 0.005883 0.014165 0.040774
#
#
# Mechanical properties :
#
#
# Convention : Reuss Voigt Hill
#
# Bulk Modulus (GPa) = 42.50272 61.53371 52.01821
# Shear Modulus (GPa) = 26.68117 36.99608 31.83862
#
# Velocity S-wave (km/s) = 3.42117 4.02856 3.73722
# Velocity P-wave (km/s) = 5.85242 6.97370 6.43752
#
# Compressibility (1/GPa) = 0.02352791
#
# Stress axis : x y z
#
# Youngs Moduli (GPa) = 54.66562 48.41445 80.87966
#
# Poissons Ratio (x) = 0.24746 0.49643
# Poissons Ratio (y) = 0.27941 0.21376
# Poissons Ratio (z) = 0.33553 0.12796
#
# Static dielectric constant tensor:
#      x y z
#    x 1.878250 -0.042600 0.040280 
#    y -0.042600 1.939430 0.041590 
#    z 0.040280 0.041590 1.916240 
# 
# From -- ./inp_files/66570.got.cif
#   From: 2010.05.17/outbox.cif.g08.bks.cpg/sg2_34_cif.got.tgz:66570.got - 2010.06.03 11:33:40.
