data_PCOD9086674
_publ_section_title
;
Structure prediction by ZEFSAII (Michael W. Deem and Ramdas Pophale) SiO2 
 PCOD9086674
Probable space group: P -1
;
_chemical_formula_sum "Si O2"
_cell_formula_units_Z 14
_cell_length_a 8.640418
_cell_length_b 11.023559
_cell_length_c 10.099040
_cell_angle_alpha 65.708283
_cell_angle_beta 74.312154
_cell_angle_gamma 109.524504
_cell_volume 727.249292
_symmetry_space_group_name_H-M "P -1"
_symmetry_group_IT_number 2
_symmetry_cell_setting 'triclinic'
loop_
_space_group_symop_operation_xyz
x,y,z
-x,-y,-z
loop_
_atom_site_type_symbol
_atom_site_label
_atom_site_fract_x
_atom_site_fract_y
_atom_site_fract_z
Si Si1 0.411064 0.331952 0.662438
Si Si2 0.964074 0.280757 0.519903
Si Si3 0.244795 0.629067 0.267239
Si Si4 0.473143 0.108103 0.061426
Si Si5 0.151383 0.077616 0.629873
Si Si6 0.650767 0.025069 0.562559
Si Si7 0.872194 0.868255 0.982484
O O1 0.500000 0.500000 0.500000
O O2 0.581963 0.329650 0.694530
O O3 0.315109 0.196360 0.637003
O O4 0.247575 0.287020 0.831582
O O5 0.882195 0.314029 0.656899
O O6 0.801465 0.200961 0.485345
O O7 0.127692 0.446078 0.360357
O O8 0.036070 0.163374 0.587872
O O9 0.342338 0.725045 0.070865
O O10 0.290626 0.110493 0.053690
O O11 0.443487 0.047675 0.243413
O O12 0.500000 0.000000 0.000000
O O13 0.236780 0.051748 0.490004
O O14 0.020293 0.913468 0.808359
O O15 0.500000 0.000000 0.500000
O O16 0.000000 0.000000 0.000000
#
# Coordination Sequence:
#
# PCOD9086674 Si02
#       7
#     2   2   2   2   2   2   2
#     4  10  19  36  59  93 127 158 201 254 309 363
#     4  11  21  39  62  89 121 162 203 261 302 363
#     4  10  21  38  63  91 119 157 212 254 305 358
#     4  11  21  40  63  90 119 162 212 251 301 370
#     4  11  21  39  59  91 125 158 208 252 311 367
#     4  12  26  41  62  89 128 167 201 258 317 368
#     4   9  20  33  60  89 117 156 203 251 291 361
#
# _framework density 19.250620000000001
#
# number of rings (size 3 to 8) (size 9 to 14) (size 15 to 20)
#    0.000    1.429    4.286    1.286    4.000    0.000 
#    0.000    2.857    0.000    0.000    0.000    0.000 
#    0.000    0.000    0.000    0.000    0.000    0.000 
#
# Total GULP energy -78100.329060 kJ/mol
# GULP energy per Si atom -5578.594933 kJ/mol
# Density = 1.920680 g / cm^3
# Si number density = 19.250620 Si / 1000 Ang^3
#
#
#
# Elastic Constant Matrix: (Units=GPa)
#
#
# Indices 1 2 3 4 5 6 
#
# 1 54.8024 21.8359 36.0569 -5.7353 0.6972 17.5886
# 2 21.8359 73.5341 62.6878 -12.7923 -8.2211 17.5774
# 3 36.0569 62.6878 173.1883 -14.4068 -13.4269 6.8588
# 4 -5.7353 -12.7923 -14.4068 35.9054 9.3568 -6.7623
# 5 0.6972 -8.2211 -13.4269 9.3568 26.9479 3.1201
# 6 17.5886 17.5774 6.8588 -6.7623 3.1201 38.2290
#
#
#
# Elastic Compliance Matrix: (Units=1/GPa)
#
#
# Indices 1 2 3 4 5 6 
#
# 1 0.024944 -0.001510 -0.004405 0.000456 -0.002334 -0.009721
# 2 -0.001510 0.023056 -0.007206 0.002559 0.003572 -0.008452
# 3 -0.004405 -0.007206 0.009361 0.000664 0.001930 0.003620
# 4 0.000456 0.002559 0.000664 0.032934 -0.010939 0.005213
# 5 -0.002334 0.003572 0.001930 -0.010939 0.043762 -0.006422
# 6 -0.009721 -0.008452 0.003620 0.005213 -0.006422 0.035314
#
#
# Mechanical properties :
#
#
# Convention : Reuss Voigt Hill
#
# Bulk Modulus (GPa) = 32.13479 60.29845 46.21662
# Shear Modulus (GPa) = 24.27333 32.27939 28.27636
#
# Velocity S-wave (km/s) = 3.55478 4.09931 3.83672
# Velocity P-wave (km/s) = 5.79463 7.33462 6.60963
#
# Compressibility (1/GPa) = 0.03111892
#
# Stress axis : x y z
#
# Youngs Moduli (GPa) = 40.08918 43.37265 106.82566
#
# Poissons Ratio (x) = 0.06550 0.47053
# Poissons Ratio (y) = 0.06054 0.76984
# Poissons Ratio (z) = 0.17658 0.31256
#
# Static dielectric constant tensor:
#      x y z
#    x 1.698930 -0.004400 -0.008800 
#    y -0.004400 1.657270 -0.029590 
#    z -0.008800 -0.029590 1.727360 
# 
# From -- ./inp_files/176160.got.cif
#   From: 2010.05.17/outbox.cif.g08.bks.cpg/sg2_89_cif.got.tgz:176160.got - 2010.06.03 11:33:40.
