data_PCOD9086396
_publ_section_title
;
Structure prediction by ZEFSAII (Michael W. Deem and Ramdas Pophale) SiO2 
 PCOD9086396
Probable space group: P -1
;
_chemical_formula_sum "Si O2"
_cell_formula_units_Z 14
_cell_length_a 12.709390
_cell_length_b 10.915163
_cell_length_c 13.128596
_cell_angle_alpha 42.066804
_cell_angle_beta 143.255599
_cell_angle_gamma 142.607618
_cell_volume 633.022657
_symmetry_space_group_name_H-M "P -1"
_symmetry_group_IT_number 2
_symmetry_cell_setting 'triclinic'
loop_
_space_group_symop_operation_xyz
x,y,z
-x,-y,-z
loop_
_atom_site_type_symbol
_atom_site_label
_atom_site_fract_x
_atom_site_fract_y
_atom_site_fract_z
Si Si1 0.453634 0.223156 0.635304
Si Si2 0.629692 0.696361 0.251901
Si Si3 0.926193 0.941863 0.698986
Si Si4 0.209273 0.569442 0.389483
Si Si5 0.095800 0.916381 0.044828
Si Si6 0.880484 0.327094 0.429989
Si Si7 0.518989 0.199525 0.113392
O O1 0.436708 0.279514 0.702308
O O2 0.667049 0.387952 0.645937
O O3 0.257195 0.193580 0.437666
O O4 0.452581 0.001469 0.765151
O O5 0.656407 0.490291 0.395673
O O6 0.851121 0.908585 0.272208
O O7 0.470613 0.682104 0.054534
O O8 0.863549 0.110766 0.587382
O O9 0.957502 0.824979 0.891974
O O10 0.170194 0.764975 0.245509
O O11 0.991021 0.378512 0.372406
O O12 0.295878 0.115302 0.034156
O O13 0.000000 0.000000 0.000000
O O14 0.673567 0.319948 0.248523
O O15 0.000000 0.500000 0.500000
#
# Coordination Sequence:
#
# PCOD9086396 Si02
#       7
#     2   2   2   2   2   2   2
#     4  10  19  36  58  82 113 147 179 227 274 320
#     4  10  19  37  57  82 114 145 179 228 274 321
#     4   9  20  35  56  82 109 146 190 216 267 344
#     4  10  22  35  54  85 112 138 188 230 269 325
#     4  10  20  38  57  79 110 146 184 231 274 319
#     4  10  20  38  57  79 111 145 181 230 274 319
#     4   9  21  37  58  83 108 147 190 214 268 346
#
# _framework density 22.116114
#
# number of rings (size 3 to 8) (size 9 to 14) (size 15 to 20)
#    0.000    2.286    0.000    2.143    0.000    2.286 
#    0.000   15.714    0.000    0.000    0.000    0.000 
#    0.000    0.000    0.000    0.000    0.000    0.000 
#
# Total GULP energy -78000.695040 kJ/mol
# GULP energy per Si atom -5571.478217 kJ/mol
# Density = 2.206578 g / cm^3
# Si number density = 22.116114 Si / 1000 Ang^3
#
#
#
# Elastic Constant Matrix: (Units=GPa)
#
#
# Indices 1 2 3 4 5 6 
#
# 1 103.0453 28.8704 56.5262 6.4599 0.5713 3.4410
# 2 28.8704 36.9742 34.3592 0.8645 -4.6890 -8.0048
# 3 56.5262 34.3592 127.3003 4.4578 -2.1699 -11.3465
# 4 6.4599 0.8645 4.4578 34.3034 2.6212 -0.2351
# 5 0.5713 -4.6890 -2.1699 2.6212 20.4417 -0.8378
# 6 3.4410 -8.0048 -11.3465 -0.2351 -0.8378 29.2831
#
#
#
# Elastic Compliance Matrix: (Units=1/GPa)
#
#
# Indices 1 2 3 4 5 6 
#
# 1 0.015265 -0.009095 -0.004870 -0.001822 -0.003053 -0.006269
# 2 -0.009095 0.043979 -0.006729 0.000791 0.009968 0.010775
# 3 -0.004870 -0.006729 0.012159 -0.000476 0.000085 0.003443
# 4 -0.001822 0.000791 -0.000476 0.029816 -0.003626 0.000381
# 5 -0.003053 0.009968 0.000085 -0.003626 0.051953 0.004574
# 6 -0.006269 0.010775 0.003443 0.000381 0.004574 0.039300
#
#
# Mechanical properties :
#
#
# Convention : Reuss Voigt Hill
#
# Bulk Modulus (GPa) = 33.31754 56.31461 44.81607
# Shear Modulus (GPa) = 20.50304 26.64323 23.57314
#
# Velocity S-wave (km/s) = 3.04808 3.47464 3.26832
# Velocity P-wave (km/s) = 5.24263 6.45104 5.87797
#
# Compressibility (1/GPa) = 0.03001422
#
# Stress axis : x y z
#
# Youngs Moduli (GPa) = 65.51002 22.73804 82.24171
#
# Poissons Ratio (x) = 0.20681 0.40055
# Poissons Ratio (y) = 0.59582 0.55341
# Poissons Ratio (z) = 0.31906 0.15301
#
# Static dielectric constant tensor:
#      x y z
#    x 1.816710 0.045460 -0.008780 
#    y 0.045460 1.846140 -0.011020 
#    z -0.008780 -0.011020 1.878830 
# 
# From -- ./inp_files/169256.got.cif
#   From: 2010.05.17/outbox.cif.g08.bks.cpg/sg2_85_cif.got.tgz:169256.got - 2010.06.03 11:33:40.
