data_PCOD9086305
_publ_section_title
;
Structure prediction by ZEFSAII (Michael W. Deem and Ramdas Pophale) SiO2 
 PCOD9086305
Probable space group: P -1
;
_chemical_formula_sum "Si O2"
_cell_formula_units_Z 16
_cell_length_a 14.881280
_cell_length_b 12.294972
_cell_length_c 7.257730
_cell_angle_alpha 132.942362
_cell_angle_beta 103.727864
_cell_angle_gamma 43.537948
_cell_volume 576.464393
_symmetry_space_group_name_H-M "P -1"
_symmetry_group_IT_number 2
_symmetry_cell_setting 'triclinic'
loop_
_space_group_symop_operation_xyz
x,y,z
-x,-y,-z
loop_
_atom_site_type_symbol
_atom_site_label
_atom_site_fract_x
_atom_site_fract_y
_atom_site_fract_z
Si Si1 0.629295 0.800300 0.184393
Si Si2 0.010329 0.809059 0.804103
Si Si3 0.946620 0.914659 0.292597
Si Si4 0.671720 0.714339 0.700925
Si Si5 0.831976 0.778804 0.758431
Si Si6 0.449543 0.428471 0.710152
Si Si7 0.780315 0.881253 0.289114
Si Si8 0.643522 0.432539 0.776271
O O1 0.770029 0.733980 0.207999
O O2 0.500000 0.000000 0.500000
O O3 0.593467 0.873928 0.034979
O O4 0.652781 0.595627 0.950155
O O5 0.153494 0.558950 0.478763
O O6 0.857286 0.904419 0.813440
O O7 0.000000 0.000000 0.000000
O O8 0.042775 0.747380 0.969621
O O9 0.779487 0.178091 0.447222
O O10 0.912428 0.831837 0.331925
O O11 0.000000 0.000000 0.500000
O O12 0.708737 0.807480 0.689973
O O13 0.611626 0.631643 0.504544
O O14 0.000000 0.500000 0.500000
O O15 0.801768 0.840353 0.031734
O O16 0.494863 0.528229 0.757405
O O17 0.611993 0.161508 0.559374
O O18 0.346358 0.593149 0.025767
#
# Coordination Sequence:
#
# PCOD9086305 Si02
#       8
#     2   2   2   2   2   2   2   2
#     4  11  21  38  56  84 119 158 184 233 296 337
#     4  10  19  36  57  85 115 145 189 242 294 329
#     4  10  20  37  62  83 109 154 196 230 284 352
#     4  10  21  36  60  84 114 150 201 234 277 357
#     4   8  17  33  53  77 108 148 180 226 283 334
#     4  10  20  37  57  83 113 154 193 233 285 344
#     4   9  19  36  58  78 115 150 187 231 287 341
#     4  10  21  37  58  82 121 151 185 239 294 335
#
# _framework density 27.755399000000001
#
# number of rings (size 3 to 8) (size 9 to 14) (size 15 to 20)
#    0.000    2.250    1.250    1.500    0.000    2.500 
#    0.000    3.125    0.000    0.000    0.000    0.000 
#    0.000    0.000    0.000    0.000    0.000    0.000 
#
# Total GULP energy -89352.437421 kJ/mol
# GULP energy per Si atom -5584.527339 kJ/mol
# Density = 2.769223 g / cm^3
# Si number density = 27.755399 Si / 1000 Ang^3
#
#
#
# Elastic Constant Matrix: (Units=GPa)
#
#
# Indices 1 2 3 4 5 6 
#
# 1 323.1659 23.2384 45.9622 -6.8557 42.9743 8.3681
# 2 23.2384 32.6166 10.9286 -8.1054 -1.1103 -1.2173
# 3 45.9622 10.9286 166.4762 -7.6227 3.8753 4.9361
# 4 -6.8557 -8.1054 -7.6227 30.9997 11.5211 -2.1316
# 5 42.9743 -1.1103 3.8753 11.5211 53.7908 2.7912
# 6 8.3681 -1.2173 4.9361 -2.1316 2.7912 38.1014
#
#
#
# Elastic Compliance Matrix: (Units=1/GPa)
#
#
# Indices 1 2 3 4 5 6 
#
# 1 0.003848 -0.002306 -0.000762 0.001256 -0.003310 -0.000508
# 2 -0.002306 0.034889 -0.001365 0.008128 0.000806 0.002194
# 3 -0.000762 -0.001365 0.006374 0.001022 -0.000065 -0.000640
# 4 0.001256 0.008128 0.001022 0.038557 -0.009307 0.002690
# 5 -0.003310 0.000806 -0.000065 -0.009307 0.023326 -0.001468
# 6 -0.000508 0.002194 -0.000640 0.002690 -0.001468 0.026768
#
#
# Mechanical properties :
#
#
# Convention : Reuss Voigt Hill
#
# Bulk Modulus (GPa) = 27.58975 75.83522 51.71249
# Shear Modulus (GPa) = 32.31853 54.05371 43.18612
#
# Velocity S-wave (km/s) = 3.41604 4.41784 3.94884
# Velocity P-wave (km/s) = 5.05183 7.30788 6.28196
#
# Compressibility (1/GPa) = 0.03624534
#
# Stress axis : x y z
#
# Youngs Moduli (GPa) = 259.84229 28.66244 156.88692
#
# Poissons Ratio (x) = 0.06610 0.11947
# Poissons Ratio (y) = 0.59926 0.21419
# Poissons Ratio (z) = 0.19787 0.03913
#
# Static dielectric constant tensor:
#      x y z
#    x 2.369340 -0.044790 0.075940 
#    y -0.044790 2.386020 -0.007560 
#    z 0.075940 -0.007560 2.054430 
# 
# From -- ./inp_files/274678.got.cif
#   From: 2010.05.17/outbox.cif.g08.bks.cpg/sg2_138_cif.got.tgz:274678.got - 2010.06.03 11:33:40.
