data_PCOD9086815
_publ_section_title
;
Structure prediction by ZEFSAII (Michael W. Deem and Ramdas Pophale) SiO2 
 PCOD9086815
Probable space group: P -1
;
_chemical_formula_sum "Si O2"
_cell_formula_units_Z 14
_cell_length_a 17.073582
_cell_length_b 10.883878
_cell_length_c 8.582516
_cell_angle_alpha 105.354582
_cell_angle_beta 128.055418
_cell_angle_gamma 34.448598
_cell_volume 594.791722
_symmetry_space_group_name_H-M "P -1"
_symmetry_group_IT_number 2
_symmetry_cell_setting 'triclinic'
loop_
_space_group_symop_operation_xyz
x,y,z
-x,-y,-z
loop_
_atom_site_type_symbol
_atom_site_label
_atom_site_fract_x
_atom_site_fract_y
_atom_site_fract_z
Si Si1 0.138116 0.067863 0.697428
Si Si2 0.756869 0.919473 0.503231
Si Si3 0.060409 0.505930 0.230361
Si Si4 0.633091 0.595161 0.953943
Si Si5 0.071765 0.034860 0.204883
Si Si6 0.316770 0.428957 0.643338
Si Si7 0.596740 0.405468 0.284653
O O1 0.123226 0.195494 0.848554
O O2 0.911696 0.264172 0.495077
O O3 0.177534 0.097803 0.592029
O O4 0.299680 0.774489 0.802569
O O5 0.518033 0.164466 0.268052
O O6 0.794845 0.993159 0.695859
O O7 0.887269 0.654849 0.626023
O O8 0.259340 0.376369 0.441928
O O9 0.000000 0.500000 0.000000
O O10 0.564781 0.521596 0.840661
O O11 0.603259 0.684963 0.121872
O O12 0.865593 0.334180 0.106313
O O13 0.216840 0.810630 0.436719
O O14 0.000000 0.000000 0.000000
O O15 0.442932 0.401973 0.715194
#
# Coordination Sequence:
#
# PCOD9086815 Si02
#       7
#     2   2   2   2   2   2   2
#     4   8  18  34  61  84 114 156 203 237 296 342
#     4  10  21  39  59  88 117 159 209 245 291 364
#     4  10  22  36  61  89 120 163 202 243 309 358
#     4  10  20  37  61  91 116 152 205 249 296 356
#     4  10  21  36  62  87 118 164 190 245 308 358
#     4  10  19  36  60  89 120 155 202 248 299 348
#     4  10  20  35  60  93 118 151 203 253 298 345
#
# _framework density 23.537652000000001
#
# number of rings (size 3 to 8) (size 9 to 14) (size 15 to 20)
#    0.857    1.714    2.857    1.286    2.000    2.857 
#    0.000    1.429    6.286    4.286    0.000    0.000 
#    0.000    0.000    0.000    0.000    0.000    0.000 
#
# Total GULP energy -77951.620066 kJ/mol
# GULP energy per Si atom -5567.972862 kJ/mol
# Density = 2.348408 g / cm^3
# Si number density = 23.537652 Si / 1000 Ang^3
#
#
#
# Elastic Constant Matrix: (Units=GPa)
#
#
# Indices 1 2 3 4 5 6 
#
# 1 40.3954 11.2008 19.5767 1.7061 -0.3040 15.2100
# 2 11.2008 70.3570 41.1090 18.4190 -3.5722 18.9738
# 3 19.5767 41.1090 146.1754 20.9904 17.5104 8.1102
# 4 1.7061 18.4190 20.9904 49.9021 7.7176 9.2499
# 5 -0.3040 -3.5722 17.5104 7.7176 21.6164 -1.1403
# 6 15.2100 18.9738 8.1102 9.2499 -1.1403 26.1393
#
#
#
# Elastic Compliance Matrix: (Units=1/GPa)
#
#
# Indices 1 2 3 4 5 6 
#
# 1 0.034378 0.002307 -0.004874 0.003608 0.002400 -0.021338
# 2 0.002307 0.023282 -0.006604 -0.004878 0.010231 -0.014021
# 3 -0.004874 -0.006604 0.010339 -0.001199 -0.008871 0.004460
# 4 0.003608 -0.004878 -0.001199 0.025007 -0.009104 -0.007433
# 5 0.002400 0.010231 -0.008871 -0.009104 0.058406 -0.000301
# 6 -0.021338 -0.014021 0.004460 -0.007433 -0.000301 0.062083
#
#
# Mechanical properties :
#
#
# Convention : Reuss Voigt Hill
#
# Bulk Modulus (GPa) = 20.13861 44.52231 32.33046
# Shear Modulus (GPa) = 20.12967 31.86764 25.99865
#
# Velocity S-wave (km/s) = 2.92757 3.68353 3.32709
# Velocity P-wave (km/s) = 4.47237 6.08668 5.34086
#
# Compressibility (1/GPa) = 0.04965586
#
# Stress axis : x y z
#
# Youngs Moduli (GPa) = 29.08837 42.95155 96.72512
#
# Poissons Ratio (x) = -0.09909 0.47149
# Poissons Ratio (y) = -0.06710 0.63875
# Poissons Ratio (z) = 0.14179 0.28364
#
# Static dielectric constant tensor:
#      x y z
#    x 1.904170 -0.027000 -0.008360 
#    y -0.027000 1.934340 0.021030 
#    z -0.008360 0.021030 1.992910 
# 
# From -- ./inp_files/333411.got.cif
#   From: 2010.05.17/outbox.cif.g08.bks.cpg/sg2_167_cif.got.tgz:333411.got - 2010.06.03 11:33:40.
