data_PCOD9086107
_publ_section_title
;
Structure prediction by ZEFSAII (Michael W. Deem and Ramdas Pophale) SiO2 
 PCOD9086107
Probable space group: P -1
;
_chemical_formula_sum "Si O2"
_cell_formula_units_Z 14
_cell_length_a 8.901253
_cell_length_b 8.865315
_cell_length_c 13.116363
_cell_angle_alpha 141.142885
_cell_angle_beta 97.604086
_cell_angle_gamma 89.842915
_cell_volume 635.227909
_symmetry_space_group_name_H-M "P -1"
_symmetry_group_IT_number 2
_symmetry_cell_setting 'triclinic'
loop_
_space_group_symop_operation_xyz
x,y,z
-x,-y,-z
loop_
_atom_site_type_symbol
_atom_site_label
_atom_site_fract_x
_atom_site_fract_y
_atom_site_fract_z
Si Si1 0.219371 0.131458 0.689299
Si Si2 0.147177 0.973620 0.065845
Si Si3 0.926430 0.223205 0.822125
Si Si4 0.539481 0.747696 0.821537
Si Si5 0.538777 0.117721 0.319016
Si Si6 0.622151 0.368003 0.066200
Si Si7 0.652162 0.963431 0.555276
O O1 0.303931 0.923342 0.636017
O O2 0.316092 0.393888 0.866785
O O3 0.049929 0.119700 0.708739
O O4 0.241633 0.135108 0.571464
O O5 0.229045 0.734713 0.928066
O O6 0.101427 0.934971 0.159847
O O7 0.282797 0.196849 0.166680
O O8 0.000000 0.000000 0.000000
O O9 0.764642 0.195736 0.734159
O O10 0.000000 0.500000 0.000000
O O11 0.487085 0.573596 0.819909
O O12 0.446964 0.713570 0.689872
O O13 0.500000 0.000000 0.000000
O O14 0.421006 0.178622 0.426203
O O15 0.461188 0.854565 0.126663
O O16 0.500000 0.000000 0.500000
#
# Coordination Sequence:
#
# PCOD9086107 Si02
#       7
#     2   2   2   2   2   2   2
#     4  11  22  32  58  89 117 151 188 246 298 341
#     4  10  20  35  56  86 117 149 196 245 298 329
#     4  12  22  39  62  89 120 149 201 248 287 351
#     4   8  17  33  55  75 114 149 195 238 282 341
#     4   9  17  36  57  81 112 157 196 233 290 344
#     4  10  19  36  54  87 117 147 204 240 283 348
#     4  10  21  40  58  84 124 159 190 238 300 351
#
# _framework density 22.039335000000001
#
# number of rings (size 3 to 8) (size 9 to 14) (size 15 to 20)
#    0.000    2.286    4.286    0.857    6.000    1.143 
#    0.000    0.714    0.000    0.857    0.000    0.000 
#    0.000    0.000    0.000    0.000    0.000    0.000 
#
# Total GULP energy -78009.917231 kJ/mol
# GULP energy per Si atom -5572.136945 kJ/mol
# Density = 2.198917 g / cm^3
# Si number density = 22.039335 Si / 1000 Ang^3
#
#
#
# Elastic Constant Matrix: (Units=GPa)
#
#
# Indices 1 2 3 4 5 6 
#
# 1 143.1128 60.4885 34.4658 -20.7483 -9.3043 12.9418
# 2 60.4885 78.9957 30.8689 -18.1730 -0.2463 12.7103
# 3 34.4658 30.8689 83.2184 -17.7813 -8.8297 2.9529
# 4 -20.7483 -18.1730 -17.7813 34.6950 14.2429 -8.0551
# 5 -9.3043 -0.2463 -8.8297 14.2429 41.9927 -20.7841
# 6 12.9418 12.7103 2.9529 -8.0551 -20.7841 39.8318
#
#
#
# Elastic Compliance Matrix: (Units=1/GPa)
#
#
# Indices 1 2 3 4 5 6 
#
# 1 0.010712 -0.007464 -0.001236 0.001182 0.001738 0.000139
# 2 -0.007464 0.022982 -0.004585 0.006996 -0.008651 -0.007668
# 3 -0.001236 -0.004585 0.015339 0.004197 0.003075 0.003181
# 4 0.001182 0.006996 0.004197 0.040438 -0.013390 -0.001736
# 5 0.001738 -0.008651 0.003075 -0.013390 0.039057 0.019640
# 6 0.000139 -0.007668 0.003181 -0.001736 0.019640 0.037168
#
#
# Mechanical properties :
#
#
# Convention : Reuss Voigt Hill
#
# Bulk Modulus (GPa) = 44.51599 61.88592 53.20095
# Shear Modulus (GPa) = 25.03091 35.27082 30.15086
#
# Velocity S-wave (km/s) = 3.37373 4.00479 3.70273
# Velocity P-wave (km/s) = 5.95133 7.03741 6.51703
#
# Compressibility (1/GPa) = 0.02246384
#
# Stress axis : x y z
#
# Youngs Moduli (GPa) = 93.35549 43.51207 65.19278
#
# Poissons Ratio (x) = 0.32479 0.08055
# Poissons Ratio (y) = 0.69685 0.29888
# Poissons Ratio (z) = 0.11535 0.19948
#
# Static dielectric constant tensor:
#      x y z
#    x 1.820360 0.018240 -0.015770 
#    y 0.018240 1.889610 0.021880 
#    z -0.015770 0.021880 1.894260 
# 
# From -- ./inp_files/380667.got.cif
#   From: 2010.05.17/outbox.cif.g08.bks.cpg/sg2_191_cif.got.tgz:380667.got - 2010.06.03 11:33:40.
