data_PCOD9086074
_publ_section_title
;
Structure prediction by ZEFSAII (Michael W. Deem and Ramdas Pophale) SiO2 
 PCOD9086074
Probable space group: P -1
;
_chemical_formula_sum "Si O2"
_cell_formula_units_Z 16
_cell_length_a 9.003425
_cell_length_b 18.568396
_cell_length_c 9.471265
_cell_angle_alpha 106.864446
_cell_angle_beta 51.381246
_cell_angle_gamma 71.044290
_cell_volume 871.787500
_symmetry_space_group_name_H-M "P -1"
_symmetry_group_IT_number 2
_symmetry_cell_setting 'triclinic'
loop_
_space_group_symop_operation_xyz
x,y,z
-x,-y,-z
loop_
_atom_site_type_symbol
_atom_site_label
_atom_site_fract_x
_atom_site_fract_y
_atom_site_fract_z
Si Si1 0.780273 0.703679 0.078388
Si Si2 0.914354 0.748563 0.582475
Si Si3 0.671145 0.885097 0.070905
Si Si4 0.251641 0.199081 0.595543
Si Si5 0.087552 0.075986 0.589631
Si Si6 0.337166 0.749709 0.237073
Si Si7 0.125285 0.392890 0.300218
Si Si8 0.174172 0.004558 0.802551
O O1 0.733886 0.793009 0.069050
O O2 0.868488 0.704131 0.180323
O O3 0.502501 0.736579 0.262802
O O4 0.952478 0.606732 0.815950
O O5 0.746491 0.782738 0.560249
O O6 0.937711 0.662665 0.598225
O O7 0.177672 0.718699 0.357915
O O8 0.780449 0.841483 0.825216
O O9 0.795960 0.921678 0.100304
O O10 0.364788 0.981798 0.305873
O O11 0.101514 0.160479 0.673199
O O12 0.536299 0.105872 0.432492
O O13 0.063986 0.038913 0.729359
O O14 0.860264 0.135782 0.644393
O O15 0.564394 0.679138 0.945479
O O16 0.000000 0.500000 0.500000
O O17 0.000000 0.000000 0.000000
#
# Coordination Sequence:
#
# PCOD9086074 Si02
#       8
#     2   2   2   2   2   2   2   2
#     4   9  18  37  58  79 109 150 185 227 287 326
#     4  10  22  37  60  85 112 148 191 234 273 339
#     4  10  19  36  53  77 118 159 190 220 277 320
#     4  10  19  37  51  78 116 149 187 226 277 318
#     4  10  19  36  53  76 119 154 189 230 264 325
#     4   9  22  35  59  86 108 147 189 231 280 330
#     4   9  21  41  62  83 110 142 185 239 297 341
#     4  11  22  28  52  82 118 159 192 223 266 329
#
# _framework density 18.353097000000002
#
# number of rings (size 3 to 8) (size 9 to 14) (size 15 to 20)
#    0.750    1.500    2.500    0.750    3.500    5.500 
#    0.000    0.625    0.000    3.000    0.000    0.000 
#    0.000    0.000    0.000    0.000    0.000    0.000 
#
# Total GULP energy -89104.816214 kJ/mol
# GULP energy per Si atom -5569.051013 kJ/mol
# Density = 1.831132 g / cm^3
# Si number density = 18.353097 Si / 1000 Ang^3
#
#
#
# Elastic Constant Matrix: (Units=GPa)
#
#
# Indices 1 2 3 4 5 6 
#
# 1 40.8563 15.7891 28.6166 -1.0162 15.7951 9.9121
# 2 15.7891 56.7240 35.5679 -11.3586 2.0092 16.8729
# 3 28.6166 35.5679 77.4566 -9.3658 10.7378 15.3028
# 4 -1.0162 -11.3586 -9.3658 31.5589 7.3252 7.2857
# 5 15.7951 2.0092 10.7378 7.3252 34.8144 -3.9978
# 6 9.9121 16.8729 15.3028 7.2857 -3.9978 23.5518
#
#
#
# Elastic Compliance Matrix: (Units=1/GPa)
#
#
# Indices 1 2 3 4 5 6 
#
# 1 0.043300 0.002241 -0.008892 0.009256 -0.021337 -0.020536
# 2 0.002241 0.033686 -0.007862 0.017728 -0.007331 -0.026696
# 3 -0.008892 -0.007862 0.023028 0.006867 -0.005043 -0.008568
# 4 0.009256 0.017728 0.006867 0.055738 -0.023932 -0.042362
# 5 -0.021337 -0.007331 -0.005043 -0.023932 0.049239 0.033271
# 6 -0.020536 -0.026696 -0.008568 -0.042362 0.033271 0.094547
#
#
# Mechanical properties :
#
#
# Convention : Reuss Voigt Hill
#
# Bulk Modulus (GPa) = 14.08705 37.22046 25.65375
# Shear Modulus (GPa) = 14.19542 24.32258 19.25900
#
# Velocity S-wave (km/s) = 2.78414 3.64436 3.24290
# Velocity P-wave (km/s) = 4.24587 6.16707 5.29434
#
# Compressibility (1/GPa) = 0.07098717
#
# Stress axis : x y z
#
# Youngs Moduli (GPa) = 23.09495 29.68605 43.42544
#
# Poissons Ratio (x) = -0.06652 0.38613
# Poissons Ratio (y) = -0.05175 0.34142
# Poissons Ratio (z) = 0.20535 0.23339
#
# Static dielectric constant tensor:
#      x y z
#    x 1.685340 0.011880 0.029750 
#    y 0.011880 1.631040 0.001180 
#    z 0.029750 0.001180 1.665830 
# 
# From -- ./inp_files/217983.got.cif
#   From: 2010.05.17/outbox.cif.g08.bks.cpg/sg2_109_cif.got.tgz:217983.got - 2010.06.03 11:33:40.
