data_PCOD9086549
_publ_section_title
;
Structure prediction by ZEFSAII (Michael W. Deem and Ramdas Pophale) SiO2 
 PCOD9086549
Probable space group: P -1
;
_chemical_formula_sum "Si O2"
_cell_formula_units_Z 16
_cell_length_a 14.746272
_cell_length_b 7.926576
_cell_length_c 15.529102
_cell_angle_alpha 151.343496
_cell_angle_beta 51.536273
_cell_angle_gamma 136.706534
_cell_volume 596.145375
_symmetry_space_group_name_H-M "P -1"
_symmetry_group_IT_number 2
_symmetry_cell_setting 'triclinic'
loop_
_space_group_symop_operation_xyz
x,y,z
-x,-y,-z
loop_
_atom_site_type_symbol
_atom_site_label
_atom_site_fract_x
_atom_site_fract_y
_atom_site_fract_z
Si Si1 0.357099 0.509588 0.284203
Si Si2 0.177948 0.452171 0.020070
Si Si3 0.998811 0.479657 0.714509
Si Si4 0.261036 0.587666 0.655035
Si Si5 0.136915 0.646626 0.437768
Si Si6 0.293892 0.545530 0.806219
Si Si7 0.568725 0.500593 0.049329
Si Si8 0.462228 0.538161 0.417697
O O1 0.209617 0.378842 0.282379
O O2 0.442372 0.320721 0.107062
O O3 0.367941 0.476364 0.364278
O O4 0.438673 0.981532 0.421157
O O5 0.234548 0.586586 0.950442
O O6 0.313141 0.608548 0.066937
O O7 0.083092 0.602729 0.185632
O O8 0.084625 0.967109 0.864880
O O9 0.895257 0.312554 0.623166
O O10 0.117011 0.371382 0.601462
O O11 0.247141 0.661650 0.797492
O O12 0.363771 0.417554 0.503308
O O13 0.341310 0.032196 0.766263
O O14 0.000000 0.500000 0.500000
O O15 0.226329 0.063030 0.619537
O O16 0.448078 0.666473 0.750903
O O17 0.500000 0.500000 0.000000
#
# Coordination Sequence:
#
# PCOD9086549 Si02
#       8
#     2   2   2   2   2   2   2   2
#     4   9  17  29  56  82 103 137 183 233 268 315
#     4  10  20  37  59  80 112 151 191 226 275 330
#     4  10  21  37  55  82 114 153 190 228 266 332
#     4  10  22  36  57  82 117 146 180 227 288 332
#     4  11  20  33  57  86 111 144 195 230 268 323
#     4  11  21  36  59  85 113 150 181 231 285 329
#     4  10  19  36  59  82 104 143 191 229 269 332
#     4   9  17  33  55  82 108 139 183 227 280 327
#
# _framework density 26.839092000000001
#
# number of rings (size 3 to 8) (size 9 to 14) (size 15 to 20)
#    0.000    2.000    2.500    1.875    3.500    1.000 
#    0.000    0.625    2.750    0.000    0.000    0.000 
#    0.000    0.000    0.000    0.000    0.000    0.000 
#
# Total GULP energy -89463.720759 kJ/mol
# GULP energy per Si atom -5591.482547 kJ/mol
# Density = 2.677800 g / cm^3
# Si number density = 26.839092 Si / 1000 Ang^3
#
#
#
# Elastic Constant Matrix: (Units=GPa)
#
#
# Indices 1 2 3 4 5 6 
#
# 1 118.3480 22.5200 43.2131 -34.5517 -9.9791 28.5911
# 2 22.5200 132.2947 39.2172 -45.6902 -8.5680 18.5017
# 3 43.2131 39.2172 126.0177 -44.5662 -11.8966 12.8460
# 4 -34.5517 -45.6902 -44.5662 49.3455 -6.5632 -5.4334
# 5 -9.9791 -8.5680 -11.8966 -6.5632 45.2655 -11.0568
# 6 28.5911 18.5017 12.8460 -5.4334 -11.0568 41.5747
#
#
#
# Elastic Compliance Matrix: (Units=1/GPa)
#
#
# Indices 1 2 3 4 5 6 
#
# 1 0.013679 0.003194 -0.000409 0.011670 0.003169 -0.008334
# 2 0.003194 0.012977 0.001269 0.015425 0.004470 -0.005159
# 3 -0.000409 0.001269 0.012929 0.013121 0.005160 -0.001192
# 4 0.011670 0.015425 0.013121 0.055746 0.015161 -0.007627
# 5 0.003169 0.004470 0.005160 0.015161 0.028092 0.003690
# 6 -0.008334 -0.005159 -0.001192 -0.007627 0.003690 0.032433
#
#
# Mechanical properties :
#
#
# Convention : Reuss Voigt Hill
#
# Bulk Modulus (GPa) = 20.96708 65.17344 43.07026
# Shear Modulus (GPa) = 30.55376 45.35114 37.95245
#
# Velocity S-wave (km/s) = 3.37769 4.11511 3.76450
# Velocity P-wave (km/s) = 4.80008 6.84942 5.91419
#
# Compressibility (1/GPa) = 0.04769381
#
# Stress axis : x y z
#
# Youngs Moduli (GPa) = 73.10612 77.05762 77.34277
#
# Poissons Ratio (x) = -0.24611 0.03162
# Poissons Ratio (y) = -0.23349 -0.09817
# Poissons Ratio (z) = 0.02989 -0.09780
#
# Static dielectric constant tensor:
#      x y z
#    x 2.083920 -0.022040 0.035140 
#    y -0.022040 2.161190 0.088170 
#    z 0.035140 0.088170 2.291550 
# 
# From -- ./inp_files/200246.got.cif
#   From: 2010.05.17/outbox.cif.g08.bks.cpg/sg2_101_cif.got.tgz:200246.got - 2010.06.03 11:33:40.
