data_PCOD9086540
_publ_section_title
;
Structure prediction by ZEFSAII (Michael W. Deem and Ramdas Pophale) SiO2 
 PCOD9086540
Probable space group: P -1
;
_chemical_formula_sum "Si O2"
_cell_formula_units_Z 16
_cell_length_a 12.347738
_cell_length_b 8.728503
_cell_length_c 9.872306
_cell_angle_alpha 56.387666
_cell_angle_beta 91.692213
_cell_angle_gamma 90.978663
_cell_volume 885.723107
_symmetry_space_group_name_H-M "P -1"
_symmetry_group_IT_number 2
_symmetry_cell_setting 'triclinic'
loop_
_space_group_symop_operation_xyz
x,y,z
-x,-y,-z
loop_
_atom_site_type_symbol
_atom_site_label
_atom_site_fract_x
_atom_site_fract_y
_atom_site_fract_z
Si Si1 0.839047 0.999877 0.476710
Si Si2 0.493292 0.689279 0.481394
Si Si3 0.348041 0.993894 0.745216
Si Si4 0.025094 0.284122 0.943529
Si Si5 0.289926 0.937445 0.306129
Si Si6 0.985607 0.708659 0.741454
Si Si7 0.181017 0.975887 0.994537
Si Si8 0.472223 0.172883 0.312153
O O1 0.730442 0.981118 0.397671
O O2 0.898526 0.805819 0.593241
O O3 0.809316 0.069007 0.591034
O O4 0.913260 0.152216 0.334210
O O5 0.500000 0.500000 0.500000
O O6 0.572523 0.831377 0.336902
O O7 0.373050 0.773269 0.421682
O O8 0.527155 0.671531 0.649981
O O9 0.429622 0.826495 0.792077
O O10 0.270157 0.979192 0.877669
O O11 0.012870 0.500100 0.803524
O O12 0.911957 0.175650 0.966724
O O13 0.050533 0.284416 0.105871
O O14 0.116094 0.168213 0.922764
O O15 0.244802 0.935447 0.155145
O O16 0.361754 0.119273 0.258329
O O17 0.500000 0.000000 0.500000
#
# Coordination Sequence:
#
# PCOD9086540 Si02
#       8
#     2   2   2   2   2   2   2   2
#     4  11  18  37  64  84 104 161 204 225 276 356
#     4  10  20  34  57  90 118 133 187 254 282 324
#     4  10  19  36  59  80 111 155 191 222 289 348
#     4  10  22  39  52  85 126 147 188 249 298 326
#     4  10  19  36  59  80 111 155 191 222 289 348
#     4  10  22  35  60  85 112 155 199 240 284 348
#     4  11  22  37  58  82 118 159 186 239 292 340
#     4   8  16  34  55  78 107 144 182 227 278 336
#
# _framework density 18.064337999999999
#
# number of rings (size 3 to 8) (size 9 to 14) (size 15 to 20)
#    0.000    2.250    6.250    0.000    0.000    4.000 
#    0.000    1.250    0.000    1.500    0.000    0.000 
#    0.000    0.000    0.000    0.000    0.000    0.000 
#
# Total GULP energy -89100.769698 kJ/mol
# GULP energy per Si atom -5568.798106 kJ/mol
# Density = 1.802322 g / cm^3
# Si number density = 18.064338 Si / 1000 Ang^3
#
#
#
# Elastic Constant Matrix: (Units=GPa)
#
#
# Indices 1 2 3 4 5 6 
#
# 1 27.6139 -9.5026 5.5443 1.7801 -12.2300 -11.1677
# 2 -9.5026 91.1747 20.1668 2.8186 -2.0776 -11.2969
# 3 5.5443 20.1668 55.2417 8.3409 -11.9922 -7.4045
# 4 1.7801 2.8186 8.3409 32.1878 -3.4137 1.4823
# 5 -12.2300 -2.0776 -11.9922 -3.4137 27.0609 15.9498
# 6 -11.1677 -11.2969 -7.4045 1.4823 15.9498 21.3362
#
#
#
# Elastic Compliance Matrix: (Units=1/GPa)
#
#
# Indices 1 2 3 4 5 6 
#
# 1 0.055174 0.010237 -0.003407 -0.003573 0.007321 0.027892
# 2 0.010237 0.015227 -0.005516 -0.001949 -0.006715 0.016661
# 3 -0.003407 -0.005516 0.022680 -0.003968 0.009935 -0.003985
# 4 -0.003573 -0.001949 -0.003968 0.033943 0.008350 -0.012880
# 5 0.007321 -0.006715 0.009935 0.008350 0.077494 -0.054786
# 6 0.027892 0.016661 -0.003985 -0.012880 -0.054786 0.110756
#
#
# Mechanical properties :
#
#
# Convention : Reuss Voigt Hill
#
# Bulk Modulus (GPa) = 10.44853 22.93860 16.69356
# Shear Modulus (GPa) = 14.51175 26.63844 20.57509
#
# Velocity S-wave (km/s) = 2.83739 3.84427 3.37855
# Velocity P-wave (km/s) = 4.06584 5.69477 4.94780
#
# Compressibility (1/GPa) = 0.09570725
#
# Stress axis : x y z
#
# Youngs Moduli (GPa) = 18.12464 65.67413 44.09180
#
# Poissons Ratio (x) = -0.67232 0.15024
# Poissons Ratio (y) = -0.18555 0.24322
# Poissons Ratio (z) = 0.06176 0.36228
#
# Static dielectric constant tensor:
#      x y z
#    x 1.637960 -0.019500 -0.008470 
#    y -0.019500 1.659180 0.011790 
#    z -0.008470 0.011790 1.635960 
# 
# From -- ./inp_files/237164.got.cif
#   From: 2010.05.17/outbox.cif.g08.bks.cpg/sg2_119_cif.got.tgz:237164.got - 2010.06.03 11:33:40.
