data_PCOD9086268
_publ_section_title
;
Structure prediction by ZEFSAII (Michael W. Deem and Ramdas Pophale) SiO2 
 PCOD9086268
Probable space group: P -1
;
_chemical_formula_sum "Si O2"
_cell_formula_units_Z 16
_cell_length_a 11.534015
_cell_length_b 10.183352
_cell_length_c 16.838967
_cell_angle_alpha 34.887170
_cell_angle_beta 142.055002
_cell_angle_gamma 134.589405
_cell_volume 686.999173
_symmetry_space_group_name_H-M "P -1"
_symmetry_group_IT_number 2
_symmetry_cell_setting 'triclinic'
loop_
_space_group_symop_operation_xyz
x,y,z
-x,-y,-z
loop_
_atom_site_type_symbol
_atom_site_label
_atom_site_fract_x
_atom_site_fract_y
_atom_site_fract_z
Si Si1 0.957204 0.351613 0.767701
Si Si2 0.980473 0.199366 0.182807
Si Si3 0.488517 0.690428 0.495996
Si Si4 0.357259 0.333003 0.247989
Si Si5 0.013169 0.148779 0.513514
Si Si6 0.435712 0.810263 0.991379
Si Si7 0.024322 0.109002 0.081358
Si Si8 0.437310 0.175299 0.695952
O O1 0.732402 0.327961 0.638594
O O2 0.050511 0.605552 0.662135
O O3 0.024086 0.139344 0.862602
O O4 0.986074 0.300362 0.901569
O O5 0.797526 0.251939 0.105286
O O6 0.166615 0.384524 0.169221
O O7 0.913575 0.107805 0.104982
O O8 0.061406 0.000735 0.376212
O O9 0.525558 0.763633 0.570391
O O10 0.549744 0.433111 0.645424
O O11 0.593093 0.844217 0.405098
O O12 0.246241 0.170208 0.200659
O O13 0.482820 0.560368 0.165691
O O14 0.242269 0.195159 0.627143
O O15 0.000000 0.000000 0.500000
O O16 0.504718 0.946543 0.880809
O O17 0.500000 0.000000 0.000000
#
# Coordination Sequence:
#
# PCOD9086268 Si02
#       8
#     2   2   2   2   2   2   2   2
#     4  10  22  40  61  82 118 161 201 242 289 353
#     4   9  22  36  57  90 117 154 194 241 294 348
#     4  10  19  36  57  82 118 152 193 243 294 350
#     4  10  21  37  57  86 119 152 199 241 293 349
#     4  10  20  34  59  88 118 147 192 246 299 343
#     4  11  20  33  57  87 124 152 190 243 298 347
#     4   9  23  41  58  83 114 166 202 236 289 354
#     4   9  20  31  50  87 118 150 186 235 304 349
#
# _framework density 23.289694000000001
#
# number of rings (size 3 to 8) (size 9 to 14) (size 15 to 20)
#    0.750    1.500    1.250    1.125    5.250    2.000 
#    0.000    0.000    0.000    0.750    0.000    0.000 
#    0.000    0.000    0.000    0.000    0.000    0.000 
#
# Total GULP energy -89139.767185 kJ/mol
# GULP energy per Si atom -5571.235449 kJ/mol
# Density = 2.323669 g / cm^3
# Si number density = 23.289694 Si / 1000 Ang^3
#
#
#
# Elastic Constant Matrix: (Units=GPa)
#
#
# Indices 1 2 3 4 5 6 
#
# 1 31.1225 5.6344 33.8204 -3.5465 -18.6447 -2.8264
# 2 5.6344 78.5708 47.6583 6.5437 -15.3470 -12.0114
# 3 33.8204 47.6583 170.5439 -4.0499 -53.5949 -5.8065
# 4 -3.5465 6.5437 -4.0499 49.2518 5.8186 -4.7405
# 5 -18.6447 -15.3470 -53.5949 5.8186 43.9767 4.7531
# 6 -2.8264 -12.0114 -5.8065 -4.7405 4.7531 24.4082
#
#
#
# Elastic Compliance Matrix: (Units=1/GPa)
#
#
# Indices 1 2 3 4 5 6 
#
# 1 0.046109 0.003139 -0.005761 0.001186 0.013122 0.003189
# 2 0.003139 0.016840 -0.004911 -0.001826 0.000709 0.006990
# 3 -0.005761 -0.004911 0.011469 -0.000242 0.010109 -0.002371
# 4 0.001186 -0.001826 -0.000242 0.021441 -0.003706 0.004067
# 5 0.013122 0.000709 0.010109 -0.003706 0.041857 -0.004598
# 6 0.003189 0.006990 -0.002371 0.004067 -0.004598 0.045900
#
#
# Mechanical properties :
#
#
# Convention : Reuss Voigt Hill
#
# Bulk Modulus (GPa) = 16.84836 50.49594 33.67215
# Shear Modulus (GPa) = 22.88693 36.40228 29.64460
#
# Velocity S-wave (km/s) = 3.13822 3.95779 3.57159
# Velocity P-wave (km/s) = 4.51455 6.52796 5.61228
#
# Compressibility (1/GPa) = 0.05935295
#
# Stress axis : x y z
#
# Youngs Moduli (GPa) = 21.68794 59.38142 87.19256
#
# Poissons Ratio (x) = -0.18643 0.50228
# Poissons Ratio (y) = -0.06809 0.42822
# Poissons Ratio (z) = 0.12494 0.29164
#
# Static dielectric constant tensor:
#      x y z
#    x 1.938810 0.047340 0.021400 
#    y 0.047340 1.934670 0.008000 
#    z 0.021400 0.008000 1.999030 
# 
# From -- ./inp_files/568146.got.cif
#   From: 2010.05.17/outbox.cif.g08.bks.cpg/sg2_285_cif.got.tgz:568146.got - 2010.06.03 11:33:40.
