data_PCOD9086103
_publ_section_title
;
Structure prediction by ZEFSAII (Michael W. Deem and Ramdas Pophale) SiO2 
 PCOD9086103
Probable space group: P -1
;
_chemical_formula_sum "Si O2"
_cell_formula_units_Z 16
_cell_length_a 13.660770
_cell_length_b 14.090914
_cell_length_c 14.422098
_cell_angle_alpha 123.738670
_cell_angle_beta 54.772327
_cell_angle_gamma 159.426682
_cell_volume 795.755047
_symmetry_space_group_name_H-M "P -1"
_symmetry_group_IT_number 2
_symmetry_cell_setting 'triclinic'
loop_
_space_group_symop_operation_xyz
x,y,z
-x,-y,-z
loop_
_atom_site_type_symbol
_atom_site_label
_atom_site_fract_x
_atom_site_fract_y
_atom_site_fract_z
Si Si1 0.530380 0.477771 0.330840
Si Si2 0.050251 0.943355 0.797357
Si Si3 0.913284 0.017764 0.417144
Si Si4 0.380140 0.778007 0.984966
Si Si5 0.390946 0.242330 0.088253
Si Si6 0.986608 0.590496 0.192306
Si Si7 0.583004 0.848547 0.666755
Si Si8 0.582358 0.441772 0.899447
O O1 0.801468 0.791004 0.370176
O O2 0.517801 0.429351 0.203469
O O3 0.491398 0.331853 0.334597
O O4 0.248183 0.308847 0.412837
O O5 0.892610 0.932625 0.880268
O O6 0.841135 0.673306 0.813478
O O7 0.117932 0.982062 0.674129
O O8 0.323417 0.173088 0.835811
O O9 0.729897 0.939255 0.540432
O O10 0.186140 0.652016 0.107984
O O11 0.625275 0.899198 0.939815
O O12 0.175811 0.546311 0.892726
O O13 0.500000 0.000000 0.000000
O O14 0.592412 0.400885 0.974862
O O15 0.725525 0.358070 0.280674
O O16 0.190329 0.873928 0.254897
O O17 0.500000 0.500000 0.000000
#
# Coordination Sequence:
#
# PCOD9086103 Si02
#       8
#     2   2   2   2   2   2   2   2
#     4  11  21  34  51  86 115 148 192 228 274 358
#     4  10  21  38  54  86 119 144 193 234 275 348
#     4  11  22  35  56  80 112 156 189 235 282 335
#     4  11  22  42  57  86 119 154 191 239 285 341
#     4  10  20  35  61  84 118 160 177 230 304 336
#     4  11  23  39  56  79 115 149 194 242 267 336
#     4  12  22  39  55  79 114 157 193 234 283 327
#     4  10  19  36  54  85 115 148 185 234 280 353
#
# _framework density 20.106691999999999
#
# number of rings (size 3 to 8) (size 9 to 14) (size 15 to 20)
#    0.000    1.250    2.500    6.000    0.000    2.000 
#   13.500    0.000    0.000    0.000    0.000    5.250 
#    0.000    0.000    0.000    0.000    0.000    0.000 
#
# Total GULP energy -89307.217585 kJ/mol
# GULP energy per Si atom -5581.701099 kJ/mol
# Density = 2.006093 g / cm^3
# Si number density = 20.106692 Si / 1000 Ang^3
#
#
#
# Elastic Constant Matrix: (Units=GPa)
#
#
# Indices 1 2 3 4 5 6 
#
# 1 65.4993 -13.0826 31.8314 -10.1902 -11.9686 -5.9616
# 2 -13.0826 159.7915 37.3627 -3.4766 21.0389 -8.3937
# 3 31.8314 37.3627 130.6651 -27.2221 5.2068 -9.4743
# 4 -10.1902 -3.4766 -27.2221 35.9214 -1.6610 -1.9134
# 5 -11.9686 21.0389 5.2068 -1.6610 29.9902 -9.8721
# 6 -5.9616 -8.3937 -9.4743 -1.9134 -9.8721 21.8282
#
#
#
# Elastic Compliance Matrix: (Units=1/GPa)
#
#
# Indices 1 2 3 4 5 6 
#
# 1 0.021621 0.001970 -0.004765 0.003794 0.011639 0.010191
# 2 0.001970 0.007561 -0.002633 -0.000865 -0.003967 0.000433
# 3 -0.004765 -0.002633 0.011274 0.007061 -0.000667 0.002897
# 4 0.003794 -0.000865 0.007061 0.034966 0.005970 0.009533
# 5 0.011639 -0.003967 -0.000667 0.005970 0.049158 0.024119
# 6 0.010191 0.000433 0.002897 0.009533 0.024119 0.061763
#
#
# Mechanical properties :
#
#
# Convention : Reuss Voigt Hill
#
# Bulk Modulus (GPa) = 33.78243 52.01988 42.90115
# Shear Modulus (GPa) = 24.14695 37.53758 30.84226
#
# Velocity S-wave (km/s) = 3.46922 4.32547 3.92079
# Velocity P-wave (km/s) = 5.73458 7.13263 6.47147
#
# Compressibility (1/GPa) = 0.02960119
#
# Stress axis : x y z
#
# Youngs Moduli (GPa) = 46.25169 132.25463 88.69682
#
# Poissons Ratio (x) = -0.26050 0.42261
# Poissons Ratio (y) = -0.09110 0.23350
# Poissons Ratio (z) = 0.22037 0.34818
#
# Static dielectric constant tensor:
#      x y z
#    x 1.728680 -0.008610 0.012480 
#    y -0.008610 1.759220 -0.044680 
#    z 0.012480 -0.044680 1.762050 
# 
# From -- ./inp_files/534370.got.cif
#   From: 2010.05.17/outbox.cif.g08.bks.cpg/sg2_268_cif.got.tgz:534370.got - 2010.06.03 11:33:40.
