data_PCOD9086307
_publ_section_title
;
Structure prediction by ZEFSAII (Michael W. Deem and Ramdas Pophale) SiO2 
 PCOD9086307
Probable space group: P -1
;
_chemical_formula_sum "Si O2"
_cell_formula_units_Z 16
_cell_length_a 16.398878
_cell_length_b 8.272506
_cell_length_c 8.137067
_cell_angle_alpha 76.085689
_cell_angle_beta 53.343038
_cell_angle_gamma 107.259855
_cell_volume 708.983456
_symmetry_space_group_name_H-M "P -1"
_symmetry_group_IT_number 2
_symmetry_cell_setting 'triclinic'
loop_
_space_group_symop_operation_xyz
x,y,z
-x,-y,-z
loop_
_atom_site_type_symbol
_atom_site_label
_atom_site_fract_x
_atom_site_fract_y
_atom_site_fract_z
Si Si1 0.511166 0.398275 0.275186
Si Si2 0.989471 0.625376 0.624354
Si Si3 0.588138 0.195814 0.457206
Si Si4 0.767605 0.667205 0.806287
Si Si5 0.552698 0.827697 0.097506
Si Si6 0.152068 0.739154 0.906659
Si Si7 0.200470 0.990743 0.104299
Si Si8 0.719941 0.918441 0.568212
O O1 0.553888 0.351572 0.403177
O O2 0.511735 0.596968 0.207666
O O3 0.377571 0.212055 0.428089
O O4 0.631479 0.460075 0.005594
O O5 0.875692 0.637546 0.706686
O O6 0.000000 0.500000 0.500000
O O7 0.112961 0.845266 0.393162
O O8 0.956764 0.490638 0.860376
O O9 0.555873 0.163559 0.697842
O O10 0.725679 0.264401 0.237100
O O11 0.500000 0.000000 0.500000
O O12 0.773672 0.799069 0.612677
O O13 0.777210 0.795644 0.926376
O O14 0.626900 0.908801 0.818426
O O15 0.664760 0.963117 0.056014
O O16 0.174817 0.865675 0.683507
O O17 0.149073 0.877167 0.021646
#
# Coordination Sequence:
#
# PCOD9086307 Si02
#       8
#     2   2   2   2   2   2   2   2
#     4  10  19  36  57  85 117 152 190 230 277 354
#     4  10  21  38  63  85 108 148 202 244 276 328
#     4  12  20  33  58  84 121 150 192 235 283 340
#     4  10  20  37  61  85 112 152 193 231 290 340
#     4  10  21  35  56  86 115 155 188 231 288 342
#     4  11  21  37  56  87 117 151 190 241 284 333
#     4   9  19  37  60  83 109 151 198 237 273 339
#     4  10  21  37  57  85 127 150 183 232 292 355
#
# _framework density 22.567522
#
# number of rings (size 3 to 8) (size 9 to 14) (size 15 to 20)
#    0.000    2.000    3.750    2.250    0.000    1.500 
#    0.000    5.000    5.500    0.000    0.000    0.000 
#    0.000    0.000    0.000    0.000    0.000    0.000 
#
# Total GULP energy -89107.047063 kJ/mol
# GULP energy per Si atom -5569.190441 kJ/mol
# Density = 2.251616 g / cm^3
# Si number density = 22.567522 Si / 1000 Ang^3
#
#
#
# Elastic Constant Matrix: (Units=GPa)
#
#
# Indices 1 2 3 4 5 6 
#
# 1 49.7586 25.1569 17.5681 -6.6626 14.9793 -22.3194
# 2 25.1569 50.1603 34.6536 1.5683 -10.3641 -10.9640
# 3 17.5681 34.6536 155.9152 -14.4067 12.0396 -8.6740
# 4 -6.6626 1.5683 -14.4067 42.4766 0.8731 -5.0597
# 5 14.9793 -10.3641 12.0396 0.8731 39.9352 -8.6598
# 6 -22.3194 -10.9640 -8.6740 -5.0597 -8.6598 29.9015
#
#
#
# Elastic Compliance Matrix: (Units=1/GPa)
#
#
# Indices 1 2 3 4 5 6 
#
# 1 0.056229 -0.031983 0.005708 0.015696 -0.025568 0.027151
# 2 -0.031983 0.048569 -0.010521 -0.011311 0.027346 -0.003110
# 3 0.005708 -0.010521 0.009216 0.004769 -0.007375 0.001747
# 4 0.015696 -0.011311 0.004769 0.029585 -0.008409 0.011523
# 5 -0.025568 0.027346 -0.007375 -0.008409 0.044173 0.000173
# 6 0.027151 -0.003110 0.001747 0.011523 0.000173 0.055076
#
#
# Mechanical properties :
#
#
# Convention : Reuss Voigt Hill
#
# Bulk Modulus (GPa) = 24.73871 45.62126 35.17999
# Shear Modulus (GPa) = 15.15551 34.35968 24.75759
#
# Velocity S-wave (km/s) = 2.59426 3.90619 3.31576
# Velocity P-wave (km/s) = 4.46760 6.37211 5.50288
#
# Compressibility (1/GPa) = 0.04042247
#
# Stress axis : x y z
#
# Youngs Moduli (GPa) = 17.78452 20.58929 108.50217
#
# Poissons Ratio (x) = 0.65850 -0.61932
# Poissons Ratio (y) = 0.56880 1.14155
# Poissons Ratio (z) = -0.10151 0.21662
#
# Static dielectric constant tensor:
#      x y z
#    x 1.867350 0.004480 0.062990 
#    y 0.004480 1.859690 -0.046500 
#    z 0.062990 -0.046500 1.916960 
# 
# From -- ./inp_files/328693.got.cif
#   From: 2010.05.17/outbox.cif.g08.bks.cpg/sg2_165_cif.got.tgz:328693.got - 2010.06.03 11:33:40.
