data_PCOD9086470
_publ_section_title
;
Structure prediction by ZEFSAII (Michael W. Deem and Ramdas Pophale) SiO2 
 PCOD9086470
Probable space group: P -1
;
_chemical_formula_sum "Si O2"
_cell_formula_units_Z 16
_cell_length_a 13.722397
_cell_length_b 8.604120
_cell_length_c 9.935129
_cell_angle_alpha 91.982884
_cell_angle_beta 61.338733
_cell_angle_gamma 52.904190
_cell_volume 727.798759
_symmetry_space_group_name_H-M "P -1"
_symmetry_group_IT_number 2
_symmetry_cell_setting 'triclinic'
loop_
_space_group_symop_operation_xyz
x,y,z
-x,-y,-z
loop_
_atom_site_type_symbol
_atom_site_label
_atom_site_fract_x
_atom_site_fract_y
_atom_site_fract_z
Si Si1 0.733607 0.038954 0.629564
Si Si2 0.296455 0.429269 0.701964
Si Si3 0.550932 0.847861 0.138810
Si Si4 0.782150 0.192396 0.350441
Si Si5 0.718042 0.701483 0.586353
Si Si6 0.873142 0.643125 0.880227
Si Si7 0.952503 0.757933 0.074797
Si Si8 0.985060 0.224303 0.391172
O O1 0.706239 0.162090 0.515946
O O2 0.784706 0.810503 0.556545
O O3 0.877295 0.972968 0.611554
O O4 0.573376 0.162339 0.822070
O O5 0.400286 0.255615 0.746150
O O6 0.300693 0.326031 0.558889
O O7 0.330945 0.571154 0.637804
O O8 0.118980 0.614288 0.884677
O O9 0.450915 0.105313 0.227772
O O10 0.710102 0.724347 0.951356
O O11 0.865215 0.998766 0.182521
O O12 0.915655 0.164009 0.335989
O O13 0.833652 0.458395 0.564376
O O14 0.999688 0.388057 0.829683
O O15 0.935340 0.710704 0.740300
O O16 0.848782 0.757852 0.042205
#
# Coordination Sequence:
#
# PCOD9086470 Si02
#       8
#     2   2   2   2   2   2   2   2
#     4  10  23  37  57  83 120 155 193 226 281 338
#     4  10  19  36  58  87 120 143 189 238 292 343
#     4   9  22  35  58  88 119 144 185 244 290 335
#     4  11  22  34  60  88 115 152 190 236 286 334
#     4   9  19  36  58  87 108 151 188 239 281 328
#     4  10  20  36  63  85 113 147 192 243 284 331
#     4  10  20  35  59  92 113 143 191 244 289 333
#     4  11  21  39  61  84 114 154 200 231 268 345
#
# _framework density 21.984100000000002
#
# number of rings (size 3 to 8) (size 9 to 14) (size 15 to 20)
#    0.750    1.250    2.500    2.250    3.500    1.000 
#    0.000    1.250    0.000    3.000    0.000    0.000 
#    0.000    0.000    0.000    0.000    0.000    0.000 
#
# Total GULP energy -89252.504946 kJ/mol
# GULP energy per Si atom -5578.281559 kJ/mol
# Density = 2.193406 g / cm^3
# Si number density = 21.984100 Si / 1000 Ang^3
#
#
#
# Elastic Constant Matrix: (Units=GPa)
#
#
# Indices 1 2 3 4 5 6 
#
# 1 67.2209 23.6174 8.4160 16.1244 -5.8946 2.1450
# 2 23.6174 62.1048 4.2749 0.0576 2.2325 -6.7141
# 3 8.4160 4.2749 30.9111 1.8560 -6.8788 -2.2169
# 4 16.1244 0.0576 1.8560 22.1872 1.6750 -0.6328
# 5 -5.8946 2.2325 -6.8788 1.6750 23.1267 3.3861
# 6 2.1450 -6.7141 -2.2169 -0.6328 3.3861 32.5624
#
#
#
# Elastic Compliance Matrix: (Units=1/GPa)
#
#
# Indices 1 2 3 4 5 6 
#
# 1 0.023735 -0.009660 -0.002583 -0.017769 0.008223 -0.004932
# 2 -0.009660 0.020720 -0.001713 0.007749 -0.006354 0.005603
# 3 -0.002583 -0.001713 0.035732 -0.001836 0.010098 0.001164
# 4 -0.017769 0.007749 -0.001836 0.059076 -0.010822 0.004917
# 5 0.008223 -0.006354 0.010098 -0.010822 0.050710 -0.006648
# 6 -0.004932 0.005603 0.001164 0.004917 -0.006648 0.033057
#
#
# Mechanical properties :
#
#
# Convention : Reuss Voigt Hill
#
# Bulk Modulus (GPa) = 19.12972 25.87259 22.50115
# Shear Modulus (GPa) = 18.63130 23.83714 21.23422
#
# Velocity S-wave (km/s) = 2.91433 3.29643 3.11125
# Velocity P-wave (km/s) = 4.47715 5.12669 4.81289
#
# Compressibility (1/GPa) = 0.05227469
#
# Stress axis : x y z
#
# Youngs Moduli (GPa) = 42.13273 48.26184 27.98624
#
# Poissons Ratio (x) = 0.46622 0.07229
# Poissons Ratio (y) = 0.40701 0.04793
# Poissons Ratio (z) = 0.10883 0.08266
#
# Static dielectric constant tensor:
#      x y z
#    x 1.830010 -0.043120 -0.039540 
#    y -0.043120 1.844610 -0.036930 
#    z -0.039540 -0.036930 1.824750 
# 
# From -- ./inp_files/445974.got.cif
#   From: 2010.05.17/outbox.cif.g08.bks.cpg/sg2_223_cif.got.tgz:445974.got - 2010.06.03 11:33:40.
