data_PCOD9086534
_publ_section_title
;
Structure prediction by ZEFSAII (Michael W. Deem and Ramdas Pophale) SiO2 
 PCOD9086534
Probable space group: P -1
;
_chemical_formula_sum "Si O2"
_cell_formula_units_Z 16
_cell_length_a 10.585573
_cell_length_b 11.976909
_cell_length_c 8.374599
_cell_angle_alpha 116.597833
_cell_angle_beta 61.260431
_cell_angle_gamma 103.069244
_cell_volume 832.357409
_symmetry_space_group_name_H-M "P -1"
_symmetry_group_IT_number 2
_symmetry_cell_setting 'triclinic'
loop_
_space_group_symop_operation_xyz
x,y,z
-x,-y,-z
loop_
_atom_site_type_symbol
_atom_site_label
_atom_site_fract_x
_atom_site_fract_y
_atom_site_fract_z
Si Si1 0.647345 0.531291 0.021006
Si Si2 0.435064 0.895907 0.848384
Si Si3 0.383282 0.742000 0.060857
Si Si4 0.265534 0.270013 0.135895
Si Si5 0.130850 0.179097 0.485584
Si Si6 0.360709 0.240088 0.602940
Si Si7 0.821539 0.082032 0.554217
Si Si8 0.731616 0.952183 0.219699
O O1 0.608873 0.629477 0.246458
O O2 0.500000 0.500000 0.000000
O O3 0.687301 0.394834 0.970011
O O4 0.749199 0.603643 0.877892
O O5 0.548218 0.806373 0.632853
O O6 0.348165 0.962496 0.804239
O O7 0.342598 0.805093 0.958845
O O8 0.500000 0.000000 0.000000
O O9 0.319662 0.835049 0.290580
O O10 0.558747 0.742137 0.963296
O O11 0.196569 0.249300 0.337179
O O12 0.200451 0.157072 0.997073
O O13 0.196164 0.245264 0.644316
O O14 0.960608 0.165238 0.563689
O O15 0.181442 0.035087 0.395162
O O16 0.373435 0.129096 0.652809
O O17 0.828646 0.027108 0.335681
#
# Coordination Sequence:
#
# PCOD9086534 Si02
#       8
#     2   2   2   2   2   2   2   2
#     4   9  22  37  54  84 114 149 191 244 276 321
#     4  12  20  31  56  88 116 141 184 234 285 342
#     4  11  21  37  54  83 116 148 188 240 280 321
#     4  10  19  36  59  79 114 149 192 231 279 339
#     4  10  20  40  57  86 113 151 186 231 292 343
#     4  10  20  35  58  81 113 154 187 227 287 341
#     4  10  23  35  58  84 122 145 182 238 288 343
#     4  10  20  31  54  88 112 146 182 231 292 337
#
# _framework density 19.222511999999998
#
# number of rings (size 3 to 8) (size 9 to 14) (size 15 to 20)
#    0.000    1.750    2.500    2.625    5.250    1.000 
#    0.000    3.750    0.000    0.000    0.000    0.000 
#    0.000    0.000    0.000    0.000    0.000    0.000 
#
# Total GULP energy -89110.620003 kJ/mol
# GULP energy per Si atom -5569.413750 kJ/mol
# Density = 1.917876 g / cm^3
# Si number density = 19.222512 Si / 1000 Ang^3
#
#
#
# Elastic Constant Matrix: (Units=GPa)
#
#
# Indices 1 2 3 4 5 6 
#
# 1 62.7947 28.8131 23.4255 -0.8064 19.3181 7.0011
# 2 28.8131 118.4569 33.9664 -7.6971 12.8404 -14.4141
# 3 23.4255 33.9664 55.3077 -2.1497 25.1325 -0.0412
# 4 -0.8064 -7.6971 -2.1497 28.4942 0.3972 9.9330
# 5 19.3181 12.8404 25.1325 0.3972 27.5758 -2.6090
# 6 7.0011 -14.4141 -0.0412 9.9330 -2.6090 27.9222
#
#
#
# Elastic Compliance Matrix: (Units=1/GPa)
#
#
# Indices 1 2 3 4 5 6 
#
# 1 0.024701 -0.005605 0.000553 0.003602 -0.016376 -0.011898
# 2 -0.005605 0.012484 -0.008231 -0.000501 0.006438 0.008618
# 3 0.000553 -0.008231 0.037366 0.004094 -0.031495 -0.008732
# 4 0.003602 -0.000501 0.004094 0.041272 -0.008187 -0.016603
# 5 -0.016376 0.006438 -0.031495 -0.008187 0.075198 0.017322
# 6 -0.011898 0.008618 -0.008732 -0.016603 0.017322 0.050758
#
#
# Mechanical properties :
#
#
# Convention : Reuss Voigt Hill
#
# Bulk Modulus (GPa) = 20.84080 45.44102 33.14091
# Shear Modulus (GPa) = 17.58450 26.82205 22.20328
#
# Velocity S-wave (km/s) = 3.02783 3.73949 3.40231
# Velocity P-wave (km/s) = 4.80511 6.50660 5.71948
#
# Compressibility (1/GPa) = 0.04798281
#
# Stress axis : x y z
#
# Youngs Moduli (GPa) = 40.48371 80.10452 26.76242
#
# Poissons Ratio (x) = 0.44901 -0.01479
# Poissons Ratio (y) = 0.22693 0.22029
# Poissons Ratio (z) = -0.02237 0.65936
#
# Static dielectric constant tensor:
#      x y z
#    x 1.717310 -0.038350 0.005820 
#    y -0.038350 1.738360 -0.012040 
#    z 0.005820 -0.012040 1.714870 
# 
# From -- ./inp_files/254811.got.cif
#   From: 2010.05.17/outbox.cif.g08.bks.cpg/sg2_128_cif.got.tgz:254811.got - 2010.06.03 11:33:40.
