data_PCOD9086585
_publ_section_title
;
Structure prediction by ZEFSAII (Michael W. Deem and Ramdas Pophale) SiO2 
 PCOD9086585
Probable space group: P -1
;
_chemical_formula_sum "Si O2"
_cell_formula_units_Z 14
_cell_length_a 13.212156
_cell_length_b 10.606725
_cell_length_c 9.275270
_cell_angle_alpha 56.569102
_cell_angle_beta 78.483811
_cell_angle_gamma 36.484222
_cell_volume 562.141374
_symmetry_space_group_name_H-M "P -1"
_symmetry_group_IT_number 2
_symmetry_cell_setting 'triclinic'
loop_
_space_group_symop_operation_xyz
x,y,z
-x,-y,-z
loop_
_atom_site_type_symbol
_atom_site_label
_atom_site_fract_x
_atom_site_fract_y
_atom_site_fract_z
Si Si1 0.435805 0.218633 0.487633
Si Si2 0.115496 0.522180 0.719701
Si Si3 0.718689 0.078506 0.652663
Si Si4 0.742562 0.970082 0.042102
Si Si5 0.897393 0.289014 0.934794
Si Si6 0.917488 0.125324 0.606764
Si Si7 0.593414 0.791724 0.914285
O O1 0.577363 0.183059 0.507998
O O2 0.251162 0.529903 0.270412
O O3 0.500000 0.000000 0.500000
O O4 0.454240 0.097015 0.704835
O O5 0.123901 0.343098 0.771123
O O6 0.104353 0.668741 0.514204
O O7 0.305619 0.309947 0.898097
O O8 0.931159 0.769322 0.724019
O O9 0.730738 0.244275 0.575996
O O10 0.692431 0.038646 0.842875
O O11 0.890940 0.923319 0.049271
O O12 0.544163 0.186811 0.050565
O O13 0.777965 0.553141 0.904810
O O14 0.946202 0.101356 0.159266
O O15 0.000000 0.000000 0.500000
#
# Coordination Sequence:
#
# PCOD9086585 Si02
#       7
#     2   2   2   2   2   2   2
#     4  10  21  34  57  85 116 148 186 233 283 335
#     4  11  18  34  60  88 118 136 191 244 274 331
#     4  10  19  36  59  85 110 154 187 228 289 326
#     4  11  21  34  64  88 108 148 191 239 282 319
#     4  10  21  41  58  82 122 148 186 232 282 342
#     4   9  18  35  62  79 113 154 184 233 281 327
#     4  11  20  34  61  90 112 140 194 238 283 321
#
# _framework density 24.904765999999999
#
# number of rings (size 3 to 8) (size 9 to 14) (size 15 to 20)
#    0.000    1.714    5.714    2.571    0.000    0.571 
#    0.000    5.714    3.143    0.857    0.000    0.000 
#    0.000    0.000    0.000    0.000    0.000    0.000 
#
# Total GULP energy -78076.474031 kJ/mol
# GULP energy per Si atom -5576.891002 kJ/mol
# Density = 2.484808 g / cm^3
# Si number density = 24.904766 Si / 1000 Ang^3
#
#
#
# Elastic Constant Matrix: (Units=GPa)
#
#
# Indices 1 2 3 4 5 6 
#
# 1 66.2921 28.1267 52.2920 6.3603 20.4189 -16.3917
# 2 28.1267 63.3344 12.7681 -0.0718 16.7049 -13.5032
# 3 52.2920 12.7681 203.7815 7.4281 22.1252 -18.3967
# 4 6.3603 -0.0718 7.4281 32.8894 -6.8589 -6.1342
# 5 20.4189 16.7049 22.1252 -6.8589 56.5805 -8.5898
# 6 -16.3917 -13.5032 -18.3967 -6.1342 -8.5898 42.5144
#
#
#
# Elastic Compliance Matrix: (Units=1/GPa)
#
#
# Indices 1 2 3 4 5 6 
#
# 1 0.025183 -0.008221 -0.004980 -0.004108 -0.004695 0.003402
# 2 -0.008221 0.020715 0.001412 0.001367 -0.002987 0.003615
# 3 -0.004980 0.001412 0.006312 -0.000483 -0.000996 0.000989
# 4 -0.004108 0.001367 -0.000483 0.033443 0.006033 0.004686
# 5 -0.004695 -0.002987 -0.000996 0.006033 0.021684 0.002062
# 6 0.003402 0.003615 0.000989 0.004686 0.002062 0.027502
#
#
# Mechanical properties :
#
#
# Convention : Reuss Voigt Hill
#
# Bulk Modulus (GPa) = 34.92541 57.75352 46.33946
# Shear Modulus (GPa) = 29.76896 42.41159 36.09028
#
# Velocity S-wave (km/s) = 3.46108 4.13116 3.81088
# Velocity P-wave (km/s) = 5.47961 6.78199 6.16529
#
# Compressibility (1/GPa) = 0.02863245
#
# Stress axis : x y z
#
# Youngs Moduli (GPa) = 39.70999 48.27341 158.43480
#
# Poissons Ratio (x) = 0.39683 0.78907
# Poissons Ratio (y) = 0.32644 -0.22376
# Poissons Ratio (z) = 0.19777 -0.06818
#
# Static dielectric constant tensor:
#      x y z
#    x 2.038460 0.025300 -0.039100 
#    y 0.025300 2.097190 0.000590 
#    z -0.039100 0.000590 1.947860 
# 
# From -- ./inp_files/312148.got.cif
#   From: 2010.05.17/outbox.cif.g08.bks.cpg/sg2_157_cif.got.tgz:312148.got - 2010.06.03 11:33:40.
