data_PCOD9086652
_publ_section_title
;
Structure prediction by ZEFSAII (Michael W. Deem and Ramdas Pophale) SiO2 
 PCOD9086652
Probable space group: P -1
;
_chemical_formula_sum "Si O2"
_cell_formula_units_Z 16
_cell_length_a 13.313358
_cell_length_b 23.262590
_cell_length_c 13.291213
_cell_angle_alpha 32.775137
_cell_angle_beta 28.068155
_cell_angle_gamma 25.906545
_cell_volume 823.710109
_symmetry_space_group_name_H-M "P -1"
_symmetry_group_IT_number 2
_symmetry_cell_setting 'triclinic'
loop_
_space_group_symop_operation_xyz
x,y,z
-x,-y,-z
loop_
_atom_site_type_symbol
_atom_site_label
_atom_site_fract_x
_atom_site_fract_y
_atom_site_fract_z
Si Si1 0.589590 0.965542 0.629790
Si Si2 0.309363 0.895095 0.840016
Si Si3 0.849947 0.785517 0.234726
Si Si4 0.576003 0.829249 0.214167
Si Si5 0.296420 0.398245 0.338933
Si Si6 0.429832 0.621591 0.064216
Si Si7 0.818574 0.895695 0.743619
Si Si8 0.417240 0.648856 0.645759
O O1 0.530675 0.879268 0.743253
O O2 0.796848 0.898479 0.638533
O O3 0.665430 0.037570 0.380471
O O4 0.302749 0.073406 0.781837
O O5 0.382038 0.749444 0.971045
O O6 0.000000 0.000000 0.000000
O O7 0.806039 0.798120 0.135484
O O8 0.678733 0.735653 0.495399
O O9 0.154843 0.685237 0.150239
O O10 0.586161 0.699919 0.385483
O O11 0.299916 0.956614 0.324933
O O12 0.614976 0.874258 0.007804
O O13 0.517659 0.370695 0.263463
O O14 0.000000 0.500000 0.500000
O O15 0.332161 0.438097 0.140534
O O16 0.492002 0.495987 0.256808
O O17 0.113627 0.771414 0.703124
#
# Coordination Sequence:
#
# PCOD9086652 Si02
#       8
#     2   2   2   2   2   2   2   2
#     4  10  22  42  64  89 117 155 209 261 304 348
#     4  11  23  41  66  91 114 156 213 267 304 343
#     4  10  19  36  59  90 122 157 199 246 298 359
#     4   9  21  37  58  87 126 164 198 234 293 371
#     4  11  22  35  54  88 130 164 191 237 298 370
#     4  12  23  36  61  92 122 160 201 254 309 356
#     4  10  21  40  59  86 122 164 201 241 298 365
#     4  11  23  34  58  90 125 159 194 237 299 376
#
# _framework density 19.424309000000001
#
# number of rings (size 3 to 8) (size 9 to 14) (size 15 to 20)
#    0.000    1.500    3.750    1.500    3.500    1.000 
#    2.250    0.625    0.000    1.500    0.000    0.000 
#    0.000    0.000    0.000    0.000    0.000    0.000 
#
# Total GULP energy -89211.179186 kJ/mol
# GULP energy per Si atom -5575.698699 kJ/mol
# Density = 1.938010 g / cm^3
# Si number density = 19.424309 Si / 1000 Ang^3
#
#
#
# Elastic Constant Matrix: (Units=GPa)
#
#
# Indices 1 2 3 4 5 6 
#
# 1 101.0246 55.9562 39.4921 -6.4199 -3.8276 -0.6176
# 2 55.9562 118.4975 39.2019 -13.0122 -14.9455 -2.0213
# 3 39.4921 39.2019 69.2042 -15.5581 5.4876 15.5905
# 4 -6.4199 -13.0122 -15.5581 42.7262 1.0406 -13.7929
# 5 -3.8276 -14.9455 5.4876 1.0406 26.3664 -3.2136
# 6 -0.6176 -2.0213 15.5905 -13.7929 -3.2136 33.2360
#
#
#
# Elastic Compliance Matrix: (Units=1/GPa)
#
#
# Indices 1 2 3 4 5 6 
#
# 1 0.015300 -0.004756 -0.007014 -0.000731 0.001394 0.003117
# 2 -0.004756 0.014728 -0.007170 0.002972 0.009807 0.006352
# 3 -0.007014 -0.007170 0.027109 0.002610 -0.012461 -0.013404
# 4 -0.000731 0.002972 0.002610 0.028657 0.001239 0.010955
# 5 0.001394 0.009807 -0.012461 0.001239 0.047646 0.011589
# 6 0.003117 0.006352 -0.013404 0.010955 0.011589 0.042487
#
#
# Mechanical properties :
#
#
# Convention : Reuss Voigt Hill
#
# Bulk Modulus (GPa) = 51.92727 62.00298 56.96512
# Shear Modulus (GPa) = 22.70403 30.73745 26.72074
#
# Velocity S-wave (km/s) = 3.42255 3.98228 3.71298
# Velocity P-wave (km/s) = 6.51227 7.28933 6.91173
#
# Compressibility (1/GPa) = 0.01925770
#
# Stress axis : x y z
#
# Youngs Moduli (GPa) = 65.35900 67.89643 36.88835
#
# Poissons Ratio (x) = 0.32290 0.25874
# Poissons Ratio (y) = 0.31083 0.26448
# Poissons Ratio (z) = 0.45844 0.48680
#
# Static dielectric constant tensor:
#      x y z
#    x 1.694970 0.013020 -0.014040 
#    y 0.013020 1.747130 -0.016970 
#    z -0.014040 -0.016970 1.715730 
# 
# From -- ./inp_files/427697.got.cif
#   From: 2010.05.17/outbox.cif.g08.bks.cpg/sg2_214_cif.got.tgz:427697.got - 2010.06.03 11:33:40.
