data_PCOD9086524
_publ_section_title
;
Structure prediction by ZEFSAII (Michael W. Deem and Ramdas Pophale) SiO2 
 PCOD9086524
Probable space group: P -1
;
_chemical_formula_sum "Si O2"
_cell_formula_units_Z 16
_cell_length_a 12.441086
_cell_length_b 12.288854
_cell_length_c 11.867953
_cell_angle_alpha 51.633509
_cell_angle_beta 81.015250
_cell_angle_gamma 122.417758
_cell_volume 809.485450
_symmetry_space_group_name_H-M "P -1"
_symmetry_group_IT_number 2
_symmetry_cell_setting 'triclinic'
loop_
_space_group_symop_operation_xyz
x,y,z
-x,-y,-z
loop_
_atom_site_type_symbol
_atom_site_label
_atom_site_fract_x
_atom_site_fract_y
_atom_site_fract_z
Si Si1 0.561944 0.883197 0.173368
Si Si2 0.935792 0.236124 0.763033
Si Si3 0.589828 0.689458 0.460120
Si Si4 0.616816 0.566322 0.108077
Si Si5 0.296109 0.654395 0.158563
Si Si6 0.531790 0.758122 0.866694
Si Si7 0.874070 0.304995 0.498538
Si Si8 0.015588 0.018225 0.850316
O O1 0.534522 0.784583 0.362466
O O2 0.394038 0.697327 0.229013
O O3 0.751144 0.006724 0.013309
O O4 0.615674 0.100366 0.031307
O O5 0.851569 0.246582 0.672369
O O6 0.084260 0.486398 0.645998
O O7 0.022005 0.190960 0.720435
O O8 0.500000 0.500000 0.500000
O O9 0.511661 0.571788 0.670824
O O10 0.809646 0.881921 0.292749
O O11 0.543935 0.379349 0.149897
O O12 0.615564 0.714314 0.950637
O O13 0.827214 0.761917 0.991503
O O14 0.071338 0.439938 0.342035
O O15 0.364521 0.638363 0.051026
O O16 0.692116 0.043573 0.642037
O O17 0.000000 0.000000 0.000000
#
# Coordination Sequence:
#
# PCOD9086524 Si02
#       8
#     2   2   2   2   2   2   2   2
#     4  10  20  37  58  94 126 148 203 258 300 351
#     4  10  19  36  58  97 121 150 199 252 306 342
#     4  12  24  37  61  91 123 158 201 253 304 359
#     4  11  26  42  61  90 122 166 200 248 304 367
#     4  10  21  36  64  90 118 161 198 251 307 353
#     4  11  23  44  61  85 130 157 205 249 299 370
#     4  10  21  34  63  90 122 154 197 256 297 352
#     4  12  22  39  63  89 128 158 197 249 308 360
#
# _framework density 19.765644000000002
#
# number of rings (size 3 to 8) (size 9 to 14) (size 15 to 20)
#    0.000    1.250    5.000    0.750    5.250    1.000 
#    0.000    3.125    0.000    2.250    0.000    0.000 
#    0.000    0.000    0.000    0.000    0.000    0.000 
#
# Total GULP energy -89358.184765 kJ/mol
# GULP energy per Si atom -5584.886548 kJ/mol
# Density = 1.972066 g / cm^3
# Si number density = 19.765644 Si / 1000 Ang^3
#
#
#
# Elastic Constant Matrix: (Units=GPa)
#
#
# Indices 1 2 3 4 5 6 
#
# 1 66.1713 27.9404 25.6978 -3.8863 -12.4228 5.2526
# 2 27.9404 127.1403 51.8424 -4.4944 -16.2933 7.0886
# 3 25.6978 51.8424 91.6643 -8.5788 -18.5044 12.1130
# 4 -3.8863 -4.4944 -8.5788 28.5299 -1.0522 1.0512
# 5 -12.4228 -16.2933 -18.5044 -1.0522 34.6721 0.8715
# 6 5.2526 7.0886 12.1130 1.0512 0.8715 22.8819
#
#
#
# Elastic Compliance Matrix: (Units=1/GPa)
#
#
# Indices 1 2 3 4 5 6 
#
# 1 0.018097 -0.002229 -0.002498 0.001606 0.004212 -0.002375
# 2 -0.002229 0.010618 -0.005070 -0.000095 0.001486 -0.000146
# 3 -0.002498 -0.005070 0.017119 0.004508 0.006181 -0.007361
# 4 0.001606 -0.000095 0.004508 0.036933 0.004172 -0.004581
# 5 0.004212 0.001486 0.006181 0.004172 0.034630 -0.006210
# 6 -0.002375 -0.000146 -0.007361 -0.004581 -0.006210 0.048637
#
#
# Mechanical properties :
#
#
# Convention : Reuss Voigt Hill
#
# Bulk Modulus (GPa) = 38.11044 55.10411 46.60727
# Shear Modulus (GPa) = 25.72341 29.18314 27.45328
#
# Velocity S-wave (km/s) = 3.61143 3.84664 3.73089
# Velocity P-wave (km/s) = 6.05912 6.90421 6.49542
#
# Compressibility (1/GPa) = 0.02623953
#
# Stress axis : x y z
#
# Youngs Moduli (GPa) = 55.25651 94.18279 58.41348
#
# Poissons Ratio (x) = 0.20998 0.14593
# Poissons Ratio (y) = 0.12319 0.29614
# Poissons Ratio (z) = 0.13805 0.47748
#
# Static dielectric constant tensor:
#      x y z
#    x 1.850040 -0.011500 0.000990 
#    y -0.011500 1.667690 -0.023960 
#    z 0.000990 -0.023960 1.779680 
# 
# From -- ./inp_files/427573.got.cif
#   From: 2010.05.17/outbox.cif.g08.bks.cpg/sg2_214_cif.got.tgz:427573.got - 2010.06.03 11:33:40.
