data_PCOD9086497
_publ_section_title
;
Structure prediction by ZEFSAII (Michael W. Deem and Ramdas Pophale) SiO2 
 PCOD9086497
Probable space group: P -1
;
_chemical_formula_sum "Si O2"
_cell_formula_units_Z 16
_cell_length_a 7.652616
_cell_length_b 17.446264
_cell_length_c 11.203297
_cell_angle_alpha 126.803603
_cell_angle_beta 63.220249
_cell_angle_gamma 143.957318
_cell_volume 702.854179
_symmetry_space_group_name_H-M "P -1"
_symmetry_group_IT_number 2
_symmetry_cell_setting 'triclinic'
loop_
_space_group_symop_operation_xyz
x,y,z
-x,-y,-z
loop_
_atom_site_type_symbol
_atom_site_label
_atom_site_fract_x
_atom_site_fract_y
_atom_site_fract_z
Si Si1 0.857980 0.592327 0.113982
Si Si2 0.478277 0.116050 0.200112
Si Si3 0.285020 0.904824 0.590144
Si Si4 0.340504 0.140560 0.496196
Si Si5 0.071021 0.434377 0.335595
Si Si6 0.676755 0.593571 0.413264
Si Si7 0.422151 0.603883 0.177109
Si Si8 0.448562 0.892828 0.094702
O O1 0.833158 0.581859 0.255470
O O2 0.664103 0.610269 0.136228
O O3 0.182604 0.737915 0.097804
O O4 0.682893 0.438009 0.966158
O O5 0.350236 0.151530 0.359142
O O6 0.834007 0.261560 0.249491
O O7 0.359785 0.967706 0.140626
O O8 0.433335 0.111233 0.067612
O O9 0.431524 0.862206 0.556994
O O10 0.948592 0.761762 0.522404
O O11 0.500000 0.000000 0.500000
O O12 0.322008 0.998085 0.767947
O O13 0.447412 0.257256 0.666902
O O14 0.000000 0.000000 0.500000
O O15 0.401364 0.531040 0.364364
O O16 0.112430 0.473217 0.220925
O O17 0.000000 0.500000 0.500000
O O18 0.500000 0.500000 0.500000
#
# Coordination Sequence:
#
# PCOD9086497 Si02
#       8
#     2   2   2   2   2   2   2   2
#     4  10  20  37  62  92 120 166 204 268 312 372
#     4  10  20  34  61  93 122 155 207 265 311 358
#     4  11  23  41  66  88 129 174 209 251 321 383
#     4  11  23  39  63  93 124 164 212 264 308 373
#     4  11  21  37  65  91 123 157 206 266 312 368
#     4  11  24  41  61  91 125 168 211 248 318 388
#     4  10  20  35  61  93 122 152 213 261 317 358
#     4  10  19  36  58  90 123 157 211 255 307 373
#
# _framework density 22.764323000000001
#
# number of rings (size 3 to 8) (size 9 to 14) (size 15 to 20)
#    0.000    1.500    3.750    3.000    1.750    0.000 
#    2.250    0.625    2.750    1.500    0.000    0.000 
#    0.000    0.000    0.000    0.000    0.000    0.000 
#
# Total GULP energy -89106.838709 kJ/mol
# GULP energy per Si atom -5569.177419 kJ/mol
# Density = 2.271251 g / cm^3
# Si number density = 22.764323 Si / 1000 Ang^3
#
#
#
# Elastic Constant Matrix: (Units=GPa)
#
#
# Indices 1 2 3 4 5 6 
#
# 1 21.9504 8.0696 14.9845 2.9146 5.1432 2.4446
# 2 8.0696 147.7663 71.8538 3.0311 20.3686 5.5939
# 3 14.9845 71.8538 213.4783 2.9251 35.3305 3.6248
# 4 2.9146 3.0311 2.9251 37.2796 -7.3644 7.5264
# 5 5.1432 20.3686 35.3305 -7.3644 30.9817 -1.9477
# 6 2.4446 5.5939 3.6248 7.5264 -1.9477 23.5374
#
#
#
# Elastic Compliance Matrix: (Units=1/GPa)
#
#
# Indices 1 2 3 4 5 6 
#
# 1 0.049758 -0.000542 -0.002058 -0.004236 -0.006811 -0.003931
# 2 -0.000542 0.008393 -0.002223 -0.000767 -0.003176 -0.001613
# 3 -0.002058 -0.002223 0.006604 -0.001301 -0.006059 -0.000360
# 4 -0.004236 -0.000767 -0.001301 0.030866 0.009509 -0.008260
# 5 -0.006811 -0.003176 -0.006059 0.009509 0.044859 0.003067
# 6 -0.003931 -0.001613 -0.000360 -0.008260 0.003067 0.046228
#
#
# Mechanical properties :
#
#
# Convention : Reuss Voigt Hill
#
# Bulk Modulus (GPa) = 18.14629 63.66786 40.90708
# Shear Modulus (GPa) = 23.28578 37.57889 30.43233
#
# Velocity S-wave (km/s) = 3.20176 4.06739 3.66025
# Velocity P-wave (km/s) = 4.65371 7.07723 5.98933
#
# Compressibility (1/GPa) = 0.05510769
#
# Stress axis : x y z
#
# Youngs Moduli (GPa) = 20.09734 119.14999 151.42643
#
# Poissons Ratio (x) = 0.06457 0.31167
# Poissons Ratio (y) = 0.01089 0.33666
# Poissons Ratio (z) = 0.04136 0.26490
#
# Static dielectric constant tensor:
#      x y z
#    x 1.986240 -0.129110 0.036450 
#    y -0.129110 2.155280 -0.077230 
#    z 0.036450 -0.077230 2.001070 
# 
# From -- ./inp_files/405512.got.cif
#   From: 2010.05.17/outbox.cif.g08.bks.cpg/sg2_203_cif.got.tgz:405512.got - 2010.06.03 11:33:40.
