data_PCOD9086610
_publ_section_title
;
Structure prediction by ZEFSAII (Michael W. Deem and Ramdas Pophale) SiO2 
 PCOD9086610
Probable space group: P -1
;
_chemical_formula_sum "Si O2"
_cell_formula_units_Z 12
_cell_length_a 7.320412
_cell_length_b 20.157554
_cell_length_c 6.837380
_cell_angle_alpha 51.223636
_cell_angle_beta 63.111203
_cell_angle_gamma 37.946701
_cell_volume 481.853202
_symmetry_space_group_name_H-M "P -1"
_symmetry_group_IT_number 2
_symmetry_cell_setting 'triclinic'
loop_
_space_group_symop_operation_xyz
x,y,z
-x,-y,-z
loop_
_atom_site_type_symbol
_atom_site_label
_atom_site_fract_x
_atom_site_fract_y
_atom_site_fract_z
Si Si1 0.116960 0.550833 0.934877
Si Si2 0.248750 0.236271 0.026988
Si Si3 0.294828 0.635239 0.443818
Si Si4 0.838720 0.140483 0.008400
Si Si5 0.318214 0.872158 0.309409
Si Si6 0.310785 0.697303 0.740105
O O1 0.468242 0.430192 0.013119
O O2 0.047170 0.649871 0.639647
O O3 0.000000 0.500000 0.000000
O O4 0.963250 0.619799 0.086828
O O5 0.033757 0.223562 0.208090
O O6 0.545892 0.170166 0.128210
O O7 0.376614 0.194289 0.823839
O O8 0.500000 0.500000 0.500000
O O9 0.207659 0.744217 0.156768
O O10 0.418109 0.644244 0.563616
O O11 0.872370 0.115630 0.800015
O O12 0.126254 0.011348 0.205723
O O13 0.358418 0.782059 0.602520
#
# Coordination Sequence:
#
# PCOD9086610 Si02
#       6
#     2   2   2   2   2   2
#     4  11  23  38  54  87 119 151 201 244 288 337
#     4   9  17  34  58  85 114 152 184 237 289 340
#     4  10  19  36  59  86 118 151 185 237 287 345
#     4   8  16  33  55  92 116 148 190 229 286 356
#     4   8  17  34  57  87 119 147 193 231 285 351
#     4  10  21  37  58  90 116 151 198 235 287 347
#
# _framework density 24.903851
#
# number of rings (size 3 to 8) (size 9 to 14) (size 15 to 20)
#    1.000    1.667    0.000    3.000    0.000    1.333 
#    9.000    0.000    0.000    5.000    0.000    3.500 
#    0.000    0.000    0.000    0.000    0.000    0.000 
#
# Total GULP energy -66824.610741 kJ/mol
# GULP energy per Si atom -5568.717562 kJ/mol
# Density = 2.484717 g / cm^3
# Si number density = 24.903851 Si / 1000 Ang^3
#
#
#
# Elastic Constant Matrix: (Units=GPa)
#
#
# Indices 1 2 3 4 5 6 
#
# 1 58.8424 37.5421 19.4667 -0.4934 -10.0428 5.1846
# 2 37.5421 173.0908 70.0104 -5.2763 -26.9567 -0.1550
# 3 19.4667 70.0104 94.2091 -8.4662 -13.2270 -0.8840
# 4 -0.4934 -5.2763 -8.4662 31.6871 1.8803 -16.5029
# 5 -10.0428 -26.9567 -13.2270 1.8803 30.2834 2.2251
# 6 5.1846 -0.1550 -0.8840 -16.5029 2.2251 34.3547
#
#
#
# Elastic Compliance Matrix: (Units=1/GPa)
#
#
# Indices 1 2 3 4 5 6 
#
# 1 0.020750 -0.003370 -0.001623 -0.003579 0.003773 -0.005152
# 2 -0.003370 0.009603 -0.005778 -0.000328 0.004933 -0.000074
# 3 -0.001623 -0.005778 0.015790 0.004654 0.000719 0.002814
# 4 -0.003579 -0.000328 0.004654 0.044535 -0.003850 0.022301
# 5 0.003773 0.004933 0.000719 -0.003850 0.039580 -0.004942
# 6 -0.005152 -0.000074 0.002814 0.022301 -0.004942 0.040990
#
#
# Mechanical properties :
#
#
# Convention : Reuss Voigt Hill
#
# Bulk Modulus (GPa) = 40.65040 64.46451 52.55746
# Shear Modulus (GPa) = 24.87687 32.53993 28.70840
#
# Velocity S-wave (km/s) = 3.16399 3.61864 3.39893
# Velocity P-wave (km/s) = 5.45034 6.58794 6.04596
#
# Compressibility (1/GPa) = 0.02460000
#
# Stress axis : x y z
#
# Youngs Moduli (GPa) = 48.19385 104.12958 63.33282
#
# Poissons Ratio (x) = 0.35090 0.10282
# Poissons Ratio (y) = 0.16241 0.36593
# Poissons Ratio (z) = 0.07824 0.60166
#
# Static dielectric constant tensor:
#      x y z
#    x 2.031730 0.022350 0.074530 
#    y 0.022350 2.053140 0.034440 
#    z 0.074530 0.034440 2.117920 
# 
# From -- ./inp_files/227295.got.cif
#   From: 2010.05.17/outbox.cif.g08.bks.cpg/sg2_114_cif.got.tgz:227295.got - 2010.06.03 11:33:40.
