data_PCOD9086598
_publ_section_title
;
Structure prediction by ZEFSAII (Michael W. Deem and Ramdas Pophale) SiO2 
 PCOD9086598
Probable space group: P -1
;
_chemical_formula_sum "Si O2"
_cell_formula_units_Z 16
_cell_length_a 9.514870
_cell_length_b 28.569601
_cell_length_c 22.926418
_cell_angle_alpha 17.281560
_cell_angle_beta 34.599757
_cell_angle_gamma 27.861721
_cell_volume 855.245213
_symmetry_space_group_name_H-M "P -1"
_symmetry_group_IT_number 2
_symmetry_cell_setting 'triclinic'
loop_
_space_group_symop_operation_xyz
x,y,z
-x,-y,-z
loop_
_atom_site_type_symbol
_atom_site_label
_atom_site_fract_x
_atom_site_fract_y
_atom_site_fract_z
Si Si1 0.902291 0.550925 0.040605
Si Si2 0.856536 0.115325 0.695927
Si Si3 0.719286 0.242926 0.935838
Si Si4 0.350137 0.021585 0.797396
Si Si5 0.325708 0.707558 0.340037
Si Si6 0.271181 0.022011 0.387403
Si Si7 0.361054 0.057427 0.887406
Si Si8 0.689673 0.845698 0.568218
O O1 0.580180 0.589354 0.126243
O O2 0.168832 0.370536 0.201243
O O3 0.852555 0.754358 0.827641
O O4 0.000000 0.500000 0.000000
O O5 0.710639 0.297533 0.572227
O O6 0.604129 0.085457 0.798160
O O7 0.031133 0.139776 0.556923
O O8 0.111838 0.932741 0.865372
O O9 0.016030 0.222478 0.832104
O O10 0.597382 0.181239 0.996973
O O11 0.391679 0.048891 0.817467
O O12 0.998889 0.174182 0.720868
O O13 0.543518 0.046824 0.654578
O O14 0.500000 0.500000 0.500000
O O15 0.436675 0.847328 0.128372
O O16 0.490345 0.905294 0.506511
O O17 0.000000 0.000000 0.500000
O O18 0.500000 0.000000 0.500000
#
# Coordination Sequence:
#
# PCOD9086598 Si02
#       8
#     2   2   2   2   2   2   2   2
#     4  11  22  41  69  94 122 170 211 254 327 380
#     4  10  20  39  61  88 125 163 209 257 304 372
#     4   9  17  38  60  86 126 163 204 252 308 373
#     4   9  19  38  56  84 123 159 198 248 313 366
#     4  10  19  36  59  85 124 160 200 248 308 372
#     4  11  24  45  65  93 129 156 214 272 309 377
#     4  10  20  35  62  90 119 170 206 248 314 363
#     4  12  23  42  70  90 124 170 207 261 328 373
#
# _framework density 18.708083999999999
#
# number of rings (size 3 to 8) (size 9 to 14) (size 15 to 20)
#    0.000    2.000    5.000    3.000    1.750    3.500 
#    0.000    7.500    0.000    0.000    0.000    0.000 
#    0.000    0.000    0.000    0.000    0.000    0.000 
#
# Total GULP energy -89135.233313 kJ/mol
# GULP energy per Si atom -5570.952082 kJ/mol
# Density = 1.866550 g / cm^3
# Si number density = 18.708084 Si / 1000 Ang^3
#
#
#
# Elastic Constant Matrix: (Units=GPa)
#
#
# Indices 1 2 3 4 5 6 
#
# 1 90.2809 59.0760 35.4229 3.6179 2.6768 3.8214
# 2 59.0760 125.1639 46.6641 -0.0241 -0.4438 22.7999
# 3 35.4229 46.6641 79.5319 -5.2009 10.0272 -0.4734
# 4 3.6179 -0.0241 -5.2009 28.7063 2.3604 -0.6806
# 5 2.6768 -0.4438 10.0272 2.3604 22.6172 6.9559
# 6 3.8214 22.7999 -0.4734 -0.6806 6.9559 35.8252
#
#
#
# Elastic Compliance Matrix: (Units=1/GPa)
#
#
# Indices 1 2 3 4 5 6 
#
# 1 0.017290 -0.007524 -0.003255 -0.002582 -0.001445 0.003132
# 2 -0.007524 0.016422 -0.007467 -0.001331 0.008154 -0.011356
# 3 -0.003255 -0.007467 0.020262 0.005218 -0.011667 0.007731
# 4 -0.002582 -0.001331 0.005218 0.036745 -0.006859 0.003221
# 5 -0.001445 0.008154 -0.011667 -0.006859 0.055376 -0.016072
# 6 0.003132 -0.011356 0.007731 0.003221 -0.016072 0.038090
#
#
# Mechanical properties :
#
#
# Convention : Reuss Voigt Hill
#
# Bulk Modulus (GPa) = 57.19486 64.14476 60.66981
# Shear Modulus (GPa) = 22.07457 27.68399 24.87928
#
# Velocity S-wave (km/s) = 3.43876 3.85097 3.65069
# Velocity P-wave (km/s) = 6.81215 7.35765 7.09015
#
# Compressibility (1/GPa) = 0.01748409
#
# Stress axis : x y z
#
# Youngs Moduli (GPa) = 57.83529 60.89504 49.35262
#
# Poissons Ratio (x) = 0.45816 0.16063
# Poissons Ratio (y) = 0.43514 0.36851
# Poissons Ratio (z) = 0.18823 0.45469
#
# Static dielectric constant tensor:
#      x y z
#    x 1.624480 0.015000 0.001150 
#    y 0.015000 1.698130 0.011380 
#    z 0.001150 0.011380 1.694720 
# 
# From -- ./inp_files/592073.got.cif
#   From: 2010.05.17/outbox.cif.g08.bks.cpg/sg2_297_cif.got.tgz:592073.got - 2010.06.03 11:33:40.
