data_PCOD9086814
_publ_section_title
;
Structure prediction by ZEFSAII (Michael W. Deem and Ramdas Pophale) SiO2 
 PCOD9086814
Probable space group: P -1
;
_chemical_formula_sum "Si O2"
_cell_formula_units_Z 14
_cell_length_a 14.105971
_cell_length_b 7.831502
_cell_length_c 9.553556
_cell_angle_alpha 128.510102
_cell_angle_beta 43.555955
_cell_angle_gamma 103.979128
_cell_volume 524.270056
_symmetry_space_group_name_H-M "P -1"
_symmetry_group_IT_number 2
_symmetry_cell_setting 'triclinic'
loop_
_space_group_symop_operation_xyz
x,y,z
-x,-y,-z
loop_
_atom_site_type_symbol
_atom_site_label
_atom_site_fract_x
_atom_site_fract_y
_atom_site_fract_z
Si Si1 0.661362 0.791607 0.188572
Si Si2 0.878064 0.128694 0.316477
Si Si3 0.833398 0.663290 0.209619
Si Si4 0.655721 0.800954 0.902242
Si Si5 0.544690 0.694583 0.695947
Si Si6 0.724150 0.229743 0.272391
Si Si7 0.927862 0.929895 0.676688
O O1 0.762751 0.627646 0.117893
O O2 0.500000 0.000000 0.500000
O O3 0.745336 0.963037 0.145813
O O4 0.650993 0.680427 0.993763
O O5 0.763040 0.311419 0.426490
O O6 0.826186 0.931283 0.337678
O O7 0.947818 0.214303 0.415300
O O8 0.000000 0.000000 0.000000
O O9 0.709430 0.662146 0.450937
O O10 0.000000 0.500000 0.000000
O O11 0.542749 0.763161 0.894138
O O12 0.821790 0.788804 0.680417
O O13 0.574249 0.090349 0.148603
O O14 0.557220 0.427070 0.533708
O O15 0.833016 0.173804 0.991903
O O16 0.000000 0.000000 0.500000
#
# Coordination Sequence:
#
# PCOD9086814 Si02
#       7
#     2   2   2   2   2   2   2
#     4  10  20  42  64  90 125 165 208 256 317 374
#     4   9  18  36  57  84 121 161 198 248 313 367
#     4  11  21  36  65  93 122 164 208 257 315 375
#     4  10  23  39  63  86 127 169 203 267 314 369
#     4  11  22  41  60  91 127 161 216 256 320 372
#     4   9  21  38  64  88 121 164 206 252 313 379
#     4  10  19  36  60  89 119 156 206 253 310 365
#
# _framework density 26.703793000000001
#
# number of rings (size 3 to 8) (size 9 to 14) (size 15 to 20)
#    0.000    2.000    1.429    3.429    0.000    2.286 
#    2.571    6.429    0.000    0.000    0.000    0.000 
#    0.000    0.000    0.000    0.000    0.000    0.000 
#
# Total GULP energy -78042.438812 kJ/mol
# GULP energy per Si atom -5574.459915 kJ/mol
# Density = 2.664301 g / cm^3
# Si number density = 26.703793 Si / 1000 Ang^3
#
#
#
# Elastic Constant Matrix: (Units=GPa)
#
#
# Indices 1 2 3 4 5 6 
#
# 1 138.4122 26.1017 16.3756 -16.1639 6.4711 -52.3959
# 2 26.1017 82.0323 10.5344 -3.6343 1.4183 -36.7367
# 3 16.3756 10.5344 55.5102 -13.9916 -5.5671 -20.5081
# 4 -16.1639 -3.6343 -13.9916 46.4560 -9.0047 -2.8339
# 5 6.4711 1.4183 -5.5671 -9.0047 46.2795 -1.1025
# 6 -52.3959 -36.7367 -20.5081 -2.8339 -1.1025 63.7866
#
#
#
# Elastic Compliance Matrix: (Units=1/GPa)
#
#
# Indices 1 2 3 4 5 6 
#
# 1 0.011584 0.001272 0.001740 0.005297 -0.000156 0.011040
# 2 0.001272 0.016790 0.001378 0.002920 0.000310 0.011293
# 3 0.001740 0.001378 0.023948 0.009470 0.004686 0.010424
# 4 0.005297 0.002920 0.009470 0.028260 0.006056 0.010438
# 5 -0.000156 0.000310 0.004686 0.006056 0.023415 0.002231
# 6 0.011040 0.011293 0.010424 0.010438 0.002231 0.035104
#
#
# Mechanical properties :
#
#
# Convention : Reuss Voigt Hill
#
# Bulk Modulus (GPa) = 16.36628 42.44200 29.40414
# Shear Modulus (GPa) = 33.18083 46.16729 39.67406
#
# Velocity S-wave (km/s) = 3.52881 4.16247 3.85867
# Velocity P-wave (km/s) = 4.76922 6.24738 5.55766
#
# Compressibility (1/GPa) = 0.06110125
#
# Stress axis : x y z
#
# Youngs Moduli (GPa) = 86.32378 59.55948 41.75719
#
# Poissons Ratio (x) = -0.07577 -0.07264
# Poissons Ratio (y) = -0.10982 -0.05753
# Poissons Ratio (z) = -0.15017 -0.08206
#
# Static dielectric constant tensor:
#      x y z
#    x 2.386050 -0.253530 0.056850 
#    y -0.253530 2.983740 0.033740 
#    z 0.056850 0.033740 2.246650 
# 
# From -- ./inp_files/296333.got.cif
#   From: 2010.05.17/outbox.cif.g08.bks.cpg/sg2_149_cif.got.tgz:296333.got - 2010.06.03 11:33:40.
