data_PCOD9086543
_publ_section_title
;
Structure prediction by ZEFSAII (Michael W. Deem and Ramdas Pophale) SiO2 
 PCOD9086543
Probable space group: P -1
;
_chemical_formula_sum "Si O2"
_cell_formula_units_Z 14
_cell_length_a 26.521959
_cell_length_b 8.551903
_cell_length_c 8.339914
_cell_angle_alpha 32.808195
_cell_angle_beta 37.371872
_cell_angle_gamma 53.356681
_cell_volume 607.396043
_symmetry_space_group_name_H-M "P -1"
_symmetry_group_IT_number 2
_symmetry_cell_setting 'triclinic'
loop_
_space_group_symop_operation_xyz
x,y,z
-x,-y,-z
loop_
_atom_site_type_symbol
_atom_site_label
_atom_site_fract_x
_atom_site_fract_y
_atom_site_fract_z
Si Si1 0.382288 0.500194 0.953845
Si Si2 0.292208 0.934595 0.016116
Si Si3 0.446778 0.154344 0.625926
Si Si4 0.177717 0.377456 0.851428
Si Si5 0.998237 0.631314 0.564144
Si Si6 0.599901 0.083085 0.714573
Si Si7 0.056153 0.202469 0.042321
O O1 0.480020 0.591955 0.696635
O O2 0.371556 0.601895 0.710413
O O3 0.332721 0.701325 0.010418
O O4 0.360673 0.149104 0.290236
O O5 0.232928 0.695488 0.486841
O O6 0.367535 0.182836 0.690604
O O7 0.230372 0.123151 0.933131
O O8 0.500000 0.000000 0.500000
O O9 0.400615 0.955539 0.061007
O O10 0.095232 0.298253 0.240337
O O11 0.137608 0.390517 0.763790
O O12 0.000000 0.500000 0.500000
O O13 0.070075 0.932645 0.131468
O O14 0.012250 0.410810 0.863060
O O15 0.500000 0.000000 0.000000
O O16 0.000000 0.000000 0.500000
#
# Coordination Sequence:
#
# PCOD9086543 Si02
#       7
#     2   2   2   2   2   2   2
#     4  10  21  38  58  81 112 157 204 244 292 350
#     4  11  23  38  57  85 120 156 196 250 294 344
#     4   9  20  37  58  82 113 156 200 237 289 347
#     4  11  22  40  60  87 120 157 197 238 297 362
#     4  11  22  40  67  95 121 153 198 250 298 358
#     4  10  19  36  59  81 106 143 200 256 289 340
#     4  10  20  39  65  87 115 158 197 233 289 369
#
# _framework density 23.049213000000002
#
# number of rings (size 3 to 8) (size 9 to 14) (size 15 to 20)
#    0.000    1.714    0.000    7.286    0.000    3.429 
#    0.000   20.714    0.000    0.000    0.000    0.000 
#    0.000    0.000    0.000    0.000    0.000    0.000 
#
# Total GULP energy -77986.140483 kJ/mol
# GULP energy per Si atom -5570.438606 kJ/mol
# Density = 2.299675 g / cm^3
# Si number density = 23.049213 Si / 1000 Ang^3
#
#
#
# Elastic Constant Matrix: (Units=GPa)
#
#
# Indices 1 2 3 4 5 6 
#
# 1 94.0119 60.8402 9.8758 6.5595 -6.6916 -8.0709
# 2 60.8402 117.7281 20.1763 -6.3888 5.1023 -9.3514
# 3 9.8758 20.1763 60.1973 -17.2216 -5.7192 -9.3409
# 4 6.5595 -6.3888 -17.2216 36.1665 -1.2465 2.1977
# 5 -6.6916 5.1023 -5.7192 -1.2465 24.4279 -5.4594
# 6 -8.0709 -9.3514 -9.3409 2.1977 -5.4594 38.5322
#
#
#
# Elastic Compliance Matrix: (Units=1/GPa)
#
#
# Indices 1 2 3 4 5 6 
#
# 1 0.017982 -0.009659 0.000012 -0.004877 0.007309 0.002739
# 2 -0.009659 0.014416 -0.003159 0.002596 -0.006339 -0.000337
# 3 0.000012 -0.003159 0.021980 0.009856 0.007442 0.005056
# 4 -0.004877 0.002596 0.009856 0.033739 0.002238 0.000391
# 5 0.007309 -0.006339 0.007442 0.002238 0.048013 0.008472
# 6 0.002739 -0.000337 0.005056 0.000391 0.008472 0.028848
#
#
# Mechanical properties :
#
#
# Convention : Reuss Voigt Hill
#
# Bulk Modulus (GPa) = 34.76350 50.41351 42.58851
# Shear Modulus (GPa) = 24.97758 31.89500 28.43629
#
# Velocity S-wave (km/s) = 3.29548 3.72395 3.51625
# Velocity P-wave (km/s) = 5.44015 6.35689 5.91630
#
# Compressibility (1/GPa) = 0.02876581
#
# Stress axis : x y z
#
# Youngs Moduli (GPa) = 55.61094 69.36777 45.49562
#
# Poissons Ratio (x) = 0.67000 -0.00052
# Poissons Ratio (y) = 0.53713 0.14372
# Poissons Ratio (z) = -0.00064 0.21913
#
# Static dielectric constant tensor:
#      x y z
#    x 1.930260 0.063540 0.006950 
#    y 0.063540 1.919810 -0.002770 
#    z 0.006950 -0.002770 1.974580 
# 
# From -- ./inp_files/217208.got.cif
#   From: 2010.05.17/outbox.cif.g08.bks.cpg/sg2_109_cif.got.tgz:217208.got - 2010.06.03 11:33:40.
