data_PCOD9086951
_publ_section_title
;
Structure prediction by ZEFSAII (Michael W. Deem and Ramdas Pophale) SiO2 
 PCOD9086951
Probable space group: P -1
;
_chemical_formula_sum "Si O2"
_cell_formula_units_Z 14
_cell_length_a 5.051037
_cell_length_b 21.298919
_cell_length_c 15.729435
_cell_angle_alpha 23.677533
_cell_angle_beta 87.617066
_cell_angle_gamma 98.516160
_cell_volume 601.472955
_symmetry_space_group_name_H-M "P -1"
_symmetry_group_IT_number 2
_symmetry_cell_setting 'triclinic'
loop_
_space_group_symop_operation_xyz
x,y,z
-x,-y,-z
loop_
_atom_site_type_symbol
_atom_site_label
_atom_site_fract_x
_atom_site_fract_y
_atom_site_fract_z
Si Si1 0.304701 0.497035 0.801485
Si Si2 0.831754 0.613060 0.386340
Si Si3 0.836233 0.573198 0.821622
Si Si4 0.778920 0.933352 0.005451
Si Si5 0.347063 0.788542 0.662778
Si Si6 0.214972 0.733429 0.379379
Si Si7 0.890178 0.104617 0.307697
O O1 0.615865 0.578767 0.746506
O O2 0.304383 0.601400 0.588507
O O3 0.076868 0.530880 0.822222
O O4 0.167169 0.286719 0.047206
O O5 0.500000 0.500000 0.500000
O O6 0.890276 0.808476 0.110496
O O7 0.000000 0.500000 0.500000
O O8 0.896140 0.637104 0.456707
O O9 0.052968 0.740339 0.669309
O O10 0.644054 0.397118 0.099714
O O11 0.449600 0.820699 0.190272
O O12 0.777067 0.111511 0.752110
O O13 0.000000 0.000000 0.000000
O O14 0.288364 0.827649 0.711442
O O15 0.654855 0.962187 0.421750
O O16 0.000000 0.000000 0.500000
#
# Coordination Sequence:
#
# PCOD9086951 Si02
#       7
#     2   2   2   2   2   2   2
#     4  11  24  38  62  90 122 162 207 256 316 363
#     4  11  21  38  66  96 121 159 207 254 311 376
#     4  10  22  37  59  92 119 160 208 258 302 362
#     4   9  20  39  67  91 118 168 205 253 304 390
#     4   9  20  36  60  85 120 162 210 252 301 368
#     4  10  22  41  65  91 127 165 210 260 311 386
#     4  10  19  36  61  85 119 166 203 248 309 373
#
# _framework density 23.276191000000001
#
# number of rings (size 3 to 8) (size 9 to 14) (size 15 to 20)
#    0.000    2.000    2.857    0.000    6.000    1.714 
#    0.000    1.429    3.143    0.000    0.000    0.000 
#    0.000    0.000    0.000    0.000    0.000    0.000 
#
# Total GULP energy -78001.788841 kJ/mol
# GULP energy per Si atom -5571.556346 kJ/mol
# Density = 2.322321 g / cm^3
# Si number density = 23.276191 Si / 1000 Ang^3
#
#
#
# Elastic Constant Matrix: (Units=GPa)
#
#
# Indices 1 2 3 4 5 6 
#
# 1 134.4932 39.0628 56.5355 -21.4545 16.3706 34.8649
# 2 39.0628 70.0149 56.6617 -23.6948 -8.7031 37.8174
# 3 56.5355 56.6617 151.2310 -24.3857 17.4350 26.4150
# 4 -21.4545 -23.6948 -24.3857 40.7690 6.5143 1.2746
# 5 16.3706 -8.7031 17.4350 6.5143 40.2285 -15.2521
# 6 34.8649 37.8174 26.4150 1.2746 -15.2521 58.2938
#
#
#
# Elastic Compliance Matrix: (Units=1/GPa)
#
#
# Indices 1 2 3 4 5 6 
#
# 1 0.013002 0.001017 -0.000636 0.009072 -0.010467 -0.011085
# 2 0.001017 0.038725 -0.007790 0.019153 -0.000375 -0.022718
# 3 -0.000636 -0.007790 0.011507 0.003301 -0.007651 -0.001854
# 4 0.009072 0.019153 0.003301 0.046058 -0.017933 -0.025046
# 5 -0.010467 -0.000375 -0.007651 -0.017933 0.043501 0.021744
# 6 -0.011085 -0.022718 -0.001854 -0.025046 0.021744 0.045600
#
#
# Mechanical properties :
#
#
# Convention : Reuss Voigt Hill
#
# Bulk Modulus (GPa) = 20.65375 73.36212 47.00794
# Shear Modulus (GPa) = 21.80082 41.42353 31.61218
#
# Velocity S-wave (km/s) = 3.06374 4.22317 3.68928
# Velocity P-wave (km/s) = 4.62687 7.44088 6.19575
#
# Compressibility (1/GPa) = 0.04841735
#
# Stress axis : x y z
#
# Youngs Moduli (GPa) = 76.91031 25.82280 86.90283
#
# Poissons Ratio (x) = -0.02626 0.05526
# Poissons Ratio (y) = -0.07822 0.67696
# Poissons Ratio (z) = 0.04891 0.20116
#
# Static dielectric constant tensor:
#      x y z
#    x 2.023430 -0.040310 -0.025020 
#    y -0.040310 1.949730 -0.034930 
#    z -0.025020 -0.034930 2.063000 
# 
# From -- ./inp_files/546957.got.cif
#   From: 2010.05.17/outbox.cif.g08.bks.cpg/sg2_274_cif.got.tgz:546957.got - 2010.06.03 11:33:40.
