data_PCOD9086460
_publ_section_title
;
Structure prediction by ZEFSAII (Michael W. Deem and Ramdas Pophale) SiO2 
 PCOD9086460
Probable space group: P -1
;
_chemical_formula_sum "Si O2"
_cell_formula_units_Z 16
_cell_length_a 28.720619
_cell_length_b 17.446740
_cell_length_c 16.524118
_cell_angle_alpha 20.708817
_cell_angle_beta 163.187898
_cell_angle_gamma 159.358271
_cell_volume 778.016756
_symmetry_space_group_name_H-M "P -1"
_symmetry_group_IT_number 2
_symmetry_cell_setting 'triclinic'
loop_
_space_group_symop_operation_xyz
x,y,z
-x,-y,-z
loop_
_atom_site_type_symbol
_atom_site_label
_atom_site_fract_x
_atom_site_fract_y
_atom_site_fract_z
Si Si1 0.453847 0.223211 0.519565
Si Si2 0.199543 0.732882 0.546892
Si Si3 0.652689 0.041729 0.147366
Si Si4 0.322023 0.280721 0.629034
Si Si5 0.823101 0.640776 0.994610
Si Si6 0.984185 0.460570 0.316048
Si Si7 0.141448 0.885673 0.834794
Si Si8 0.015466 0.590795 0.060295
O O1 0.611983 0.204936 0.851400
O O2 0.528737 0.463995 0.356670
O O3 0.354189 0.982540 0.543315
O O4 0.311002 0.242415 0.325952
O O5 0.238680 0.605744 0.815046
O O6 0.021071 0.773785 0.225627
O O7 0.136980 0.547355 0.551916
O O8 0.850987 0.187174 0.364033
O O9 0.500000 0.000000 0.000000
O O10 0.641441 0.815154 0.301343
O O11 0.140682 0.316322 0.287117
O O12 0.298640 0.087351 0.850447
O O13 0.856772 0.587197 0.011594
O O14 0.059006 0.547538 0.266593
O O15 0.163018 0.776064 0.064950
O O16 0.058422 0.660290 0.860466
O O17 0.000000 0.000000 0.500000
#
# Coordination Sequence:
#
# PCOD9086460 Si02
#       8
#     2   2   2   2   2   2   2   2
#     4  12  21  36  55  79 114 159 197 225 284 343
#     4   9  21  39  52  76 113 158 203 230 273 338
#     4  12  25  34  53  87 123 149 191 241 283 333
#     4  11  21  35  55  83 120 150 186 233 295 342
#     4   9  21  37  55  75 113 160 199 232 271 334
#     4  10  19  38  54  82 114 145 193 239 278 333
#     4   9  19  36  57  83 116 145 183 239 297 349
#     4  10  19  36  58  87 112 146 192 238 294 343
#
# _framework density 20.565110000000001
#
# number of rings (size 3 to 8) (size 9 to 14) (size 15 to 20)
#    0.750    1.000    2.500    2.625    1.750    1.000 
#    2.250    0.000    0.000    0.750    0.000   14.875 
#    0.000    0.000    0.000    0.000    0.000    0.000 
#
# Total GULP energy -89192.505531 kJ/mol
# GULP energy per Si atom -5574.531596 kJ/mol
# Density = 2.051830 g / cm^3
# Si number density = 20.565110 Si / 1000 Ang^3
#
#
#
# Elastic Constant Matrix: (Units=GPa)
#
#
# Indices 1 2 3 4 5 6 
#
# 1 124.3368 47.4301 13.6305 -16.6341 -8.9874 5.1532
# 2 47.4301 145.4948 7.0650 -20.2588 -15.4517 10.1564
# 3 13.6305 7.0650 50.5657 -8.3931 13.6170 -7.7643
# 4 -16.6341 -20.2588 -8.3931 19.7581 5.3991 -5.6304
# 5 -8.9874 -15.4517 13.6170 5.3991 30.5560 -8.9373
# 6 5.1532 10.1564 -7.7643 -5.6304 -8.9373 30.2594
#
#
#
# Elastic Compliance Matrix: (Units=1/GPa)
#
#
# Indices 1 2 3 4 5 6 
#
# 1 0.009893 -0.002285 -0.002101 0.004568 0.001867 -0.000056
# 2 -0.002285 0.008812 -0.000482 0.005940 0.002720 -0.000784
# 3 -0.002101 -0.000482 0.027658 0.015108 -0.014018 0.006287
# 4 0.004568 0.005940 0.015108 0.073463 -0.012089 0.011204
# 5 0.001867 0.002720 -0.014018 -0.012089 0.044838 0.006166
# 6 -0.000056 -0.000784 0.006287 0.011204 0.006166 0.038839
#
#
# Mechanical properties :
#
#
# Convention : Reuss Voigt Hill
#
# Bulk Modulus (GPa) = 27.30187 50.73875 39.02031
# Shear Modulus (GPa) = 22.17814 32.93279 27.55547
#
# Velocity S-wave (km/s) = 3.28752 4.00608 3.66445
# Velocity P-wave (km/s) = 5.26450 6.79147 6.07614
#
# Compressibility (1/GPa) = 0.03662753
#
# Stress axis : x y z
#
# Youngs Moduli (GPa) = 101.08287 113.48066 36.15606
#
# Poissons Ratio (x) = 0.25928 0.07595
# Poissons Ratio (y) = 0.23096 0.01743
# Poissons Ratio (z) = 0.21235 0.05471
#
# Static dielectric constant tensor:
#      x y z
#    x 1.769670 0.026630 0.003550 
#    y 0.026630 1.775410 -0.018940 
#    z 0.003550 -0.018940 1.739650 
# 
# From -- ./inp_files/580188.got.cif
#   From: 2010.05.17/outbox.cif.g08.bks.cpg/sg2_291_cif.got.tgz:580188.got - 2010.06.03 11:33:40.
