data_PCOD9086987
_publ_section_title
;
Structure prediction by ZEFSAII (Michael W. Deem and Ramdas Pophale) SiO2 
 PCOD9086987
Probable space group: P -1
;
_chemical_formula_sum "Si O2"
_cell_formula_units_Z 14
_cell_length_a 13.086346
_cell_length_b 6.868695
_cell_length_c 22.389719
_cell_angle_alpha 137.692452
_cell_angle_beta 153.331052
_cell_angle_gamma 45.438875
_cell_volume 602.443262
_symmetry_space_group_name_H-M "P -1"
_symmetry_group_IT_number 2
_symmetry_cell_setting 'triclinic'
loop_
_space_group_symop_operation_xyz
x,y,z
-x,-y,-z
loop_
_atom_site_type_symbol
_atom_site_label
_atom_site_fract_x
_atom_site_fract_y
_atom_site_fract_z
Si Si1 0.207147 0.898031 0.781242
Si Si2 0.720406 0.717572 0.616517
Si Si3 0.986814 0.817051 0.141522
Si Si4 0.503533 0.681944 0.366405
Si Si5 0.447347 0.150221 0.147334
Si Si6 0.294770 0.242136 0.720583
Si Si7 0.877110 0.088647 0.553025
O O1 0.127434 0.137466 0.843471
O O2 0.416027 0.977038 0.868433
O O3 0.279273 0.582124 0.775974
O O4 0.994500 0.891365 0.622906
O O5 0.655732 0.681735 0.504718
O O6 0.754081 0.394287 0.584904
O O7 0.953705 0.862694 0.774380
O O8 0.538163 0.988482 0.605844
O O9 0.241305 0.639902 0.239087
O O10 0.806525 0.730223 0.980275
O O11 0.572189 0.419763 0.297870
O O12 0.479696 0.909087 0.161238
O O13 0.084667 0.182199 0.640825
O O14 0.267777 0.074734 0.606242
#
# Coordination Sequence:
#
# PCOD9086987 Si02
#       7
#     2   2   2   2   2   2   2
#     4  11  23  37  58  92 120 153 199 245 290 351
#     4   9  18  37  64  84 113 154 201 237 289 348
#     4  10  21  39  60  87 123 157 193 242 296 348
#     4   9  19  38  65  84 115 160 200 238 292 351
#     4  11  22  38  63  88 122 157 194 240 296 354
#     4  10  20  36  58  89 121 154 196 242 298 347
#     4  10  19  36  61  87 118 156 195 248 294 341
#
# _framework density 23.238703999999998
#
# number of rings (size 3 to 8) (size 9 to 14) (size 15 to 20)
#    0.857    1.143    2.857    1.286    0.000    1.714 
#    2.571    2.143    0.000    2.571    0.000    0.000 
#    0.000    0.000    0.000    0.000    0.000    0.000 
#
# Total GULP energy -78166.426165 kJ/mol
# GULP energy per Si atom -5583.316155 kJ/mol
# Density = 2.318581 g / cm^3
# Si number density = 23.238704 Si / 1000 Ang^3
#
#
#
# Elastic Constant Matrix: (Units=GPa)
#
#
# Indices 1 2 3 4 5 6 
#
# 1 47.5066 21.1026 13.6425 -7.6333 -11.3594 -5.5567
# 2 21.1026 86.7216 -4.8855 -5.9018 -11.1960 -1.4201
# 3 13.6425 -4.8855 59.8999 -2.2586 -12.8161 10.8729
# 4 -7.6333 -5.9018 -2.2586 26.3900 -4.0784 -5.0094
# 5 -11.3594 -11.1960 -12.8161 -4.0784 24.0202 -0.8619
# 6 -5.5567 -1.4201 10.8729 -5.0094 -0.8619 30.0855
#
#
#
# Elastic Compliance Matrix: (Units=1/GPa)
#
#
# Indices 1 2 3 4 5 6 
#
# 1 0.030842 -0.005626 -0.006612 0.010611 0.010592 0.009891
# 2 -0.005626 0.014144 0.004166 0.002670 0.006563 -0.001244
# 3 -0.006612 0.004166 0.022422 0.000935 0.010626 -0.008668
# 4 0.010611 0.002670 0.000935 0.045801 0.014890 0.009801
# 5 0.010592 0.006563 0.010626 0.014890 0.057989 0.002566
# 6 0.009891 -0.001244 -0.008668 0.009801 0.002566 0.039845
#
#
# Mechanical properties :
#
#
# Convention : Reuss Voigt Hill
#
# Bulk Modulus (GPa) = 19.50733 28.20526 23.85630
# Shear Modulus (GPa) = 20.46858 27.05037 23.75947
#
# Velocity S-wave (km/s) = 2.97104 3.41548 3.20098
# Velocity P-wave (km/s) = 4.49244 5.26474 4.89385
#
# Compressibility (1/GPa) = 0.05126277
#
# Stress axis : x y z
#
# Youngs Moduli (GPa) = 32.42301 70.70376 44.59813
#
# Poissons Ratio (x) = 0.39778 0.29490
# Poissons Ratio (y) = 0.18241 -0.18578
# Poissons Ratio (z) = 0.21439 -0.29453
#
# Static dielectric constant tensor:
#      x y z
#    x 1.941580 -0.041580 0.048490 
#    y -0.041580 1.855710 -0.020060 
#    z 0.048490 -0.020060 1.841280 
# 
# From -- ./inp_files/596694.got.cif
#   From: 2010.05.17/outbox.cif.g08.bks.cpg/sg2_299_cif.got.tgz:596694.got - 2010.06.03 11:33:40.
