data_PCOD9086639
_publ_section_title
;
Structure prediction by ZEFSAII (Michael W. Deem and Ramdas Pophale) SiO2 
 PCOD9086639
Probable space group: P -1
;
_chemical_formula_sum "Si O2"
_cell_formula_units_Z 16
_cell_length_a 14.781968
_cell_length_b 12.799036
_cell_length_c 9.259287
_cell_angle_alpha 133.812193
_cell_angle_beta 139.962757
_cell_angle_gamma 48.959379
_cell_volume 782.392208
_symmetry_space_group_name_H-M "P -1"
_symmetry_group_IT_number 2
_symmetry_cell_setting 'triclinic'
loop_
_space_group_symop_operation_xyz
x,y,z
-x,-y,-z
loop_
_atom_site_type_symbol
_atom_site_label
_atom_site_fract_x
_atom_site_fract_y
_atom_site_fract_z
Si Si1 0.514616 0.284916 0.039908
Si Si2 0.246039 0.876965 0.333301
Si Si3 0.305333 0.988557 0.191203
Si Si4 0.527808 0.830182 0.825700
Si Si5 0.975906 0.058852 0.362328
Si Si6 0.644093 0.392942 0.940931
Si Si7 0.343120 0.294742 0.422058
Si Si8 0.786370 0.373539 0.407458
O O1 0.441543 0.257974 0.072883
O O2 0.405805 0.429104 0.970840
O O3 0.660055 0.334684 0.313380
O O4 0.568582 0.136027 0.862909
O O5 0.376783 0.835646 0.567461
O O6 0.236032 0.710966 0.117178
O O7 0.111093 0.986230 0.353714
O O8 0.285799 0.945777 0.294573
O O9 0.327868 0.154616 0.364214
O O10 0.160946 0.984607 0.921113
O O11 0.645582 0.768047 0.787221
O O12 0.500000 0.000000 0.000000
O O13 0.931804 0.241121 0.481622
O O14 0.000000 0.000000 0.500000
O O15 0.493950 0.341173 0.687325
O O16 0.716524 0.356288 0.149603
O O17 0.218356 0.452414 0.424456
#
# Coordination Sequence:
#
# PCOD9086639 Si02
#       8
#     2   2   2   2   2   2   2   2
#     4  10  19  36  59  88 125 160 192 244 306 350
#     4  11  23  38  65  91 114 165 211 245 297 358
#     4  11  22  39  65  89 120 162 207 252 294 366
#     4  11  23  36  59  94 132 152 195 252 305 369
#     4  11  24  43  67  82 119 163 212 249 298 362
#     4  10  21  36  63  94 125 154 201 255 298 366
#     4  10  22  37  62  92 128 156 197 247 320 347
#     4  10  21  39  62  89 123 159 204 254 296 361
#
# _framework density 20.450102000000001
#
# number of rings (size 3 to 8) (size 9 to 14) (size 15 to 20)
#    0.000    1.500    3.750    3.375    1.750    9.500 
#    0.000    1.250    2.750    0.000    0.000    0.000 
#    0.000    0.000    0.000    0.000    0.000    0.000 
#
# Total GULP energy -89199.962668 kJ/mol
# GULP energy per Si atom -5574.997667 kJ/mol
# Density = 2.040356 g / cm^3
# Si number density = 20.450102 Si / 1000 Ang^3
#
#
#
# Elastic Constant Matrix: (Units=GPa)
#
#
# Indices 1 2 3 4 5 6 
#
# 1 84.0289 58.9943 17.7604 2.3835 -34.9899 -2.7475
# 2 58.9943 178.9081 32.2629 22.1559 -22.1036 -10.1736
# 3 17.7604 32.2629 47.9172 9.4331 -22.8459 5.8863
# 4 2.3835 22.1559 9.4331 40.9086 0.8645 -9.0271
# 5 -34.9899 -22.1036 -22.8459 0.8645 29.3224 2.0879
# 6 -2.7475 -10.1736 5.8863 -9.0271 2.0879 35.3270
#
#
#
# Elastic Compliance Matrix: (Units=1/GPa)
#
#
# Indices 1 2 3 4 5 6 
#
# 1 0.034512 -0.008392 0.018176 -0.004199 0.049624 -0.006767
# 2 -0.008392 0.008949 -0.007335 -0.001758 -0.009161 0.003239
# 3 0.018176 -0.007335 0.051213 -0.013673 0.057613 -0.016131
# 4 -0.004199 -0.001758 -0.013673 0.031529 -0.018674 0.010606
# 5 0.049624 -0.009161 0.057613 -0.018674 0.133349 -0.021032
# 6 -0.006767 0.003239 -0.016131 0.010606 -0.021032 0.035354
#
#
# Mechanical properties :
#
#
# Convention : Reuss Voigt Hill
#
# Bulk Modulus (GPa) = 10.04288 58.76550 34.40419
# Shear Modulus (GPa) = 15.47030 34.56738 25.01884
#
# Velocity S-wave (km/s) = 2.75342 4.11582 3.50152
# Velocity P-wave (km/s) = 3.87686 7.16834 5.76260
#
# Compressibility (1/GPa) = 0.09957298
#
# Stress axis : x y z
#
# Youngs Moduli (GPa) = 28.97545 111.73862 19.52622
#
# Poissons Ratio (x) = 0.93769 -0.35491
# Poissons Ratio (y) = 0.24316 0.14322
# Poissons Ratio (z) = -0.52666 0.81960
#
# Static dielectric constant tensor:
#      x y z
#    x 1.746620 -0.026310 0.051490 
#    y -0.026310 1.773570 0.082000 
#    z 0.051490 0.082000 1.753360 
# 
# From -- ./inp_files/308620.got.cif
#   From: 2010.05.17/outbox.cif.g08.bks.cpg/sg2_155_cif.got.tgz:308620.got - 2010.06.03 11:33:40.
