data_PCOD9086723
_publ_section_title
;
Structure prediction by ZEFSAII (Michael W. Deem and Ramdas Pophale) SiO2 
 PCOD9086723
Probable space group: P -1
;
_chemical_formula_sum "Si O2"
_cell_formula_units_Z 14
_cell_length_a 21.230423
_cell_length_b 5.558548
_cell_length_c 8.528094
_cell_angle_alpha 63.046907
_cell_angle_beta 109.045910
_cell_angle_gamma 136.426257
_cell_volume 618.346468
_symmetry_space_group_name_H-M "P -1"
_symmetry_group_IT_number 2
_symmetry_cell_setting 'triclinic'
loop_
_space_group_symop_operation_xyz
x,y,z
-x,-y,-z
loop_
_atom_site_type_symbol
_atom_site_label
_atom_site_fract_x
_atom_site_fract_y
_atom_site_fract_z
Si Si1 0.394671 0.625644 0.864307
Si Si2 0.845059 0.088630 0.426683
Si Si3 0.934151 0.067729 0.091269
Si Si4 0.234739 0.539408 0.686011
Si Si5 0.026629 0.824671 0.250269
Si Si6 0.565377 0.443326 0.406800
Si Si7 0.572443 0.438874 0.757987
O O1 0.336306 0.736951 0.760500
O O2 0.378702 0.420239 0.750345
O O3 0.502986 0.991326 0.840707
O O4 0.373302 0.430376 0.072498
O O5 0.793430 0.226420 0.383167
O O6 0.899864 0.140473 0.607036
O O7 0.930661 0.395357 0.288464
O O8 0.787631 0.677258 0.431971
O O9 0.833431 0.809423 0.150105
O O10 0.926853 0.954879 0.937896
O O11 0.990412 0.996220 0.253595
O O12 0.000000 0.500000 0.000000
O O13 0.616221 0.580651 0.577787
O O14 0.493943 0.487960 0.317166
O O15 0.500000 0.000000 0.500000
#
# Coordination Sequence:
#
# PCOD9086723 Si02
#       7
#     2   2   2   2   2   2   2
#     4  10  21  37  60  86 119 159 194 254 299 357
#     4  10  22  39  60  86 115 158 200 247 298 357
#     4  10  19  36  60  84 117 157 200 247 294 359
#     4  11  24  39  57  89 124 153 198 251 303 348
#     4   9  20  36  62  82 112 158 206 241 294 359
#     4   9  18  36  61  87 113 148 202 244 293 367
#     4   9  19  38  64  86 112 159 204 237 300 366
#
# _framework density 22.641029
#
# number of rings (size 3 to 8) (size 9 to 14) (size 15 to 20)
#    0.000    2.286    1.429    0.429    4.000    1.714 
#    2.571    0.000    0.000    0.000    0.000    0.000 
#    0.000    0.000    0.000    0.000    0.000    0.000 
#
# Total GULP energy -77945.574847 kJ/mol
# GULP energy per Si atom -5567.541061 kJ/mol
# Density = 2.258950 g / cm^3
# Si number density = 22.641029 Si / 1000 Ang^3
#
#
#
# Elastic Constant Matrix: (Units=GPa)
#
#
# Indices 1 2 3 4 5 6 
#
# 1 83.0699 18.2170 48.3430 23.8736 -7.0533 -5.9295
# 2 18.2170 65.3571 11.6336 7.7107 4.6121 -4.2373
# 3 48.3430 11.6336 143.7368 23.4136 -6.9208 -7.2539
# 4 23.8736 7.7107 23.4136 23.0248 -5.0249 -1.8658
# 5 -7.0533 4.6121 -6.9208 -5.0249 30.1681 2.4219
# 6 -5.9295 -4.2373 -7.2539 -1.8658 2.4219 28.0900
#
#
#
# Elastic Compliance Matrix: (Units=1/GPa)
#
#
# Indices 1 2 3 4 5 6 
#
# 1 0.019353 -0.002992 -0.003696 -0.014844 0.001537 0.001561
# 2 -0.002992 0.016931 0.000097 -0.003370 -0.003993 0.002068
# 3 -0.003696 0.000097 0.009135 -0.005340 0.000229 0.001219
# 4 -0.014844 -0.003370 -0.005340 0.066823 0.007045 -0.001190
# 5 0.001537 -0.003993 0.000229 0.007045 0.035570 -0.002818
# 6 0.001561 0.002068 0.001219 -0.001190 -0.002818 0.036720
#
#
# Mechanical properties :
#
#
# Convention : Reuss Voigt Hill
#
# Bulk Modulus (GPa) = 31.02107 49.83902 40.43004
# Shear Modulus (GPa) = 23.98542 30.52126 27.25334
#
# Velocity S-wave (km/s) = 3.25834 3.67556 3.47322
# Velocity P-wave (km/s) = 5.28079 6.33036 5.82925
#
# Compressibility (1/GPa) = 0.03223615
#
# Stress axis : x y z
#
# Youngs Moduli (GPa) = 51.67081 59.06419 109.47044
#
# Poissons Ratio (x) = 0.17674 0.40461
# Poissons Ratio (y) = 0.15462 -0.01063
# Poissons Ratio (z) = 0.19098 -0.00574
#
# Static dielectric constant tensor:
#      x y z
#    x 1.877360 -0.069460 -0.060780 
#    y -0.069460 1.956820 0.037050 
#    z -0.060780 0.037050 1.894280 
# 
# From -- ./inp_files/43866.got.cif
#   From: 2010.05.17/outbox.cif.g08.bks.cpg/sg2_22_cif.got.tgz:43866.got - 2010.06.03 11:33:40.
