data_PCOD9086136
_publ_section_title
;
Structure prediction by ZEFSAII (Michael W. Deem and Ramdas Pophale) SiO2 
 PCOD9086136
Probable space group: P -1
;
_chemical_formula_sum "Si O2"
_cell_formula_units_Z 16
_cell_length_a 13.423930
_cell_length_b 8.602569
_cell_length_c 9.240535
_cell_angle_alpha 61.893571
_cell_angle_beta 44.259824
_cell_angle_gamma 53.430820
_cell_volume 596.250752
_symmetry_space_group_name_H-M "P -1"
_symmetry_group_IT_number 2
_symmetry_cell_setting 'triclinic'
loop_
_space_group_symop_operation_xyz
x,y,z
-x,-y,-z
loop_
_atom_site_type_symbol
_atom_site_label
_atom_site_fract_x
_atom_site_fract_y
_atom_site_fract_z
Si Si1 0.731877 0.729864 0.158572
Si Si2 0.316252 0.175202 0.332150
Si Si3 0.592744 0.542947 0.745785
Si Si4 0.938609 0.302253 0.151616
Si Si5 0.940265 0.935995 0.444596
Si Si6 0.859472 0.288422 0.928235
Si Si7 0.340750 0.929948 0.694214
Si Si8 0.547550 0.692181 0.103193
O O1 0.802085 0.510466 0.243602
O O2 0.667244 0.904199 0.260616
O O3 0.597202 0.751187 0.175958
O O4 0.895906 0.733058 0.931652
O O5 0.280399 0.380964 0.361665
O O6 0.192026 0.145641 0.368212
O O7 0.456459 0.167469 0.085307
O O8 0.337057 0.020268 0.502615
O O9 0.482602 0.728876 0.683084
O O10 0.500000 0.500000 0.000000
O O11 0.603813 0.357075 0.722907
O O12 0.890733 0.131434 0.316463
O O13 0.960016 0.306239 0.952272
O O14 0.066032 0.772895 0.279929
O O15 0.000000 0.000000 0.500000
O O16 0.705439 0.491238 0.001256
O O17 0.805994 0.120729 0.101821
#
# Coordination Sequence:
#
# PCOD9086136 Si02
#       8
#     2   2   2   2   2   2   2   2
#     4  10  20  34  61  89 118 160 201 243 302 351
#     4  11  22  37  61  91 119 161 199 247 304 356
#     4   9  21  43  65  85 118 163 205 247 304 362
#     4  10  19  36  55  87 127 159 194 245 298 368
#     4  12  23  34  59  92 129 154 201 254 300 356
#     4  10  20  38  60  84 121 166 198 236 306 369
#     4  11  20  37  67  90 117 158 209 247 295 366
#     4   9  21  40  62  83 121 158 200 250 299 356
#
# _framework density 26.834349
#
# number of rings (size 3 to 8) (size 9 to 14) (size 15 to 20)
#    0.000    1.750    2.500    2.250    0.000    1.500 
#    0.000    3.125    2.750    0.000    0.000    0.000 
#    0.000    0.000    0.000    0.000    0.000    0.000 
#
# Total GULP energy -89398.891155 kJ/mol
# GULP energy per Si atom -5587.430697 kJ/mol
# Density = 2.677327 g / cm^3
# Si number density = 26.834349 Si / 1000 Ang^3
#
#
#
# Elastic Constant Matrix: (Units=GPa)
#
#
# Indices 1 2 3 4 5 6 
#
# 1 144.2394 48.1895 35.5679 -15.1704 17.5916 59.3775
# 2 48.1895 143.7873 49.3834 -6.7341 0.4740 24.3431
# 3 35.5679 49.3834 97.1351 -21.8437 8.0057 13.6975
# 4 -15.1704 -6.7341 -21.8437 51.7728 13.1161 2.9762
# 5 17.5916 0.4740 8.0057 13.1161 49.2801 -9.6147
# 6 59.3775 24.3431 13.6975 2.9762 -9.6147 58.7644
#
#
#
# Elastic Compliance Matrix: (Units=1/GPa)
#
#
# Indices 1 2 3 4 5 6 
#
# 1 0.019069 -0.002534 0.000734 0.010271 -0.013764 -0.021161
# 2 -0.002534 0.009171 -0.004373 -0.001935 0.002085 0.000220
# 3 0.000734 -0.004373 0.014890 0.007494 -0.005347 -0.003656
# 4 0.010271 -0.001935 0.007494 0.030153 -0.015905 -0.015453
# 5 -0.013764 0.002085 -0.005347 -0.015905 0.034329 0.020713
# 6 -0.021161 0.000220 -0.003656 -0.015453 0.020713 0.043332
#
#
# Mechanical properties :
#
#
# Convention : Reuss Voigt Hill
#
# Bulk Modulus (GPa) = 32.48300 72.38261 52.43281
# Shear Modulus (GPa) = 28.81016 48.76485 38.78751
#
# Velocity S-wave (km/s) = 3.28018 4.26755 3.80602
# Velocity P-wave (km/s) = 5.14562 7.16345 6.23669
#
# Compressibility (1/GPa) = 0.03078533
#
# Stress axis : x y z
#
# Youngs Moduli (GPa) = 52.44200 109.03880 67.15697
#
# Poissons Ratio (x) = 0.27629 -0.04930
# Poissons Ratio (y) = 0.13288 0.29366
# Poissons Ratio (z) = -0.03850 0.47679
#
# Static dielectric constant tensor:
#      x y z
#    x 2.212050 0.027360 -0.001550 
#    y 0.027360 2.122010 0.059710 
#    z -0.001550 0.059710 2.141900 
# 
# From -- ./inp_files/297777.got.cif
#   From: 2010.05.17/outbox.cif.g08.bks.cpg/sg2_149_cif.got.tgz:297777.got - 2010.06.03 11:33:40.
