data_PCOD9086732
_publ_section_title
;
Structure prediction by ZEFSAII (Michael W. Deem and Ramdas Pophale) SiO2 
 PCOD9086732
Probable space group: P -1
;
_chemical_formula_sum "Si O2"
_cell_formula_units_Z 16
_cell_length_a 11.199682
_cell_length_b 8.318885
_cell_length_c 8.036991
_cell_angle_alpha 105.355553
_cell_angle_beta 87.923367
_cell_angle_gamma 61.589359
_cell_volume 623.374942
_symmetry_space_group_name_H-M "P -1"
_symmetry_group_IT_number 2
_symmetry_cell_setting 'triclinic'
loop_
_space_group_symop_operation_xyz
x,y,z
-x,-y,-z
loop_
_atom_site_type_symbol
_atom_site_label
_atom_site_fract_x
_atom_site_fract_y
_atom_site_fract_z
Si Si1 0.433074 0.028813 0.751405
Si Si2 0.644536 0.325637 0.887046
Si Si3 0.138205 0.627518 0.285435
Si Si4 0.895307 0.608478 0.379678
Si Si5 0.804539 0.312700 0.333771
Si Si6 0.211682 0.996978 0.949482
Si Si7 0.476102 0.310871 0.604588
Si Si8 0.258760 0.194063 0.257155
O O1 0.292860 0.078041 0.862290
O O2 0.469998 0.838587 0.590024
O O3 0.579046 0.953751 0.816719
O O4 0.411702 0.215658 0.705139
O O5 0.783903 0.332515 0.853496
O O6 0.605842 0.286581 0.695581
O O7 0.500000 0.500000 0.000000
O O8 0.678215 0.182530 0.996870
O O9 0.142267 0.722399 0.487695
O O10 0.231960 0.399460 0.254370
O O11 0.983870 0.665662 0.272269
O O12 0.855646 0.450516 0.284676
O O13 0.774026 0.786577 0.538099
O O14 0.000000 0.500000 0.500000
O O15 0.849715 0.108608 0.187842
O O16 0.637494 0.469587 0.378934
O O17 0.154337 0.147385 0.147789
#
# Coordination Sequence:
#
# PCOD9086732 Si02
#       8
#     2   2   2   2   2   2   2   2
#     4  11  22  36  57  89 121 160 191 235 295 357
#     4  12  24  35  57  92 124 149 189 242 297 347
#     4  10  22  42  65  81 112 163 204 233 283 355
#     4   8  18  41  63  81 106 162 208 234 275 351
#     4  10  20  39  62  86 118 154 197 240 288 350
#     4  12  24  34  56  91 128 149 185 246 304 339
#     4  11  22  36  58  87 124 154 197 231 294 357
#     4  10  19  36  60  85 116 153 195 243 291 336
#
# _framework density 25.666734999999999
#
# number of rings (size 3 to 8) (size 9 to 14) (size 15 to 20)
#    0.000    1.750    5.000    1.875    1.750    1.000 
#    0.000    6.875    0.000    3.000    0.000    0.875 
#    0.000    0.000    0.000    0.000    0.000    0.000 
#
# Total GULP energy -89276.985594 kJ/mol
# GULP energy per Si atom -5579.811600 kJ/mol
# Density = 2.560832 g / cm^3
# Si number density = 25.666735 Si / 1000 Ang^3
#
#
#
# Elastic Constant Matrix: (Units=GPa)
#
#
# Indices 1 2 3 4 5 6 
#
# 1 111.6556 4.0226 35.2104 6.7961 -8.3531 19.6009
# 2 4.0226 28.9130 6.0936 5.4941 -4.0825 3.1879
# 3 35.2104 6.0936 78.9266 27.1215 17.0911 22.6462
# 4 6.7961 5.4941 27.1215 24.8275 10.9774 9.3904
# 5 -8.3531 -4.0825 17.0911 10.9774 42.9861 2.7463
# 6 19.6009 3.1879 22.6462 9.3904 2.7463 40.7835
#
#
#
# Elastic Compliance Matrix: (Units=1/GPa)
#
#
# Indices 1 2 3 4 5 6 
#
# 1 0.011582 0.000073 -0.006185 0.002890 0.004175 -0.003084
# 2 0.000073 0.037658 -0.000606 -0.010300 0.006507 -0.000708
# 3 -0.006185 -0.000606 0.025852 -0.021671 -0.005623 -0.005967
# 4 0.002890 -0.010300 -0.021671 0.071390 -0.009755 -0.004331
# 5 0.004175 0.006507 -0.005623 -0.009755 0.029364 0.000876
# 6 -0.003084 -0.000708 -0.005967 -0.004331 0.000876 0.030309
#
#
# Mechanical properties :
#
#
# Convention : Reuss Voigt Hill
#
# Bulk Modulus (GPa) = 16.21908 34.46094 25.34001
# Shear Modulus (GPa) = 20.82080 33.33067 27.07573
#
# Velocity S-wave (km/s) = 2.85124 3.60751 3.25144
# Velocity P-wave (km/s) = 4.14394 5.55046 4.89795
#
# Compressibility (1/GPa) = 0.06165579
#
# Stress axis : x y z
#
# Youngs Moduli (GPa) = 86.34265 26.55451 38.68112
#
# Poissons Ratio (x) = -0.00193 0.23923
# Poissons Ratio (y) = -0.00627 0.02345
# Poissons Ratio (z) = 0.53401 0.01610
#
# Static dielectric constant tensor:
#      x y z
#    x 2.185570 -0.023290 -0.021240 
#    y -0.023290 2.163200 0.078730 
#    z -0.021240 0.078730 2.270160 
# 
# From -- ./inp_files/240440.got.cif
#   From: 2010.05.17/outbox.cif.g08.bks.cpg/sg2_121_cif.got.tgz:240440.got - 2010.06.03 11:33:40.
