data_PCOD9086535
_publ_section_title
;
Structure prediction by ZEFSAII (Michael W. Deem and Ramdas Pophale) SiO2 
 PCOD9086535
Probable space group: P -1
;
_chemical_formula_sum "Si O2"
_cell_formula_units_Z 16
_cell_length_a 22.005549
_cell_length_b 8.083786
_cell_length_c 22.425230
_cell_angle_alpha 38.752987
_cell_angle_beta 19.221373
_cell_angle_gamma 35.971981
_cell_volume 768.892444
_symmetry_space_group_name_H-M "P -1"
_symmetry_group_IT_number 2
_symmetry_cell_setting 'triclinic'
loop_
_space_group_symop_operation_xyz
x,y,z
-x,-y,-z
loop_
_atom_site_type_symbol
_atom_site_label
_atom_site_fract_x
_atom_site_fract_y
_atom_site_fract_z
Si Si1 0.429352 0.170872 0.456910
Si Si2 0.463452 0.707125 0.113778
Si Si3 0.200223 0.730494 0.667377
Si Si4 0.640167 0.236338 0.676119
Si Si5 0.057157 0.614494 0.708620
Si Si6 0.339276 0.937674 0.044311
Si Si7 0.205632 0.849585 0.064395
Si Si8 0.399945 0.216736 0.707616
O O1 0.485618 0.453924 0.321570
O O2 0.189741 0.316906 0.640588
O O3 0.500000 0.000000 0.500000
O O4 0.515497 0.976792 0.374873
O O5 0.343430 0.703071 0.285763
O O6 0.669117 0.448265 0.996353
O O7 0.362480 0.727485 0.137261
O O8 0.500000 0.000000 0.000000
O O9 0.112664 0.600479 0.731012
O O10 0.260176 0.519147 0.727198
O O11 0.405509 0.758979 0.449095
O O12 0.029733 0.025559 0.757353
O O13 0.847736 0.169021 0.469919
O O14 0.537237 0.006543 0.829896
O O15 0.826186 0.755601 0.874064
O O16 0.264530 0.833638 0.083702
O O17 0.285384 0.075773 0.895667
#
# Coordination Sequence:
#
# PCOD9086535 Si02
#       8
#     2   2   2   2   2   2   2   2
#     4  10  19  36  59  79 118 147 182 230 279 333
#     4  10  21  38  59  82 113 149 193 240 281 326
#     4  10  22  35  58  85 117 146 186 233 274 344
#     4   9  19  37  55  82 112 151 180 240 271 331
#     4   9  19  36  55  82 111 147 186 229 277 333
#     4  10  21  36  59  80 113 149 190 232 284 327
#     4  11  21  38  58  84 112 150 188 233 283 337
#     4  11  20  37  58  84 114 153 184 225 287 331
#
# _framework density 20.809152000000001
#
# number of rings (size 3 to 8) (size 9 to 14) (size 15 to 20)
#    0.750    1.250    2.500    1.500    0.000    2.500 
#    0.000    3.125    0.000    9.000    0.000    0.000 
#    0.000    0.000    0.000    0.000    0.000    0.000 
#
# Total GULP energy -89186.077519 kJ/mol
# GULP energy per Si atom -5574.129845 kJ/mol
# Density = 2.076179 g / cm^3
# Si number density = 20.809152 Si / 1000 Ang^3
#
#
#
# Elastic Constant Matrix: (Units=GPa)
#
#
# Indices 1 2 3 4 5 6 
#
# 1 67.2341 6.7524 23.3946 4.6994 -0.5544 -16.4333
# 2 6.7524 47.8161 9.0486 3.5598 -4.9567 -13.3510
# 3 23.3946 9.0486 46.6041 2.6508 6.0471 -13.1683
# 4 4.6994 3.5598 2.6508 30.4497 -0.5678 8.5446
# 5 -0.5544 -4.9567 6.0471 -0.5678 14.0993 -6.8903
# 6 -16.4333 -13.3510 -13.1683 8.5446 -6.8903 26.2575
#
#
#
# Elastic Compliance Matrix: (Units=1/GPa)
#
#
# Indices 1 2 3 4 5 6 
#
# 1 0.023084 0.006609 -0.008638 -0.009119 0.016753 0.020839
# 2 0.006609 0.033032 -0.004088 -0.012501 0.027918 0.030276
# 3 -0.008638 -0.004088 0.029719 -0.002409 -0.012172 0.005009
# 4 -0.009119 -0.012501 -0.002409 0.044705 -0.017797 -0.032489
# 5 0.016753 0.027918 -0.012172 -0.017797 0.112199 0.053809
# 6 0.020839 0.030276 0.005009 -0.032489 0.053809 0.093726
#
#
# Mechanical properties :
#
#
# Convention : Reuss Voigt Hill
#
# Bulk Modulus (GPa) = 13.58673 26.67173 20.12923
# Shear Modulus (GPa) = 13.39648 22.32521 17.86085
#
# Velocity S-wave (km/s) = 2.54003 3.27900 2.93288
# Velocity P-wave (km/s) = 3.89175 5.21353 4.60036
#
# Compressibility (1/GPa) = 0.07360122
#
# Stress axis : x y z
#
# Youngs Moduli (GPa) = 43.31948 30.27376 33.64848
#
# Poissons Ratio (x) = -0.20008 0.29066
# Poissons Ratio (y) = -0.28629 0.13755
# Poissons Ratio (z) = 0.37419 0.12376
#
# Static dielectric constant tensor:
#      x y z
#    x 1.809290 0.019460 -0.000640 
#    y 0.019460 1.757390 0.007440 
#    z -0.000640 0.007440 1.739090 
# 
# From -- ./inp_files/614029.got.cif
#   From: 2010.05.17/outbox.cif.g08.bks.cpg/sg2_308_cif.got.tgz:614029.got - 2010.06.03 11:33:40.
