data_PCOD9086383
_publ_section_title
;
Structure prediction by ZEFSAII (Michael W. Deem and Ramdas Pophale) SiO2 
 PCOD9086383
Probable space group: P -1
;
_chemical_formula_sum "Si O2"
_cell_formula_units_Z 16
_cell_length_a 21.394350
_cell_length_b 15.193771
_cell_length_c 8.984781
_cell_angle_alpha 86.889170
_cell_angle_beta 78.674804
_cell_angle_gamma 17.898789
_cell_volume 790.339352
_symmetry_space_group_name_H-M "P -1"
_symmetry_group_IT_number 2
_symmetry_cell_setting 'triclinic'
loop_
_space_group_symop_operation_xyz
x,y,z
-x,-y,-z
loop_
_atom_site_type_symbol
_atom_site_label
_atom_site_fract_x
_atom_site_fract_y
_atom_site_fract_z
Si Si1 0.840079 0.137960 0.140528
Si Si2 0.963320 0.800637 0.931991
Si Si3 0.499367 0.792483 0.631477
Si Si4 0.736896 0.633399 0.400038
Si Si5 0.786479 0.841161 0.008121
Si Si6 0.965502 0.506349 0.356757
Si Si7 0.622120 0.307211 0.806378
Si Si8 0.774768 0.254662 0.507909
O O1 0.569014 0.505524 0.186581
O O2 0.842142 0.138396 0.318566
O O3 0.921431 0.934763 0.054282
O O4 0.000000 0.000000 0.000000
O O5 0.843046 0.867952 0.019251
O O6 0.221470 0.437547 0.789862
O O7 0.860490 0.962176 0.802001
O O8 0.699470 0.592234 0.506002
O O9 0.576698 0.592726 0.566624
O O10 0.257149 0.147165 0.640988
O O11 0.448657 0.866447 0.824485
O O12 0.909694 0.477277 0.394712
O O13 0.500000 0.000000 0.500000
O O14 0.810668 0.789220 0.827583
O O15 0.000000 0.500000 0.000000
O O16 0.000000 0.500000 0.500000
O O17 0.679054 0.303721 0.654210
O O18 0.500000 0.500000 0.000000
O O19 0.000000 0.000000 0.500000
#
# Coordination Sequence:
#
# PCOD9086383 Si02
#       8
#     2   2   2   2   2   2   2   2
#     4  11  23  39  60  90 122 160 206 253 302 366
#     4  10  20  40  63  83 118 161 197 248 307 358
#     4  10  19  36  58  80 114 155 190 242 300 346
#     4   9  18  34  57  82 110 148 189 233 293 358
#     4   9  19  36  60  85 112 147 189 238 301 363
#     4   9  19  36  59  87 113 144 194 242 296 369
#     4  10  21  38  59  85 117 158 206 250 297 360
#     4  12  24  39  58  88 125 165 211 252 297 364
#
# _framework density 20.244468000000001
#
# number of rings (size 3 to 8) (size 9 to 14) (size 15 to 20)
#    0.000    2.000    0.000    5.625    0.000    2.000 
#    0.000    9.375    0.000    0.000    0.000    0.000 
#    0.000    0.000    0.000    0.000    0.000    0.000 
#
# Total GULP energy -89070.626254 kJ/mol
# GULP energy per Si atom -5566.914141 kJ/mol
# Density = 2.019839 g / cm^3
# Si number density = 20.244468 Si / 1000 Ang^3
#
#
#
# Elastic Constant Matrix: (Units=GPa)
#
#
# Indices 1 2 3 4 5 6 
#
# 1 85.8014 30.6563 57.2558 -15.8221 9.2253 14.4066
# 2 30.6563 34.3843 28.2209 -4.3565 7.4738 1.8127
# 3 57.2558 28.2209 161.6237 -5.7671 13.0641 -10.1472
# 4 -15.8221 -4.3565 -5.7671 29.1727 2.2398 2.3517
# 5 9.2253 7.4738 13.0641 2.2398 53.5278 0.2053
# 6 14.4066 1.8127 -10.1472 2.3517 0.2053 34.7086
#
#
#
# Elastic Compliance Matrix: (Units=1/GPa)
#
#
# Indices 1 2 3 4 5 6 
#
# 1 0.026127 -0.015236 -0.006895 0.011655 -0.001131 -0.012848
# 2 -0.015236 0.044498 -0.001976 -0.002065 -0.003032 0.003580
# 3 -0.006895 -0.001976 0.009308 -0.002612 -0.000721 0.005868
# 4 0.011655 -0.002065 -0.002612 0.040650 -0.002752 -0.008231
# 5 -0.001131 -0.003032 -0.000721 -0.002752 0.019589 0.000488
# 6 -0.012848 0.003580 0.005868 -0.008231 0.000488 0.036227
#
#
# Mechanical properties :
#
#
# Convention : Reuss Voigt Hill
#
# Bulk Modulus (GPa) = 31.52607 57.11948 44.32277
# Shear Modulus (GPa) = 21.25972 34.52692 27.89332
#
# Velocity S-wave (km/s) = 3.24412 4.13425 3.71593
# Velocity P-wave (km/s) = 5.44416 7.14601 6.35234
#
# Compressibility (1/GPa) = 0.03171978
#
# Stress axis : x y z
#
# Youngs Moduli (GPa) = 38.27397 22.47311 107.43235
#
# Poissons Ratio (x) = 0.34240 0.74072
# Poissons Ratio (y) = 0.58314 0.21230
# Poissons Ratio (z) = 0.26389 0.04441
#
# Static dielectric constant tensor:
#      x y z
#    x 1.622270 -0.399450 -1.156790 
#    y -0.399450 0.384400 -3.644750 
#    z -1.156790 -3.644750 -6.743140 
# 
# From -- ./inp_files/200168.got.cif
#   From: 2010.05.17/outbox.cif.g08.bks.cpg/sg2_101_cif.got.tgz:200168.got - 2010.06.03 11:33:40.
