data_PCOD9086011
_publ_section_title
;
Structure prediction by ZEFSAII (Michael W. Deem and Ramdas Pophale) SiO2 
 PCOD9086011
Probable space group: P -1
;
_chemical_formula_sum "Si O2"
_cell_formula_units_Z 16
_cell_length_a 9.250449
_cell_length_b 14.724215
_cell_length_c 9.758000
_cell_angle_alpha 140.955080
_cell_angle_beta 134.164824
_cell_angle_gamma 57.984108
_cell_volume 600.404719
_symmetry_space_group_name_H-M "P -1"
_symmetry_group_IT_number 2
_symmetry_cell_setting 'triclinic'
loop_
_space_group_symop_operation_xyz
x,y,z
-x,-y,-z
loop_
_atom_site_type_symbol
_atom_site_label
_atom_site_fract_x
_atom_site_fract_y
_atom_site_fract_z
Si Si1 0.711339 0.818513 0.722992
Si Si2 0.300263 0.633509 0.876173
Si Si3 0.454454 0.198169 0.128034
Si Si4 0.860393 0.914473 0.415811
Si Si5 0.860762 0.338497 0.626109
Si Si6 0.724069 0.035292 0.744061
Si Si7 0.633112 0.418651 0.844684
Si Si8 0.138081 0.416746 0.288101
O O1 0.598649 0.882121 0.856481
O O2 0.773424 0.931968 0.782328
O O3 0.549425 0.703380 0.414728
O O4 0.889289 0.726127 0.799694
O O5 0.280300 0.798786 0.025763
O O6 0.528602 0.572744 0.954631
O O7 0.191271 0.533904 0.577417
O O8 0.236466 0.601477 0.954967
O O9 0.686896 0.243778 0.322395
O O10 0.331770 0.347029 0.251201
O O11 0.851766 0.000753 0.652432
O O12 0.959683 0.763382 0.336081
O O13 0.649226 0.881309 0.161390
O O14 0.000000 0.000000 0.500000
O O15 0.746222 0.383277 0.740221
O O16 0.936842 0.476413 0.754302
O O17 0.500000 0.000000 0.500000
#
# Coordination Sequence:
#
# PCOD9086011 Si02
#       8
#     2   2   2   2   2   2   2   2
#     4   8  19  41  68 106 140 191 254 293 367 443
#     4  10  19  35  67 106 140 185 249 299 358 448
#     4   9  23  47  77 106 148 191 251 311 367 438
#     4  12  30  48  73 114 154 197 249 308 375 451
#     4  11  22  45  78 108 145 192 252 309 373 431
#     4  12  25  43  72 109 154 203 245 296 383 454
#     4   9  18  36  69 107 134 186 249 305 356 432
#     4   9  21  41  73 110 136 197 251 308 367 433
#
# _framework density 26.648690999999999
#
# number of rings (size 3 to 8) (size 9 to 14) (size 15 to 20)
#    0.750    1.250    2.500    1.125    3.500    2.000 
#    0.000    4.375    5.500    0.000    0.000    0.000 
#    0.000    0.000    0.000    0.000    0.000    0.000 
#
# Total GULP energy -89600.417014 kJ/mol
# GULP energy per Si atom -5600.026063 kJ/mol
# Density = 2.658804 g / cm^3
# Si number density = 26.648691 Si / 1000 Ang^3
#
#
#
# Elastic Constant Matrix: (Units=GPa)
#
#
# Indices 1 2 3 4 5 6 
#
# 1 111.1883 64.0702 64.3467 7.6110 -9.5683 60.1978
# 2 64.0702 213.3609 59.6053 -8.2068 -16.5017 17.9511
# 3 64.3467 59.6053 155.6395 4.1189 -16.2230 -4.7579
# 4 7.6110 -8.2068 4.1189 30.4829 -5.7973 -39.8767
# 5 -9.5683 -16.5017 -16.2230 -5.7973 51.3579 12.5044
# 6 60.1978 17.9511 -4.7579 -39.8767 12.5044 -165.7296
#
#
#
# Elastic Compliance Matrix: (Units=1/GPa)
#
#
# Indices 1 2 3 4 5 6 
#
# 1 0.010459 -0.002464 -0.003374 0.001346 -0.000552 0.003264
# 2 -0.002464 0.005994 -0.001195 0.001925 0.001445 -0.000566
# 3 -0.003374 -0.001195 0.008470 -0.001684 0.001732 -0.001062
# 4 0.001346 0.001925 -0.001684 0.027039 0.004706 -0.005405
# 5 -0.000552 0.001445 0.001732 0.004706 0.020827 0.000346
# 6 0.003264 -0.000566 -0.001062 -0.005405 0.000346 -0.003553
#
#
# Mechanical properties :
#
#
# Convention : Reuss Voigt Hill
#
# Bulk Modulus (GPa) = 92.09220 95.13700 93.61460
# Shear Modulus (GPa) = 57.52358 2.70001 30.11179
#
# Velocity S-wave (km/s) = 4.65110 1.00766 3.36513
# Velocity P-wave (km/s) = 7.96722 6.09359 7.09254
#
# Compressibility (1/GPa) = 0.01085868
#
# Stress axis : x y z
#
# Youngs Moduli (GPa) = 95.60688 166.83908 118.06212
#
# Poissons Ratio (x) = 0.41105 0.39835
# Poissons Ratio (y) = 0.23555 0.14103
# Poissons Ratio (z) = 0.32259 0.19929
#
# Static dielectric constant tensor:
#      x y z
#    x 1.293410 0.218830 -0.184600 
#    y 0.218830 2.001990 0.018780 
#    z -0.184600 0.018780 2.005540 
# 
# From -- ./inp_files/201526.got.cif
#   From: 2010.05.17/outbox.cif.g08.bks.cpg/sg2_101_cif.got.tgz:201526.got - 2010.06.03 11:33:40.
