data_PCOD9086959
_publ_section_title
;
Structure prediction by ZEFSAII (Michael W. Deem and Ramdas Pophale) SiO2 
 PCOD9086959
Probable space group: P -1
;
_chemical_formula_sum "Si O2"
_cell_formula_units_Z 14
_cell_length_a 5.545824
_cell_length_b 13.060362
_cell_length_c 7.588073
_cell_angle_alpha 98.782406
_cell_angle_beta 79.174581
_cell_angle_gamma 75.007144
_cell_volume 509.581712
_symmetry_space_group_name_H-M "P -1"
_symmetry_group_IT_number 2
_symmetry_cell_setting 'triclinic'
loop_
_space_group_symop_operation_xyz
x,y,z
-x,-y,-z
loop_
_atom_site_type_symbol
_atom_site_label
_atom_site_fract_x
_atom_site_fract_y
_atom_site_fract_z
Si Si1 0.601522 0.421624 0.302698
Si Si2 0.800775 0.909989 0.544203
Si Si3 0.601703 0.365425 0.830622
Si Si4 0.992546 0.902230 0.112571
Si Si5 0.506792 0.095650 0.891798
Si Si6 0.367870 0.782236 0.559421
Si Si7 0.055901 0.375194 0.012654
O O1 0.500000 0.500000 0.500000
O O2 0.476424 0.507467 0.188151
O O3 0.555988 0.307097 0.319549
O O4 0.909047 0.383198 0.220357
O O5 0.641809 0.024638 0.684779
O O6 0.591308 0.842364 0.550954
O O7 0.110312 0.074315 0.664488
O O8 0.064052 0.855946 0.608438
O O9 0.620855 0.289797 0.635918
O O10 0.875141 0.337810 0.884414
O O11 0.360200 0.342204 0.952857
O O12 0.792755 0.842173 0.056627
O O13 0.291135 0.845588 0.063554
O O14 0.000000 0.000000 0.000000
O O15 0.500000 0.000000 0.000000
O O16 0.000000 0.500000 0.000000
#
# Coordination Sequence:
#
# PCOD9086959 Si02
#       7
#     2   2   2   2   2   2   2
#     4   9  20  39  62  87 122 170 218 250 296 369
#     4  12  23  41  63  92 130 161 203 265 322 371
#     4  10  21  40  62  86 123 173 218 253 301 367
#     4  10  21  40  66  91 115 157 206 248 305 387
#     4  10  21  40  67  93 119 160 206 247 305 389
#     4  11  25  40  59  93 131 165 200 260 322 361
#     4  10  19  36  61  86 111 154 217 271 297 344
#
# _framework density 27.473514000000002
#
# number of rings (size 3 to 8) (size 9 to 14) (size 15 to 20)
#    0.000    1.714    0.000    5.143    0.000    3.429 
#    0.000   29.286    0.000    0.000    0.000    0.000 
#    0.000    0.000    0.000    0.000    0.000    0.000 
#
# Total GULP energy -78150.013791 kJ/mol
# GULP energy per Si atom -5582.143842 kJ/mol
# Density = 2.741098 g / cm^3
# Si number density = 27.473514 Si / 1000 Ang^3
#
#
#
# Elastic Constant Matrix: (Units=GPa)
#
#
# Indices 1 2 3 4 5 6 
#
# 1 313.6684 113.1592 39.9051 -13.0502 -4.6366 12.1132
# 2 113.1592 152.4213 32.3918 -28.3940 4.0318 14.3844
# 3 39.9051 32.3918 147.5307 -10.8470 -14.6758 1.1012
# 4 -13.0502 -28.3940 -10.8470 50.3635 4.7953 1.0020
# 5 -4.6366 4.0318 -14.6758 4.7953 38.6894 -1.1410
# 6 12.1132 14.3844 1.1012 1.0020 -1.1410 82.4239
#
#
#
# Elastic Compliance Matrix: (Units=1/GPa)
#
#
# Indices 1 2 3 4 5 6 
#
# 1 0.004446 -0.003401 -0.000442 -0.000939 0.000835 -0.000031
# 2 -0.003401 0.010498 -0.001267 0.005045 -0.002649 -0.001413
# 3 -0.000442 -0.001267 0.007497 0.000509 0.002866 0.000219
# 4 -0.000939 0.005045 0.000509 0.022903 -0.003316 -0.001073
# 5 0.000835 -0.002649 0.002866 -0.003316 0.027743 0.000726
# 6 -0.000031 -0.001413 0.000219 -0.001073 0.000726 0.012404
#
#
# Mechanical properties :
#
#
# Convention : Reuss Voigt Hill
#
# Bulk Modulus (GPa) = 81.82318 109.39251 95.60784
# Shear Modulus (GPa) = 50.10893 62.83965 56.47429
#
# Velocity S-wave (km/s) = 4.27535 4.78774 4.53878
# Velocity P-wave (km/s) = 7.36333 8.39447 7.89575
#
# Compressibility (1/GPa) = 0.01222148
#
# Stress axis : x y z
#
# Youngs Moduli (GPa) = 224.94271 95.25567 133.39069
#
# Poissons Ratio (x) = 0.32394 0.05890
# Poissons Ratio (y) = 0.76498 0.16903
# Poissons Ratio (z) = 0.09932 0.12070
#
# Static dielectric constant tensor:
#      x y z
#    x 2.297770 -0.065610 -0.057750 
#    y -0.065610 2.251120 -0.010730 
#    z -0.057750 -0.010730 2.340120 
# 
# From -- ./inp_files/132327.got.cif
#   From: 2010.05.17/outbox.cif.g08.bks.cpg/sg2_67_cif.got.tgz:132327.got - 2010.06.03 11:33:40.
