data_PCOD9086941
_publ_section_title
;
Structure prediction by ZEFSAII (Michael W. Deem and Ramdas Pophale) SiO2 
 PCOD9086941
Probable space group: P -1
;
_chemical_formula_sum "Si O2"
_cell_formula_units_Z 16
_cell_length_a 8.038583
_cell_length_b 15.796006
_cell_length_c 15.953538
_cell_angle_alpha 28.792402
_cell_angle_beta 61.034867
_cell_angle_gamma 64.481869
_cell_volume 853.531922
_symmetry_space_group_name_H-M "P -1"
_symmetry_group_IT_number 2
_symmetry_cell_setting 'triclinic'
loop_
_space_group_symop_operation_xyz
x,y,z
-x,-y,-z
loop_
_atom_site_type_symbol
_atom_site_label
_atom_site_fract_x
_atom_site_fract_y
_atom_site_fract_z
Si Si1 0.865904 0.565680 0.851927
Si Si2 0.227019 0.697854 0.749184
Si Si3 0.085627 0.540292 0.259530
Si Si4 0.252944 0.121712 0.777699
Si Si5 0.288006 0.502778 0.517781
Si Si6 0.719493 0.937718 0.508981
Si Si7 0.166985 0.802712 0.158060
Si Si8 0.641679 0.774508 0.507072
O O1 0.879889 0.472733 0.837642
O O2 0.750035 0.751467 0.710104
O O3 0.072637 0.622494 0.787443
O O4 0.775910 0.433439 0.056344
O O5 0.436991 0.716481 0.642140
O O6 0.175301 0.896627 0.620649
O O7 0.121259 0.715549 0.153601
O O8 0.232000 0.399317 0.386283
O O9 0.871806 0.484010 0.382664
O O10 0.269282 0.313170 0.645502
O O11 0.372872 0.116013 0.668992
O O12 0.024876 0.116615 0.823228
O O13 0.301994 0.964648 0.964878
O O14 0.500000 0.500000 0.500000
O O15 0.246217 0.654095 0.328999
O O16 0.761950 0.887016 0.446868
O O17 0.500000 0.000000 0.500000
#
# Coordination Sequence:
#
# PCOD9086941 Si02
#       8
#     2   2   2   2   2   2   2   2
#     4  10  22  38  59  86 116 153 190 235 295 343
#     4  10  22  39  58  83 123 149 188 245 290 336
#     4  10  20  37  61  86 112 153 196 234 282 338
#     4  10  20  37  60  86 111 151 193 234 279 340
#     4  11  22  38  61  84 126 147 182 238 294 342
#     4   9  20  36  58  83 110 150 193 235 282 330
#     4  10  20  38  61  84 115 148 193 238 277 336
#     4  10  19  36  61  85 112 151 199 233 282 339
#
# _framework density 18.745636999999999
#
# number of rings (size 3 to 8) (size 9 to 14) (size 15 to 20)
#    0.000    2.000    2.500    1.125    3.500    5.000 
#    2.250    0.000    2.750    0.000    0.000    0.000 
#    0.000    0.000    0.000    0.000    0.000    0.000 
#
# Total GULP energy -89090.769505 kJ/mol
# GULP energy per Si atom -5568.173094 kJ/mol
# Density = 1.870297 g / cm^3
# Si number density = 18.745637 Si / 1000 Ang^3
#
#
#
# Elastic Constant Matrix: (Units=GPa)
#
#
# Indices 1 2 3 4 5 6 
#
# 1 62.3575 15.8292 35.0445 10.7475 2.8443 -9.0790
# 2 15.8292 70.1011 43.2424 3.5754 7.1984 -5.6817
# 3 35.0445 43.2424 138.4213 7.9292 12.3072 -3.6090
# 4 10.7475 3.5754 7.9292 29.8163 -8.5904 4.4225
# 5 2.8443 7.1984 12.3072 -8.5904 20.2476 3.8292
# 6 -9.0790 -5.6817 -3.6090 4.4225 3.8292 20.6076
#
#
#
# Elastic Compliance Matrix: (Units=1/GPa)
#
#
# Indices 1 2 3 4 5 6 
#
# 1 0.022511 -0.000201 -0.003944 -0.011269 -0.007946 0.013066
# 2 -0.000201 0.018630 -0.004836 -0.003621 -0.006357 0.006159
# 3 -0.003944 -0.004836 0.010300 -0.002176 -0.004932 0.000116
# 4 -0.011269 -0.003621 -0.002176 0.050630 0.029982 -0.022781
# 5 -0.007946 -0.006357 -0.004932 0.029982 0.073438 -0.026197
# 6 0.013066 0.006159 0.000116 -0.022781 -0.026197 0.065758
#
#
# Mechanical properties :
#
#
# Convention : Reuss Voigt Hill
#
# Bulk Modulus (GPa) = 29.86868 51.01246 40.44057
# Shear Modulus (GPa) = 18.49197 25.91854 22.20525
#
# Velocity S-wave (km/s) = 3.14422 3.72243 3.44547
# Velocity P-wave (km/s) = 5.39905 6.76368 6.11952
#
# Compressibility (1/GPa) = 0.03347988
#
# Stress axis : x y z
#
# Youngs Moduli (GPa) = 44.42291 53.67629 97.08928
#
# Poissons Ratio (x) = 0.01077 0.38290
# Poissons Ratio (y) = 0.00891 0.46953
# Poissons Ratio (z) = 0.17520 0.25958
#
# Static dielectric constant tensor:
#      x y z
#    x 1.587200 -0.006460 0.063640 
#    y -0.006460 1.728110 -0.008520 
#    z 0.063640 -0.008520 1.614730 
# 
# From -- ./inp_files/222087.got.cif
#   From: 2010.05.17/outbox.cif.g08.bks.cpg/sg2_112_cif.got.tgz:222087.got - 2010.06.03 11:33:40.
