data_PCOD9086595
_publ_section_title
;
Structure prediction by ZEFSAII (Michael W. Deem and Ramdas Pophale) SiO2 
 PCOD9086595
Probable space group: P -1
;
_chemical_formula_sum "Si O2"
_cell_formula_units_Z 16
_cell_length_a 11.301453
_cell_length_b 21.927501
_cell_length_c 10.683730
_cell_angle_alpha 142.723046
_cell_angle_beta 116.326260
_cell_angle_gamma 32.846257
_cell_volume 633.653874
_symmetry_space_group_name_H-M "P -1"
_symmetry_group_IT_number 2
_symmetry_cell_setting 'triclinic'
loop_
_space_group_symop_operation_xyz
x,y,z
-x,-y,-z
loop_
_atom_site_type_symbol
_atom_site_label
_atom_site_fract_x
_atom_site_fract_y
_atom_site_fract_z
Si Si1 0.258359 0.664751 0.841532
Si Si2 0.131831 0.203460 0.289400
Si Si3 0.666123 0.153644 0.498968
Si Si4 0.712986 0.705710 0.616145
Si Si5 0.729738 0.939857 0.379980
Si Si6 0.236287 0.867146 0.003072
Si Si7 0.225926 0.718985 0.343431
Si Si8 0.453436 0.924371 0.202365
O O1 0.505712 0.475079 0.751003
O O2 0.142105 0.650037 0.681546
O O3 0.359925 0.681528 0.819850
O O4 0.962659 0.906942 0.168319
O O5 0.197037 0.274856 0.414715
O O6 0.144348 0.166674 0.381290
O O7 0.428713 0.943965 0.948427
O O8 0.400102 0.316072 0.541083
O O9 0.710961 0.242335 0.672547
O O10 0.628859 0.104938 0.519350
O O11 0.000000 0.500000 0.500000
O O12 0.670135 0.869992 0.180214
O O13 0.076834 0.722114 0.220063
O O14 0.557703 0.063661 0.633563
O O15 0.475271 0.791260 0.958845
O O16 0.036617 0.054030 0.323601
O O17 0.000000 0.000000 0.000000
#
# Coordination Sequence:
#
# PCOD9086595 Si02
#       8
#     2   2   2   2   2   2   2   2
#     4  10  21  37  62  93 118 149 199 251 300 345
#     4  10  19  36  59  85 122 151 187 250 300 339
#     4  10  20  38  62  88 119 153 195 250 299 342
#     4  10  20  34  59  90 117 151 194 242 301 352
#     4  10  21  39  62  83 119 167 198 233 294 354
#     4  10  20  38  61  87 121 157 192 245 301 345
#     4  10  22  38  61  92 115 156 203 241 295 353
#     4  10  20  39  62  81 119 163 195 235 294 352
#
# _framework density 25.25038
#
# number of rings (size 3 to 8) (size 9 to 14) (size 15 to 20)
#    0.000    2.000    2.500    1.125    0.000    1.000 
#    0.000    0.625    0.000    0.000    0.000    0.000 
#    0.000    0.000    0.000    0.000    0.000    0.000 
#
# Total GULP energy -89470.523818 kJ/mol
# GULP energy per Si atom -5591.907739 kJ/mol
# Density = 2.519291 g / cm^3
# Si number density = 25.250380 Si / 1000 Ang^3
#
#
#
# Elastic Constant Matrix: (Units=GPa)
#
#
# Indices 1 2 3 4 5 6 
#
# 1 161.0368 71.6480 27.2656 -1.4987 44.5382 -8.6602
# 2 71.6480 163.2524 22.7806 4.8125 20.4033 -24.0227
# 3 27.2656 22.7806 47.5180 -0.6116 0.9067 -16.6540
# 4 -1.4987 4.8125 -0.6116 35.3166 -7.5976 9.5837
# 5 44.5382 20.4033 0.9067 -7.5976 41.3682 -6.5629
# 6 -8.6602 -24.0227 -16.6540 9.5837 -6.5629 63.5883
#
#
#
# Elastic Compliance Matrix: (Units=1/GPa)
#
#
# Indices 1 2 3 4 5 6 
#
# 1 0.011579 -0.003158 -0.005668 -0.001037 -0.011310 -0.002111
# 2 -0.003158 0.008201 -0.001223 -0.002107 -0.000592 0.002604
# 3 -0.005668 -0.001223 0.027050 0.000158 0.007183 0.006568
# 4 -0.001037 -0.002107 0.000158 0.031427 0.007147 -0.004895
# 5 -0.011310 -0.000592 0.007183 0.007147 0.038272 0.002990
# 6 -0.002111 0.002604 0.006568 -0.004895 0.002990 0.019189
#
#
# Mechanical properties :
#
#
# Convention : Reuss Voigt Hill
#
# Bulk Modulus (GPa) = 37.40587 68.35508 52.88047
# Shear Modulus (GPa) = 30.35336 44.72883 37.54110
#
# Velocity S-wave (km/s) = 3.47089 4.21338 3.86003
# Velocity P-wave (km/s) = 5.55958 7.12740 6.39174
#
# Compressibility (1/GPa) = 0.02673377
#
# Stress axis : x y z
#
# Youngs Moduli (GPa) = 86.36242 121.93174 36.96836
#
# Poissons Ratio (x) = 0.38500 0.20953
# Poissons Ratio (y) = 0.27269 0.04521
# Poissons Ratio (z) = 0.48949 0.14913
#
# Static dielectric constant tensor:
#      x y z
#    x 2.075380 0.010110 -0.019710 
#    y 0.010110 1.982150 0.007690 
#    z -0.019710 0.007690 2.006400 
# 
# From -- ./inp_files/423977.got.cif
#   From: 2010.05.17/outbox.cif.g08.bks.cpg/sg2_212_cif.got.tgz:423977.got - 2010.06.03 11:33:40.
