data_PCOD9086003
_publ_section_title
;
Structure prediction by ZEFSAII (Michael W. Deem and Ramdas Pophale) SiO2 
 PCOD9086003
Probable space group: P -1
;
_chemical_formula_sum "Si O2"
_cell_formula_units_Z 14
_cell_length_a 11.670800
_cell_length_b 9.370487
_cell_length_c 13.894860
_cell_angle_alpha 133.506372
_cell_angle_beta 149.971147
_cell_angle_gamma 53.476280
_cell_volume 551.544632
_symmetry_space_group_name_H-M "P -1"
_symmetry_group_IT_number 2
_symmetry_cell_setting 'triclinic'
loop_
_space_group_symop_operation_xyz
x,y,z
-x,-y,-z
loop_
_atom_site_type_symbol
_atom_site_label
_atom_site_fract_x
_atom_site_fract_y
_atom_site_fract_z
Si Si1 0.858107 0.457796 0.235540
Si Si2 0.291825 0.214443 0.864423
Si Si3 0.848740 0.356330 0.692500
Si Si4 0.367473 0.860312 0.210795
Si Si5 0.035123 0.765655 0.073844
Si Si6 0.341792 0.501357 0.679976
Si Si7 0.472985 0.122958 0.236080
O O1 0.740266 0.645227 0.187079
O O2 0.769836 0.438453 0.270867
O O3 0.129751 0.489832 0.448977
O O4 0.773231 0.270314 0.028862
O O5 0.039133 0.203494 0.719969
O O6 0.404479 0.016640 0.816689
O O7 0.457927 0.338161 0.113981
O O8 0.962593 0.571849 0.869742
O O9 0.617105 0.320904 0.449588
O O10 0.829231 0.312592 0.771530
O O11 0.545438 0.711318 0.320610
O O12 0.478754 0.024893 0.301880
O O13 0.187229 0.910395 0.186831
O O14 0.792873 0.853217 0.969591
#
# Coordination Sequence:
#
# PCOD9086003 Si02
#       7
#     2   2   2   2   2   2   2
#     4  10  19  35  66  98 128 170 214 261 330 376
#     4  11  21  43  66  97 132 163 218 274 313 382
#     4  11  26  46  65  91 134 178 219 255 320 396
#     4  11  21  43  66  97 132 163 218 274 313 382
#     4  11  26  46  65  91 134 178 219 255 320 396
#     4  10  19  35  66  97 130 169 211 268 322 380
#     4  12  25  41  70  98 130 168 212 281 325 366
#
# _framework density 25.383258000000001
#
# number of rings (size 3 to 8) (size 9 to 14) (size 15 to 20)
#    0.000    1.143    5.714    2.143    0.000    5.714 
#    0.000    0.000    0.000    0.000    0.000    0.000 
#    0.000    0.000    0.000    0.000    0.000    0.000 
#
# Total GULP energy -78456.515144 kJ/mol
# GULP energy per Si atom -5604.036796 kJ/mol
# Density = 2.532548 g / cm^3
# Si number density = 25.383258 Si / 1000 Ang^3
#
#
#
# Elastic Constant Matrix: (Units=GPa)
#
#
# Indices 1 2 3 4 5 6 
#
# 1 72.5262 -8.2205 -19.1416 13.8631 8.3392 2.5027
# 2 -8.2205 60.8779 11.1309 -3.9339 -6.2609 -6.6297
# 3 -19.1416 11.1309 106.7095 -10.0054 -9.6717 -1.1187
# 4 13.8631 -3.9339 -10.0054 30.0332 0.1362 7.5427
# 5 8.3392 -6.2609 -9.6717 0.1362 27.5457 -0.7196
# 6 2.5027 -6.6297 -1.1187 7.5427 -0.7196 37.0991
#
#
#
# Elastic Compliance Matrix: (Units=1/GPa)
#
#
# Indices 1 2 3 4 5 6 
#
# 1 0.016121 0.001052 0.001789 -0.006805 -0.003967 0.000461
# 2 0.001052 0.017498 -0.001247 0.000634 0.003295 0.002953
# 3 0.001789 -0.001247 0.010308 0.002557 0.002768 -0.000499
# 4 -0.006805 0.000634 0.002557 0.039185 0.002719 -0.007265
# 5 -0.003967 0.003295 0.002768 0.002719 0.039242 0.001148
# 6 0.000461 0.002953 -0.000499 -0.007265 0.001148 0.028936
#
#
# Mechanical properties :
#
#
# Convention : Reuss Voigt Hill
#
# Bulk Modulus (GPa) = 21.22512 23.07236 22.14874
# Shear Modulus (GPa) = 30.52399 36.02525 33.27462
#
# Velocity S-wave (km/s) = 3.47151 3.77138 3.62455
# Velocity P-wave (km/s) = 4.94454 5.29847 5.12456
#
# Compressibility (1/GPa) = 0.04711398
#
# Stress axis : x y z
#
# Youngs Moduli (GPa) = 62.03240 57.14971 97.01415
#
# Poissons Ratio (x) = -0.06013 -0.17357
# Poissons Ratio (y) = -0.06527 0.12102
# Poissons Ratio (z) = -0.11099 0.07129
#
# Static dielectric constant tensor:
#      x y z
#    x 2.027310 -0.001830 0.026430 
#    y -0.001830 1.965990 -0.012560 
#    z 0.026430 -0.012560 1.949170 
# 
# From -- ./inp_files/263125.got.cif
#   From: 2010.05.17/outbox.cif.g08.bks.cpg/sg2_132_cif.got.tgz:263125.got - 2010.06.03 11:33:40.
