data_PCOD9086685
_publ_section_title
;
Structure prediction by ZEFSAII (Michael W. Deem and Ramdas Pophale) SiO2 
 PCOD9086685
Probable space group: P -1
;
_chemical_formula_sum "Si O2"
_cell_formula_units_Z 16
_cell_length_a 14.556347
_cell_length_b 8.866288
_cell_length_c 11.327490
_cell_angle_alpha 119.357096
_cell_angle_beta 74.541547
_cell_angle_gamma 56.279116
_cell_volume 709.208119
_symmetry_space_group_name_H-M "P -1"
_symmetry_group_IT_number 2
_symmetry_cell_setting 'triclinic'
loop_
_space_group_symop_operation_xyz
x,y,z
-x,-y,-z
loop_
_atom_site_type_symbol
_atom_site_label
_atom_site_fract_x
_atom_site_fract_y
_atom_site_fract_z
Si Si1 0.043163 0.636181 0.035229
Si Si2 0.323739 0.286868 0.613771
Si Si3 0.246497 0.125798 0.192872
Si Si4 0.427978 0.808644 0.251721
Si Si5 0.774630 0.388870 0.860470
Si Si6 0.984950 0.250126 0.380106
Si Si7 0.420819 0.439523 0.229563
Si Si8 0.239830 0.688593 0.633972
O O1 0.122086 0.602530 0.116441
O O2 0.176272 0.483801 0.831205
O O3 0.869875 0.980860 0.192410
O O4 0.000000 0.500000 0.000000
O O5 0.330784 0.470733 0.629296
O O6 0.500000 0.000000 0.500000
O O7 0.325026 0.121705 0.460287
O O8 0.148531 0.443274 0.383003
O O9 0.102896 0.202353 0.248601
O O10 0.343284 0.909924 0.192233
O O11 0.394560 0.913137 0.968575
O O12 0.421207 0.639256 0.261059
O O13 0.617409 0.583937 0.075147
O O14 0.691411 0.503270 0.803206
O O15 0.902852 0.039544 0.688783
O O16 0.893714 0.262784 0.326111
O O17 0.350142 0.536760 0.421800
#
# Coordination Sequence:
#
# PCOD9086685 Si02
#       8
#     2   2   2   2   2   2   2   2
#     4  11  25  48  72 101 135 182 239 285 334 399
#     4  12  25  48  75  92 133 193 238 279 339 409
#     4  10  19  36  66  97 146 170 225 264 342 421
#     4  11  19  41  70 101 131 184 228 272 336 410
#     4  10  20  40  71  99 140 180 224 274 347 411
#     4  10  19  36  60 104 135 175 216 274 351 400
#     4  11  22  41  68 107 140 174 222 280 350 417
#     4  11  26  45  68 101 143 175 227 293 348 402
#
# _framework density 22.560372999999998
#
# number of rings (size 3 to 8) (size 9 to 14) (size 15 to 20)
#    0.000    1.250    5.000    1.875    0.000    2.500 
#    2.250    5.000    0.000    0.000    0.000    0.000 
#    0.000    0.000    0.000    0.000    0.000    0.000 
#
# Total GULP energy -89420.808482 kJ/mol
# GULP energy per Si atom -5588.800530 kJ/mol
# Density = 2.250903 g / cm^3
# Si number density = 22.560373 Si / 1000 Ang^3
#
#
#
# Elastic Constant Matrix: (Units=GPa)
#
#
# Indices 1 2 3 4 5 6 
#
# 1 75.5748 60.4547 -10.6178 12.6677 15.6712 14.2549
# 2 60.4547 1.2528 234.1559 7.5926 -90.3846 97.1233
# 3 -10.6178 234.1559 -103.1791 30.6051 133.8579 -121.5563
# 4 12.6677 7.5926 30.6051 41.5241 0.0104 6.2552
# 5 15.6712 -90.3846 133.8579 0.0104 -43.5462 81.7842
# 6 14.2549 97.1233 -121.5563 6.2552 81.7842 -47.3816
#
#
#
# Elastic Compliance Matrix: (Units=1/GPa)
#
#
# Indices 1 2 3 4 5 6 
#
# 1 0.036128 -0.017619 0.010633 -0.009714 0.008388 -0.039331
# 2 -0.017619 0.016596 -0.007438 0.003688 -0.012061 0.027469
# 3 0.010633 -0.007438 0.011076 -0.006645 0.010853 -0.022606
# 4 -0.009714 0.003688 -0.006645 0.029326 -0.007327 0.012907
# 5 0.008388 -0.012061 0.010853 -0.007327 0.025584 -0.006849
# 6 -0.039331 0.027469 -0.022606 0.012907 -0.006849 0.071246
#
#
# Mechanical properties :
#
#
# Convention : Reuss Voigt Hill
#
# Bulk Modulus (GPa) = 28.61090 60.18158 44.39624
# Shear Modulus (GPa) = 21.69610 -30.57035 -4.43712
#
# Velocity S-wave (km/s) = 3.10448 -3.68509 -1.40394
# Velocity P-wave (km/s) = 5.05567 2.93721 4.13443
#
# Compressibility (1/GPa) = 0.03495172
#
# Stress axis : x y z
#
# Youngs Moduli (GPa) = 27.67947 60.25422 90.28600
#
# Poissons Ratio (x) = 1.06164 -0.96003
# Poissons Ratio (y) = 0.48770 0.67155
# Poissons Ratio (z) = -0.29432 0.44817
#
# Static dielectric constant tensor:
#      x y z
#    x 1.935090 -0.137970 0.026890 
#    y -0.137970 2.206940 0.014930 
#    z 0.026890 0.014930 1.849150 
# 
# From -- ./inp_files/398940.got.cif
#   From: 2010.05.17/outbox.cif.g08.bks.cpg/sg2_200_cif.got.tgz:398940.got - 2010.06.03 11:33:40.
