data_PCOD9086001
_publ_section_title
;
Structure prediction by ZEFSAII (Michael W. Deem and Ramdas Pophale) SiO2 
 PCOD9086001
Probable space group: P -1
;
_chemical_formula_sum "Si O2"
_cell_formula_units_Z 12
_cell_length_a 9.231373
_cell_length_b 11.073868
_cell_length_c 19.307961
_cell_angle_alpha 159.772097
_cell_angle_beta 54.060751
_cell_angle_gamma 125.966359
_cell_volume 547.800423
_symmetry_space_group_name_H-M "P -1"
_symmetry_group_IT_number 2
_symmetry_cell_setting 'triclinic'
loop_
_space_group_symop_operation_xyz
x,y,z
-x,-y,-z
loop_
_atom_site_type_symbol
_atom_site_label
_atom_site_fract_x
_atom_site_fract_y
_atom_site_fract_z
Si Si1 0.821603 0.116432 0.547832
Si Si2 0.529214 0.433257 0.738512
Si Si3 0.453478 0.498908 0.644146
Si Si4 0.112466 0.700881 0.783369
Si Si5 0.831283 0.310386 0.400697
Si Si6 0.832337 0.692024 0.172595
O O1 0.718564 0.444875 0.728129
O O2 0.005079 0.327344 0.638576
O O3 0.675601 0.875024 0.506254
O O4 0.865629 0.894391 0.346757
O O5 0.521735 0.609687 0.761528
O O6 0.360978 0.537601 0.884264
O O7 0.500000 0.000000 0.500000
O O8 0.315988 0.728434 0.770400
O O9 0.358766 0.531620 0.462523
O O10 0.114070 0.707856 0.703655
O O11 0.000000 0.000000 0.000000
O O12 0.000000 0.500000 0.500000
O O13 0.794417 0.949694 0.259785
O O14 0.000000 0.500000 0.000000
#
# Coordination Sequence:
#
# PCOD9086001 Si02
#       6
#     2   2   2   2   2   2
#     4  10  19  44  66  85 122 170 208 247 304 377
#     4   8  15  35  65  84 113 153 215 244 291 355
#     4  10  20  42  64  86 122 172 203 250 308 376
#     4  12  27  40  59  96 133 160 200 262 322 355
#     4  12  22  44  65  90 127 165 205 256 312 368
#     4  10  19  35  66  97 113 152 219 259 286 361
#
# _framework density 21.905788000000001
#
# number of rings (size 3 to 8) (size 9 to 14) (size 15 to 20)
#    0.000    2.000    6.667    1.000    4.667    0.000 
#    3.000    2.500    0.000    0.000    0.000    0.000 
#    0.000    0.000    0.000    0.000    0.000    0.000 
#
# Total GULP energy -66861.445883 kJ/mol
# GULP energy per Si atom -5571.787157 kJ/mol
# Density = 2.185593 g / cm^3
# Si number density = 21.905788 Si / 1000 Ang^3
#
#
#
# Elastic Constant Matrix: (Units=GPa)
#
#
# Indices 1 2 3 4 5 6 
#
# 1 158.1208 5.6120 52.7803 -18.9502 -37.6334 14.5086
# 2 5.6120 85.0884 38.1049 -24.1526 -9.8087 15.6653
# 3 52.7803 38.1049 91.1004 -20.8346 -32.0981 17.5406
# 4 -18.9502 -24.1526 -20.8346 27.0264 17.7848 -12.6693
# 5 -37.6334 -9.8087 -32.0981 17.7848 31.4902 -6.4921
# 6 14.5086 15.6653 17.5406 -12.6693 -6.4921 37.7088
#
#
#
# Elastic Compliance Matrix: (Units=1/GPa)
#
#
# Indices 1 2 3 4 5 6 
#
# 1 0.009426 0.001847 -0.002925 -0.000633 0.008862 -0.001720
# 2 0.001847 0.020077 -0.009162 0.020234 -0.012330 -0.000114
# 3 -0.002925 -0.009162 0.022798 -0.008670 0.020752 -0.005013
# 4 -0.000633 0.020234 -0.008670 0.088844 -0.049937 0.017123
# 5 0.008862 -0.012330 0.020752 -0.049937 0.085811 -0.009945
# 6 -0.001720 -0.000114 -0.005013 0.017123 -0.009945 0.033601
#
#
# Mechanical properties :
#
#
# Convention : Reuss Voigt Hill
#
# Bulk Modulus (GPa) = 31.42672 58.58932 45.00802
# Shear Modulus (GPa) = 17.14418 35.09926 26.12172
#
# Velocity S-wave (km/s) = 2.80059 4.00719 3.45694
# Velocity P-wave (km/s) = 4.98349 6.94365 6.04357
#
# Compressibility (1/GPa) = 0.03182006
#
# Stress axis : x y z
#
# Youngs Moduli (GPa) = 106.08760 49.80849 43.86386
#
# Poissons Ratio (x) = -0.09198 0.12829
# Poissons Ratio (y) = -0.19591 0.40190
# Poissons Ratio (z) = 0.31028 0.45636
#
# Static dielectric constant tensor:
#      x y z
#    x 1.925790 0.050990 0.024500 
#    y 0.050990 1.903910 0.040490 
#    z 0.024500 0.040490 1.841050 
# 
# From -- ./inp_files/145041.got.cif
#   From: 2010.05.17/outbox.cif.g08.bks.cpg/sg2_73_cif.got.tgz:145041.got - 2010.06.03 11:33:40.
