data_PCOD9086243
_publ_section_title
;
Structure prediction by ZEFSAII (Michael W. Deem and Ramdas Pophale) SiO2 
 PCOD9086243
Probable space group: P -1
;
_chemical_formula_sum "Si O2"
_cell_formula_units_Z 16
_cell_length_a 9.017834
_cell_length_b 12.535475
_cell_length_c 16.414767
_cell_angle_alpha 140.807543
_cell_angle_beta 136.356218
_cell_angle_gamma 47.384281
_cell_volume 780.018080
_symmetry_space_group_name_H-M "P -1"
_symmetry_group_IT_number 2
_symmetry_cell_setting 'triclinic'
loop_
_space_group_symop_operation_xyz
x,y,z
-x,-y,-z
loop_
_atom_site_type_symbol
_atom_site_label
_atom_site_fract_x
_atom_site_fract_y
_atom_site_fract_z
Si Si1 0.873609 0.595074 0.326667
Si Si2 0.655596 0.390845 0.426663
Si Si3 0.190114 0.106153 0.988906
Si Si4 0.282249 0.478358 0.207094
Si Si5 0.664226 0.998045 0.188137
Si Si6 0.065666 0.175769 0.657762
Si Si7 0.792304 0.293133 0.018752
Si Si8 0.554344 0.499095 0.888452
O O1 0.092856 0.593819 0.463261
O O2 0.133153 0.658921 0.292737
O O3 0.834332 0.751259 0.337965
O O4 0.926098 0.415706 0.189283
O O5 0.500000 0.500000 0.500000
O O6 0.528403 0.444560 0.323281
O O7 0.659821 0.191904 0.329027
O O8 0.207083 0.305607 0.099893
O O9 0.416609 0.001733 0.061482
O O10 0.970175 0.115617 0.959757
O O11 0.187591 0.035771 0.855107
O O12 0.297746 0.483070 0.118517
O O13 0.770672 0.872102 0.228784
O O14 0.361035 0.408234 0.728769
O O15 0.000000 0.000000 0.500000
O O16 0.585893 0.322604 0.016617
O O17 0.690773 0.383845 0.947406
#
# Coordination Sequence:
#
# PCOD9086243 Si02
#       8
#     2   2   2   2   2   2   2   2
#     4  10  19  36  57  80 112 149 180 230 284 326
#     4  11  19  38  59  82 116 147 187 234 278 334
#     4  10  20  37  59  83 114 146 185 241 280 322
#     4  11  21  35  61  88 107 150 195 229 277 335
#     4  10  22  32  55  93 112 136 188 244 277 322
#     4  12  21  35  59  86 112 146 190 233 278 335
#     4   9  18  37  58  80 112 147 186 226 283 326
#     4   9  21  34  56  90 109 143 195 233 269 344
#
# _framework density 20.512343999999999
#
# number of rings (size 3 to 8) (size 9 to 14) (size 15 to 20)
#    0.750    1.000    3.750    1.500    1.750    1.500 
#    0.000    0.625    0.000   12.000    0.000    0.000 
#    0.000    0.000    0.000    0.000    0.000    0.000 
#
# Total GULP energy -89200.162560 kJ/mol
# GULP energy per Si atom -5575.010160 kJ/mol
# Density = 2.046566 g / cm^3
# Si number density = 20.512344 Si / 1000 Ang^3
#
#
#
# Elastic Constant Matrix: (Units=GPa)
#
#
# Indices 1 2 3 4 5 6 
#
# 1 55.3846 18.5576 3.7900 -3.6357 -2.7111 -0.1443
# 2 18.5576 83.5543 19.0386 -10.9372 -0.8521 -3.7957
# 3 3.7900 19.0386 66.9772 -12.2564 -0.4967 -1.3709
# 4 -3.6357 -10.9372 -12.2564 23.4362 -8.1893 -0.4202
# 5 -2.7111 -0.8521 -0.4967 -8.1893 24.8839 -1.7443
# 6 -0.1443 -3.7957 -1.3709 -0.4202 -1.7443 25.2977
#
#
#
# Elastic Compliance Matrix: (Units=1/GPa)
#
#
# Indices 1 2 3 4 5 6 
#
# 1 0.019706 -0.004171 0.000514 0.002342 0.002767 -0.000256
# 2 -0.004171 0.014345 -0.002820 0.005264 0.001867 0.002192
# 3 0.000514 -0.002820 0.017403 0.009051 0.003349 0.000904
# 4 0.002342 0.005264 0.009051 0.057165 0.019681 0.003600
# 5 0.002767 0.001867 0.003349 0.019681 0.047382 0.004071
# 6 -0.000256 0.002192 0.000904 0.003600 0.004071 0.040246
#
#
# Mechanical properties :
#
#
# Convention : Reuss Voigt Hill
#
# Bulk Modulus (GPa) = 25.97289 32.07649 29.02469
# Shear Modulus (GPa) = 22.51926 25.69220 24.10573
#
# Velocity S-wave (km/s) = 3.31696 3.54294 3.43181
# Velocity P-wave (km/s) = 5.23060 5.69282 5.46660
#
# Compressibility (1/GPa) = 0.03850168
#
# Stress axis : x y z
#
# Youngs Moduli (GPa) = 50.74484 69.71170 57.46298
#
# Poissons Ratio (x) = 0.29076 -0.02956
# Poissons Ratio (y) = 0.21165 0.16202
# Poissons Ratio (z) = -0.02610 0.19655
#
# Static dielectric constant tensor:
#      x y z
#    x 1.746700 -0.009640 0.020430 
#    y -0.009640 1.739130 -0.005230 
#    z 0.020430 -0.005230 1.743060 
# 
# From -- ./inp_files/498379.got.cif
#   From: 2010.05.17/outbox.cif.g08.bks.cpg/sg2_250_cif.got.tgz:498379.got - 2010.06.03 11:33:40.
