data_PCOD9086529
_publ_section_title
;
Structure prediction by ZEFSAII (Michael W. Deem and Ramdas Pophale) SiO2 
 PCOD9086529
Probable space group: P -1
;
_chemical_formula_sum "Si O2"
_cell_formula_units_Z 16
_cell_length_a 18.183247
_cell_length_b 8.009208
_cell_length_c 7.015999
_cell_angle_alpha 123.909457
_cell_angle_beta 116.803240
_cell_angle_gamma 53.413015
_cell_volume 670.055320
_symmetry_space_group_name_H-M "P -1"
_symmetry_group_IT_number 2
_symmetry_cell_setting 'triclinic'
loop_
_space_group_symop_operation_xyz
x,y,z
-x,-y,-z
loop_
_atom_site_type_symbol
_atom_site_label
_atom_site_fract_x
_atom_site_fract_y
_atom_site_fract_z
Si Si1 0.581538 0.959245 0.329453
Si Si2 0.402409 0.904883 0.977915
Si Si3 0.907156 0.841189 0.458276
Si Si4 0.887414 0.121844 0.938053
Si Si5 0.463332 0.429850 0.597979
Si Si6 0.784086 0.011266 0.065107
Si Si7 0.883477 0.472472 0.442769
Si Si8 0.287334 0.471303 0.547655
O O1 0.650139 0.721636 0.349713
O O2 0.623179 0.012059 0.220288
O O3 0.543924 0.175171 0.566233
O O4 0.486952 0.953098 0.158010
O O5 0.443136 0.631730 0.848942
O O6 0.308290 0.019987 0.063719
O O7 0.893877 0.676741 0.489337
O O8 0.018465 0.722328 0.488101
O O9 0.868074 0.085935 0.673633
O O10 0.855054 0.859757 0.213960
O O11 0.840290 0.002205 0.935819
O O12 0.856342 0.360786 0.158889
O O13 0.000000 0.000000 0.000000
O O14 0.500000 0.500000 0.500000
O O15 0.363846 0.432384 0.450330
O O16 0.745344 0.271958 0.257444
O O17 0.808509 0.543295 0.568915
#
# Coordination Sequence:
#
# PCOD9086529 Si02
#       8
#     2   2   2   2   2   2   2   2
#     4  10  19  36  59  78 111 151 187 241 292 337
#     4   9  20  37  56  82 112 149 192 236 290 343
#     4  10  20  40  63  84 122 158 186 245 298 336
#     4   9  20  38  59  86 116 152 195 236 289 348
#     4   9  19  35  53  78 109 143 188 235 282 341
#     4  10  21  38  61  89 119 154 198 240 288 353
#     4   9  20  38  60  88 117 151 198 241 288 351
#     4  10  20  35  56  84 113 149 195 239 286 345
#
# _framework density 23.878626000000001
#
# number of rings (size 3 to 8) (size 9 to 14) (size 15 to 20)
#    0.000    2.500    0.000    1.125    0.000    7.500 
#    0.000   34.375    0.000    0.000    0.000    0.000 
#    0.000    0.000    0.000    0.000    0.000    0.000 
#
# Total GULP energy -89302.894460 kJ/mol
# GULP energy per Si atom -5581.430904 kJ/mol
# Density = 2.382428 g / cm^3
# Si number density = 23.878626 Si / 1000 Ang^3
#
#
#
# Elastic Constant Matrix: (Units=GPa)
#
#
# Indices 1 2 3 4 5 6 
#
# 1 195.9392 30.9692 13.2343 -8.8634 -3.3499 -28.1816
# 2 30.9692 93.2768 18.4993 1.0580 -7.8081 -8.4067
# 3 13.2343 18.4993 58.8708 4.7570 -2.5106 -14.2493
# 4 -8.8634 1.0580 4.7570 29.9618 0.5128 -0.6856
# 5 -3.3499 -7.8081 -2.5106 0.5128 25.3064 4.8512
# 6 -28.1816 -8.4067 -14.2493 -0.6856 4.8512 24.9973
#
#
#
# Elastic Compliance Matrix: (Units=1/GPa)
#
#
# Indices 1 2 3 4 5 6 
#
# 1 0.006463 -0.001726 0.000655 0.002055 -0.001061 0.007341
# 2 -0.001726 0.012206 -0.003369 -0.000473 0.003292 -0.000414
# 3 0.000655 -0.003369 0.020891 -0.002719 -0.001057 0.011645
# 4 0.002055 -0.000473 -0.002719 0.034493 -0.001184 0.001784
# 5 -0.001061 0.003292 -0.001057 -0.001184 0.042012 -0.008878
# 6 0.007341 -0.000414 0.011645 0.001784 -0.008878 0.056552
#
#
# Mechanical properties :
#
#
# Convention : Reuss Voigt Hill
#
# Bulk Modulus (GPa) = 32.59488 52.61027 42.60258
# Shear Modulus (GPa) = 26.07933 35.07870 30.57902
#
# Velocity S-wave (km/s) = 3.30837 3.83697 3.58243
# Velocity P-wave (km/s) = 5.31730 6.45832 5.91539
#
# Compressibility (1/GPa) = 0.03067967
#
# Stress axis : x y z
#
# Youngs Moduli (GPa) = 154.72857 81.92872 47.86774
#
# Poissons Ratio (x) = 0.14143 -0.03136
# Poissons Ratio (y) = 0.26709 0.16126
# Poissons Ratio (z) = -0.10138 0.27601
#
# Static dielectric constant tensor:
#      x y z
#    x 1.939820 0.003390 0.011600 
#    y 0.003390 1.865920 0.051940 
#    z 0.011600 0.051940 2.001090 
# 
# From -- ./inp_files/329636.got.cif
#   From: 2010.05.17/outbox.cif.g08.bks.cpg/sg2_165_cif.got.tgz:329636.got - 2010.06.03 11:33:40.
