data_PCOD9086512
_publ_section_title
;
Structure prediction by ZEFSAII (Michael W. Deem and Ramdas Pophale) SiO2 
 PCOD9086512
Probable space group: P -1
;
_chemical_formula_sum "Si O2"
_cell_formula_units_Z 16
_cell_length_a 9.101964
_cell_length_b 12.634848
_cell_length_c 9.254205
_cell_angle_alpha 103.353875
_cell_angle_beta 80.417902
_cell_angle_gamma 130.208210
_cell_volume 790.581164
_symmetry_space_group_name_H-M "P -1"
_symmetry_group_IT_number 2
_symmetry_cell_setting 'triclinic'
loop_
_space_group_symop_operation_xyz
x,y,z
-x,-y,-z
loop_
_atom_site_type_symbol
_atom_site_label
_atom_site_fract_x
_atom_site_fract_y
_atom_site_fract_z
Si Si1 0.140445 0.922710 0.518359
Si Si2 0.641388 0.960143 0.979445
Si Si3 0.730439 0.549775 0.814636
Si Si4 0.860547 0.202814 0.230266
Si Si5 0.516262 0.391214 0.534036
Si Si6 0.391789 0.292751 0.979973
Si Si7 0.537277 0.860078 0.666109
Si Si8 0.862219 0.836548 0.295090
O O1 0.100886 0.820265 0.620258
O O2 0.016846 0.843082 0.369214
O O3 0.358846 0.040318 0.460279
O O4 0.090355 0.015870 0.629623
O O5 0.681763 0.945569 0.803512
O O6 0.569817 0.813588 0.013205
O O7 0.500000 0.000000 0.000000
O O8 0.808949 0.079058 0.093674
O O9 0.691850 0.477803 0.643469
O O10 0.587719 0.426049 0.913072
O O11 0.959553 0.653746 0.826187
O O12 0.663784 0.646030 0.867070
O O13 0.664598 0.179455 0.273141
O O14 0.500000 0.500000 0.500000
O O15 0.509506 0.287496 0.395030
O O16 0.333650 0.285336 0.630621
O O17 0.207645 0.210409 0.873416
#
# Coordination Sequence:
#
# PCOD9086512 Si02
#       8
#     2   2   2   2   2   2   2   2
#     4  10  19  36  58  92 122 154 198 254 310 358
#     4  10  22  40  63  90 124 164 207 254 308 370
#     4  10  23  36  63  92 123 165 207 252 314 368
#     4  11  22  40  61  95 123 162 209 253 307 377
#     4  10  19  37  58  83 122 159 205 254 298 368
#     4  10  20  41  61  91 128 165 199 259 318 362
#     4  10  23  38  61  87 126 165 206 251 314 361
#     4   9  19  32  58  88 117 154 200 248 304 362
#
# _framework density 20.238275000000002
#
# number of rings (size 3 to 8) (size 9 to 14) (size 15 to 20)
#    0.000    2.000    1.250    1.875    1.750    3.000 
#    0.000    2.500    0.000    0.000    0.000    0.000 
#    0.000    0.000    0.000    0.000    0.000    0.000 
#
# Total GULP energy -89068.819151 kJ/mol
# GULP energy per Si atom -5566.801197 kJ/mol
# Density = 2.019221 g / cm^3
# Si number density = 20.238275 Si / 1000 Ang^3
#
#
#
# Elastic Constant Matrix: (Units=GPa)
#
#
# Indices 1 2 3 4 5 6 
#
# 1 49.1505 24.9083 24.2061 -3.8219 0.9639 4.2352
# 2 24.9083 66.9744 28.9596 9.8179 4.8399 -0.7745
# 3 24.2061 28.9596 98.3683 9.9523 0.6363 -3.5596
# 4 -3.8219 9.8179 9.9523 24.4467 -3.5828 0.1441
# 5 0.9639 4.8399 0.6363 -3.5828 26.2606 -0.5676
# 6 4.2352 -0.7745 -3.5596 0.1441 -0.5676 32.3793
#
#
#
# Elastic Compliance Matrix: (Units=1/GPa)
#
#
# Indices 1 2 3 4 5 6 
#
# 1 0.029693 -0.010567 -0.005551 0.011534 0.002463 -0.004755
# 2 -0.010567 0.021893 -0.002739 -0.010059 -0.004919 0.001563
# 3 -0.005551 -0.002739 0.012930 -0.005081 -0.000253 0.002100
# 4 0.011534 -0.010059 -0.005081 0.050052 0.008331 -0.002385
# 5 0.002463 -0.004919 -0.000253 0.008331 0.040043 0.000197
# 6 -0.004755 0.001563 0.002100 -0.002385 0.000197 0.031788
#
#
# Mechanical properties :
#
#
# Convention : Reuss Voigt Hill
#
# Bulk Modulus (GPa) = 37.30927 41.18236 39.24582
# Shear Modulus (GPa) = 21.45495 25.71195 23.58345
#
# Velocity S-wave (km/s) = 3.25948 3.56822 3.41734
# Velocity P-wave (km/s) = 5.71320 6.11303 5.91649
#
# Compressibility (1/GPa) = 0.02680299
#
# Stress axis : x y z
#
# Youngs Moduli (GPa) = 33.67840 45.67581 77.34022
#
# Poissons Ratio (x) = 0.48264 0.42930
# Poissons Ratio (y) = 0.35586 0.21184
# Poissons Ratio (z) = 0.18694 0.12511
#
# Static dielectric constant tensor:
#      x y z
#    x 1.662740 0.048330 0.047650 
#    y 0.048330 1.704780 0.016520 
#    z 0.047650 0.016520 1.783830 
# 
# From -- ./inp_files/188585.got.cif
#   From: 2010.05.17/outbox.cif.g08.bks.cpg/sg2_95_cif.got.tgz:188585.got - 2010.06.03 11:33:40.
