data_PCOD9086713
_publ_section_title
;
Structure prediction by ZEFSAII (Michael W. Deem and Ramdas Pophale) SiO2 
 PCOD9086713
Probable space group: P -1
;
_chemical_formula_sum "Si O2"
_cell_formula_units_Z 14
_cell_length_a 12.091917
_cell_length_b 7.921062
_cell_length_c 14.106838
_cell_angle_alpha 98.534121
_cell_angle_beta 143.952943
_cell_angle_gamma 65.909568
_cell_volume 683.096242
_symmetry_space_group_name_H-M "P -1"
_symmetry_group_IT_number 2
_symmetry_cell_setting 'triclinic'
loop_
_space_group_symop_operation_xyz
x,y,z
-x,-y,-z
loop_
_atom_site_type_symbol
_atom_site_label
_atom_site_fract_x
_atom_site_fract_y
_atom_site_fract_z
Si Si1 0.461497 0.397863 0.875813
Si Si2 0.375517 0.034765 0.618408
Si Si3 0.419074 0.395246 0.635132
Si Si4 0.924732 0.549286 0.102054
Si Si5 0.015847 0.582170 0.669957
Si Si6 0.403326 0.020687 0.038761
Si Si7 0.348819 0.409235 0.273293
O O1 0.465241 0.456897 0.775532
O O2 0.623104 0.167533 0.978398
O O3 0.213684 0.449002 0.727909
O O4 0.500000 0.500000 0.000000
O O5 0.485934 0.163678 0.668195
O O6 0.123851 0.191463 0.440893
O O7 0.431528 0.996085 0.765155
O O8 0.477116 0.822737 0.623273
O O9 0.160653 0.490711 0.454889
O O10 0.534140 0.461105 0.643683
O O11 0.907710 0.430930 0.169861
O O12 0.172833 0.466262 0.238200
O O13 0.793750 0.548965 0.918514
O O14 0.809707 0.773615 0.076000
O O15 0.500000 0.000000 0.000000
#
# Coordination Sequence:
#
# PCOD9086713 Si02
#       7
#     2   2   2   2   2   2   2
#     4  11  21  36  59  89 118 153 196 245 293 351
#     4   8  21  37  58  87 118 155 190 246 290 343
#     4   9  21  37  60  83 123 154 191 243 294 347
#     4  10  21  36  65  87 114 160 195 245 288 345
#     4  10  20  39  57  86 121 155 190 243 306 336
#     4  10  19  36  60  83 118 151 194 240 290 344
#     4  10  20  42  61  86 118 156 204 235 289 351
#
# _framework density 20.494916
#
# number of rings (size 3 to 8) (size 9 to 14) (size 15 to 20)
#    0.857    1.429    1.429    1.286    2.000    1.143 
#    2.571   13.571    0.000    0.000    0.000    0.000 
#    0.000    0.000    0.000    0.000    0.000    0.000 
#
# Total GULP energy -78003.529415 kJ/mol
# GULP energy per Si atom -5571.680673 kJ/mol
# Density = 2.044827 g / cm^3
# Si number density = 20.494916 Si / 1000 Ang^3
#
#
#
# Elastic Constant Matrix: (Units=GPa)
#
#
# Indices 1 2 3 4 5 6 
#
# 1 86.8182 17.6453 -2.6927 -12.6376 6.9317 -2.7083
# 2 17.6453 63.3652 24.2615 -20.6716 -2.0023 -6.0216
# 3 -2.6927 24.2615 51.6746 -16.1880 -5.7914 1.9889
# 4 -12.6376 -20.6716 -16.1880 30.9238 3.6085 2.6837
# 5 6.9317 -2.0023 -5.7914 3.6085 32.6616 3.6876
# 6 -2.7083 -6.0216 1.9889 2.6837 3.6876 23.8634
#
#
#
# Elastic Compliance Matrix: (Units=1/GPa)
#
#
# Indices 1 2 3 4 5 6 
#
# 1 0.013365 -0.003431 0.003658 0.005418 -0.003020 0.000203
# 2 -0.003431 0.023620 -0.008601 0.009536 -0.001009 0.005371
# 3 0.003658 -0.008601 0.027332 0.010187 0.003055 -0.005651
# 4 0.005418 0.009536 0.010187 0.046906 -0.003655 -0.002538
# 5 -0.003020 -0.001009 0.003055 -0.003655 0.032763 -0.005504
# 6 0.000203 0.005371 -0.005651 -0.002538 -0.005504 0.044890
#
#
# Mechanical properties :
#
#
# Convention : Reuss Voigt Hill
#
# Bulk Modulus (GPa) = 21.02166 31.14291 26.08229
# Shear Modulus (GPa) = 22.57548 28.33269 25.45408
#
# Velocity S-wave (km/s) = 3.32251 3.72213 3.52798
# Velocity P-wave (km/s) = 4.99980 5.80524 5.41751
#
# Compressibility (1/GPa) = 0.04756998
#
# Stress axis : x y z
#
# Youngs Moduli (GPa) = 74.82062 42.33784 36.58739
#
# Poissons Ratio (x) = 0.14527 -0.13385
# Poissons Ratio (y) = 0.25672 0.31468
# Poissons Ratio (z) = -0.27373 0.36414
#
# Static dielectric constant tensor:
#      x y z
#    x 1.708180 0.019190 -0.019220 
#    y 0.019190 1.721470 0.041720 
#    z -0.019220 0.041720 1.809010 
# 
# From -- ./inp_files/176021.got.cif
#   From: 2010.05.17/outbox.cif.g08.bks.cpg/sg2_89_cif.got.tgz:176021.got - 2010.06.03 11:33:40.
