data_PCOD9086922
_publ_section_title
;
Structure prediction by ZEFSAII (Michael W. Deem and Ramdas Pophale) SiO2 
 PCOD9086922
Probable space group: P -1
;
_chemical_formula_sum "Si O2"
_cell_formula_units_Z 16
_cell_length_a 7.148747
_cell_length_b 13.428015
_cell_length_c 12.686188
_cell_angle_alpha 35.023878
_cell_angle_beta 108.379986
_cell_angle_gamma 114.621301
_cell_volume 634.587158
_symmetry_space_group_name_H-M "P -1"
_symmetry_group_IT_number 2
_symmetry_cell_setting 'triclinic'
loop_
_space_group_symop_operation_xyz
x,y,z
-x,-y,-z
loop_
_atom_site_type_symbol
_atom_site_label
_atom_site_fract_x
_atom_site_fract_y
_atom_site_fract_z
Si Si1 0.132321 0.999417 0.128658
Si Si2 0.759557 0.621008 0.116042
Si Si3 0.239492 0.522948 0.966372
Si Si4 0.566602 0.671820 0.440260
Si Si5 0.907818 0.152836 0.295223
Si Si6 0.126920 0.625480 0.504996
Si Si7 0.616974 0.047913 0.135083
Si Si8 0.654675 0.426947 0.812262
O O1 0.061295 0.806879 0.340334
O O2 0.373858 0.024802 0.124902
O O3 0.125878 0.167456 0.054877
O O4 0.000000 0.000000 0.000000
O O5 0.893122 0.496485 0.289721
O O6 0.592549 0.616438 0.181267
O O7 0.646197 0.519311 0.080806
O O8 0.282104 0.554725 0.070678
O O9 0.077299 0.318366 0.122664
O O10 0.186325 0.713495 0.764517
O O11 0.500000 0.500000 0.500000
O O12 0.365092 0.680696 0.461965
O O13 0.717994 0.612148 0.599351
O O14 0.643475 0.872878 0.231686
O O15 0.732237 0.056377 0.261648
O O16 0.000000 0.000000 0.500000
O O17 0.000000 0.500000 0.500000
O O18 0.699892 0.249699 0.926668
#
# Coordination Sequence:
#
# PCOD9086922 Si02
#       8
#     2   2   2   2   2   2   2   2
#     4  10  19  36  61  83 116 154 195 247 302 356
#     4  10  20  36  60  87 116 153 197 246 302 358
#     4  10  21  38  60  90 114 153 204 244 298 363
#     4  10  21  38  59  88 115 157 202 241 295 362
#     4  10  21  40  59  81 124 161 194 248 298 351
#     4  10  20  38  56  83 119 155 192 247 298 351
#     4   9  20  38  57  84 115 154 194 241 298 352
#     4   9  19  38  62  83 120 151 191 252 305 347
#
# _framework density 25.213245000000001
#
# number of rings (size 3 to 8) (size 9 to 14) (size 15 to 20)
#    0.000    2.250    1.250    1.125    0.000    1.500 
#   11.250    0.000    0.000   11.250    0.000    0.000 
#    0.000    0.000    0.000    0.000    0.000    0.000 
#
# Total GULP energy -89136.816333 kJ/mol
# GULP energy per Si atom -5571.051021 kJ/mol
# Density = 2.515586 g / cm^3
# Si number density = 25.213245 Si / 1000 Ang^3
#
#
#
# Elastic Constant Matrix: (Units=GPa)
#
#
# Indices 1 2 3 4 5 6 
#
# 1 51.1431 -4.5434 34.1278 -8.5994 6.9338 3.3384
# 2 -4.5434 130.4497 94.9338 -14.9185 27.4290 -5.7462
# 3 34.1278 94.9338 228.8035 -30.9015 37.3864 -2.4802
# 4 -8.5994 -14.9185 -30.9015 49.4417 3.3963 17.0259
# 5 6.9338 27.4290 37.3864 3.3963 30.3860 -0.9807
# 6 3.3384 -5.7462 -2.4802 17.0259 -0.9807 37.2794
#
#
#
# Elastic Compliance Matrix: (Units=1/GPa)
#
#
# Indices 1 2 3 4 5 6 
#
# 1 0.025058 0.005858 -0.004507 0.005167 -0.006173 -0.004163
# 2 0.005858 0.013251 -0.004747 0.002658 -0.007762 -0.000216
# 3 -0.004507 -0.004747 0.008458 0.004064 -0.005604 -0.001769
# 4 0.005167 0.002658 0.004064 0.030087 -0.012389 -0.013849
# 5 -0.006173 -0.007762 -0.005604 -0.012389 0.049797 0.005952
# 6 -0.004163 -0.000216 -0.001769 -0.013849 0.005952 0.033528
#
#
# Mechanical properties :
#
#
# Convention : Reuss Voigt Hill
#
# Bulk Modulus (GPa) = 25.01550 73.27029 49.14290
# Shear Modulus (GPa) = 27.73230 42.47995 35.10613
#
# Velocity S-wave (km/s) = 3.32009 4.10912 3.73549
# Velocity P-wave (km/s) = 4.96391 7.18585 6.17563
#
# Compressibility (1/GPa) = 0.03997522
#
# Stress axis : x y z
#
# Youngs Moduli (GPa) = 39.90711 75.46770 118.23422
#
# Poissons Ratio (x) = -0.44209 0.53287
# Poissons Ratio (y) = -0.23378 0.56123
# Poissons Ratio (z) = 0.17986 0.35823
#
# Static dielectric constant tensor:
#      x y z
#    x 0.841200 -0.234050 0.061710 
#    y -0.234050 1.934140 0.013830 
#    z 0.061710 0.013830 2.057910 
# 
# From -- ./inp_files/503730.got.cif
#   From: 2010.05.17/outbox.cif.g08.bks.cpg/sg2_252_cif.got.tgz:503730.got - 2010.06.03 11:33:40.
