data_PCOD9086139
_publ_section_title
;
Structure prediction by ZEFSAII (Michael W. Deem and Ramdas Pophale) SiO2 
 PCOD9086139
Probable space group: P -1
;
_chemical_formula_sum "Si O2"
_cell_formula_units_Z 15
_cell_length_a 14.959238
_cell_length_b 8.058705
_cell_length_c 11.388588
_cell_angle_alpha 41.944101
_cell_angle_beta 132.671075
_cell_angle_gamma 144.687121
_cell_volume 521.455043
_symmetry_space_group_name_H-M "P -1"
_symmetry_group_IT_number 2
_symmetry_cell_setting 'triclinic'
loop_
_space_group_symop_operation_xyz
x,y,z
-x,-y,-z
loop_
_atom_site_type_symbol
_atom_site_label
_atom_site_fract_x
_atom_site_fract_y
_atom_site_fract_z
Si Si1 0.950519 0.649369 0.130443
Si Si2 0.836342 0.765134 0.615783
Si Si3 0.372483 0.548516 0.009745
Si Si4 0.202794 0.117542 0.727658
Si Si5 0.406019 0.359668 0.369022
Si Si6 0.000000 0.500000 0.500000
Si Si7 0.345803 0.739707 0.652412
Si Si8 0.779280 0.133605 0.894573
O O1 0.025155 0.583094 0.336062
O O2 0.036376 0.664620 0.082431
O O3 0.763926 0.438705 0.076022
O O4 0.000000 0.000000 0.000000
O O5 0.797791 0.901363 0.402927
O O6 0.771939 0.800023 0.660589
O O7 0.756074 0.395782 0.715680
O O8 0.023396 0.972441 0.674157
O O9 0.457038 0.594874 0.182528
O O10 0.305034 0.194461 0.085035
O O11 0.438337 0.762733 0.838117
O O12 0.321985 0.490102 0.672423
O O13 0.242600 0.958778 0.940038
O O14 0.500000 0.500000 0.500000
O O15 0.408082 0.077337 0.483323
O O16 0.832641 0.432809 0.375310
#
# Coordination Sequence:
#
# PCOD9086139 Si02
#       8
#     2   2   2   2   2   1   2   2
#     4   9  16  27  51  86 120 151 183 225 286 358
#     4  11  23  37  58  92 128 153 188 244 304 357
#     4   9  20  37  60  85 114 161 205 241 288 349
#     4  10  21  37  62  93 121 152 185 239 311 366
#     4  12  26  42  60  83 117 163 210 252 292 344
#     4  10  16  26  54  88 114 142 178 232 286 340
#     4  10  20  38  61  85 117 154 201 242 288 359
#     4  10  19  35  59  89 124 153 187 239 304 370
#
# _framework density 28.765663
#
# number of rings (size 3 to 8) (size 9 to 14) (size 15 to 20)
#    0.000    1.867    0.000    6.000    0.000    5.867 
#    0.000    2.667    0.000    3.200    0.000    0.000 
#    0.000    0.000    0.000    0.000    0.000    0.000 
#
# Total GULP energy -83888.688309 kJ/mol
# GULP energy per Si atom -5592.579221 kJ/mol
# Density = 2.870019 g / cm^3
# Si number density = 28.765663 Si / 1000 Ang^3
#
#
#
# Elastic Constant Matrix: (Units=GPa)
#
#
# Indices 1 2 3 4 5 6 
#
# 1 131.8205 23.4250 40.3098 -7.7889 -6.6750 9.3538
# 2 23.4250 84.0321 44.5004 -2.6209 5.1391 -12.5972
# 3 40.3098 44.5004 230.3354 19.4873 -30.7945 -8.4170
# 4 -7.7889 -2.6209 19.4873 47.3491 -0.2433 10.9734
# 5 -6.6750 5.1391 -30.7945 -0.2433 53.7719 -0.1109
# 6 9.3538 -12.5972 -8.4170 10.9734 -0.1109 36.9048
#
#
#
# Elastic Compliance Matrix: (Units=1/GPa)
#
#
# Indices 1 2 3 4 5 6 
#
# 1 0.008940 -0.002297 -0.001457 0.002931 0.000499 -0.004253
# 2 -0.002297 0.014970 -0.002789 0.000443 -0.003301 0.004914
# 3 -0.001457 -0.002789 0.005936 -0.003223 0.003474 0.001740
# 4 0.002931 0.000443 -0.003223 0.024975 -0.001429 -0.008757
# 5 0.000499 -0.003301 0.003474 -0.001429 0.020958 0.000027
# 6 -0.004253 0.004914 0.001740 -0.008757 0.000027 0.032853
#
#
# Mechanical properties :
#
#
# Convention : Reuss Voigt Hill
#
# Bulk Modulus (GPa) = 59.67059 73.62871 66.64965
# Shear Modulus (GPa) = 39.27538 50.13536 44.70537
#
# Velocity S-wave (km/s) = 3.69908 4.17932 3.94651
# Velocity P-wave (km/s) = 6.24764 6.99575 6.63225
#
# Compressibility (1/GPa) = 0.01675868
#
# Stress axis : x y z
#
# Youngs Moduli (GPa) = 111.85450 66.79967 168.45796
#
# Poissons Ratio (x) = 0.15344 0.24553
# Poissons Ratio (y) = 0.25692 0.46991
# Poissons Ratio (z) = 0.16303 0.18634
#
# Static dielectric constant tensor:
#      x y z
#    x 2.047130 0.392350 -0.016490 
#    y 0.392350 1.939370 0.120470 
#    z -0.016490 0.120470 2.112550 
# 
# From -- ./inp_files/461822.got.cif
#   From: 2010.05.17/outbox.cif.g08.bks.cpg/sg2_231_cif.got.tgz:461822.got - 2010.06.03 11:33:40.
