data_PCOD9086997
_publ_section_title
;
Structure prediction by ZEFSAII (Michael W. Deem and Ramdas Pophale) SiO2 
 PCOD9086997
Probable space group: P -1
;
_chemical_formula_sum "Si O2"
_cell_formula_units_Z 16
_cell_length_a 9.602293
_cell_length_b 15.676464
_cell_length_c 13.800246
_cell_angle_alpha 144.194574
_cell_angle_beta 53.402327
_cell_angle_gamma 104.385491
_cell_volume 844.717848
_symmetry_space_group_name_H-M "P -1"
_symmetry_group_IT_number 2
_symmetry_cell_setting 'triclinic'
loop_
_space_group_symop_operation_xyz
x,y,z
-x,-y,-z
loop_
_atom_site_type_symbol
_atom_site_label
_atom_site_fract_x
_atom_site_fract_y
_atom_site_fract_z
Si Si1 0.644178 0.323507 0.229261
Si Si2 0.393080 0.068708 0.828405
Si Si3 0.984913 0.127708 0.418600
Si Si4 0.891561 0.845430 0.149638
Si Si5 0.859775 0.369293 0.856579
Si Si6 0.680549 0.184364 0.886251
Si Si7 0.262644 0.269238 0.707408
Si Si8 0.315562 0.012616 0.026302
O O1 0.500000 0.500000 0.500000
O O2 0.662768 0.171663 0.147702
O O3 0.572504 0.298137 0.130023
O O4 0.870497 0.283232 0.077896
O O5 0.536763 0.877895 0.557354
O O6 0.320810 0.067274 0.965788
O O7 0.217993 0.154582 0.902621
O O8 0.531368 0.153993 0.855152
O O9 0.865190 0.302653 0.684872
O O10 0.152029 0.995129 0.303573
O O11 0.869205 0.029244 0.345961
O O12 0.111411 0.131540 0.278528
O O13 0.800150 0.799597 0.236554
O O14 0.788469 0.266217 0.858334
O O15 0.083156 0.323740 0.754447
O O16 0.727556 0.567301 0.113359
O O17 0.500000 0.000000 0.000000
#
# Coordination Sequence:
#
# PCOD9086997 Si02
#       8
#     2   2   2   2   2   2   2   2
#     4  10  22  38  63  84 120 153 192 251 293 346
#     4  12  22  38  62  86 122 159 197 240 292 361
#     4  10  19  37  59  84 116 156 195 243 283 351
#     4  10  23  41  57  88 120 157 198 239 302 350
#     4  11  20  35  63  89 117 148 208 249 285 339
#     4  10  19  37  59  86 113 158 196 236 292 349
#     4  11  22  35  60  94 117 152 198 253 290 337
#     4  10  19  36  61  88 109 152 208 231 283 349
#
# _framework density 18.941236
#
# number of rings (size 3 to 8) (size 9 to 14) (size 15 to 20)
#    0.000    1.750    6.250    1.500    1.750    3.000 
#    0.000    3.125    0.000    0.000    0.000    0.000 
#    0.000    0.000    0.000    0.000    0.000    0.000 
#
# Total GULP energy -89333.891771 kJ/mol
# GULP energy per Si atom -5583.368236 kJ/mol
# Density = 1.889812 g / cm^3
# Si number density = 18.941236 Si / 1000 Ang^3
#
#
#
# Elastic Constant Matrix: (Units=GPa)
#
#
# Indices 1 2 3 4 5 6 
#
# 1 85.2923 7.2107 16.1097 0.1860 21.6321 -5.8193
# 2 7.2107 46.6972 15.5512 -15.0123 -0.9645 10.2493
# 3 16.1097 15.5512 116.8248 6.9235 22.1182 8.0086
# 4 0.1860 -15.0123 6.9235 14.5842 3.8828 3.9277
# 5 21.6321 -0.9645 22.1182 3.8828 18.7472 -0.3874
# 6 -5.8193 10.2493 8.0086 3.9277 -0.3874 20.5531
#
#
#
# Elastic Compliance Matrix: (Units=1/GPa)
#
#
# Indices 1 2 3 4 5 6 
#
# 1 0.018499 -0.008201 0.002747 -0.006131 -0.023553 0.008984
# 2 -0.008201 0.059909 -0.009844 0.075944 0.007547 -0.042732
# 3 0.002747 -0.009844 0.013198 -0.012745 -0.016553 0.002668
# 4 -0.006131 0.075944 -0.012745 0.174285 -0.011487 -0.068163
# 5 -0.023553 0.007547 -0.016553 -0.011487 0.102819 0.000151
# 6 0.008984 -0.042732 0.002668 -0.068163 0.000151 0.084496
#
#
# Mechanical properties :
#
#
# Convention : Reuss Voigt Hill
#
# Bulk Modulus (GPa) = 16.39067 36.28415 26.33741
# Shear Modulus (GPa) = 9.91794 24.77309 17.34551
#
# Velocity S-wave (km/s) = 2.29075 3.62040 3.02943
# Velocity P-wave (km/s) = 3.95840 6.05592 5.11581
#
# Compressibility (1/GPa) = 0.06101030
#
# Stress axis : x y z
#
# Youngs Moduli (GPa) = 54.05762 16.69206 75.77078
#
# Poissons Ratio (x) = 0.13689 -0.20818
# Poissons Ratio (y) = 0.44331 0.74591
# Poissons Ratio (z) = -0.14852 0.16432
#
# Static dielectric constant tensor:
#      x y z
#    x 1.661110 0.009700 0.007500 
#    y 0.009700 1.654340 -0.001770 
#    z 0.007500 -0.001770 1.666940 
# 
# From -- ./inp_files/387759.got.cif
#   From: 2010.05.17/outbox.cif.g08.bks.cpg/sg2_194_cif.got.tgz:387759.got - 2010.06.03 11:33:40.
