data_PCOD9086217
_publ_section_title
;
Structure prediction by ZEFSAII (Michael W. Deem and Ramdas Pophale) SiO2 
 PCOD9086217
Probable space group: P -1
;
_chemical_formula_sum "Si O2"
_cell_formula_units_Z 16
_cell_length_a 14.249851
_cell_length_b 20.451052
_cell_length_c 23.266272
_cell_angle_alpha 159.535230
_cell_angle_beta 159.910118
_cell_angle_gamma 31.559204
_cell_volume 792.207087
_symmetry_space_group_name_H-M "P -1"
_symmetry_group_IT_number 2
_symmetry_cell_setting 'triclinic'
loop_
_space_group_symop_operation_xyz
x,y,z
-x,-y,-z
loop_
_atom_site_type_symbol
_atom_site_label
_atom_site_fract_x
_atom_site_fract_y
_atom_site_fract_z
Si Si1 0.095624 0.913131 0.066779
Si Si2 0.564804 0.353018 0.128103
Si Si3 0.741252 0.387453 0.537751
Si Si4 0.432671 0.998201 0.099328
Si Si5 0.122257 0.302080 0.343479
Si Si6 0.380987 0.190464 0.666496
Si Si7 0.218408 0.858065 0.743268
Si Si8 0.355223 0.482935 0.996042
O O1 0.351820 0.899399 0.244299
O O2 0.199558 0.105016 0.246092
O O3 0.811104 0.928555 0.947566
O O4 0.000410 0.734475 0.821187
O O5 0.421216 0.141073 0.894045
O O6 0.631338 0.514726 0.349075
O O7 0.861502 0.322692 0.249941
O O8 0.427153 0.430474 0.058050
O O9 0.500000 0.500000 0.500000
O O10 0.793425 0.336135 0.459173
O O11 0.036603 0.504526 0.827835
O O12 0.645156 0.182660 0.346621
O O13 0.264778 0.859426 0.838694
O O14 0.371132 0.312757 0.819969
O O15 0.063463 0.071276 0.376053
O O16 0.442663 0.331390 0.763046
O O17 0.500000 0.000000 0.000000
#
# Coordination Sequence:
#
# PCOD9086217 Si02
#       8
#     2   2   2   2   2   2   2   2
#     4  10  19  36  56  91 116 152 196 241 291 343
#     4  10  20  36  56  84 119 155 197 239 289 357
#     4  10  21  41  61  84 118 154 195 247 292 349
#     4  10  22  36  61  84 115 167 191 231 302 347
#     4   9  20  34  56  82 124 153 186 245 294 340
#     4  10  20  34  60  87 116 150 197 241 294 342
#     4   9  21  40  57  85 116 157 191 234 298 351
#     4  10  21  35  58  90 114 152 198 244 290 343
#
# _framework density 20.196739000000001
#
# number of rings (size 3 to 8) (size 9 to 14) (size 15 to 20)
#    0.000    2.250    1.250    0.750    5.250    3.000 
#    4.500    0.000    0.000    1.500    0.000    0.000 
#    0.000    0.000    0.000    0.000    0.000    0.000 
#
# Total GULP energy -89210.500899 kJ/mol
# GULP energy per Si atom -5575.656306 kJ/mol
# Density = 2.015077 g / cm^3
# Si number density = 20.196739 Si / 1000 Ang^3
#
#
#
# Elastic Constant Matrix: (Units=GPa)
#
#
# Indices 1 2 3 4 5 6 
#
# 1 61.7701 15.8598 24.6898 6.0145 -6.8464 6.5990
# 2 15.8598 67.1034 29.6264 -8.0224 -2.4249 12.2998
# 3 24.6898 29.6264 76.0573 -6.9280 5.7325 8.5866
# 4 6.0145 -8.0224 -6.9280 25.0497 -2.1842 -0.3111
# 5 -6.8464 -2.4249 5.7325 -2.1842 26.9023 -1.6108
# 6 6.5990 12.2998 8.5866 -0.3111 -1.6108 27.3077
#
#
#
# Elastic Compliance Matrix: (Units=1/GPa)
#
#
# Indices 1 2 3 4 5 6 
#
# 1 0.021050 -0.002294 -0.006858 -0.007189 0.005930 -0.001629
# 2 -0.002294 0.020015 -0.006033 0.005437 0.002567 -0.006350
# 3 -0.006858 -0.006033 0.018785 0.004360 -0.006048 -0.001839
# 4 -0.007189 0.005437 0.004360 0.044686 0.001270 -0.001499
# 5 0.005930 0.002567 -0.006048 0.001270 0.040406 0.001710
# 6 -0.001629 -0.006350 -0.001839 -0.001499 0.001710 0.040536
#
#
# Mechanical properties :
#
#
# Convention : Reuss Voigt Hill
#
# Bulk Modulus (GPa) = 33.92044 38.36477 36.14260
# Shear Modulus (GPa) = 22.15582 24.83561 23.49572
#
# Velocity S-wave (km/s) = 3.31569 3.51049 3.41448
# Velocity P-wave (km/s) = 5.61158 5.95551 5.78611
#
# Compressibility (1/GPa) = 0.02948075
#
# Stress axis : x y z
#
# Youngs Moduli (GPa) = 47.50489 49.96277 53.23475
#
# Poissons Ratio (x) = 0.11462 0.36507
# Poissons Ratio (y) = 0.10898 0.32116
# Poissons Ratio (z) = 0.32577 0.30142
#
# Static dielectric constant tensor:
#      x y z
#    x 1.739170 0.018820 -0.016660 
#    y 0.018820 1.742650 0.032770 
#    z -0.016660 0.032770 1.745860 
# 
# From -- ./inp_files/397916.got.cif
#   From: 2010.05.17/outbox.cif.g08.bks.cpg/sg2_199_cif.got.tgz:397916.got - 2010.06.03 11:33:40.
