data_PCOD9086146
_publ_section_title
;
Structure prediction by ZEFSAII (Michael W. Deem and Ramdas Pophale) SiO2 
 PCOD9086146
Probable space group: P -1
;
_chemical_formula_sum "Si O2"
_cell_formula_units_Z 14
_cell_length_a 5.263129
_cell_length_b 14.686826
_cell_length_c 15.721008
_cell_angle_alpha 31.335268
_cell_angle_beta 82.361463
_cell_angle_gamma 81.479589
_cell_volume 624.942444
_symmetry_space_group_name_H-M "P -1"
_symmetry_group_IT_number 2
_symmetry_cell_setting 'triclinic'
loop_
_space_group_symop_operation_xyz
x,y,z
-x,-y,-z
loop_
_atom_site_type_symbol
_atom_site_label
_atom_site_fract_x
_atom_site_fract_y
_atom_site_fract_z
Si Si1 0.202025 0.601029 0.525248
Si Si2 0.864897 0.662480 0.125698
Si Si3 0.909139 0.672587 0.915283
Si Si4 0.347934 0.888472 0.953890
Si Si5 0.938788 0.984218 0.415819
Si Si6 0.470211 0.017652 0.318462
Si Si7 0.270790 0.267622 0.662804
O O1 0.224430 0.421507 0.610774
O O2 0.471310 0.686920 0.434359
O O3 0.972906 0.721714 0.397603
O O4 0.132715 0.524488 0.680072
O O5 0.880477 0.638720 0.042727
O O6 0.595055 0.771814 0.067940
O O7 0.102097 0.773682 0.054790
O O8 0.655107 0.788450 0.802131
O O9 0.112641 0.817986 0.775804
O O10 0.000000 0.500000 0.000000
O O11 0.414558 0.951056 0.804567
O O12 0.300266 0.073708 0.855404
O O13 0.672700 0.912922 0.454969
O O14 0.202249 0.919158 0.408840
O O15 0.000000 0.000000 0.500000
#
# Coordination Sequence:
#
# PCOD9086146 Si02
#       7
#     2   2   2   2   2   2   2
#     4  10  22  41  60  90 123 151 192 241 298 344
#     4  11  22  39  61  87 120 154 199 246 286 352
#     4   9  21  38  55  80 114 151 189 240 291 334
#     4  11  20  39  62  85 117 158 193 237 293 343
#     4  10  19  36  56  76 108 149 186 239 286 335
#     4   9  19  36  54  77 112 143 185 239 278 332
#     4  10  22  40  62  87 123 156 188 242 292 354
#
# _framework density 22.402062999999998
#
# number of rings (size 3 to 8) (size 9 to 14) (size 15 to 20)
#    0.857    1.143    1.429    2.143    0.000    1.714 
#    5.143    0.000    0.000    0.000    0.000    0.000 
#    0.000    0.000    0.000    0.000    0.000    0.000 
#
# Total GULP energy -78111.047324 kJ/mol
# GULP energy per Si atom -5579.360523 kJ/mol
# Density = 2.235107 g / cm^3
# Si number density = 22.402063 Si / 1000 Ang^3
#
#
#
# Elastic Constant Matrix: (Units=GPa)
#
#
# Indices 1 2 3 4 5 6 
#
# 1 150.6534 20.4970 18.9765 -4.4790 -8.7659 -19.9509
# 2 20.4970 39.6661 13.7325 -13.6716 8.6528 -6.3107
# 3 18.9765 13.7325 67.7994 5.5277 -0.1408 0.1270
# 4 -4.4790 -13.6716 5.5277 37.5821 1.1652 5.4124
# 5 -8.7659 8.6528 -0.1408 1.1652 23.0654 -4.2609
# 6 -19.9509 -6.3107 0.1270 5.4124 -4.2609 14.4866
#
#
#
# Elastic Compliance Matrix: (Units=1/GPa)
#
#
# Indices 1 2 3 4 5 6 
#
# 1 0.009933 -0.005070 -0.001529 -0.002875 0.008600 0.015089
# 2 -0.005070 0.039763 -0.007949 0.015681 -0.017811 -0.000689
# 3 -0.001529 -0.007949 0.017224 -0.005226 0.002193 -0.003123
# 4 -0.002875 0.015681 -0.005226 0.035030 -0.011268 -0.013485
# 5 0.008600 -0.017811 0.002193 -0.011268 0.058601 0.025512
# 6 0.015089 -0.000689 -0.003123 -0.013485 0.025512 0.102079
#
#
# Mechanical properties :
#
#
# Convention : Reuss Voigt Hill
#
# Bulk Modulus (GPa) = 26.43857 40.50345 33.47101
# Shear Modulus (GPa) = 16.42931 28.68769 22.55850
#
# Velocity S-wave (km/s) = 2.71104 3.58240 3.17674
# Velocity P-wave (km/s) = 4.65050 5.93557 5.33189
#
# Compressibility (1/GPa) = 0.03782353
#
# Stress axis : x y z
#
# Youngs Moduli (GPa) = 100.67147 25.14912 58.05883
#
# Poissons Ratio (x) = 0.12751 0.08879
# Poissons Ratio (y) = 0.51040 0.46151
# Poissons Ratio (z) = 0.15396 0.19991
#
# Static dielectric constant tensor:
#      x y z
#    x 2.177600 0.170010 -0.078200 
#    y 0.170010 1.970340 -0.032100 
#    z -0.078200 -0.032100 1.802240 
# 
# From -- ./inp_files/88982.got.cif
#   From: 2010.05.17/outbox.cif.g08.bks.cpg/sg2_45_cif.got.tgz:88982.got - 2010.06.03 11:33:40.
