data_PCOD9086165
_publ_section_title
;
Structure prediction by ZEFSAII (Michael W. Deem and Ramdas Pophale) SiO2 
 PCOD9086165
Probable space group: P -1
;
_chemical_formula_sum "Si O2"
_cell_formula_units_Z 15
_cell_length_a 11.141076
_cell_length_b 8.070696
_cell_length_c 14.507402
_cell_angle_alpha 75.921275
_cell_angle_beta 151.543110
_cell_angle_gamma 97.211965
_cell_volume 591.786082
_symmetry_space_group_name_H-M "P -1"
_symmetry_group_IT_number 2
_symmetry_cell_setting 'triclinic'
loop_
_space_group_symop_operation_xyz
x,y,z
-x,-y,-z
loop_
_atom_site_type_symbol
_atom_site_label
_atom_site_fract_x
_atom_site_fract_y
_atom_site_fract_z
Si Si1 0.500000 0.500000 0.500000
Si Si2 0.836576 0.183223 0.334439
Si Si3 0.715540 0.720641 0.953761
Si Si4 0.296816 0.778788 0.198687
Si Si5 0.087178 0.985938 0.198193
Si Si6 0.362414 0.607175 0.980604
Si Si7 0.600272 0.254497 0.436864
Si Si8 0.254169 0.406194 0.590573
O O1 0.273776 0.608820 0.263445
O O2 0.517979 0.330337 0.470734
O O3 0.565864 0.211989 0.199784
O O4 0.996772 0.335032 0.444164
O O5 0.776773 0.212041 0.181372
O O6 0.000000 0.000000 0.500000
O O7 0.811521 0.522934 0.079305
O O8 0.638660 0.728066 0.794421
O O9 0.894354 0.849205 0.087970
O O10 0.584156 0.719116 0.360991
O O11 0.246411 0.935156 0.217350
O O12 0.099679 0.831791 0.974306
O O13 0.246702 0.937450 0.406213
O O14 0.568549 0.620602 0.195910
O O15 0.500000 0.500000 0.000000
O O16 0.762010 0.396063 0.484320
#
# Coordination Sequence:
#
# PCOD9086165 Si02
#       8
#     1   2   2   2   2   2   2   2
#     4   8  16  36  54  76 108 134 178 216 254 322
#     4  11  23  36  55  83 111 143 182 226 273 319
#     4  10  21  36  56  81 107 140 182 220 268 326
#     4   9  19  35  57  80 107 147 177 215 276 318
#     4  10  19  36  56  80 112 137 176 227 265 319
#     4   9  21  38  56  81 108 145 186 222 273 324
#     4   9  19  35  58  81 104 145 180 217 274 318
#     4  10  20  38  57  78 112 144 181 225 268 326
#
# _framework density 25.346997000000002
#
# number of rings (size 3 to 8) (size 9 to 14) (size 15 to 20)
#    0.000    2.400    0.000    1.600    0.000    8.533 
#    0.000   20.667    0.000    0.000    0.000    0.000 
#    0.000    0.000    0.000    0.000    0.000    0.000 
#
# Total GULP energy -83532.468443 kJ/mol
# GULP energy per Si atom -5568.831230 kJ/mol
# Density = 2.528931 g / cm^3
# Si number density = 25.346997 Si / 1000 Ang^3
#
#
#
# Elastic Constant Matrix: (Units=GPa)
#
#
# Indices 1 2 3 4 5 6 
#
# 1 76.5723 23.7644 29.7328 1.0183 4.5632 7.0514
# 2 23.7644 54.0638 33.3815 -14.3660 1.8673 30.9594
# 3 29.7328 33.3815 129.0227 -26.8977 -41.4268 25.2683
# 4 1.0183 -14.3660 -26.8977 66.8969 17.6863 -1.3340
# 5 4.5632 1.8673 -41.4268 17.6863 56.0122 -8.8464
# 6 7.0514 30.9594 25.2683 -1.3340 -8.8464 32.9250
#
#
#
# Elastic Compliance Matrix: (Units=1/GPa)
#
#
# Indices 1 2 3 4 5 6 
#
# 1 0.017612 -0.012090 -0.004182 -0.004015 -0.001228 0.010313
# 2 -0.012090 0.067722 -0.005834 0.016584 -0.020530 -0.061456
# 3 -0.004182 -0.005834 0.014210 0.001791 0.010209 -0.001708
# 4 -0.004015 0.016584 0.001791 0.021147 -0.008341 -0.017493
# 5 -0.001228 -0.020530 0.010209 -0.008341 0.031979 0.019987
# 6 0.010313 -0.061456 -0.001708 -0.017493 0.019987 0.091923
#
#
# Mechanical properties :
#
#
# Convention : Reuss Voigt Hill
#
# Bulk Modulus (GPa) = 18.07271 48.15735 33.11503
# Shear Modulus (GPa) = 16.27343 42.68548 29.47946
#
# Velocity S-wave (km/s) = 2.53657 4.10816 3.41403
# Velocity P-wave (km/s) = 3.96542 6.44540 5.35106
#
# Compressibility (1/GPa) = 0.05533203
#
# Stress axis : x y z
#
# Youngs Moduli (GPa) = 56.77824 14.76632 70.37484
#
# Poissons Ratio (x) = 0.17852 0.29430
# Poissons Ratio (y) = 0.68644 0.41057
# Poissons Ratio (z) = 0.23744 0.08615
#
# Static dielectric constant tensor:
#      x y z
#    x 2.118170 0.040120 0.012290 
#    y 0.040120 1.992140 -0.045740 
#    z 0.012290 -0.045740 2.094610 
# 
# From -- ./inp_files/137825.got.cif
#   From: 2010.05.17/outbox.cif.g08.bks.cpg/sg2_69_cif.got.tgz:137825.got - 2010.06.03 11:33:40.
