data_PCOD9086145
_publ_section_title
;
Structure prediction by ZEFSAII (Michael W. Deem and Ramdas Pophale) SiO2 
 PCOD9086145
Probable space group: P -1
;
_chemical_formula_sum "Si O2"
_cell_formula_units_Z 16
_cell_length_a 8.274909
_cell_length_b 17.562543
_cell_length_c 17.343558
_cell_angle_alpha 158.791056
_cell_angle_beta 56.806827
_cell_angle_gamma 110.054373
_cell_volume 635.674257
_symmetry_space_group_name_H-M "P -1"
_symmetry_group_IT_number 2
_symmetry_cell_setting 'triclinic'
loop_
_space_group_symop_operation_xyz
x,y,z
-x,-y,-z
loop_
_atom_site_type_symbol
_atom_site_label
_atom_site_fract_x
_atom_site_fract_y
_atom_site_fract_z
Si Si1 0.180093 0.093594 0.636017
Si Si2 0.424936 0.852595 0.488635
Si Si3 0.392255 0.376966 0.274714
Si Si4 0.543061 0.012107 0.760315
Si Si5 0.010205 0.803569 0.891438
Si Si6 0.681700 0.034742 0.057573
Si Si7 0.265919 0.471955 0.642030
Si Si8 0.293952 0.711127 0.119208
O O1 0.206293 0.047871 0.677573
O O2 0.255487 0.828444 0.325198
O O3 0.358439 0.164467 0.627841
O O4 0.922630 0.289430 0.857906
O O5 0.423735 0.943399 0.660522
O O6 0.482580 0.571301 0.209335
O O7 0.172479 0.613482 0.598774
O O8 0.405317 0.147959 0.100743
O O9 0.619239 0.387550 0.218930
O O10 0.379255 0.282095 0.103195
O O11 0.700682 0.080926 0.736737
O O12 0.703114 0.754378 0.526429
O O13 0.045195 0.643169 0.807190
O O14 0.777199 0.985431 0.075805
O O15 0.117034 0.967458 0.042350
O O16 0.463964 0.315651 0.378404
#
# Coordination Sequence:
#
# PCOD9086145 Si02
#       8
#     2   2   2   2   2   2   2   2
#     4   9  20  35  62  92 108 139 189 224 265 325
#     4  10  19  37  59  84 117 146 177 226 273 320
#     4  10  19  36  56  76 107 145 181 228 279 324
#     4  10  22  36  52  78 116 152 183 218 274 336
#     4  10  20  35  58  81 105 138 188 241 283 322
#     4   9  19  34  55  83 103 131 186 238 281 332
#     4  10  21  37  54  77 109 146 184 235 281 322
#     4  10  19  37  60  85 114 145 181 226 269 320
#
# _framework density 25.170127000000001
#
# number of rings (size 3 to 8) (size 9 to 14) (size 15 to 20)
#    0.000    2.250    0.000    3.375    0.000    4.500 
#    0.000    8.750    0.000    0.000    0.000    0.000 
#    0.000    0.000    0.000    0.000    0.000    0.000 
#
# Total GULP energy -89112.203380 kJ/mol
# GULP energy per Si atom -5569.512711 kJ/mol
# Density = 2.511284 g / cm^3
# Si number density = 25.170127 Si / 1000 Ang^3
#
#
#
# Elastic Constant Matrix: (Units=GPa)
#
#
# Indices 1 2 3 4 5 6 
#
# 1 28.3833 24.7632 4.7440 8.2398 5.8175 -17.4306
# 2 24.7632 107.7419 35.7685 17.1662 3.8843 -39.8618
# 3 4.7440 35.7685 78.3677 14.5152 8.5051 -16.6253
# 4 8.2398 17.1662 14.5152 42.1468 -5.2401 8.0183
# 5 5.8175 3.8843 8.5051 -5.2401 37.5115 2.4191
# 6 -17.4306 -39.8618 -16.6253 8.0183 2.4191 46.3706
#
#
#
# Elastic Compliance Matrix: (Units=1/GPa)
#
#
# Indices 1 2 3 4 5 6 
#
# 1 0.064765 -0.002593 0.009848 -0.022937 -0.017180 0.030509
# 2 -0.002593 0.018023 -0.002800 -0.009157 -0.003092 0.015259
# 3 0.009848 -0.002800 0.018163 -0.009838 -0.007368 0.009892
# 4 -0.022937 -0.009157 -0.009838 0.042479 0.014484 -0.028122
# 5 -0.017180 -0.003092 -0.007368 0.014484 0.034372 -0.016055
# 6 0.030509 0.015259 0.009892 -0.028122 -0.016055 0.055398
#
#
# Mechanical properties :
#
#
# Convention : Reuss Voigt Hill
#
# Bulk Modulus (GPa) = 9.10251 38.33824 23.72038
# Shear Modulus (GPa) = 19.16368 35.15361 27.15865
#
# Velocity S-wave (km/s) = 2.76228 3.74122 3.28838
# Velocity P-wave (km/s) = 3.71454 5.82469 4.88492
#
# Compressibility (1/GPa) = 0.10985975
#
# Stress axis : x y z
#
# Youngs Moduli (GPa) = 15.44054 55.48461 55.05803
#
# Poissons Ratio (x) = 0.14389 -0.54223
# Poissons Ratio (y) = 0.04004 0.15418
# Poissons Ratio (z) = -0.15207 0.15537
#
# Static dielectric constant tensor:
#      x y z
#    x 2.131630 0.039250 0.042310 
#    y 0.039250 2.170500 -0.040070 
#    z 0.042310 -0.040070 1.966920 
# 
# From -- ./inp_files/561961.got.cif
#   From: 2010.05.17/outbox.cif.g08.bks.cpg/sg2_281_cif.got.tgz:561961.got - 2010.06.03 11:33:40.
