data_PCOD9086438
_publ_section_title
;
Structure prediction by ZEFSAII (Michael W. Deem and Ramdas Pophale) SiO2 
 PCOD9086438
Probable space group: P -1
;
_chemical_formula_sum "Si O2"
_cell_formula_units_Z 16
_cell_length_a 11.535856
_cell_length_b 11.523114
_cell_length_c 7.749446
_cell_angle_alpha 118.803087
_cell_angle_beta 57.479414
_cell_angle_gamma 97.357614
_cell_volume 749.087921
_symmetry_space_group_name_H-M "P -1"
_symmetry_group_IT_number 2
_symmetry_cell_setting 'triclinic'
loop_
_space_group_symop_operation_xyz
x,y,z
-x,-y,-z
loop_
_atom_site_type_symbol
_atom_site_label
_atom_site_fract_x
_atom_site_fract_y
_atom_site_fract_z
Si Si1 0.832852 0.504583 0.902806
Si Si2 0.848245 0.554820 0.321865
Si Si3 0.912723 0.842655 0.368491
Si Si4 0.663450 0.997921 0.485918
Si Si5 0.667547 0.276369 0.802988
Si Si6 0.609230 0.953757 0.120712
Si Si7 0.653224 0.649487 0.849356
Si Si8 0.806874 0.095715 0.866565
O O1 0.803090 0.506262 0.135145
O O2 0.784887 0.369829 0.767578
O O3 0.741457 0.615687 0.931759
O O4 0.997973 0.513055 0.777480
O O5 0.874965 0.704726 0.364054
O O6 0.733212 0.559958 0.567190
O O7 0.067150 0.824327 0.153219
O O8 0.810817 0.914511 0.356993
O O9 0.884591 0.952382 0.623358
O O10 0.669111 0.156757 0.576634
O O11 0.554626 0.985151 0.719858
O O12 0.619832 0.932717 0.301641
O O13 0.706551 0.185461 0.876215
O O14 0.510113 0.359431 0.999578
O O15 0.646823 0.805041 0.909038
O O16 0.710829 0.053479 0.060366
#
# Coordination Sequence:
#
# PCOD9086438 Si02
#       8
#     2   2   2   2   2   2   2   2
#     4  11  24  44  61  86 125 160 209 255 295 355
#     4  11  23  41  65  88 119 164 208 253 297 361
#     4  10  19  36  58  85 117 157 192 247 304 351
#     4   9  21  35  60  90 125 156 190 253 309 359
#     4  10  22  41  59  89 123 159 197 252 306 356
#     4  10  20  38  58  95 120 153 201 244 308 370
#     4  11  23  40  66  89 119 165 203 250 304 362
#     4  10  20  35  61  86 121 149 193 248 299 369
#
# _framework density 21.359307999999999
#
# number of rings (size 3 to 8) (size 9 to 14) (size 15 to 20)
#    0.000    1.750    2.500    1.500    1.750    2.500 
#    2.250    1.250    0.000    0.000    0.000    0.000 
#    0.000    0.000    0.000    0.000    0.000    0.000 
#
# Total GULP energy -89133.063824 kJ/mol
# GULP energy per Si atom -5570.816489 kJ/mol
# Density = 2.131069 g / cm^3
# Si number density = 21.359308 Si / 1000 Ang^3
#
#
#
# Elastic Constant Matrix: (Units=GPa)
#
#
# Indices 1 2 3 4 5 6 
#
# 1 88.9672 4.3389 34.3483 1.1526 -21.7805 2.6792
# 2 4.3389 60.5800 -3.6939 4.1907 -8.6122 0.2311
# 3 34.3483 -3.6939 42.7304 2.3142 -14.3089 -15.1492
# 4 1.1526 4.1907 2.3142 18.2226 2.2167 -3.5346
# 5 -21.7805 -8.6122 -14.3089 2.2167 21.0166 1.2990
# 6 2.6792 0.2311 -15.1492 -3.5346 1.2990 17.1125
#
#
#
# Elastic Compliance Matrix: (Units=1/GPa)
#
#
# Indices 1 2 3 4 5 6 
#
# 1 0.025287 -0.001867 -0.028139 -0.004553 0.008645 -0.030441
# 2 -0.001867 0.019584 0.010544 -0.005984 0.013462 0.007104
# 3 -0.028139 0.010544 0.082597 0.000243 0.026708 0.075406
# 4 -0.004553 -0.005984 0.000243 0.061113 -0.014361 0.014722
# 5 0.008645 0.013462 0.026708 -0.014361 0.080952 0.012997
# 6 -0.030441 0.007104 0.075406 0.014722 0.012997 0.131916
#
#
# Mechanical properties :
#
#
# Convention : Reuss Voigt Hill
#
# Bulk Modulus (GPa) = 11.29358 29.14048 20.21703
# Shear Modulus (GPa) = 10.64087 21.75595 16.19841
#
# Velocity S-wave (km/s) = 2.23443 3.19497 2.75685
# Velocity P-wave (km/s) = 3.45771 5.22332 4.42938
#
# Compressibility (1/GPa) = 0.08854589
#
# Stress axis : x y z
#
# Youngs Moduli (GPa) = 39.54613 51.06121 12.10698
#
# Poissons Ratio (x) = 0.09533 0.34067
# Poissons Ratio (y) = 0.07383 -0.12766
# Poissons Ratio (z) = 1.11277 -0.53840
#
# Static dielectric constant tensor:
#      x y z
#    x 1.846120 0.024460 -0.023070 
#    y 0.024460 1.770630 0.011990 
#    z -0.023070 0.011990 1.821110 
# 
# From -- ./inp_files/262941.got.cif
#   From: 2010.05.17/outbox.cif.g08.bks.cpg/sg2_132_cif.got.tgz:262941.got - 2010.06.03 11:33:40.
