data_PCOD9086896
_publ_section_title
;
Structure prediction by ZEFSAII (Michael W. Deem and Ramdas Pophale) SiO2 
 PCOD9086896
Probable space group: P -1
;
_chemical_formula_sum "Si O2"
_cell_formula_units_Z 15
_cell_length_a 5.394543
_cell_length_b 20.289200
_cell_length_c 13.152828
_cell_angle_alpha 28.619460
_cell_angle_beta 71.217332
_cell_angle_gamma 62.283067
_cell_volume 597.651914
_symmetry_space_group_name_H-M "P -1"
_symmetry_group_IT_number 2
_symmetry_cell_setting 'triclinic'
loop_
_space_group_symop_operation_xyz
x,y,z
-x,-y,-z
loop_
_atom_site_type_symbol
_atom_site_label
_atom_site_fract_x
_atom_site_fract_y
_atom_site_fract_z
Si Si1 0.499127 0.271049 0.973774
Si Si2 0.500000 0.500000 0.500000
Si Si3 0.847545 0.868515 0.900776
Si Si4 0.721112 0.355473 0.101355
Si Si5 0.181139 0.318816 0.232613
Si Si6 0.514653 0.537147 0.701739
Si Si7 0.164092 0.319916 0.645350
Si Si8 0.443330 0.199919 0.567838
O O1 0.559712 0.336751 0.770769
O O2 0.365225 0.426511 0.846045
O O3 0.309745 0.178174 0.106347
O O4 0.819135 0.170590 0.107044
O O5 0.152997 0.563073 0.490991
O O6 0.666887 0.039497 0.723625
O O7 0.819959 0.771084 0.132697
O O8 0.512889 0.270836 0.223984
O O9 0.000475 0.264768 0.252040
O O10 0.500000 0.500000 0.000000
O O11 0.761525 0.431866 0.888320
O O12 0.219290 0.269515 0.411940
O O13 0.000000 0.500000 0.000000
O O14 0.632135 0.582461 0.519917
O O15 0.395580 0.690827 0.571499
O O16 0.274798 0.210825 0.680770
#
# Coordination Sequence:
#
# PCOD9086896 Si02
#       8
#     2   1   2   2   2   2   2   2
#     4  11  24  41  63  89 132 177 215 261 321 383
#     4  10  20  38  62  94 126 176 218 268 308 368
#     4  11  24  45  60  91 142 177 203 262 335 385
#     4  10  19  36  60  97 123 152 201 288 320 357
#     4  10  19  37  60  95 125 156 204 278 326 361
#     4  10  21  38  68  98 120 167 230 266 305 388
#     4   9  20  40  65  97 131 172 221 268 314 383
#     4  10  22  41  67 100 126 172 221 270 320 394
#
# _framework density 25.098219
#
# number of rings (size 3 to 8) (size 9 to 14) (size 15 to 20)
#    0.800    1.067    2.667    2.000    0.000    7.467 
#    2.400    2.000    0.000    4.800    0.000    0.000 
#    0.000    0.000    0.000    0.000    0.000    0.000 
#
# Total GULP energy -83533.653030 kJ/mol
# GULP energy per Si atom -5568.910202 kJ/mol
# Density = 2.504109 g / cm^3
# Si number density = 25.098219 Si / 1000 Ang^3
#
#
#
# Elastic Constant Matrix: (Units=GPa)
#
#
# Indices 1 2 3 4 5 6 
#
# 1 200.9681 38.9303 48.2213 -32.6418 12.3230 16.0074
# 2 38.9303 103.4927 39.8302 -20.9436 3.0228 9.4559
# 3 48.2213 39.8302 50.1646 -33.0675 14.0695 5.6426
# 4 -32.6418 -20.9436 -33.0675 61.8445 0.5234 -1.4544
# 5 12.3230 3.0228 14.0695 0.5234 24.4917 1.3122
# 6 16.0074 9.4559 5.6426 -1.4544 1.3122 26.2641
#
#
#
# Elastic Compliance Matrix: (Units=1/GPa)
#
#
# Indices 1 2 3 4 5 6 
#
# 1 0.006662 0.000155 -0.006169 0.000202 0.000318 -0.002796
# 2 0.000155 0.015262 -0.016670 -0.003790 0.007835 -0.002609
# 3 -0.006169 -0.016670 0.066280 0.026790 -0.033416 -0.001325
# 4 0.000202 -0.003790 0.026790 0.029399 -0.015539 -0.002110
# 5 0.000318 0.007835 -0.033416 -0.015539 0.059213 0.000345
# 6 -0.002796 -0.002609 -0.001325 -0.002110 0.000345 0.040869
#
#
# Mechanical properties :
#
#
# Convention : Reuss Voigt Hill
#
# Bulk Modulus (GPa) = 23.34387 67.62099 45.48243
# Shear Modulus (GPa) = 18.02910 37.69632 27.86271
#
# Velocity S-wave (km/s) = 2.68310 3.87971 3.33550
# Velocity P-wave (km/s) = 4.34970 6.86080 5.74415
#
# Compressibility (1/GPa) = 0.04283780
#
# Stress axis : x y z
#
# Youngs Moduli (GPa) = 150.10542 65.52152 15.08756
#
# Poissons Ratio (x) = -0.01016 0.09307
# Poissons Ratio (y) = -0.02327 0.25150
# Poissons Ratio (z) = 0.92593 1.09222
#
# Static dielectric constant tensor:
#      x y z
#    x 1.942040 -0.141370 -0.121710 
#    y -0.141370 1.852750 0.015920 
#    z -0.121710 0.015920 1.939450 
# 
# From -- ./inp_files/485530.got.cif
#   From: 2010.05.17/outbox.cif.g08.bks.cpg/sg2_243_cif.got.tgz:485530.got - 2010.06.03 11:33:40.
