data_PCOD9086323
_publ_section_title
;
Structure prediction by ZEFSAII (Michael W. Deem and Ramdas Pophale) SiO2 
 PCOD9086323
Probable space group: P -1
;
_chemical_formula_sum "Si O2"
_cell_formula_units_Z 14
_cell_length_a 19.185352
_cell_length_b 6.869424
_cell_length_c 6.118475
_cell_angle_alpha 68.400612
_cell_angle_beta 92.724207
_cell_angle_gamma 52.287716
_cell_volume 550.847603
_symmetry_space_group_name_H-M "P -1"
_symmetry_group_IT_number 2
_symmetry_cell_setting 'triclinic'
loop_
_space_group_symop_operation_xyz
x,y,z
-x,-y,-z
loop_
_atom_site_type_symbol
_atom_site_label
_atom_site_fract_x
_atom_site_fract_y
_atom_site_fract_z
Si Si1 0.425182 0.666681 0.618259
Si Si2 0.417248 0.144070 0.622193
Si Si3 0.612197 0.610042 0.927049
Si Si4 0.936853 0.725750 0.092975
Si Si5 0.903784 0.434145 0.570316
Si Si6 0.760212 0.521639 0.223845
Si Si7 0.220742 0.118916 0.238244
O O1 0.500000 0.500000 0.500000
O O2 0.421247 0.908826 0.608422
O O3 0.321658 0.835510 0.439146
O O4 0.427600 0.502725 0.892290
O O5 0.524857 0.956951 0.802666
O O6 0.388184 0.373229 0.341854
O O7 0.333470 0.292020 0.719081
O O8 0.722472 0.421929 0.091202
O O9 0.921669 0.577804 0.333913
O O10 0.995141 0.791104 0.195135
O O11 0.837628 0.945918 0.863393
O O12 0.000000 0.500000 0.000000
O O13 0.853168 0.348743 0.464116
O O14 0.833103 0.672461 0.645235
O O15 0.765861 0.718529 0.997166
#
# Coordination Sequence:
#
# PCOD9086323 Si02
#       7
#     2   2   2   2   2   2   2
#     4  12  25  41  60  88 122 163 207 246 299 356
#     4  11  24  43  57  81 121 160 206 256 298 348
#     4  11  25  38  61  84 115 163 205 251 300 354
#     4   8  16  29  55  89 119 153 198 244 297 359
#     4   9  16  31  57  89 118 156 197 245 303 355
#     4  11  19  37  61  83 120 156 199 253 301 351
#     4  10  19  36  57  86 124 156 200 250 294 356
#
# _framework density 25.415379000000001
#
# number of rings (size 3 to 8) (size 9 to 14) (size 15 to 20)
#    0.000    1.714    2.857    1.714    4.000    0.000 
#    0.000    0.000    0.000    0.857    0.000   41.000 
#    0.000    0.000    0.000    0.000    0.000    0.000 
#
# Total GULP energy -78074.455334 kJ/mol
# GULP energy per Si atom -5576.746810 kJ/mol
# Density = 2.535753 g / cm^3
# Si number density = 25.415379 Si / 1000 Ang^3
#
#
#
# Elastic Constant Matrix: (Units=GPa)
#
#
# Indices 1 2 3 4 5 6 
#
# 1 164.9877 5.1387 77.5471 -17.6850 36.6917 -13.6350
# 2 5.1387 22.0952 15.8378 16.7804 -17.1577 -2.8142
# 3 77.5471 15.8378 150.7784 10.3436 -16.5758 -4.1117
# 4 -17.6850 16.7804 10.3436 28.9757 -17.0509 -8.1019
# 5 36.6917 -17.1577 -16.5758 -17.0509 89.6302 -1.0028
# 6 -13.6350 -2.8142 -4.1117 -8.1019 -1.0028 41.8444
#
#
#
# Elastic Compliance Matrix: (Units=1/GPa)
#
#
# Indices 1 2 3 4 5 6 
#
# 1 0.013938 -0.016355 -0.007272 0.018397 -0.006613 0.006131
# 2 -0.016355 0.109172 0.002999 -0.068395 0.015019 -0.010575
# 3 -0.007272 0.002999 0.011003 -0.008527 0.003934 -0.002644
# 4 0.018397 -0.068395 -0.008527 0.090622 -0.004760 0.017989
# 5 -0.006613 0.015019 0.003934 -0.004760 0.016547 -0.001283
# 6 0.006131 -0.010575 -0.002644 0.017989 -0.001283 0.028377
#
#
# Mechanical properties :
#
#
# Convention : Reuss Voigt Hill
#
# Bulk Modulus (GPa) = 10.76941 59.43428 35.10185
# Shear Modulus (GPa) = 14.62555 48.04592 31.33574
#
# Velocity S-wave (km/s) = 2.40148 4.35262 3.51514
# Velocity P-wave (km/s) = 3.45486 6.97828 5.50601
#
# Compressibility (1/GPa) = 0.09285557
#
# Stress axis : x y z
#
# Youngs Moduli (GPa) = 71.74657 9.15987 90.88488
#
# Poissons Ratio (x) = 0.14981 0.66095
# Poissons Ratio (y) = 1.17342 -0.27256
# Poissons Ratio (z) = 0.52177 -0.02747
#
# Static dielectric constant tensor:
#      x y z
#    x 2.092560 0.024230 0.108320 
#    y 0.024230 1.962760 0.066110 
#    z 0.108320 0.066110 2.123480 
# 
# From -- ./inp_files/116647.got.cif
#   From: 2010.05.17/outbox.cif.g08.bks.cpg/sg2_59_cif.got.tgz:116647.got - 2010.06.03 11:33:40.
