data_PCOD9086451
_publ_section_title
;
Structure prediction by ZEFSAII (Michael W. Deem and Ramdas Pophale) SiO2 
 PCOD9086451
Probable space group: P -1
;
_chemical_formula_sum "Si O2"
_cell_formula_units_Z 16
_cell_length_a 24.287822
_cell_length_b 20.658970
_cell_length_c 8.343609
_cell_angle_alpha 32.787367
_cell_angle_beta 135.827865
_cell_angle_gamma 158.253632
_cell_volume 796.622785
_symmetry_space_group_name_H-M "P -1"
_symmetry_group_IT_number 2
_symmetry_cell_setting 'triclinic'
loop_
_space_group_symop_operation_xyz
x,y,z
-x,-y,-z
loop_
_atom_site_type_symbol
_atom_site_label
_atom_site_fract_x
_atom_site_fract_y
_atom_site_fract_z
Si Si1 0.832164 0.713476 0.879418
Si Si2 0.212864 0.849399 0.665466
Si Si3 0.925253 0.560568 0.851368
Si Si4 0.403225 0.275100 0.366091
Si Si5 0.872612 0.067333 0.942857
Si Si6 0.314873 0.416807 0.492133
Si Si7 0.850318 0.714477 0.263600
Si Si8 0.886546 0.052021 0.343707
O O1 0.726228 0.584969 0.766332
O O2 0.921300 0.959103 0.566086
O O3 0.760815 0.616244 0.112885
O O4 0.953589 0.762191 0.029600
O O5 0.151131 0.850607 0.388664
O O6 0.080980 0.689832 0.861082
O O7 0.362964 0.110502 0.510286
O O8 0.214896 0.715516 0.890079
O O9 0.910330 0.656770 0.507711
O O10 0.964636 0.675119 0.862897
O O11 0.504534 0.368037 0.537287
O O12 0.238649 0.109777 0.436134
O O13 0.500000 0.500000 0.000000
O O14 0.769374 0.822271 0.174095
O O15 0.816314 0.017254 0.110057
O O16 0.249831 0.401922 0.542309
O O17 0.000000 0.000000 0.000000
#
# Coordination Sequence:
#
# PCOD9086451 Si02
#       8
#     2   2   2   2   2   2   2   2
#     4  11  21  33  58  91 119 141 190 250 293 333
#     4  10  21  36  58  83 116 153 190 236 289 349
#     4  10  19  36  58  86 114 148 193 240 291 343
#     4  11  22  40  56  81 120 160 194 232 287 352
#     4  11  19  35  55  90 118 143 191 245 296 337
#     4  11  22  36  56  86 118 149 192 245 283 342
#     4  12  19  34  63  87 115 150 190 244 299 335
#     4  10  21  34  56  87 117 150 188 237 300 342
#
# _framework density 20.084790000000002
#
# number of rings (size 3 to 8) (size 9 to 14) (size 15 to 20)
#    0.000    1.250    5.000    3.000    0.000    2.500 
#    2.250    0.625    0.000    0.750    0.000    0.000 
#    0.000    0.000    0.000    0.000    0.000    0.000 
#
# Total GULP energy -89146.729567 kJ/mol
# GULP energy per Si atom -5571.670598 kJ/mol
# Density = 2.003908 g / cm^3
# Si number density = 20.084790 Si / 1000 Ang^3
#
#
#
# Elastic Constant Matrix: (Units=GPa)
#
#
# Indices 1 2 3 4 5 6 
#
# 1 71.0716 29.3785 27.6501 -0.2653 -2.2357 -23.9324
# 2 29.3785 115.0265 52.8403 9.9527 4.9035 -27.1112
# 3 27.6501 52.8403 82.9794 0.0227 17.8813 -18.2270
# 4 -0.2653 9.9527 0.0227 34.4382 -9.8327 -4.8764
# 5 -2.2357 4.9035 17.8813 -9.8327 29.4815 5.0447
# 6 -23.9324 -27.1112 -18.2270 -4.8764 5.0447 29.8524
#
#
#
# Elastic Compliance Matrix: (Units=1/GPa)
#
#
# Indices 1 2 3 4 5 6 
#
# 1 0.020547 -0.000555 -0.004168 0.003051 0.002897 0.013432
# 2 -0.000555 0.014181 -0.007046 -0.003149 -0.000495 0.007701
# 3 -0.004168 -0.007046 0.022297 -0.001177 -0.014098 0.006064
# 4 0.003051 -0.003149 -0.001177 0.033826 0.012356 0.002305
# 5 0.002897 -0.000495 -0.014098 0.012356 0.049121 -0.013017
# 6 0.013432 0.007701 0.006064 0.002305 -0.013017 0.057539
#
#
# Mechanical properties :
#
#
# Convention : Reuss Voigt Hill
#
# Bulk Modulus (GPa) = 29.86231 54.31280 42.08756
# Shear Modulus (GPa) = 21.53212 29.36834 25.45023
#
# Velocity S-wave (km/s) = 3.27779 3.82804 3.56355
# Velocity P-wave (km/s) = 5.40607 6.82928 6.15892
#
# Compressibility (1/GPa) = 0.03348703
#
# Stress axis : x y z
#
# Youngs Moduli (GPa) = 48.66934 70.51772 44.84857
#
# Poissons Ratio (x) = 0.03911 0.18693
# Poissons Ratio (y) = 0.02699 0.31602
# Poissons Ratio (z) = 0.20286 0.49689
#
# Static dielectric constant tensor:
#      x y z
#    x 1.815000 0.003520 -0.009690 
#    y 0.003520 1.767630 0.023220 
#    z -0.009690 0.023220 1.729510 
# 
# From -- ./inp_files/298133.got.cif
#   From: 2010.05.17/outbox.cif.g08.bks.cpg/sg2_150_cif.got.tgz:298133.got - 2010.06.03 11:33:40.
