data_PCOD9086779
_publ_section_title
;
Structure prediction by ZEFSAII (Michael W. Deem and Ramdas Pophale) SiO2 
 PCOD9086779
Probable space group: P -1
;
_chemical_formula_sum "Si O2"
_cell_formula_units_Z 16
_cell_length_a 10.105251
_cell_length_b 13.294702
_cell_length_c 15.448283
_cell_angle_alpha 70.629422
_cell_angle_beta 109.894350
_cell_angle_gamma 47.252585
_cell_volume 830.819893
_symmetry_space_group_name_H-M "P -1"
_symmetry_group_IT_number 2
_symmetry_cell_setting 'triclinic'
loop_
_space_group_symop_operation_xyz
x,y,z
-x,-y,-z
loop_
_atom_site_type_symbol
_atom_site_label
_atom_site_fract_x
_atom_site_fract_y
_atom_site_fract_z
Si Si1 0.246507 0.564780 0.626275
Si Si2 0.632784 0.841600 0.153776
Si Si3 0.585013 0.430868 0.898143
Si Si4 0.722245 0.825926 0.728929
Si Si5 0.685203 0.987731 0.265337
Si Si6 0.449237 0.365140 0.037556
Si Si7 0.788772 0.052730 0.891180
Si Si8 0.189740 0.309210 0.406799
O O1 0.420334 0.526968 0.741527
O O2 0.506143 0.311915 0.713559
O O3 0.023197 0.766562 0.448022
O O4 0.025041 0.640809 0.616119
O O5 0.659023 0.900579 0.225506
O O6 0.389275 0.910618 0.097929
O O7 0.972877 0.559318 0.294841
O O8 0.500000 0.000000 0.000000
O O9 0.455064 0.617767 0.870160
O O10 0.523518 0.368511 0.961269
O O11 0.958515 0.182423 0.040730
O O12 0.727730 0.766033 0.653296
O O13 0.561459 0.861276 0.754967
O O14 0.510077 0.075882 0.598209
O O15 0.078175 0.605599 0.892865
O O16 0.604373 0.146333 0.147231
O O17 0.000000 0.000000 0.000000
#
# Coordination Sequence:
#
# PCOD9086779 Si02
#       8
#     2   2   2   2   2   2   2   2
#     4   9  19  39  60  85 117 158 200 251 302 360
#     4  11  23  38  62  95 127 156 199 257 310 351
#     4  10  21  38  62  81 114 166 209 235 303 374
#     4  10  19  36  60  87 119 152 198 250 305 352
#     4  11  24  36  61  90 124 152 201 265 306 344
#     4  11  22  36  59  87 118 158 204 253 297 362
#     4   9  20  38  65  84 115 167 201 237 291 377
#     4   9  19  35  60  87 121 156 192 247 310 358
#
# _framework density 19.258085000000001
#
# number of rings (size 3 to 8) (size 9 to 14) (size 15 to 20)
#    0.000    2.000    1.250    1.875    3.500    7.000 
#    0.000    0.625   11.000    0.000    0.000    0.000 
#    0.000    0.000    0.000    0.000    0.000    0.000 
#
# Total GULP energy -89242.953165 kJ/mol
# GULP energy per Si atom -5577.684573 kJ/mol
# Density = 1.921425 g / cm^3
# Si number density = 19.258085 Si / 1000 Ang^3
#
#
#
# Elastic Constant Matrix: (Units=GPa)
#
#
# Indices 1 2 3 4 5 6 
#
# 1 59.2684 16.1146 37.2293 -12.0585 -6.2251 10.7015
# 2 16.1146 69.5201 21.2920 -8.3524 0.3298 8.0165
# 3 37.2293 21.2920 116.4573 -12.5155 3.1970 4.8676
# 4 -12.0585 -8.3524 -12.5155 31.5898 3.0976 7.1899
# 5 -6.2251 0.3298 3.1970 3.0976 16.5140 -10.8907
# 6 10.7015 8.0165 4.8676 7.1899 -10.8907 17.2480
#
#
#
# Elastic Compliance Matrix: (Units=1/GPa)
#
#
# Indices 1 2 3 4 5 6 
#
# 1 0.027850 0.000814 -0.005696 0.016578 -0.011425 -0.030175
# 2 0.000814 0.019465 -0.000517 0.013952 -0.021655 -0.028895
# 3 -0.005696 -0.000517 0.011797 0.005566 -0.011482 -0.009125
# 4 0.016578 0.013952 0.005566 0.071527 -0.069025 -0.091741
# 5 -0.011425 -0.021655 -0.011482 -0.069025 0.178678 0.161987
# 6 -0.030175 -0.028895 -0.009125 -0.091741 0.161987 0.233229
#
#
# Mechanical properties :
#
#
# Convention : Reuss Voigt Hill
#
# Bulk Modulus (GPa) = 20.69773 43.83526 32.26650
# Shear Modulus (GPa) = 8.78044 24.44435 16.61240
#
# Velocity S-wave (km/s) = 2.13758 3.56659 2.94022
# Velocity P-wave (km/s) = 4.10649 6.30652 5.32144
#
# Compressibility (1/GPa) = 0.04831448
#
# Stress axis : x y z
#
# Youngs Moduli (GPa) = 35.90677 51.37414 84.76758
#
# Poissons Ratio (x) = -0.04183 0.48280
# Poissons Ratio (y) = -0.02924 0.04386
# Poissons Ratio (z) = 0.20451 0.02658
#
# Static dielectric constant tensor:
#      x y z
#    x 1.651150 0.011950 0.014450 
#    y 0.011950 1.705210 -0.007950 
#    z 0.014450 -0.007950 1.674280 
# 
# From -- ./inp_files/319527.got.cif
#   From: 2010.05.17/outbox.cif.g08.bks.cpg/sg2_160_cif.got.tgz:319527.got - 2010.06.03 11:33:40.
