data_PCOD9086744
_publ_section_title
;
Structure prediction by ZEFSAII (Michael W. Deem and Ramdas Pophale) SiO2 
 PCOD9086744
Probable space group: P -1
;
_chemical_formula_sum "Si O2"
_cell_formula_units_Z 14
_cell_length_a 13.750006
_cell_length_b 11.921992
_cell_length_c 7.531214
_cell_angle_alpha 135.104650
_cell_angle_beta 59.163749
_cell_angle_gamma 137.571158
_cell_volume 587.759340
_symmetry_space_group_name_H-M "P -1"
_symmetry_group_IT_number 2
_symmetry_cell_setting 'triclinic'
loop_
_space_group_symop_operation_xyz
x,y,z
-x,-y,-z
loop_
_atom_site_type_symbol
_atom_site_label
_atom_site_fract_x
_atom_site_fract_y
_atom_site_fract_z
Si Si1 0.687112 0.500395 0.422533
Si Si2 0.349687 0.844211 0.699588
Si Si3 0.422258 0.446229 0.739624
Si Si4 0.939853 0.929103 0.700032
Si Si5 0.233210 0.984178 0.252165
Si Si6 0.679383 0.091564 0.571818
Si Si7 0.237875 0.178617 0.892941
O O1 0.677449 0.334398 0.357712
O O2 0.589133 0.546525 0.672641
O O3 0.617967 0.444284 0.228639
O O4 0.851103 0.697203 0.463985
O O5 0.277413 0.771404 0.489265
O O6 0.520933 0.002903 0.683621
O O7 0.295754 0.942474 0.979861
O O8 0.344789 0.220205 0.474134
O O9 0.348576 0.399505 0.947427
O O10 0.904696 0.041487 0.724097
O O11 0.852381 0.885872 0.916183
O O12 0.105382 0.055765 0.737041
O O13 0.225116 0.853718 0.279282
O O14 0.674257 0.909220 0.288601
#
# Coordination Sequence:
#
# PCOD9086744 Si02
#       7
#     2   2   2   2   2   2   2
#     4  10  20  36  53  92 115 150 180 255 293 321
#     4  11  20  37  56  89 122 147 190 242 285 347
#     4   9  20  36  58  85 117 147 199 233 289 340
#     4  10  22  36  65  81 117 154 196 243 290 323
#     4  10  19  36  60  86 110 159 190 235 278 357
#     4  10  21  34  60  86 111 158 198 224 284 356
#     4  10  19  41  59  86 110 159 205 229 273 372
#
# _framework density 23.819272000000002
#
# number of rings (size 3 to 8) (size 9 to 14) (size 15 to 20)
#    0.000    2.000    4.286    0.429    0.000    5.714 
#    2.571    0.714    0.000    4.286    0.000    0.000 
#    0.000    0.000    0.000    0.000    0.000    0.000 
#
# Total GULP energy -78144.324630 kJ/mol
# GULP energy per Si atom -5581.737474 kJ/mol
# Density = 2.376506 g / cm^3
# Si number density = 23.819272 Si / 1000 Ang^3
#
#
#
# Elastic Constant Matrix: (Units=GPa)
#
#
# Indices 1 2 3 4 5 6 
#
# 1 141.6118 49.3698 19.8553 2.4692 8.3450 -29.3578
# 2 49.3698 116.9077 22.3739 -20.3713 7.9417 -21.4976
# 3 19.8553 22.3739 51.2447 -18.8560 -0.5501 -8.7397
# 4 2.4692 -20.3713 -18.8560 29.7372 -9.8431 8.0179
# 5 8.3450 7.9417 -0.5501 -9.8431 34.3655 -11.5107
# 6 -29.3578 -21.4976 -8.7397 8.0179 -11.5107 59.7111
#
#
#
# Elastic Compliance Matrix: (Units=1/GPa)
#
#
# Indices 1 2 3 4 5 6 
#
# 1 0.010167 -0.004038 -0.004753 -0.008510 -0.002899 0.003433
# 2 -0.004038 0.011948 -0.000370 0.008263 0.001033 0.001352
# 3 -0.004753 -0.000370 0.029569 0.021403 0.008021 0.000530
# 4 -0.008510 0.008263 0.021403 0.059868 0.016676 -0.002901
# 5 -0.002899 0.001033 0.008021 0.016676 0.036090 0.004838
# 6 0.003433 0.001352 0.000530 -0.002901 0.004838 0.020322
#
#
# Mechanical properties :
#
#
# Convention : Reuss Voigt Hill
#
# Bulk Modulus (GPa) = 29.97421 54.77359 42.37390
# Shear Modulus (GPa) = 25.32850 39.30709 32.31779
#
# Velocity S-wave (km/s) = 3.26446 4.06670 3.68746
# Velocity P-wave (km/s) = 5.17883 6.71537 5.99652
#
# Compressibility (1/GPa) = 0.03336202
#
# Stress axis : x y z
#
# Youngs Moduli (GPa) = 98.36005 83.69461 33.81908
#
# Poissons Ratio (x) = 0.33799 0.16074
# Poissons Ratio (y) = 0.39722 0.01250
# Poissons Ratio (z) = 0.46749 0.03095
#
# Static dielectric constant tensor:
#      x y z
#    x 1.966520 -0.053790 0.091030 
#    y -0.053790 1.888750 -0.028820 
#    z 0.091030 -0.028820 2.008250 
# 
# From -- ./inp_files/167753.got.cif
#   From: 2010.05.17/outbox.cif.g08.bks.cpg/sg2_84_cif.got.tgz:167753.got - 2010.06.03 11:33:40.
