data_PCOD9086613
_publ_section_title
;
Structure prediction by ZEFSAII (Michael W. Deem and Ramdas Pophale) SiO2 
 PCOD9086613
Probable space group: P -1
;
_chemical_formula_sum "Si O2"
_cell_formula_units_Z 16
_cell_length_a 9.083041
_cell_length_b 11.222894
_cell_length_c 22.148278
_cell_angle_alpha 139.769158
_cell_angle_beta 25.888218
_cell_angle_gamma 137.779968
_cell_volume 625.013600
_symmetry_space_group_name_H-M "P -1"
_symmetry_group_IT_number 2
_symmetry_cell_setting 'triclinic'
loop_
_space_group_symop_operation_xyz
x,y,z
-x,-y,-z
loop_
_atom_site_type_symbol
_atom_site_label
_atom_site_fract_x
_atom_site_fract_y
_atom_site_fract_z
Si Si1 0.392251 0.380982 0.184859
Si Si2 0.542999 0.183938 0.639076
Si Si3 0.957829 0.278079 0.411003
Si Si4 0.108870 0.758625 0.148232
Si Si5 0.725171 0.812884 0.027343
Si Si6 0.635566 0.074864 0.696832
Si Si7 0.801045 0.339746 0.287125
Si Si8 0.273028 0.313418 0.619423
O O1 0.474393 0.597262 0.257454
O O2 0.279850 0.267349 0.244672
O O3 0.048646 0.356788 0.260554
O O4 0.701882 0.326876 0.010040
O O5 0.843815 0.174989 0.476406
O O6 0.618020 0.107375 0.645843
O O7 0.156375 0.116327 0.730140
O O8 0.610606 0.238739 0.484367
O O9 0.000000 0.500000 0.500000
O O10 0.886146 0.639479 0.238644
O O11 0.430891 0.853927 0.106802
O O12 0.911583 0.659460 0.871121
O O13 0.589132 0.787030 0.134857
O O14 0.000000 0.000000 0.000000
O O15 0.999106 0.160971 0.625676
O O16 0.467480 0.858000 0.688937
O O17 0.633581 0.511792 0.393175
#
# Coordination Sequence:
#
# PCOD9086613 Si02
#       8
#     2   2   2   2   2   2   2   2
#     4  10  19  36  59  86 120 158 200 246 292 358
#     4  10  19  36  59  87 120 160 197 246 301 351
#     4   9  21  40  62  83 122 162 198 245 304 354
#     4   9  19  32  62  90 116 157 203 241 298 358
#     4   8  17  33  52  83 125 154 185 244 295 348
#     4  10  20  36  61  90 125 154 195 251 298 353
#     4  10  20  35  59  92 120 153 202 246 296 354
#     4  10  20  38  66  88 117 160 197 244 301 357
#
# _framework density 25.599442
#
# number of rings (size 3 to 8) (size 9 to 14) (size 15 to 20)
#    0.000    2.500    1.250    0.375    1.750    2.000 
#    0.000    6.875   24.750    0.000    0.000    1.750 
#    0.000    0.000    0.000    0.000    0.000    0.000 
#
# Total GULP energy -89416.811361 kJ/mol
# GULP energy per Si atom -5588.550710 kJ/mol
# Density = 2.554118 g / cm^3
# Si number density = 25.599442 Si / 1000 Ang^3
#
#
#
# Elastic Constant Matrix: (Units=GPa)
#
#
# Indices 1 2 3 4 5 6 
#
# 1 130.0255 48.5377 57.9248 -10.2585 30.9928 -11.8934
# 2 48.5377 106.2410 32.4366 -14.2574 6.9568 -9.1510
# 3 57.9248 32.4366 178.4320 -23.9496 47.9801 -29.7210
# 4 -10.2585 -14.2574 -23.9496 24.3292 -6.5560 3.9679
# 5 30.9928 6.9568 47.9801 -6.5560 41.0096 -11.5666
# 6 -11.8934 -9.1510 -29.7210 3.9679 -11.5666 46.7672
#
#
#
# Elastic Compliance Matrix: (Units=1/GPa)
#
#
# Indices 1 2 3 4 5 6 
#
# 1 0.011433 -0.004541 -0.001280 -0.000822 -0.006605 -0.000358
# 2 -0.004541 0.012308 -0.000788 0.005259 0.003432 0.001156
# 3 -0.001280 -0.000788 0.009744 0.005793 -0.008493 0.003121
# 4 -0.000822 0.005259 0.005793 0.049737 0.001055 0.000543
# 5 -0.006605 0.003432 -0.008493 0.001055 0.039847 0.003360
# 6 -0.000358 0.001156 0.003121 0.000543 0.003360 0.024286
#
#
# Mechanical properties :
#
#
# Convention : Reuss Voigt Hill
#
# Bulk Modulus (GPa) = 49.33956 76.94407 63.14181
# Shear Modulus (GPa) = 29.88117 40.80783 35.34450
#
# Velocity S-wave (km/s) = 3.42022 3.99694 3.71977
# Velocity P-wave (km/s) = 5.90870 7.17097 6.57022
#
# Compressibility (1/GPa) = 0.02026771
#
# Stress axis : x y z
#
# Youngs Moduli (GPa) = 87.46675 81.24576 102.62340
#
# Poissons Ratio (x) = 0.36895 0.13134
# Poissons Ratio (y) = 0.39720 0.08086
# Poissons Ratio (z) = 0.11195 0.06401
#
# Static dielectric constant tensor:
#      x y z
#    x 1.995590 0.061860 0.018060 
#    y 0.061860 2.088570 -0.001810 
#    z 0.018060 -0.001810 2.141720 
# 
# From -- ./inp_files/589558.got.cif
#   From: 2010.05.17/outbox.cif.g08.bks.cpg/sg2_295_cif.got.tgz:589558.got - 2010.06.03 11:33:40.
