data_PCOD9086292
_publ_section_title
;
Structure prediction by ZEFSAII (Michael W. Deem and Ramdas Pophale) SiO2 
 PCOD9086292
Probable space group: P -1
;
_chemical_formula_sum "Si O2"
_cell_formula_units_Z 14
_cell_length_a 21.436998
_cell_length_b 9.046833
_cell_length_c 11.408298
_cell_angle_alpha 120.543545
_cell_angle_beta 152.504128
_cell_angle_gamma 41.193744
_cell_volume 573.042323
_symmetry_space_group_name_H-M "P -1"
_symmetry_group_IT_number 2
_symmetry_cell_setting 'triclinic'
loop_
_space_group_symop_operation_xyz
x,y,z
-x,-y,-z
loop_
_atom_site_type_symbol
_atom_site_label
_atom_site_fract_x
_atom_site_fract_y
_atom_site_fract_z
Si Si1 0.052308 0.900149 0.241152
Si Si2 0.680011 0.915908 0.695835
Si Si3 0.785789 0.107788 0.082817
Si Si4 0.071688 0.326227 0.192970
Si Si5 0.264641 0.099482 0.863531
Si Si6 0.510262 0.378698 0.086723
Si Si7 0.932140 0.375068 0.223492
O O1 0.284968 0.747199 0.556435
O O2 0.011863 0.770469 0.045166
O O3 0.007822 0.910433 0.310421
O O4 0.899774 0.205010 0.077971
O O5 0.717511 0.837836 0.591327
O O6 0.500000 0.000000 0.500000
O O7 0.898108 0.635801 0.999807
O O8 0.660803 0.134919 0.780239
O O9 0.757141 0.001797 0.099599
O O10 0.687567 0.381353 0.069201
O O11 0.079486 0.297051 0.331969
O O12 0.256003 0.309281 0.963019
O O13 0.056334 0.267840 0.508303
O O14 0.444987 0.853958 0.980557
O O15 0.500000 0.500000 0.000000
#
# Coordination Sequence:
#
# PCOD9086292 Si02
#       7
#     2   2   2   2   2   2   2
#     4  10  21  35  60  86 112 153 187 236 288 331
#     4  10  20  35  60  86 112 145 188 240 286 333
#     4  10  19  37  59  85 112 145 200 236 275 337
#     4  10  20  36  58  85 114 147 190 233 284 345
#     4   9  19  35  58  79 116 153 188 234 274 334
#     4   9  19  34  56  82 114 146 189 235 275 327
#     4  10  19  36  57  83 119 152 185 230 287 340
#
# _framework density 24.431006
#
# number of rings (size 3 to 8) (size 9 to 14) (size 15 to 20)
#    0.000    2.286    1.429    1.286    0.000    5.143 
#    0.000    3.571    3.143   10.286    0.000    0.000 
#    0.000    0.000    0.000    0.000    0.000    0.000 
#
# Total GULP energy -78132.375514 kJ/mol
# GULP energy per Si atom -5580.883965 kJ/mol
# Density = 2.437540 g / cm^3
# Si number density = 24.431006 Si / 1000 Ang^3
#
#
#
# Elastic Constant Matrix: (Units=GPa)
#
#
# Indices 1 2 3 4 5 6 
#
# 1 85.3527 25.7229 16.4981 -13.3665 8.7106 -24.2814
# 2 25.7229 166.8930 11.5278 -10.7765 -0.4458 -9.4713
# 3 16.4981 11.5278 48.8555 -2.9400 7.6460 -10.9687
# 4 -13.3665 -10.7765 -2.9400 23.1741 1.6681 3.8911
# 5 8.7106 -0.4458 7.6460 1.6681 19.1428 -5.0116
# 6 -24.2814 -9.4713 -10.9687 3.8911 -5.0116 43.8311
#
#
#
# Elastic Compliance Matrix: (Units=1/GPa)
#
#
# Indices 1 2 3 4 5 6 
#
# 1 0.016308 -0.001485 -0.002314 0.007663 -0.005409 0.006835
# 2 -0.001485 0.006431 -0.001020 0.001876 0.001142 0.000276
# 3 -0.002314 -0.001020 0.023510 0.001145 -0.007567 0.003414
# 4 0.007663 0.001876 0.001145 0.049251 -0.008293 -0.000383
# 5 -0.005409 0.001142 -0.007567 -0.008293 0.059222 0.002864
# 6 0.006835 0.000276 0.003414 -0.000383 0.002864 0.027877
#
#
# Mechanical properties :
#
#
# Convention : Reuss Voigt Hill
#
# Bulk Modulus (GPa) = 27.31457 45.39988 36.35723
# Shear Modulus (GPa) = 24.45700 33.71975 29.08837
#
# Velocity S-wave (km/s) = 3.16739 3.71914 3.45430
# Velocity P-wave (km/s) = 4.95793 6.08818 5.55189
#
# Compressibility (1/GPa) = 0.03661050
#
# Stress axis : x y z
#
# Youngs Moduli (GPa) = 61.32082 155.49536 42.53444
#
# Poissons Ratio (x) = 0.23096 0.09843
# Poissons Ratio (y) = 0.09108 0.04337
# Poissons Ratio (z) = 0.14191 0.15857
#
# Static dielectric constant tensor:
#      x y z
#    x 1.974880 -0.000030 -0.003680 
#    y -0.000030 1.986050 0.001690 
#    z -0.003680 0.001690 1.978850 
# 
# From -- ./inp_files/71888.got.cif
#   From: 2010.05.17/outbox.cif.g08.bks.cpg/sg2_36_cif.got.tgz:71888.got - 2010.06.03 11:33:40.
