data_PCOD9086099
_publ_section_title
;
Structure prediction by ZEFSAII (Michael W. Deem and Ramdas Pophale) SiO2 
 PCOD9086099
Probable space group: P -1
;
_chemical_formula_sum "Si O2"
_cell_formula_units_Z 16
_cell_length_a 16.669125
_cell_length_b 9.719907
_cell_length_c 10.247869
_cell_angle_alpha 73.078414
_cell_angle_beta 46.424198
_cell_angle_gamma 38.962989
_cell_volume 637.785476
_symmetry_space_group_name_H-M "P -1"
_symmetry_group_IT_number 2
_symmetry_cell_setting 'triclinic'
loop_
_space_group_symop_operation_xyz
x,y,z
-x,-y,-z
loop_
_atom_site_type_symbol
_atom_site_label
_atom_site_fract_x
_atom_site_fract_y
_atom_site_fract_z
Si Si1 0.339017 0.608050 0.246641
Si Si2 0.857818 0.188433 0.984957
Si Si3 0.509653 0.393761 0.366305
Si Si4 0.723250 0.748591 0.153518
Si Si5 0.009574 0.405255 0.307671
Si Si6 0.009107 0.176240 0.578758
Si Si7 0.899452 0.314095 0.226984
Si Si8 0.693936 0.939813 0.412466
O O1 0.472030 0.378182 0.265875
O O2 0.177706 0.692164 0.325548
O O3 0.206620 0.869012 0.404167
O O4 0.500000 0.500000 0.000000
O O5 0.938222 0.230008 0.793043
O O6 0.622232 0.424992 0.214644
O O7 0.905717 0.993514 0.899492
O O8 0.000000 0.000000 0.000000
O O9 0.286709 0.593539 0.607849
O O10 0.653377 0.149209 0.368204
O O11 0.876884 0.451919 0.096794
O O12 0.721612 0.843292 0.262288
O O13 0.508263 0.908729 0.343942
O O14 0.792971 0.760641 0.946779
O O15 0.036882 0.300186 0.444347
O O16 0.902647 0.405291 0.329293
O O17 0.866562 0.697646 0.378983
#
# Coordination Sequence:
#
# PCOD9086099 Si02
#       8
#     2   2   2   2   2   2   2   2
#     4  11  21  35  57  83 118 151 175 229 297 347
#     4  12  25  40  57  79 110 156 205 238 272 324
#     4  11  20  36  60  82 116 150 186 230 282 335
#     4   9  18  29  50  82 115 147 172 216 281 341
#     4  11  19  32  55  84 125 143 167 232 288 350
#     4  11  23  36  52  86 118 147 187 228 288 344
#     4  10  19  36  54  83 114 145 185 234 275 334
#     4   9  19  30  51  87 115 146 181 212 280 355
#
# _framework density 25.086804999999998
#
# number of rings (size 3 to 8) (size 9 to 14) (size 15 to 20)
#    0.000    1.500    3.750    4.500    1.750    0.500 
#    0.000    0.000    0.000    3.000    0.000    3.500 
#    0.000    0.000    0.000    0.000    0.000    0.000 
#
# Total GULP energy -89334.507529 kJ/mol
# GULP energy per Si atom -5583.406721 kJ/mol
# Density = 2.502971 g / cm^3
# Si number density = 25.086805 Si / 1000 Ang^3
#
#
#
# Elastic Constant Matrix: (Units=GPa)
#
#
# Indices 1 2 3 4 5 6 
#
# 1 65.7568 27.5613 43.4640 -9.9993 -7.2160 -17.5061
# 2 27.5613 123.3341 61.1495 -30.6331 4.6535 -13.6112
# 3 43.4640 61.1495 194.3297 -37.9130 -31.4377 -4.0138
# 4 -9.9993 -30.6331 -37.9130 54.6493 -7.1205 5.2945
# 5 -7.2160 4.6535 -31.4377 -7.1205 27.3047 -3.8476
# 6 -17.5061 -13.6112 -4.0138 5.2945 -3.8476 28.3551
#
#
#
# Elastic Compliance Matrix: (Units=1/GPa)
#
#
# Indices 1 2 3 4 5 6 
#
# 1 0.022147 -0.002029 -0.003444 -0.000194 0.003985 0.012789
# 2 -0.002029 0.011411 -0.003425 0.002707 -0.005365 0.002507
# 3 -0.003444 -0.003425 0.010325 0.006477 0.013003 -0.001754
# 4 -0.000194 0.002707 0.006477 0.026141 0.013630 -0.000935
# 5 0.003985 -0.005365 0.013003 0.013630 0.058113 0.007066
# 6 0.012789 0.002507 -0.001754 -0.000935 0.007066 0.045251
#
#
# Mechanical properties :
#
#
# Convention : Reuss Voigt Hill
#
# Bulk Modulus (GPa) = 38.33282 71.97448 55.15365
# Shear Modulus (GPa) = 25.01519 38.81152 31.91335
#
# Velocity S-wave (km/s) = 3.16119 3.93757 3.57054
# Velocity P-wave (km/s) = 5.35139 7.03030 6.24750
#
# Compressibility (1/GPa) = 0.02608731
#
# Stress axis : x y z
#
# Youngs Moduli (GPa) = 45.15326 87.63504 96.85238
#
# Poissons Ratio (x) = 0.17778 0.33357
# Poissons Ratio (y) = 0.09160 0.33171
# Poissons Ratio (z) = 0.15551 0.30014
#
# Static dielectric constant tensor:
#      x y z
#    x 2.012520 0.051860 0.065460 
#    y 0.051860 2.014390 -0.007750 
#    z 0.065460 -0.007750 2.043720 
# 
# From -- ./inp_files/471172.got.cif
#   From: 2010.05.17/outbox.cif.g08.bks.cpg/sg2_236_cif.got.tgz:471172.got - 2010.06.03 11:33:40.
