data_PCOD9086991
_publ_section_title
;
Structure prediction by ZEFSAII (Michael W. Deem and Ramdas Pophale) SiO2 
 PCOD9086991
Probable space group: P -1
;
_chemical_formula_sum "Si O2"
_cell_formula_units_Z 16
_cell_length_a 7.896584
_cell_length_b 11.676551
_cell_length_c 8.302029
_cell_angle_alpha 66.975042
_cell_angle_beta 109.458724
_cell_angle_gamma 82.228356
_cell_volume 632.404278
_symmetry_space_group_name_H-M "P -1"
_symmetry_group_IT_number 2
_symmetry_cell_setting 'triclinic'
loop_
_space_group_symop_operation_xyz
x,y,z
-x,-y,-z
loop_
_atom_site_type_symbol
_atom_site_label
_atom_site_fract_x
_atom_site_fract_y
_atom_site_fract_z
Si Si1 0.394122 0.669297 0.272591
Si Si2 0.926620 0.837645 0.732251
Si Si3 0.742078 0.411259 0.037338
Si Si4 0.262306 0.169692 0.992443
Si Si5 0.155046 0.955849 0.930849
Si Si6 0.074630 0.568386 0.339158
Si Si7 0.719570 0.697695 0.567673
Si Si8 0.529729 0.694470 0.836153
O O1 0.397974 0.583639 0.161320
O O2 0.276387 0.814523 0.106670
O O3 0.266112 0.612936 0.385470
O O4 0.592336 0.680389 0.388806
O O5 0.823905 0.808636 0.555423
O O6 0.060691 0.689252 0.893772
O O7 0.054207 0.932924 0.745806
O O8 0.786073 0.873705 0.820154
O O9 0.699221 0.559155 0.994230
O O10 0.664849 0.336153 0.192494
O O11 0.266385 0.061002 0.921991
O O12 0.091217 0.298459 0.822190
O O13 0.449109 0.207578 0.072114
O O14 0.000000 0.000000 0.000000
O O15 0.131791 0.448783 0.293500
O O16 0.000000 0.500000 0.500000
O O17 0.574409 0.731446 0.652335
#
# Coordination Sequence:
#
# PCOD9086991 Si02
#       8
#     2   2   2   2   2   2   2   2
#     4  11  22  40  61  94 127 162 200 261 308 365
#     4   9  18  37  61  86 115 165 204 252 296 365
#     4  10  19  36  61  87 123 164 211 246 306 368
#     4  10  19  38  62  93 115 163 215 249 297 367
#     4   9  17  39  68  85 114 169 216 249 291 370
#     4  12  24  36  62  92 130 161 195 253 318 374
#     4  11  23  38  58  94 133 153 200 258 322 359
#     4  10  21  33  62  91 123 160 208 257 300 368
#
# _framework density 25.300272
#
# number of rings (size 3 to 8) (size 9 to 14) (size 15 to 20)
#    0.000    1.750    5.000    1.125    1.750    4.000 
#    0.000    8.125    0.000    0.750    0.000    0.000 
#    0.000    0.000    0.000    0.000    0.000    0.000 
#
# Total GULP energy -89265.146024 kJ/mol
# GULP energy per Si atom -5579.071627 kJ/mol
# Density = 2.524269 g / cm^3
# Si number density = 25.300272 Si / 1000 Ang^3
#
#
#
# Elastic Constant Matrix: (Units=GPa)
#
#
# Indices 1 2 3 4 5 6 
#
# 1 57.4372 22.1916 11.5242 7.0056 -9.2935 0.9811
# 2 22.1916 175.2246 32.9660 33.0693 11.4591 30.2376
# 3 11.5242 32.9660 43.8509 19.0154 1.9024 8.2305
# 4 7.0056 33.0693 19.0154 29.7941 9.3186 13.2762
# 5 -9.2935 11.4591 1.9024 9.3186 29.0743 7.9568
# 6 0.9811 30.2376 8.2305 13.2762 7.9568 31.6430
#
#
#
# Elastic Compliance Matrix: (Units=1/GPa)
#
#
# Indices 1 2 3 4 5 6 
#
# 1 0.020641 -0.002183 -0.002678 -0.004156 0.008486 0.001753
# 2 -0.002183 0.008255 -0.002768 -0.004324 -0.001007 -0.005033
# 3 -0.002678 -0.002768 0.033678 -0.019560 0.003979 0.001175
# 4 -0.004156 -0.004324 -0.019560 0.062251 -0.014720 -0.013068
# 5 0.008486 -0.001007 0.003979 -0.014720 0.043346 -0.005060
# 6 0.001753 -0.005033 0.001175 -0.013068 -0.005060 0.042807
#
#
# Mechanical properties :
#
#
# Convention : Reuss Voigt Hill
#
# Bulk Modulus (GPa) = 21.13515 45.54184 33.33849
# Shear Modulus (GPa) = 20.66028 32.09102 26.37565
#
# Velocity S-wave (km/s) = 2.86073 3.56533 3.23229
# Velocity P-wave (km/s) = 4.39130 5.91510 5.20922
#
# Compressibility (1/GPa) = 0.04731455
#
# Stress axis : x y z
#
# Youngs Moduli (GPa) = 48.44667 121.14201 29.69263
#
# Poissons Ratio (x) = 0.26450 0.07952
# Poissons Ratio (y) = 0.10578 0.08220
# Poissons Ratio (z) = 0.12975 0.33537
#
# Static dielectric constant tensor:
#      x y z
#    x 2.146080 0.106630 0.009210 
#    y 0.106630 2.040650 0.017960 
#    z 0.009210 0.017960 2.062690 
# 
# From -- ./inp_files/186088.got.cif
#   From: 2010.05.17/outbox.cif.g08.bks.cpg/sg2_94_cif.got.tgz:186088.got - 2010.06.03 11:33:40.
