data_PCOD9086286
_publ_section_title
;
Structure prediction by ZEFSAII (Michael W. Deem and Ramdas Pophale) SiO2 
 PCOD9086286
Probable space group: P -1
;
_chemical_formula_sum "Si O2"
_cell_formula_units_Z 16
_cell_length_a 20.450291
_cell_length_b 8.448148
_cell_length_c 7.228534
_cell_angle_alpha 57.347189
_cell_angle_beta 37.670887
_cell_angle_gamma 66.348938
_cell_volume 641.769776
_symmetry_space_group_name_H-M "P -1"
_symmetry_group_IT_number 2
_symmetry_cell_setting 'triclinic'
loop_
_space_group_symop_operation_xyz
x,y,z
-x,-y,-z
loop_
_atom_site_type_symbol
_atom_site_label
_atom_site_fract_x
_atom_site_fract_y
_atom_site_fract_z
Si Si1 0.111466 0.450018 0.189612
Si Si2 0.503402 0.806141 0.386685
Si Si3 0.342383 0.512556 0.812014
Si Si4 0.889769 0.931428 0.397508
Si Si5 0.437371 0.794185 0.954358
Si Si6 0.350006 0.414006 0.296304
Si Si7 0.140989 0.314803 0.723714
Si Si8 0.897103 0.305244 0.312557
O O1 0.100720 0.224302 0.368134
O O2 0.000000 0.500000 0.500000
O O3 0.223666 0.515549 0.995140
O O4 0.106241 0.561246 0.941682
O O5 0.416142 0.705969 0.507800
O O6 0.592040 0.653460 0.321428
O O7 0.440281 0.836273 0.700608
O O8 0.562586 0.003952 0.075554
O O9 0.349341 0.461697 0.048094
O O10 0.834175 0.811606 0.430433
O O11 0.840791 0.109768 0.494549
O O12 0.000000 0.000000 0.000000
O O13 0.549505 0.704787 0.810115
O O14 0.355359 0.612646 0.267979
O O15 0.239623 0.296554 0.652040
O O16 0.137707 0.543976 0.552697
O O17 0.021206 0.259369 0.094460
#
# Coordination Sequence:
#
# PCOD9086286 Si02
#       8
#     2   2   2   2   2   2   2   2
#     4  12  21  39  63  91 123 165 203 252 312 362
#     4   9  20  40  55  85 118 149 201 240 301 357
#     4  10  21  36  60  84 118 153 195 252 290 365
#     4  10  20  40  60  83 124 160 199 256 293 363
#     4   9  20  36  59  81 114 153 189 250 297 356
#     4  10  19  36  57  83 114 152 191 247 302 347
#     4  10  20  39  59  85 124 159 203 257 297 369
#     4  10  23  39  61  88 124 166 201 251 307 359
#
# _framework density 24.931059000000001
#
# number of rings (size 3 to 8) (size 9 to 14) (size 15 to 20)
#    0.000    2.000    3.750    0.000    1.750    2.500 
#    0.000    6.875    0.000    0.000    0.000    0.000 
#    0.000    0.000    0.000    0.000    0.000    0.000 
#
# Total GULP energy -89276.630361 kJ/mol
# GULP energy per Si atom -5579.789398 kJ/mol
# Density = 2.487432 g / cm^3
# Si number density = 24.931059 Si / 1000 Ang^3
#
#
#
# Elastic Constant Matrix: (Units=GPa)
#
#
# Indices 1 2 3 4 5 6 
#
# 1 103.0978 27.6940 43.3410 -16.0003 -24.6535 4.9684
# 2 27.6940 167.7804 26.1943 -37.2230 -16.1152 32.4453
# 3 43.3410 26.1943 78.5981 -10.7813 -13.1458 1.1557
# 4 -16.0003 -37.2230 -10.7813 44.3398 0.0849 -3.9657
# 5 -24.6535 -16.1152 -13.1458 0.0849 46.9638 -8.1075
# 6 4.9684 32.4453 1.1557 -3.9657 -8.1075 31.3569
#
#
#
# Elastic Compliance Matrix: (Units=1/GPa)
#
#
# Indices 1 2 3 4 5 6 
#
# 1 0.014338 0.000007 -0.006463 0.003588 0.005694 -0.000115
# 2 0.000007 0.009552 -0.001923 0.006779 0.001240 -0.008636
# 3 -0.006463 -0.001923 0.017156 0.000469 0.001225 0.002758
# 4 0.003588 0.006779 0.000469 0.029386 0.003786 -0.002905
# 5 0.005694 0.001240 0.001225 0.003786 0.025897 0.004944
# 6 -0.000115 -0.008636 0.002758 -0.002905 0.004944 0.041654
#
#
# Mechanical properties :
#
#
# Convention : Reuss Voigt Hill
#
# Bulk Modulus (GPa) = 41.16949 60.43720 50.80335
# Shear Modulus (GPa) = 30.70520 41.34858 36.02689
#
# Velocity S-wave (km/s) = 3.51323 4.07691 3.80552
# Velocity P-wave (km/s) = 5.74510 6.81586 6.30326
#
# Compressibility (1/GPa) = 0.02428983
#
# Stress axis : x y z
#
# Youngs Moduli (GPa) = 69.74302 104.68488 58.28733
#
# Poissons Ratio (x) = -0.00078 0.37670
# Poissons Ratio (y) = -0.00052 0.11210
# Poissons Ratio (z) = 0.45074 0.20134
#
# Static dielectric constant tensor:
#      x y z
#    x 2.026550 0.093410 0.012250 
#    y 0.093410 2.031040 0.027240 
#    z 0.012250 0.027240 2.072920 
# 
# From -- ./inp_files/341603.got.cif
#   From: 2010.05.17/outbox.cif.g08.bks.cpg/sg2_171_cif.got.tgz:341603.got - 2010.06.03 11:33:40.
