data_PCOD9086272
_publ_section_title
;
Structure prediction by ZEFSAII (Michael W. Deem and Ramdas Pophale) SiO2 
 PCOD9086272
Probable space group: P -1
;
_chemical_formula_sum "Si O2"
_cell_formula_units_Z 16
_cell_length_a 15.934471
_cell_length_b 15.194766
_cell_length_c 25.075336
_cell_angle_alpha 151.872554
_cell_angle_beta 18.870378
_cell_angle_gamma 152.297234
_cell_volume 872.676956
_symmetry_space_group_name_H-M "P -1"
_symmetry_group_IT_number 2
_symmetry_cell_setting 'triclinic'
loop_
_space_group_symop_operation_xyz
x,y,z
-x,-y,-z
loop_
_atom_site_type_symbol
_atom_site_label
_atom_site_fract_x
_atom_site_fract_y
_atom_site_fract_z
Si Si1 0.827101 0.269146 0.991347
Si Si2 0.542803 0.692386 0.041573
Si Si3 0.835570 0.280534 0.809643
Si Si4 0.121028 0.723346 0.913591
Si Si5 0.624218 0.734419 0.554520
Si Si6 0.360973 0.964057 0.379596
Si Si7 0.790776 0.967265 0.759398
Si Si8 0.092273 0.997952 0.881559
O O1 0.895000 0.229129 0.989779
O O2 0.494066 0.211860 0.156686
O O3 0.879526 0.113869 0.835292
O O4 0.000000 0.500000 0.000000
O O5 0.384679 0.674320 0.071528
O O6 0.422115 0.826652 0.223819
O O7 0.500000 0.500000 0.000000
O O8 0.865733 0.796246 0.890673
O O9 0.738290 0.109187 0.820461
O O10 0.997545 0.487052 0.852306
O O11 0.051824 0.220101 0.609645
O O12 0.440832 0.795980 0.741173
O O13 0.964821 0.829121 0.025140
O O14 0.500000 0.500000 0.500000
O O15 0.583709 0.827497 0.572306
O O16 0.590773 0.984855 0.297579
O O17 0.047544 0.899421 0.552644
O O18 0.000000 0.000000 0.000000
#
# Coordination Sequence:
#
# PCOD9086272 Si02
#       8
#     2   2   2   2   2   2   2   2
#     4  11  23  42  62  89 117 161 211 254 308 347
#     4  11  22  33  54  89 129 161 194 237 301 377
#     4  10  20  34  56  91 122 150 197 244 311 368
#     4  11  19  36  62  84 120 162 195 248 304 362
#     4   9  19  30  55  88 116 150 185 244 302 373
#     4  10  21  39  57  87 126 156 197 247 306 364
#     4  10  23  41  63  89 120 156 205 262 298 360
#     4  10  19  36  57  82 122 160 193 236 300 370
#
# _framework density 18.334389999999999
#
# number of rings (size 3 to 8) (size 9 to 14) (size 15 to 20)
#    0.000    1.750    3.750    2.250    3.500    1.000 
#    2.250    0.625    0.000    0.750    0.000    0.000 
#    0.000    0.000    0.000    0.000    0.000    0.000 
#
# Total GULP energy -89200.545114 kJ/mol
# GULP energy per Si atom -5575.034070 kJ/mol
# Density = 1.829266 g / cm^3
# Si number density = 18.334390 Si / 1000 Ang^3
#
#
#
# Elastic Constant Matrix: (Units=GPa)
#
#
# Indices 1 2 3 4 5 6 
#
# 1 102.9517 20.1378 25.0186 -0.6927 -8.4448 3.0327
# 2 20.1378 98.4170 30.9496 -5.9026 -5.9763 -1.5189
# 3 25.0186 30.9496 54.6013 -4.3109 -7.9540 -2.1825
# 4 -0.6927 -5.9026 -4.3109 22.4713 -4.6107 -3.3151
# 5 -8.4448 -5.9763 -7.9540 -4.6107 25.6672 3.9457
# 6 3.0327 -1.5189 -2.1825 -3.3151 3.9457 29.8640
#
#
#
# Elastic Compliance Matrix: (Units=1/GPa)
#
#
# Indices 1 2 3 4 5 6 
#
# 1 0.011194 -0.000811 -0.004449 -0.000523 0.002308 -0.001866
# 2 -0.000811 0.012544 -0.006391 0.002310 0.001031 0.000374
# 3 -0.004449 -0.006391 0.025172 0.004371 0.005366 0.001743
# 4 -0.000523 0.002310 0.004371 0.048609 0.009745 0.004598
# 5 0.002308 0.001031 0.005366 0.009745 0.044070 -0.004531
# 6 -0.001866 0.000374 0.001743 0.004598 -0.004531 0.034930
#
#
# Mechanical properties :
#
#
# Convention : Reuss Voigt Hill
#
# Bulk Modulus (GPa) = 39.05106 45.35355 42.20231
# Shear Modulus (GPa) = 23.99742 27.59140 25.79441
#
# Velocity S-wave (km/s) = 3.62176 3.88351 3.75492
# Velocity P-wave (km/s) = 6.23178 6.70071 6.47049
#
# Compressibility (1/GPa) = 0.02560750
#
# Stress axis : x y z
#
# Youngs Moduli (GPa) = 89.33410 79.72235 39.72666
#
# Poissons Ratio (x) = 0.06469 0.17674
# Poissons Ratio (y) = 0.07249 0.25388
# Poissons Ratio (z) = 0.39743 0.50948
#
# Static dielectric constant tensor:
#      x y z
#    x 1.598430 0.034380 0.025670 
#    y 0.034380 1.672810 -0.029780 
#    z 0.025670 -0.029780 1.630230 
# 
# From -- ./inp_files/453508.got.cif
#   From: 2010.05.17/outbox.cif.g08.bks.cpg/sg2_227_cif.got.tgz:453508.got - 2010.06.03 11:33:40.
