data_PCOD9086749
_publ_section_title
;
Structure prediction by ZEFSAII (Michael W. Deem and Ramdas Pophale) SiO2 
 PCOD9086749
Probable space group: P -1
;
_chemical_formula_sum "Si O2"
_cell_formula_units_Z 14
_cell_length_a 6.671547
_cell_length_b 17.880263
_cell_length_c 10.679477
_cell_angle_alpha 36.357644
_cell_angle_beta 132.116504
_cell_angle_gamma 135.039078
_cell_volume 517.980818
_symmetry_space_group_name_H-M "P -1"
_symmetry_group_IT_number 2
_symmetry_cell_setting 'triclinic'
loop_
_space_group_symop_operation_xyz
x,y,z
-x,-y,-z
loop_
_atom_site_type_symbol
_atom_site_label
_atom_site_fract_x
_atom_site_fract_y
_atom_site_fract_z
Si Si1 0.648308 0.343691 0.000309
Si Si2 0.158271 0.048687 0.693364
Si Si3 0.760330 0.451083 0.152329
Si Si4 0.779774 0.287722 0.619047
Si Si5 0.643851 0.068958 0.277863
Si Si6 0.988929 0.156586 0.693844
Si Si7 0.502301 0.574880 0.528846
O O1 0.485327 0.450329 0.779354
O O2 0.964140 0.430534 0.954353
O O3 0.662828 0.329078 0.174571
O O4 0.560145 0.198768 0.092792
O O5 0.885413 0.065257 0.485001
O O6 0.126119 0.055517 0.821307
O O7 0.452534 0.177279 0.614667
O O8 0.214991 0.928140 0.805567
O O9 0.830594 0.397552 0.383348
O O10 0.500000 0.500000 0.000000
O O11 0.989377 0.211983 0.761857
O O12 0.741956 0.363031 0.627726
O O13 0.351170 0.934183 0.349841
O O14 0.188533 0.295766 0.516731
O O15 0.500000 0.500000 0.500000
#
# Coordination Sequence:
#
# PCOD9086749 Si02
#       7
#     2   2   2   2   2   2   2
#     4  11  23  36  57  92 123 153 191 244 291 349
#     4   9  19  34  55  87 122 154 187 232 296 368
#     4  11  20  34  57  89 127 148 181 240 306 354
#     4  10  19  36  60  86 115 157 191 239 294 354
#     4  10  20  33  56  86 120 152 190 231 303 357
#     4  10  20  38  58  79 115 156 195 242 289 345
#     4  11  24  42  60  84 116 158 209 246 281 341
#
# _framework density 27.028027999999999
#
# number of rings (size 3 to 8) (size 9 to 14) (size 15 to 20)
#    0.000    1.714    2.857    2.143    4.000    4.000 
#    0.000    0.714    0.000    7.714    0.000    0.000 
#    0.000    0.000    0.000    0.000    0.000    0.000 
#
# Total GULP energy -78119.700639 kJ/mol
# GULP energy per Si atom -5579.978617 kJ/mol
# Density = 2.696651 g / cm^3
# Si number density = 27.028028 Si / 1000 Ang^3
#
#
#
# Elastic Constant Matrix: (Units=GPa)
#
#
# Indices 1 2 3 4 5 6 
#
# 1 227.5009 64.6432 37.4104 -11.8904 22.8629 -58.7007
# 2 64.6432 110.1798 39.2811 -37.0336 21.2437 -20.7399
# 3 37.4104 39.2811 98.4845 -30.1910 21.7822 -8.9242
# 4 -11.8904 -37.0336 -30.1910 34.9176 -2.3319 3.9291
# 5 22.8629 21.2437 21.7822 -2.3319 27.3462 -7.6062
# 6 -58.7007 -20.7399 -8.9242 3.9291 -7.6062 69.6823
#
#
#
# Elastic Compliance Matrix: (Units=1/GPa)
#
#
# Indices 1 2 3 4 5 6 
#
# 1 0.006723 -0.003554 -0.001661 -0.003464 -0.000573 0.004526
# 2 -0.003554 0.019973 0.002880 0.021528 -0.012806 0.000708
# 3 -0.001661 0.002880 0.017870 0.017098 -0.013826 -0.000727
# 4 -0.003464 0.021528 0.017098 0.063635 -0.022110 -0.000322
# 5 -0.000573 -0.012806 -0.013826 -0.022110 0.056498 0.001349
# 6 0.004526 0.000708 -0.000727 -0.000322 0.001349 0.018446
#
#
# Mechanical properties :
#
#
# Convention : Reuss Voigt Hill
#
# Bulk Modulus (GPa) = 25.06621 79.87053 52.46837
# Shear Modulus (GPa) = 24.86149 46.04457 35.45303
#
# Velocity S-wave (km/s) = 3.03618 4.13193 3.62569
# Velocity P-wave (km/s) = 4.64602 7.23733 6.08130
#
# Compressibility (1/GPa) = 0.03989435
#
# Stress axis : x y z
#
# Youngs Moduli (GPa) = 148.74569 50.06811 55.95978
#
# Poissons Ratio (x) = 0.17794 0.09296
# Poissons Ratio (y) = 0.52864 -0.16114
# Poissons Ratio (z) = 0.24711 -0.14418
#
# Static dielectric constant tensor:
#      x y z
#    x 2.120620 -0.059330 0.019430 
#    y -0.059330 2.180760 0.112070 
#    z 0.019430 0.112070 2.255050 
# 
# From -- ./inp_files/108618.got.cif
#   From: 2010.05.17/outbox.cif.g08.bks.cpg/sg2_55_cif.got.tgz:108618.got - 2010.06.03 11:33:40.
