data_PCOD9086013
_publ_section_title
;
Structure prediction by ZEFSAII (Michael W. Deem and Ramdas Pophale) SiO2 
 PCOD9086013
Probable space group: P -1
;
_chemical_formula_sum "Si O2"
_cell_formula_units_Z 14
_cell_length_a 20.172847
_cell_length_b 14.447428
_cell_length_c 9.218793
_cell_angle_alpha 38.781121
_cell_angle_beta 150.025682
_cell_angle_gamma 154.204463
_cell_volume 584.135642
_symmetry_space_group_name_H-M "P -1"
_symmetry_group_IT_number 2
_symmetry_cell_setting 'triclinic'
loop_
_space_group_symop_operation_xyz
x,y,z
-x,-y,-z
loop_
_atom_site_type_symbol
_atom_site_label
_atom_site_fract_x
_atom_site_fract_y
_atom_site_fract_z
Si Si1 0.265749 0.651710 0.663732
Si Si2 0.005756 0.987873 0.196943
Si Si3 0.309805 0.632292 0.210924
Si Si4 0.984924 0.307451 0.763861
Si Si5 0.944445 0.795764 0.581591
Si Si6 0.205454 0.734885 0.138150
Si Si7 0.441750 0.281424 0.670498
O O1 0.086283 0.405939 0.678884
O O2 0.281984 0.714138 0.451874
O O3 0.209678 0.759992 0.505935
O O4 0.445109 0.710529 0.997412
O O5 0.219472 0.106473 0.488531
O O6 0.886220 0.780788 0.321735
O O7 0.969233 0.127428 0.002941
O O8 0.000000 0.000000 0.000000
O O9 0.324209 0.782997 0.162162
O O10 0.493787 0.743671 0.327295
O O11 0.233330 0.430196 0.404869
O O12 0.136364 0.504652 0.921437
O O13 0.133468 0.843248 0.896178
O O14 0.000000 0.000000 0.500000
O O15 0.000000 0.500000 0.000000
O O16 0.500000 0.500000 0.500000
#
# Coordination Sequence:
#
# PCOD9086013 Si02
#       7
#     2   2   2   2   2   2   2
#     4  10  19  35  67  90 123 162 222 262 308 379
#     4  12  26  41  63  94 132 171 213 266 335 386
#     4  10  20  38  67  92 127 164 227 257 315 378
#     4  10  19  37  63  93 120 175 213 256 322 390
#     4  11  20  39  63  94 131 170 205 266 330 388
#     4  10  20  34  61 100 127 164 219 264 313 385
#     4  11  22  43  64  93 129 172 220 269 317 383
#
# _framework density 23.967037000000001
#
# number of rings (size 3 to 8) (size 9 to 14) (size 15 to 20)
#    0.000    1.429    7.143    0.000    4.000    0.000 
#    0.000    7.857    0.000    0.000    0.000    0.000 
#    0.000    0.000    0.000    0.000    0.000    0.000 
#
# Total GULP energy -78180.478494 kJ/mol
# GULP energy per Si atom -5584.319892 kJ/mol
# Density = 2.391249 g / cm^3
# Si number density = 23.967037 Si / 1000 Ang^3
#
#
#
# Elastic Constant Matrix: (Units=GPa)
#
#
# Indices 1 2 3 4 5 6 
#
# 1 108.5382 9.4517 47.0066 -25.3050 -5.6529 -27.4497
# 2 9.4517 35.1082 25.9439 -17.0886 5.4386 0.6959
# 3 47.0066 25.9439 189.4190 -28.8620 -3.4904 -8.6695
# 4 -25.3050 -17.0886 -28.8620 26.7775 4.8669 -0.0592
# 5 -5.6529 5.4386 -3.4904 4.8669 54.3808 -8.3628
# 6 -27.4497 0.6959 -8.6695 -0.0592 -8.3628 27.9457
#
#
#
# Elastic Compliance Matrix: (Units=1/GPa)
#
#
# Indices 1 2 3 4 5 6 
#
# 1 0.018532 0.004170 -0.001519 0.018099 0.002630 0.018453
# 2 0.004170 0.045801 -0.002614 0.031650 -0.007136 0.000076
# 3 -0.001519 -0.002614 0.006668 0.004033 0.000283 0.000735
# 4 0.018099 0.031650 0.004033 0.080052 -0.005617 0.016729
# 5 0.002630 -0.007136 0.000283 -0.005617 0.021314 0.009215
# 6 0.018453 0.000076 0.000735 0.016729 0.009215 0.056928
#
#
# Mechanical properties :
#
#
# Convention : Reuss Voigt Hill
#
# Bulk Modulus (GPa) = 14.06959 55.31887 34.69423
# Shear Modulus (GPa) = 19.76978 38.53168 29.15073
#
# Velocity S-wave (km/s) = 2.87518 4.01396 3.49131
# Velocity P-wave (km/s) = 4.11161 6.67936 5.54613
#
# Compressibility (1/GPa) = 0.07107530
#
# Stress axis : x y z
#
# Youngs Moduli (GPa) = 53.96205 21.83340 149.97731
#
# Poissons Ratio (x) = -0.09105 0.22784
# Poissons Ratio (y) = -0.22503 0.39197
# Poissons Ratio (z) = 0.08198 0.05706
#
# Static dielectric constant tensor:
#      x y z
#    x 2.189040 0.018320 -0.050720 
#    y 0.018320 1.974690 -0.021190 
#    z -0.050720 -0.021190 1.918390 
# 
# From -- ./inp_files/285482.got.cif
#   From: 2010.05.17/outbox.cif.g08.bks.cpg/sg2_143_cif.got.tgz:285482.got - 2010.06.03 11:33:40.
