data_PCOD9086513
_publ_section_title
;
Structure prediction by ZEFSAII (Michael W. Deem and Ramdas Pophale) SiO2 
 PCOD9086513
Probable space group: P -1
;
_chemical_formula_sum "Si O2"
_cell_formula_units_Z 14
_cell_length_a 20.830058
_cell_length_b 11.143755
_cell_length_c 9.139038
_cell_angle_alpha 115.245740
_cell_angle_beta 38.169640
_cell_angle_gamma 143.381439
_cell_volume 650.612134
_symmetry_space_group_name_H-M "P -1"
_symmetry_group_IT_number 2
_symmetry_cell_setting 'triclinic'
loop_
_space_group_symop_operation_xyz
x,y,z
-x,-y,-z
loop_
_atom_site_type_symbol
_atom_site_label
_atom_site_fract_x
_atom_site_fract_y
_atom_site_fract_z
Si Si1 0.675911 0.817688 0.701923
Si Si2 0.131774 0.782936 0.250525
Si Si3 0.664239 0.029263 0.600146
Si Si4 0.757233 0.348395 0.840803
Si Si5 0.476024 0.417089 0.662990
Si Si6 0.874417 0.150073 0.027237
Si Si7 0.127230 0.210941 0.760482
O O1 0.721983 0.960828 0.554161
O O2 0.489111 0.542618 0.833762
O O3 0.822228 0.853274 0.476940
O O4 0.694458 0.935728 0.865999
O O5 0.189307 0.695585 0.147753
O O6 0.949113 0.627428 0.596007
O O7 0.078354 0.739546 0.156144
O O8 0.712237 0.204795 0.707793
O O9 0.781075 0.154564 0.307654
O O10 0.438074 0.784079 0.851048
O O11 0.500000 0.500000 0.500000
O O12 0.667668 0.538300 0.409180
O O13 0.288870 0.133118 0.855589
O O14 0.036784 0.241619 0.865477
O O15 0.000000 0.000000 0.000000
#
# Coordination Sequence:
#
# PCOD9086513 Si02
#       7
#     2   2   2   2   2   2   2
#     4   9  20  37  58  87 129 163 195 233 311 372
#     4  10  23  42  60  90 121 165 199 265 301 361
#     4  10  19  39  66  87 112 169 205 257 294 373
#     4   9  22  44  61  81 123 161 213 246 323 353
#     4  10  19  36  58  92 124 163 193 243 292 380
#     4  12  22  38  66  96 125 153 213 248 306 348
#     4  10  19  36  59  93 126 158 202 239 290 394
#
# _framework density 21.518196
#
# number of rings (size 3 to 8) (size 9 to 14) (size 15 to 20)
#    0.857    1.143    4.286    0.000    0.000    4.571 
#   10.286    0.000    0.000    0.000    0.000    0.000 
#    0.000    0.000    0.000    0.000    0.000    0.000 
#
# Total GULP energy -78053.017995 kJ/mol
# GULP energy per Si atom -5575.215571 kJ/mol
# Density = 2.146922 g / cm^3
# Si number density = 21.518196 Si / 1000 Ang^3
#
#
#
# Elastic Constant Matrix: (Units=GPa)
#
#
# Indices 1 2 3 4 5 6 
#
# 1 150.3644 6.1792 67.6690 3.3472 -3.9321 16.2162
# 2 6.1792 61.0648 0.7086 -3.7109 -4.5329 10.1673
# 3 67.6690 0.7086 64.2582 2.6387 -14.8430 -0.7711
# 4 3.3472 -3.7109 2.6387 26.8717 7.7723 -6.2402
# 5 -3.9321 -4.5329 -14.8430 7.7723 29.5535 -7.6659
# 6 16.2162 10.1673 -0.7711 -6.2402 -7.6659 19.3443
#
#
#
# Elastic Compliance Matrix: (Units=1/GPa)
#
#
# Indices 1 2 3 4 5 6 
#
# 1 0.020513 0.001219 -0.025653 -0.001108 -0.016341 -0.025693
# 2 0.001219 0.018028 -0.001823 0.000251 -0.000864 -0.010832
# 3 -0.025653 -0.001823 0.050488 -0.002809 0.031784 0.036165
# 4 -0.001108 0.000251 -0.002809 0.043036 -0.010097 0.010566
# 5 -0.016341 -0.000864 0.031784 -0.010097 0.059411 0.035706
# 6 -0.025693 -0.010832 0.036165 0.010566 0.035706 0.097926
#
#
# Mechanical properties :
#
#
# Convention : Reuss Voigt Hill
#
# Bulk Modulus (GPa) = 27.38432 47.20010 37.29221
# Shear Modulus (GPa) = 14.12072 28.56260 21.34166
#
# Velocity S-wave (km/s) = 2.56446 3.64726 3.15270
# Velocity P-wave (km/s) = 4.63922 6.30232 5.53361
#
# Compressibility (1/GPa) = 0.03651725
#
# Stress axis : x y z
#
# Youngs Moduli (GPa) = 48.74861 55.46786 19.80654
#
# Poissons Ratio (x) = -0.06764 0.50810
# Poissons Ratio (y) = -0.05945 0.03610
# Poissons Ratio (z) = 1.25056 0.10111
#
# Static dielectric constant tensor:
#      x y z
#    x 1.743530 0.021110 0.003950 
#    y 0.021110 1.832280 0.004480 
#    z 0.003950 0.004480 1.803780 
# 
# From -- ./inp_files/346214.got.cif
#   From: 2010.05.17/outbox.cif.g08.bks.cpg/sg2_174_cif.got.tgz:346214.got - 2010.06.03 11:33:40.
