data_PCOD9086322
_publ_section_title
;
Structure prediction by ZEFSAII (Michael W. Deem and Ramdas Pophale) SiO2 
 PCOD9086322
Probable space group: P -1
;
_chemical_formula_sum "Si O2"
_cell_formula_units_Z 14
_cell_length_a 10.903066
_cell_length_b 11.529503
_cell_length_c 5.715242
_cell_angle_alpha 113.481546
_cell_angle_beta 67.284666
_cell_angle_gamma 112.973714
_cell_volume 583.618664
_symmetry_space_group_name_H-M "P -1"
_symmetry_group_IT_number 2
_symmetry_cell_setting 'triclinic'
loop_
_space_group_symop_operation_xyz
x,y,z
-x,-y,-z
loop_
_atom_site_type_symbol
_atom_site_label
_atom_site_fract_x
_atom_site_fract_y
_atom_site_fract_z
Si Si1 0.966666 0.365278 0.275434
Si Si2 0.155769 0.773874 0.335121
Si Si3 0.162266 0.044409 0.358544
Si Si4 0.631341 0.926823 0.107278
Si Si5 0.504476 0.169316 0.382299
Si Si6 0.153612 0.312710 0.743092
Si Si7 0.279183 0.604653 0.815412
O O1 0.872390 0.243035 0.385420
O O2 0.870418 0.394964 0.170838
O O3 0.000000 0.500000 0.500000
O O4 0.101420 0.331330 0.056211
O O5 0.994242 0.718237 0.315782
O O6 0.212811 0.923622 0.330068
O O7 0.265808 0.692057 0.124120
O O8 0.208214 0.188482 0.554993
O O9 0.207420 0.054077 0.061429
O O10 0.000000 0.000000 0.500000
O O11 0.577619 0.848267 0.322616
O O12 0.593528 0.064263 0.262224
O O13 0.566391 0.866097 0.853550
O O14 0.603294 0.315165 0.379195
O O15 0.265542 0.451034 0.720771
#
# Coordination Sequence:
#
# PCOD9086322 Si02
#       7
#     2   2   2   2   2   2   2
#     4  11  19  32  59  88 126 164 207 270 310 371
#     4  10  19  36  57  86 122 161 210 256 315 376
#     4  10  22  42  62  90 130 165 201 259 336 387
#     4  10  22  45  61  96 127 164 222 270 313 376
#     4  10  23  39  70  90 124 171 222 271 306 372
#     4  10  21  36  53  90 128 158 204 259 321 384
#     4  11  20  35  61  91 117 165 217 259 316 373
#
# _framework density 23.988265999999999
#
# number of rings (size 3 to 8) (size 9 to 14) (size 15 to 20)
#    0.000    1.714    4.286    0.857    2.000    1.714 
#    5.143    1.429    0.000    0.000    0.000    0.000 
#    0.000    0.000    0.000    0.000    0.000    0.000 
#
# Total GULP energy -78034.373090 kJ/mol
# GULP energy per Si atom -5573.883792 kJ/mol
# Density = 2.393367 g / cm^3
# Si number density = 23.988266 Si / 1000 Ang^3
#
#
#
# Elastic Constant Matrix: (Units=GPa)
#
#
# Indices 1 2 3 4 5 6 
#
# 1 43.7957 10.3732 22.6161 -4.3195 1.1241 7.3527
# 2 10.3732 223.0690 98.2229 -11.0121 -10.8020 9.3940
# 3 22.6161 98.2229 175.5392 -22.4105 -26.9516 9.1875
# 4 -4.3195 -11.0121 -22.4105 42.5669 4.5130 -6.6757
# 5 1.1241 -10.8020 -26.9516 4.5130 23.8955 -3.5864
# 6 7.3527 9.3940 9.1875 -6.6757 -3.5864 17.0892
#
#
#
# Elastic Compliance Matrix: (Units=1/GPa)
#
#
# Indices 1 2 3 4 5 6 
#
# 1 0.027087 0.000857 -0.004612 -0.000432 -0.007723 -0.011436
# 2 0.000857 0.006066 -0.003713 -0.000468 -0.001736 -0.002254
# 3 -0.004612 -0.003713 0.010165 0.003185 0.009677 0.001836
# 4 -0.000432 -0.000468 0.003185 0.026443 -0.000241 0.009010
# 5 -0.007723 -0.001736 0.009677 -0.000241 0.053934 0.010299
# 6 -0.011436 -0.002254 0.001836 0.009010 0.010299 0.069370
#
#
# Mechanical properties :
#
#
# Convention : Reuss Voigt Hill
#
# Bulk Modulus (GPa) = 35.23247 78.31428 56.77337
# Shear Modulus (GPa) = 22.99268 37.45644 30.22456
#
# Velocity S-wave (km/s) = 3.09932 3.95580 3.55346
# Velocity P-wave (km/s) = 5.24661 7.31999 6.36825
#
# Compressibility (1/GPa) = 0.02838291
#
# Stress axis : x y z
#
# Youngs Moduli (GPa) = 36.91753 164.86281 98.37862
#
# Poissons Ratio (x) = -0.14137 0.45374
# Poissons Ratio (y) = -0.03166 0.36526
# Poissons Ratio (z) = 0.17027 0.61210
#
# Static dielectric constant tensor:
#      x y z
#    x 2.074890 0.038730 -0.009710 
#    y 0.038730 2.321840 0.434760 
#    z -0.009710 0.434760 2.586740 
# 
# From -- ./inp_files/65592.got.cif
#   From: 2010.05.17/outbox.cif.g08.bks.cpg/sg2_33_cif.got.tgz:65592.got - 2010.06.03 11:33:40.
