data_PCOD9086764
_publ_section_title
;
Structure prediction by ZEFSAII (Michael W. Deem and Ramdas Pophale) SiO2 
 PCOD9086764
Probable space group: P -1
;
_chemical_formula_sum "Si O2"
_cell_formula_units_Z 16
_cell_length_a 7.503381
_cell_length_b 5.195642
_cell_length_c 27.365062
_cell_angle_alpha 114.199916
_cell_angle_beta 140.683887
_cell_angle_gamma 73.325479
_cell_volume 615.694199
_symmetry_space_group_name_H-M "P -1"
_symmetry_group_IT_number 2
_symmetry_cell_setting 'triclinic'
loop_
_space_group_symop_operation_xyz
x,y,z
-x,-y,-z
loop_
_atom_site_type_symbol
_atom_site_label
_atom_site_fract_x
_atom_site_fract_y
_atom_site_fract_z
Si Si1 0.131265 0.079567 0.826308
Si Si2 0.485237 0.260307 0.554320
Si Si3 0.830767 0.775175 0.866089
Si Si4 0.617584 0.342957 0.088766
Si Si5 0.013422 0.677496 0.082665
Si Si6 0.306331 0.607718 0.673760
Si Si7 0.184206 0.155197 0.348324
Si Si8 0.881785 0.059670 0.424986
O O1 0.257922 0.350440 0.845663
O O2 0.967399 0.193614 0.847825
O O3 0.364486 0.891361 0.884559
O O4 0.942351 0.892873 0.735505
O O5 0.622977 0.555170 0.588166
O O6 0.500000 0.000000 0.500000
O O7 0.642775 0.120745 0.622784
O O8 0.152964 0.269329 0.485535
O O9 0.595324 0.662113 0.769319
O O10 0.147658 0.746120 0.908646
O O11 0.829140 0.605770 0.902245
O O12 0.816655 0.103372 0.897693
O O13 0.312236 0.360681 0.002504
O O14 0.204834 0.273017 0.632170
O O15 0.072349 0.793524 0.665283
O O16 0.338190 0.748830 0.636846
O O17 0.000000 0.000000 0.500000
#
# Coordination Sequence:
#
# PCOD9086764 Si02
#       8
#     2   2   2   2   2   2   2   2
#     4  10  20  33  56  92 116 146 203 253 298 352
#     4  12  23  45  69  86 121 169 215 245 316 376
#     4  10  20  33  59  84 117 155 196 239 315 359
#     4  10  19  36  60  86 122 158 199 253 305 362
#     4  10  19  36  60  87 120 160 200 249 307 365
#     4  12  24  43  60  87 129 160 199 258 320 367
#     4  12  24  40  67  90 120 167 213 256 297 379
#     4  12  27  43  65  93 121 158 209 263 312 372
#
# _framework density 25.986926
#
# number of rings (size 3 to 8) (size 9 to 14) (size 15 to 20)
#    0.000    1.000    2.500    6.750    0.000    6.000 
#    0.000    0.000    0.000    8.250    0.000    0.000 
#    0.000    0.000    0.000    0.000    0.000    0.000 
#
# Total GULP energy -89361.247127 kJ/mol
# GULP energy per Si atom -5585.077945 kJ/mol
# Density = 2.592778 g / cm^3
# Si number density = 25.986926 Si / 1000 Ang^3
#
#
#
# Elastic Constant Matrix: (Units=GPa)
#
#
# Indices 1 2 3 4 5 6 
#
# 1 55.7199 0.9947 18.0503 0.4997 4.0264 -17.1408
# 2 0.9947 180.4615 35.4918 -12.5663 16.4831 30.8128
# 3 18.0503 35.4918 145.6919 -8.3129 7.5295 6.3811
# 4 0.4997 -12.5663 -8.3129 57.7892 4.9724 3.3066
# 5 4.0264 16.4831 7.5295 4.9724 23.9546 -2.5195
# 6 -17.1408 30.8128 6.3811 3.3066 -2.5195 24.6664
#
#
#
# Elastic Compliance Matrix: (Units=1/GPa)
#
#
# Indices 1 2 3 4 5 6 
#
# 1 0.027072 -0.004380 -0.003788 -0.003490 0.003119 0.026050
# 2 -0.004380 0.009344 -0.000419 0.003607 -0.007984 -0.015907
# 3 -0.003788 -0.000419 0.007844 0.001534 -0.002341 -0.004584
# 4 -0.003490 0.003607 0.001534 0.019605 -0.007575 -0.010730
# 5 0.003119 -0.007984 -0.002341 -0.007575 0.051019 0.018973
# 6 0.026050 -0.015907 -0.004584 -0.010730 0.018973 0.083076
#
#
# Mechanical properties :
#
#
# Convention : Reuss Voigt Hill
#
# Bulk Modulus (GPa) = 36.91846 54.54967 45.73406
# Shear Modulus (GPa) = 22.30515 43.10448 32.70481
#
# Velocity S-wave (km/s) = 2.93289 4.07713 3.55140
# Velocity P-wave (km/s) = 5.07016 6.57273 5.86972
#
# Compressibility (1/GPa) = 0.02708672
#
# Stress axis : x y z
#
# Youngs Moduli (GPa) = 36.93859 107.01817 127.47927
#
# Poissons Ratio (x) = 0.46874 0.48294
# Poissons Ratio (y) = 0.16179 0.05336
# Poissons Ratio (z) = 0.13994 0.04479
#
# Static dielectric constant tensor:
#      x y z
#    x 2.095680 -0.012330 0.109640 
#    y -0.012330 2.170290 0.128230 
#    z 0.109640 0.128230 1.268680 
# 
# From -- ./inp_files/122591.got.cif
#   From: 2010.05.17/outbox.cif.g08.bks.cpg/sg2_62_cif.got.tgz:122591.got - 2010.06.03 11:33:40.
