data_PCOD9086408
_publ_section_title
;
Structure prediction by ZEFSAII (Michael W. Deem and Ramdas Pophale) SiO2 
 PCOD9086408
Probable space group: P -1
;
_chemical_formula_sum "Si O2"
_cell_formula_units_Z 14
_cell_length_a 11.974296
_cell_length_b 16.905443
_cell_length_c 10.593156
_cell_angle_alpha 62.659504
_cell_angle_beta 63.830714
_cell_angle_gamma 21.787769
_cell_volume 706.328723
_symmetry_space_group_name_H-M "P -1"
_symmetry_group_IT_number 2
_symmetry_cell_setting 'triclinic'
loop_
_space_group_symop_operation_xyz
x,y,z
-x,-y,-z
loop_
_atom_site_type_symbol
_atom_site_label
_atom_site_fract_x
_atom_site_fract_y
_atom_site_fract_z
Si Si1 0.210949 0.731317 0.653070
Si Si2 0.141453 0.872586 0.329190
Si Si3 0.581330 0.710517 0.079720
Si Si4 0.890290 0.752337 0.844034
Si Si5 0.735053 0.128181 0.128538
Si Si6 0.272734 0.087739 0.923679
Si Si7 0.644237 0.471645 0.846620
O O1 0.247876 0.740756 0.485438
O O2 0.514723 0.529927 0.732290
O O3 0.043310 0.745321 0.731743
O O4 0.022144 0.933720 0.668663
O O5 0.402740 0.746978 0.209513
O O6 0.924852 0.964105 0.270060
O O7 0.919509 0.460664 0.124263
O O8 0.482904 0.775814 0.933797
O O9 0.438653 0.897281 0.052292
O O10 0.545762 0.964707 0.817289
O O11 0.883615 0.759889 0.994410
O O12 0.507714 0.339073 0.166419
O O13 0.000000 0.000000 0.000000
O O14 0.003124 0.235862 0.857149
O O15 0.500000 0.500000 0.000000
#
# Coordination Sequence:
#
# PCOD9086408 Si02
#       7
#     2   2   2   2   2   2   2
#     4  10  19  36  58  83 115 145 186 227 277 328
#     4   9  19  33  57  86 113 146 181 232 277 326
#     4  11  19  36  57  84 111 145 185 233 271 328
#     4  11  22  36  56  83 114 149 181 230 276 332
#     4   9  17  29  52  84 112 135 180 229 278 317
#     4  11  22  36  56  83 115 145 186 228 278 325
#     4  11  17  33  55  82 109 145 184 233 270 322
#
# _framework density 19.820799000000001
#
# number of rings (size 3 to 8) (size 9 to 14) (size 15 to 20)
#    0.000    1.714    4.286    2.143    0.000    1.714 
#    0.000    0.000    0.000   12.857    0.000    0.000 
#    0.000    0.000    0.000    0.000    0.000    0.000 
#
# Total GULP energy -77959.984777 kJ/mol
# GULP energy per Si atom -5568.570341 kJ/mol
# Density = 1.977569 g / cm^3
# Si number density = 19.820799 Si / 1000 Ang^3
#
#
#
# Elastic Constant Matrix: (Units=GPa)
#
#
# Indices 1 2 3 4 5 6 
#
# 1 57.1958 27.2013 38.7176 -9.3330 -6.5107 -21.7000
# 2 27.2013 103.6491 35.4945 -17.6641 -8.9873 -12.5687
# 3 38.7176 35.4945 103.4194 -20.1400 13.1956 -21.2099
# 4 -9.3330 -17.6641 -20.1400 17.0306 -4.2771 4.5783
# 5 -6.5107 -8.9873 13.1956 -4.2771 26.6335 -3.2667
# 6 -21.7000 -12.5687 -21.2099 4.5783 -3.2667 38.4790
#
#
#
# Elastic Compliance Matrix: (Units=1/GPa)
#
#
# Indices 1 2 3 4 5 6 
#
# 1 0.032160 -0.001439 -0.009847 0.004678 0.014591 0.012921
# 2 -0.001439 0.013791 -0.002512 0.012062 0.007671 0.001525
# 3 -0.009847 -0.002512 0.017766 0.010065 -0.010275 0.001349
# 4 0.004678 0.012062 0.010065 0.088652 0.014812 0.002835
# 5 0.014591 0.007671 -0.010275 0.014812 0.052120 0.007733
# 6 0.012921 0.001525 0.001349 0.002835 0.007733 0.034836
#
#
# Mechanical properties :
#
#
# Convention : Reuss Voigt Hill
#
# Bulk Modulus (GPa) = 27.68354 51.89901 39.79128
# Shear Modulus (GPa) = 17.92365 27.28534 22.60450
#
# Velocity S-wave (km/s) = 3.01040 3.71428 3.38071
# Velocity P-wave (km/s) = 5.10691 6.68098 5.94626
#
# Compressibility (1/GPa) = 0.03612255
#
# Stress axis : x y z
#
# Youngs Moduli (GPa) = 31.09416 72.50939 56.28872
#
# Poissons Ratio (x) = 0.10432 0.55428
# Poissons Ratio (y) = 0.04473 0.14138
# Poissons Ratio (z) = 0.30618 0.18212
#
# Static dielectric constant tensor:
#      x y z
#    x 1.761500 0.014440 -0.019540 
#    y 0.014440 1.769180 0.001400 
#    z -0.019540 0.001400 1.660470 
# 
# From -- ./inp_files/285484.got.cif
#   From: 2010.05.17/outbox.cif.g08.bks.cpg/sg2_143_cif.got.tgz:285484.got - 2010.06.03 11:33:40.
