data_PCOD9086021
_publ_section_title
;
Structure prediction by ZEFSAII (Michael W. Deem and Ramdas Pophale) SiO2 
 PCOD9086021
Probable space group: P -1
;
_chemical_formula_sum "Si O2"
_cell_formula_units_Z 12
_cell_length_a 9.185427
_cell_length_b 8.980958
_cell_length_c 12.387333
_cell_angle_alpha 54.710216
_cell_angle_beta 139.107529
_cell_angle_gamma 101.804568
_cell_volume 491.815125
_symmetry_space_group_name_H-M "P -1"
_symmetry_group_IT_number 2
_symmetry_cell_setting 'triclinic'
loop_
_space_group_symop_operation_xyz
x,y,z
-x,-y,-z
loop_
_atom_site_type_symbol
_atom_site_label
_atom_site_fract_x
_atom_site_fract_y
_atom_site_fract_z
Si Si1 0.258347 0.057968 0.190300
Si Si2 0.763114 0.331891 0.678535
Si Si3 0.747296 0.570363 0.893219
Si Si4 0.929750 0.433424 0.293548
Si Si5 0.643812 0.951464 0.256341
Si Si6 0.531312 0.673439 0.139647
O O1 0.357251 0.187694 0.264039
O O2 0.273815 0.846016 0.328738
O O3 0.418931 0.009856 0.190080
O O4 0.970483 0.203330 0.939174
O O5 0.500000 0.500000 0.500000
O O6 0.898273 0.448509 0.645541
O O7 0.600443 0.446152 0.823964
O O8 0.795771 0.508723 0.072714
O O9 0.000000 0.500000 0.000000
O O10 0.744720 0.504215 0.259516
O O11 0.101428 0.195490 0.483922
O O12 0.614876 0.804994 0.210499
O O13 0.632849 0.152793 0.111046
#
# Coordination Sequence:
#
# PCOD9086021 Si02
#       6
#     2   2   2   2   2   2
#     4  10  22  39  65  96 133 176 216 270 335 389
#     4  10  19  35  67  96 125 169 221 267 325 386
#     4  11  26  45  68  96 141 177 219 278 343 391
#     4  11  23  43  70  99 132 177 220 276 334 396
#     4  11  23  42  74  98 127 178 232 268 334 397
#     4  11  25  45  67  98 138 172 222 283 330 397
#
# _framework density 24.399412000000002
#
# number of rings (size 3 to 8) (size 9 to 14) (size 15 to 20)
#    0.000    1.333    5.000    1.000    7.000    0.667 
#    0.000    0.833    0.000    0.000    0.000    0.000 
#    0.000    0.000    0.000    0.000    0.000    0.000 
#
# Total GULP energy -67128.130401 kJ/mol
# GULP energy per Si atom -5594.010867 kJ/mol
# Density = 2.434388 g / cm^3
# Si number density = 24.399412 Si / 1000 Ang^3
#
#
#
# Elastic Constant Matrix: (Units=GPa)
#
#
# Indices 1 2 3 4 5 6 
#
# 1 112.8470 25.8059 15.7757 -6.3377 25.4958 -3.5991
# 2 25.8059 103.8783 41.9578 -16.8458 6.4767 23.8017
# 3 15.7757 41.9578 98.0193 -26.6071 12.9570 2.0811
# 4 -6.3377 -16.8458 -26.6071 48.5892 -3.6963 -5.5330
# 5 25.4958 6.4767 12.9570 -3.6963 30.8313 -8.4944
# 6 -3.5991 23.8017 2.0811 -5.5330 -8.4944 56.0658
#
#
#
# Elastic Compliance Matrix: (Units=1/GPa)
#
#
# Indices 1 2 3 4 5 6 
#
# 1 0.011429 -0.002545 0.000493 0.000249 -0.008967 0.000462
# 2 -0.002545 0.013803 -0.005088 0.001003 -0.000122 -0.005754
# 3 0.000493 -0.005088 0.014482 0.006090 -0.004251 0.001611
# 4 0.000249 0.001003 0.006090 0.024544 0.000479 0.001859
# 5 -0.008967 -0.000122 -0.004251 0.000479 0.043445 0.006263
# 6 0.000462 -0.005754 0.001611 0.001859 0.006263 0.021381
#
#
# Mechanical properties :
#
#
# Convention : Reuss Voigt Hill
#
# Bulk Modulus (GPa) = 39.31876 53.53595 46.42735
# Shear Modulus (GPa) = 32.92918 42.51094 37.72006
#
# Velocity S-wave (km/s) = 3.67766 4.17861 3.93611
# Velocity P-wave (km/s) = 5.84664 6.72831 6.30291
#
# Compressibility (1/GPa) = 0.02543315
#
# Stress axis : x y z
#
# Youngs Moduli (GPa) = 87.49532 72.45027 69.05265
#
# Poissons Ratio (x) = 0.18437 -0.03403
# Poissons Ratio (y) = 0.22265 0.35136
# Poissons Ratio (z) = -0.04312 0.36865
#
# Static dielectric constant tensor:
#      x y z
#    x 1.858500 0.027520 -0.017830 
#    y 0.027520 1.978860 0.061750 
#    z -0.017830 0.061750 2.037410 
# 
# From -- ./inp_files/165858.got.cif
#   From: 2010.05.17/outbox.cif.g08.bks.cpg/sg2_83_cif.got.tgz:165858.got - 2010.06.03 11:33:40.
