data_PCOD9086888
_publ_section_title
;
Structure prediction by ZEFSAII (Michael W. Deem and Ramdas Pophale) SiO2 
 PCOD9086888
Probable space group: P -1
;
_chemical_formula_sum "Si O2"
_cell_formula_units_Z 16
_cell_length_a 22.118118
_cell_length_b 17.173636
_cell_length_c 8.069479
_cell_angle_alpha 141.851256
_cell_angle_beta 130.420818
_cell_angle_gamma 22.136363
_cell_volume 669.930734
_symmetry_space_group_name_H-M "P -1"
_symmetry_group_IT_number 2
_symmetry_cell_setting 'triclinic'
loop_
_space_group_symop_operation_xyz
x,y,z
-x,-y,-z
loop_
_atom_site_type_symbol
_atom_site_label
_atom_site_fract_x
_atom_site_fract_y
_atom_site_fract_z
Si Si1 0.104395 0.350061 0.110826
Si Si2 0.076108 0.158812 0.286750
Si Si3 0.723538 0.313162 0.636165
Si Si4 0.669665 0.839411 0.039315
Si Si5 0.987718 0.781939 0.342190
Si Si6 0.609720 0.000634 0.549262
Si Si7 0.609792 0.272667 0.094398
Si Si8 0.743487 0.552301 0.174888
O O1 0.998870 0.591894 0.443968
O O2 0.280592 0.163969 0.050863
O O3 0.104570 0.202387 0.897350
O O4 0.000000 0.500000 0.000000
O O5 0.931891 0.284540 0.140172
O O6 0.064972 0.143626 0.434957
O O7 0.268292 0.870622 0.084459
O O8 0.659850 0.314878 0.377550
O O9 0.596063 0.449582 0.789561
O O10 0.917120 0.005539 0.508859
O O11 0.713636 0.476640 0.872865
O O12 0.652825 0.959716 0.364001
O O13 0.816934 0.532291 0.832573
O O14 0.500000 0.000000 0.000000
O O15 0.707763 0.738141 0.342767
O O16 0.407920 0.254661 0.636332
O O17 0.654143 0.060027 0.838644
#
# Coordination Sequence:
#
# PCOD9086888 Si02
#       8
#     2   2   2   2   2   2   2   2
#     4   8  17  34  57  86 118 143 192 248 287 338
#     4  10  20  37  61  90 113 154 199 254 286 351
#     4  10  24  43  56  86 124 164 191 247 299 360
#     4  10  19  36  60  95 121 149 195 251 296 349
#     4  10  21  38  61  86 123 157 194 242 307 345
#     4  10  20  39  63  88 113 163 201 245 293 347
#     4  10  22  41  64  83 119 156 209 242 289 357
#     4  10  23  38  59  86 127 150 201 248 298 349
#
# _framework density 23.883067
#
# number of rings (size 3 to 8) (size 9 to 14) (size 15 to 20)
#    0.000    2.500    0.000    3.750    3.500    2.000 
#    4.500    0.000    0.000    0.000    0.000    0.000 
#    0.000    0.000    0.000    0.000    0.000    0.000 
#
# Total GULP energy -89260.763653 kJ/mol
# GULP energy per Si atom -5578.797728 kJ/mol
# Density = 2.382871 g / cm^3
# Si number density = 23.883067 Si / 1000 Ang^3
#
#
#
# Elastic Constant Matrix: (Units=GPa)
#
#
# Indices 1 2 3 4 5 6 
#
# 1 26.9559 16.1001 24.5087 3.6098 -1.2783 -12.0775
# 2 16.1001 88.5472 30.5623 -6.9454 1.1077 -26.3650
# 3 24.5087 30.5623 132.7780 -11.7360 8.2268 -6.9049
# 4 3.6098 -6.9454 -11.7360 35.2449 -16.5982 1.0702
# 5 -1.2783 1.1077 8.2268 -16.5982 48.2813 12.2807
# 6 -12.0775 -26.3650 -6.9049 1.0702 12.2807 23.5932
#
#
#
# Elastic Compliance Matrix: (Units=1/GPa)
#
#
# Indices 1 2 3 4 5 6 
#
# 1 0.065836 0.003055 -0.011443 -0.017219 -0.012775 0.041197
# 2 0.003055 0.019734 -0.003447 -0.001706 -0.007078 0.026369
# 3 -0.011443 -0.003447 0.010367 0.004984 0.001704 -0.007789
# 4 -0.017219 -0.001706 0.004984 0.040477 0.017833 -0.020380
# 5 -0.012775 -0.007078 0.001704 0.017833 0.034728 -0.032836
# 6 0.041197 0.026369 -0.007789 -0.020380 -0.032836 0.108677
#
#
# Mechanical properties :
#
#
# Convention : Reuss Voigt Hill
#
# Bulk Modulus (GPa) = 13.83787 43.40257 28.62022
# Shear Modulus (GPa) = 15.26349 33.23123 24.24736
#
# Velocity S-wave (km/s) = 2.53077 3.73421 3.18976
# Velocity P-wave (km/s) = 3.78765 6.06670 5.05723
#
# Compressibility (1/GPa) = 0.07226545
#
# Stress axis : x y z
#
# Youngs Moduli (GPa) = 15.18928 50.67450 96.46058
#
# Poissons Ratio (x) = -0.15480 1.10384
# Poissons Ratio (y) = -0.04640 0.33251
# Poissons Ratio (z) = 0.17382 0.17468
#
# Static dielectric constant tensor:
#      x y z
#    x 1.974340 -0.016440 -0.016130 
#    y -0.016440 1.940170 -0.026920 
#    z -0.016130 -0.026920 1.954570 
# 
# From -- ./inp_files/355323.got.cif
#   From: 2010.05.17/outbox.cif.g08.bks.cpg/sg2_178_cif.got.tgz:355323.got - 2010.06.03 11:33:40.
