data_PCOD9086656
_publ_section_title
;
Structure prediction by ZEFSAII (Michael W. Deem and Ramdas Pophale) SiO2 
 PCOD9086656
Probable space group: P -1
;
_chemical_formula_sum "Si O2"
_cell_formula_units_Z 16
_cell_length_a 9.937612
_cell_length_b 10.813964
_cell_length_c 15.336398
_cell_angle_alpha 89.059393
_cell_angle_beta 34.302473
_cell_angle_gamma 68.150923
_cell_volume 716.357903
_symmetry_space_group_name_H-M "P -1"
_symmetry_group_IT_number 2
_symmetry_cell_setting 'triclinic'
loop_
_space_group_symop_operation_xyz
x,y,z
-x,-y,-z
loop_
_atom_site_type_symbol
_atom_site_label
_atom_site_fract_x
_atom_site_fract_y
_atom_site_fract_z
Si Si1 0.822633 0.729726 0.646825
Si Si2 0.510284 0.811901 0.253274
Si Si3 0.026162 0.833205 0.392777
Si Si4 0.150355 0.890871 0.006141
Si Si5 0.636938 0.633854 0.356290
Si Si6 0.834692 0.828550 0.310052
Si Si7 0.347684 0.067119 0.963995
Si Si8 0.955153 0.320444 0.295970
O O1 0.976494 0.723228 0.476002
O O2 0.020338 0.620071 0.624232
O O3 0.687047 0.904922 0.758111
O O4 0.516467 0.750106 0.794792
O O5 0.653863 0.669097 0.246132
O O6 0.738902 0.824498 0.076623
O O7 0.314512 0.806082 0.283451
O O8 0.270537 0.978778 0.433485
O O9 0.039592 0.797933 0.284329
O O10 0.982642 0.833363 0.142310
O O11 0.151794 0.005703 0.071894
O O12 0.000000 0.000000 0.000000
O O13 0.770591 0.704922 0.337386
O O14 0.817992 0.454474 0.294069
O O15 0.280239 0.715704 0.564803
O O16 0.500000 0.000000 0.500000
O O17 0.281112 0.168127 0.083302
#
# Coordination Sequence:
#
# PCOD9086656 Si02
#       8
#     2   2   2   2   2   2   2   2
#     4   9  20  37  61  87 117 151 196 253 293 344
#     4  10  19  36  59  91 116 155 193 251 292 350
#     4  10  20  34  61  90 120 146 199 250 298 344
#     4  10  21  36  58  91 122 146 194 249 304 346
#     4  11  24  39  62  84 124 160 204 238 302 355
#     4  12  22  36  62  90 119 155 196 246 299 361
#     4   9  21  33  64  86 114 148 203 244 296 344
#     4  11  22  41  59  87 118 164 201 245 291 360
#
# _framework density 22.335204999999998
#
# number of rings (size 3 to 8) (size 9 to 14) (size 15 to 20)
#    0.750    1.000    2.500    2.625    1.750    0.500 
#    0.000    1.250    2.750    0.000    0.000    0.000 
#    0.000    0.000    0.000    0.000    0.000    0.000 
#
# Total GULP energy -89229.589062 kJ/mol
# GULP energy per Si atom -5576.849316 kJ/mol
# Density = 2.228437 g / cm^3
# Si number density = 22.335205 Si / 1000 Ang^3
#
#
#
# Elastic Constant Matrix: (Units=GPa)
#
#
# Indices 1 2 3 4 5 6 
#
# 1 106.0239 14.1469 -2.3668 -5.6917 2.2932 -11.6337
# 2 14.1469 62.6797 20.5111 -32.6954 2.8659 -13.9001
# 3 -2.3668 20.5111 32.5656 -15.0205 -2.9294 7.0976
# 4 -5.6917 -32.6954 -15.0205 25.2988 -1.7716 -2.3599
# 5 2.2932 2.8659 -2.9294 -1.7716 27.6167 -11.4022
# 6 -11.6337 -13.9001 7.0976 -2.3599 -11.4022 36.5149
#
#
#
# Elastic Compliance Matrix: (Units=1/GPa)
#
#
# Indices 1 2 3 4 5 6 
#
# 1 0.010037 -0.001181 0.001961 0.002207 0.000775 0.002751
# 2 -0.001181 0.090699 -0.013561 0.114712 0.017053 0.049525
# 3 0.001961 -0.013561 0.046679 0.009582 0.001661 -0.012473
# 4 0.002207 0.114712 0.009582 0.201972 0.028499 0.064460
# 5 0.000775 0.017053 0.001661 0.028499 0.045679 0.022521
# 6 0.002751 0.049525 -0.012473 0.064460 0.022521 0.060738
#
#
# Mechanical properties :
#
#
# Convention : Reuss Voigt Hill
#
# Bulk Modulus (GPa) = 8.20671 29.53905 18.87288
# Shear Modulus (GPa) = 9.57885 29.15130 19.36508
#
# Velocity S-wave (km/s) = 2.07316 3.61664 2.94772
# Velocity P-wave (km/s) = 3.06806 5.54023 4.47812
#
# Compressibility (1/GPa) = 0.12185145
#
# Stress axis : x y z
#
# Youngs Moduli (GPa) = 99.63282 11.02552 21.42305
#
# Poissons Ratio (x) = 0.01302 -0.04202
# Poissons Ratio (y) = 0.11769 0.29053
# Poissons Ratio (z) = -0.19542 0.14952
#
# Static dielectric constant tensor:
#      x y z
#    x 1.862690 -0.037870 -0.009550 
#    y -0.037870 1.861220 0.029510 
#    z -0.009550 0.029510 1.825190 
# 
# From -- ./inp_files/500392.got.cif
#   From: 2010.05.17/outbox.cif.g08.bks.cpg/sg2_251_cif.got.tgz:500392.got - 2010.06.03 11:33:40.
