data_PCOD9086382
_publ_section_title
;
Structure prediction by ZEFSAII (Michael W. Deem and Ramdas Pophale) SiO2 
 PCOD9086382
Probable space group: P -1
;
_chemical_formula_sum "Si O2"
_cell_formula_units_Z 12
_cell_length_a 16.145991
_cell_length_b 7.498873
_cell_length_c 10.861748
_cell_angle_alpha 61.474736
_cell_angle_beta 49.559163
_cell_angle_gamma 100.896999
_cell_volume 585.672191
_symmetry_space_group_name_H-M "P -1"
_symmetry_group_IT_number 2
_symmetry_cell_setting 'triclinic'
loop_
_space_group_symop_operation_xyz
x,y,z
-x,-y,-z
loop_
_atom_site_type_symbol
_atom_site_label
_atom_site_fract_x
_atom_site_fract_y
_atom_site_fract_z
Si Si1 0.027836 0.537992 0.232779
Si Si2 0.358759 0.584755 0.710984
Si Si3 0.822515 0.645732 0.776254
Si Si4 0.045393 0.007794 0.092210
Si Si5 0.319763 0.997447 0.614811
Si Si6 0.200377 0.077182 0.483809
O O1 0.990772 0.702490 0.273451
O O2 0.871153 0.200162 0.443012
O O3 0.131731 0.527691 0.220660
O O4 0.144959 0.748497 0.933196
O O5 0.540704 0.760067 0.499923
O O6 0.358886 0.821187 0.593037
O O7 0.275849 0.466275 0.965578
O O8 0.238111 0.296265 0.834274
O O9 0.734046 0.646154 0.753281
O O10 0.000000 0.000000 0.500000
O O11 0.954529 0.040219 0.257032
O O12 0.000000 0.000000 0.000000
O O13 0.313282 0.138747 0.459439
#
# Coordination Sequence:
#
# PCOD9086382 Si02
#       6
#     2   2   2   2   2   2
#     4  10  20  35  58  82 110 148 179 226 273 315
#     4  10  21  36  57  85 109 145 186 214 288 322
#     4   9  18  37  57  79 110 146 179 229 264 328
#     4  12  21  33  60  86 106 142 190 224 268 326
#     4  10  19  36  58  80 114 144 176 236 265 321
#     4  11  20  38  58  83 111 140 192 222 266 325
#
# _framework density 20.489277999999999
#
# number of rings (size 3 to 8) (size 9 to 14) (size 15 to 20)
#    0.000    1.667    6.667    1.500    0.000    2.000 
#    0.000    0.000    0.000    1.000    0.000    0.000 
#    0.000    0.000    0.000    0.000    0.000    0.000 
#
# Total GULP energy -66967.406891 kJ/mol
# GULP energy per Si atom -5580.617241 kJ/mol
# Density = 2.044264 g / cm^3
# Si number density = 20.489278 Si / 1000 Ang^3
#
#
#
# Elastic Constant Matrix: (Units=GPa)
#
#
# Indices 1 2 3 4 5 6 
#
# 1 176.6632 26.8335 11.8508 -10.6136 17.1021 -6.7257
# 2 26.8335 61.1934 7.7894 -24.7508 -7.0106 -11.0214
# 3 11.8508 7.7894 24.0334 -2.6205 1.3596 -2.4050
# 4 -10.6136 -24.7508 -2.6205 22.9056 2.9615 1.2071
# 5 17.1021 -7.0106 1.3596 2.9615 28.9580 -1.0874
# 6 -6.7257 -11.0214 -2.4050 1.2071 -1.0874 28.6559
#
#
#
# Elastic Compliance Matrix: (Units=1/GPa)
#
#
# Indices 1 2 3 4 5 6 
#
# 1 0.006738 -0.003235 -0.002011 0.000001 -0.004669 -0.000009
# 2 -0.003235 0.035242 -0.005388 0.034393 0.007598 0.011182
# 3 -0.002011 -0.005388 0.044416 -0.001474 -0.002007 0.001170
# 4 0.000001 0.034393 -0.001474 0.080065 0.000573 0.009754
# 5 -0.004669 0.007598 -0.002007 0.000573 0.039282 0.003124
# 6 -0.000009 0.011182 0.001170 0.009754 0.003124 0.039002
#
#
# Mechanical properties :
#
#
# Convention : Reuss Voigt Hill
#
# Bulk Modulus (GPa) = 15.35400 39.42637 27.39019
# Shear Modulus (GPa) = 17.37789 30.46500 23.92144
#
# Velocity S-wave (km/s) = 2.91545 3.86019 3.42059
# Velocity P-wave (km/s) = 4.34086 6.25718 5.38495
#
# Compressibility (1/GPa) = 0.06512960
#
# Stress axis : x y z
#
# Youngs Moduli (GPa) = 148.40269 28.37563 22.51419
#
# Poissons Ratio (x) = 0.09179 0.04527
# Poissons Ratio (y) = 0.48007 0.12130
# Poissons Ratio (z) = 0.29842 0.15288
#
# Static dielectric constant tensor:
#      x y z
#    x 1.783220 -0.008420 -0.003250 
#    y -0.008420 1.747580 -0.000960 
#    z -0.003250 -0.000960 1.738860 
# 
# From -- ./inp_files/320813.got.cif
#   From: 2010.05.17/outbox.cif.g08.bks.cpg/sg2_161_cif.got.tgz:320813.got - 2010.06.03 11:33:40.
