data_PCOD9086996
_publ_section_title
;
Structure prediction by ZEFSAII (Michael W. Deem and Ramdas Pophale) SiO2 
 PCOD9086996
Probable space group: P -1
;
_chemical_formula_sum "Si O2"
_cell_formula_units_Z 14
_cell_length_a 12.155356
_cell_length_b 9.226712
_cell_length_c 14.583510
_cell_angle_alpha 139.636194
_cell_angle_beta 29.520742
_cell_angle_gamma 132.324246
_cell_volume 521.674903
_symmetry_space_group_name_H-M "P -1"
_symmetry_group_IT_number 2
_symmetry_cell_setting 'triclinic'
loop_
_space_group_symop_operation_xyz
x,y,z
-x,-y,-z
loop_
_atom_site_type_symbol
_atom_site_label
_atom_site_fract_x
_atom_site_fract_y
_atom_site_fract_z
Si Si1 0.141338 0.207360 0.182646
Si Si2 0.447928 0.050380 0.252070
Si Si3 0.200185 0.792050 0.170668
Si Si4 0.044271 0.607954 0.761234
Si Si5 0.774576 0.598600 0.309575
Si Si6 0.684684 0.290829 0.655635
Si Si7 0.510059 0.540440 0.291184
O O1 0.267161 0.449924 0.225589
O O2 0.067536 0.203970 0.127375
O O3 0.918809 0.211351 0.406411
O O4 0.310704 0.015186 0.989639
O O5 0.267900 0.010430 0.282836
O O6 0.398659 0.870756 0.281727
O O7 0.414017 0.290467 0.436592
O O8 0.127388 0.604158 0.209279
O O9 0.984869 0.775266 0.254247
O O10 0.412393 0.693379 0.918502
O O11 0.127021 0.615366 0.810721
O O12 0.263140 0.546045 0.514803
O O13 0.689343 0.593507 0.266060
O O14 0.504149 0.293381 0.704903
#
# Coordination Sequence:
#
# PCOD9086996 Si02
#       7
#     2   2   2   2   2   2   2
#     4  10  19  36  61  88 108 147 200 229 275 337
#     4  12  21  39  58  89 119 146 179 248 292 321
#     4  10  21  36  61  84 108 154 194 226 277 338
#     4   9  21  38  61  85 108 152 199 233 264 347
#     4  10  24  39  56  86 123 145 187 236 290 333
#     4  10  20  34  62  86 112 148 194 232 273 345
#     4  11  20  40  61  83 112 155 194 231 272 344
#
# _framework density 26.836637
#
# number of rings (size 3 to 8) (size 9 to 14) (size 15 to 20)
#    0.857    0.857    2.857    2.571    0.000    0.571 
#    2.571    3.571    0.000    0.000    0.000    0.000 
#    0.000    0.000    0.000    0.000    0.000    0.000 
#
# Total GULP energy -78347.257882 kJ/mol
# GULP energy per Si atom -5596.232706 kJ/mol
# Density = 2.677556 g / cm^3
# Si number density = 26.836637 Si / 1000 Ang^3
#
#
#
# Elastic Constant Matrix: (Units=GPa)
#
#
# Indices 1 2 3 4 5 6 
#
# 1 177.7186 40.3907 26.0682 -1.6870 -12.0917 17.1276
# 2 40.3907 51.5369 15.7127 -0.7855 2.2190 -3.0048
# 3 26.0682 15.7127 105.2509 -4.8668 -8.5875 9.2219
# 4 -1.6870 -0.7855 -4.8668 34.6735 0.5070 7.2628
# 5 -12.0917 2.2190 -8.5875 0.5070 35.8403 11.4902
# 6 17.1276 -3.0048 9.2219 7.2628 11.4902 36.3847
#
#
#
# Elastic Compliance Matrix: (Units=1/GPa)
#
#
# Indices 1 2 3 4 5 6 
#
# 1 0.008206 -0.007034 0.000081 0.001521 0.005263 -0.006430
# 2 -0.007034 0.026955 -0.003860 -0.002138 -0.007969 0.009459
# 3 0.000081 -0.003860 0.010978 0.002448 0.004478 -0.005042
# 4 0.001521 -0.002138 0.002448 0.031010 0.003631 -0.008850
# 5 0.005263 -0.007969 0.004478 0.003631 0.036488 -0.016518
# 6 -0.006430 0.009459 -0.005042 -0.008850 -0.016518 0.039553
#
#
# Mechanical properties :
#
#
# Convention : Reuss Voigt Hill
#
# Bulk Modulus (GPa) = 40.79521 55.42774 48.11147
# Shear Modulus (GPa) = 27.32436 38.20202 32.76319
#
# Velocity S-wave (km/s) = 3.19435 3.77703 3.49784
# Velocity P-wave (km/s) = 5.37024 6.30237 5.85488
#
# Compressibility (1/GPa) = 0.02451268
#
# Stress axis : x y z
#
# Youngs Moduli (GPa) = 121.86320 37.09860 91.09409
#
# Poissons Ratio (x) = 0.26096 -0.00737
# Poissons Ratio (y) = 0.85720 0.35160
# Poissons Ratio (z) = -0.00985 0.14319
#
# Static dielectric constant tensor:
#      x y z
#    x 2.111160 0.018910 0.006590 
#    y 0.018910 2.100210 -0.044550 
#    z 0.006590 -0.044550 2.076740 
# 
# From -- ./inp_files/273893.got.cif
#   From: 2010.05.17/outbox.cif.g08.bks.cpg/sg2_137_cif.got.tgz:273893.got - 2010.06.03 11:33:40.
