data_PCOD9086218
_publ_section_title
;
Structure prediction by ZEFSAII (Michael W. Deem and Ramdas Pophale) SiO2 
 PCOD9086218
Probable space group: P -1
;
_chemical_formula_sum "Si O2"
_cell_formula_units_Z 14
_cell_length_a 8.000829
_cell_length_b 9.852291
_cell_length_c 13.695198
_cell_angle_alpha 49.794195
_cell_angle_beta 111.530938
_cell_angle_gamma 78.297951
_cell_volume 602.375366
_symmetry_space_group_name_H-M "P -1"
_symmetry_group_IT_number 2
_symmetry_cell_setting 'triclinic'
loop_
_space_group_symop_operation_xyz
x,y,z
-x,-y,-z
loop_
_atom_site_type_symbol
_atom_site_label
_atom_site_fract_x
_atom_site_fract_y
_atom_site_fract_z
Si Si1 0.690216 0.725346 0.162347
Si Si2 0.059808 0.072471 0.629747
Si Si3 0.338356 0.696901 0.172992
Si Si4 0.656619 0.680283 0.756918
Si Si5 0.140376 0.149153 0.409159
Si Si6 0.962738 0.194008 0.765189
Si Si7 0.431926 0.335434 0.044718
O O1 0.580277 0.647849 0.246327
O O2 0.924703 0.681087 0.256549
O O3 0.685670 0.640199 0.093404
O O4 0.500000 0.000000 0.000000
O O5 0.325331 0.914572 0.790335
O O6 0.001933 0.912317 0.650738
O O7 0.037864 0.215956 0.465571
O O8 0.922331 0.185088 0.646950
O O9 0.347796 0.514203 0.195977
O O10 0.252597 0.701871 0.259752
O O11 0.150537 0.938574 0.967153
O O12 0.819900 0.701262 0.716150
O O13 0.706774 0.643820 0.899861
O O14 0.397280 0.912785 0.586087
O O15 0.500000 0.500000 0.000000
#
# Coordination Sequence:
#
# PCOD9086218 Si02
#       7
#     2   2   2   2   2   2   2
#     4  10  19  36  56  91 121 153 181 230 315 356
#     4  10  19  40  57  81 116 152 202 242 288 348
#     4  10  20  37  59  89 122 144 195 244 296 362
#     4  10  20  39  57  86 116 149 203 244 288 345
#     4   9  22  37  61  78 112 162 197 248 284 334
#     4  10  21  37  61  89 118 157 186 240 310 361
#     4  11  19  34  62  89 115 150 189 246 305 350
#
# _framework density 23.241323000000001
#
# number of rings (size 3 to 8) (size 9 to 14) (size 15 to 20)
#    0.000    2.000    4.286    0.000    0.000    4.571 
#    5.143    3.571    0.000    0.000    0.000    0.000 
#    0.000    0.000    0.000    0.000    0.000    0.000 
#
# Total GULP energy -78332.887122 kJ/mol
# GULP energy per Si atom -5595.206223 kJ/mol
# Density = 2.318842 g / cm^3
# Si number density = 23.241323 Si / 1000 Ang^3
#
#
#
# Elastic Constant Matrix: (Units=GPa)
#
#
# Indices 1 2 3 4 5 6 
#
# 1 159.6211 49.7716 46.7356 19.8740 -47.1852 -18.0128
# 2 49.7716 120.9916 37.1091 29.5271 -31.1059 -13.5742
# 3 46.7356 37.1091 74.1542 17.0727 -7.1995 -8.7729
# 4 19.8740 29.5271 17.0727 42.2004 -8.6430 -13.4254
# 5 -47.1852 -31.1059 -7.1995 -8.6430 38.0731 4.0884
# 6 -18.0128 -13.5742 -8.7729 -13.4254 4.0884 45.9057
#
#
#
# Elastic Compliance Matrix: (Units=1/GPa)
#
#
# Indices 1 2 3 4 5 6 
#
# 1 0.012615 0.000994 -0.006681 -0.000049 0.014890 0.002627
# 2 0.000994 0.013363 -0.004984 -0.005494 0.009863 0.000904
# 3 -0.006681 -0.004984 0.020044 -0.003532 -0.009313 -0.000468
# 4 -0.000049 -0.005494 -0.003532 0.031383 0.001182 0.006754
# 5 0.014890 0.009863 -0.009313 0.001182 0.050985 0.002784
# 6 0.002627 0.000904 -0.000468 0.006754 0.002784 0.024720
#
#
# Mechanical properties :
#
#
# Convention : Reuss Voigt Hill
#
# Bulk Modulus (GPa) = 40.51861 69.11107 54.81484
# Shear Modulus (GPa) = 27.37071 39.97921 33.67496
#
# Velocity S-wave (km/s) = 3.43545 4.15200 3.81061
# Velocity P-wave (km/s) = 5.76265 7.26542 6.55723
#
# Compressibility (1/GPa) = 0.02468001
#
# Stress axis : x y z
#
# Youngs Moduli (GPa) = 79.27141 74.83608 49.89111
#
# Poissons Ratio (x) = -0.07441 0.33330
# Poissons Ratio (y) = -0.07882 0.24868
# Poissons Ratio (z) = 0.52957 0.37301
#
# Static dielectric constant tensor:
#      x y z
#    x 1.843410 -0.042820 0.011900 
#    y -0.042820 1.848610 -0.052760 
#    z 0.011900 -0.052760 1.916640 
# 
# From -- ./inp_files/159944.got.cif
#   From: 2010.05.17/outbox.cif.g08.bks.cpg/sg2_80_cif.got.tgz:159944.got - 2010.06.03 11:33:40.
