data_PCOD9086687
_publ_section_title
;
Structure prediction by ZEFSAII (Michael W. Deem and Ramdas Pophale) SiO2 
 PCOD9086687
Probable space group: P -1
;
_chemical_formula_sum "Si O2"
_cell_formula_units_Z 14
_cell_length_a 5.178733
_cell_length_b 18.747546
_cell_length_c 18.419029
_cell_angle_alpha 21.259419
_cell_angle_beta 65.900279
_cell_angle_gamma 63.392951
_cell_volume 579.519212
_symmetry_space_group_name_H-M "P -1"
_symmetry_group_IT_number 2
_symmetry_cell_setting 'triclinic'
loop_
_space_group_symop_operation_xyz
x,y,z
-x,-y,-z
loop_
_atom_site_type_symbol
_atom_site_label
_atom_site_fract_x
_atom_site_fract_y
_atom_site_fract_z
Si Si1 0.192784 0.395310 0.288806
Si Si2 0.171398 0.211253 0.045326
Si Si3 0.440378 0.154234 0.926552
Si Si4 0.800557 0.735858 0.748360
Si Si5 0.896955 0.416294 0.665061
Si Si6 0.592453 0.393741 0.358217
Si Si7 0.157802 0.838052 0.732159
O O1 0.918244 0.301681 0.433006
O O2 0.188524 0.389546 0.208067
O O3 0.485124 0.301509 0.385163
O O4 0.113679 0.628718 0.099496
O O5 0.074667 0.124330 0.212492
O O6 0.320160 0.078777 0.087308
O O7 0.365762 0.378039 0.879163
O O8 0.722721 0.241682 0.830539
O O9 0.180458 0.332255 0.760033
O O10 0.500000 0.000000 0.000000
O O11 0.482992 0.750173 0.804498
O O12 0.047254 0.700056 0.814854
O O13 0.818704 0.954449 0.506021
O O14 0.662538 0.582836 0.576499
O O15 0.000000 0.500000 0.500000
#
# Coordination Sequence:
#
# PCOD9086687 Si02
#       7
#     2   2   2   2   2   2   2
#     4  10  19  36  60  80 114 148 196 239 290 334
#     4   9  22  37  61  82 116 155 193 244 290 354
#     4  11  23  42  64  92 129 160 206 254 312 365
#     4  10  22  38  55  83 117 152 190 249 285 356
#     4  11  21  41  64  89 123 165 199 257 313 363
#     4   9  19  36  56  83 114 148 189 247 285 341
#     4  10  22  38  56  80 119 152 191 237 306 342
#
# _framework density 24.157955000000001
#
# number of rings (size 3 to 8) (size 9 to 14) (size 15 to 20)
#    0.857    1.143    1.429    1.714    2.000    1.143 
#    5.143    0.000    0.000    0.000    0.000    0.000 
#    0.000    0.000    0.000    0.000    0.000    0.000 
#
# Total GULP energy -78121.255878 kJ/mol
# GULP energy per Si atom -5580.089706 kJ/mol
# Density = 2.410297 g / cm^3
# Si number density = 24.157955 Si / 1000 Ang^3
#
#
#
# Elastic Constant Matrix: (Units=GPa)
#
#
# Indices 1 2 3 4 5 6 
#
# 1 120.5134 2.3955 7.1090 14.3591 -6.6378 3.5684
# 2 2.3955 138.2511 27.4896 32.3856 -21.3373 4.9305
# 3 7.1090 27.4896 50.2640 20.3136 -18.6403 -8.0067
# 4 14.3591 32.3856 20.3136 45.5667 -6.5713 -9.7177
# 5 -6.6378 -21.3373 -18.6403 -6.5713 20.9433 2.4248
# 6 3.5684 4.9305 -8.0067 -9.7177 2.4248 28.5011
#
#
#
# Elastic Compliance Matrix: (Units=1/GPa)
#
#
# Indices 1 2 3 4 5 6 
#
# 1 0.009034 0.001407 0.000609 -0.004192 0.003866 -0.002962
# 2 0.001407 0.010726 -0.000397 -0.007746 0.009235 -0.005570
# 3 0.000609 -0.000397 0.035088 -0.010811 0.027180 0.003851
# 4 -0.004192 -0.007746 -0.010811 0.034694 -0.009281 0.011447
# 5 0.003866 0.009235 0.027180 -0.009281 0.080174 -0.004431
# 6 -0.002962 -0.005570 0.003851 0.011447 -0.004431 0.041783
#
#
# Mechanical properties :
#
#
# Convention : Reuss Voigt Hill
#
# Bulk Modulus (GPa) = 17.21605 42.55741 29.88673
# Shear Modulus (GPa) = 21.96606 37.13783 29.55194
#
# Velocity S-wave (km/s) = 3.01868 3.92508 3.50134
# Velocity P-wave (km/s) = 4.39224 6.18031 5.36135
#
# Compressibility (1/GPa) = 0.05808534
#
# Stress axis : x y z
#
# Youngs Moduli (GPa) = 110.69208 93.22983 28.49946
#
# Poissons Ratio (x) = -0.13114 -0.01736
# Poissons Ratio (y) = -0.15571 0.01133
# Poissons Ratio (z) = -0.06743 0.03706
#
# Static dielectric constant tensor:
#      x y z
#    x 1.936390 -0.007320 0.033870 
#    y -0.007320 1.984560 -0.037440 
#    z 0.033870 -0.037440 1.986630 
# 
# From -- ./inp_files/550401.got.cif
#   From: 2010.05.17/outbox.cif.g08.bks.cpg/sg2_276_cif.got.tgz:550401.got - 2010.06.03 11:33:40.
