data_PCOD9086190
_publ_section_title
;
Structure prediction by ZEFSAII (Michael W. Deem and Ramdas Pophale) SiO2 
 PCOD9086190
Probable space group: P -1
;
_chemical_formula_sum "Si O2"
_cell_formula_units_Z 16
_cell_length_a 7.614323
_cell_length_b 11.812180
_cell_length_c 14.881170
_cell_angle_alpha 51.848953
_cell_angle_beta 49.523022
_cell_angle_gamma 54.934888
_cell_volume 766.202858
_symmetry_space_group_name_H-M "P -1"
_symmetry_group_IT_number 2
_symmetry_cell_setting 'triclinic'
loop_
_space_group_symop_operation_xyz
x,y,z
-x,-y,-z
loop_
_atom_site_type_symbol
_atom_site_label
_atom_site_fract_x
_atom_site_fract_y
_atom_site_fract_z
Si Si1 0.310353 0.859010 0.468200
Si Si2 0.363948 0.850525 0.201728
Si Si3 0.437074 0.872320 0.969461
Si Si4 0.848658 0.069959 0.309220
Si Si5 0.494712 0.117536 0.251065
Si Si6 0.980711 0.648784 0.676316
Si Si7 0.975319 0.654772 0.883453
Si Si8 0.361638 0.379454 0.628235
O O1 0.249061 0.901494 0.571054
O O2 0.118979 0.771853 0.541424
O O3 0.568547 0.742381 0.414713
O O4 0.322332 0.010701 0.339942
O O5 0.512901 0.707989 0.280655
O O6 0.527225 0.965100 0.101415
O O7 0.328218 0.826018 0.119237
O O8 0.099076 0.938853 0.282919
O O9 0.349771 0.875982 0.893125
O O10 0.698681 0.752850 0.932097
O O11 0.657755 0.042110 0.316771
O O12 0.886722 0.228575 0.185374
O O13 0.305640 0.273582 0.268802
O O14 0.047015 0.622324 0.772149
O O15 0.088700 0.485668 0.675857
O O16 0.000000 0.500000 0.000000
O O17 0.500000 0.500000 0.500000
#
# Coordination Sequence:
#
# PCOD9086190 Si02
#       8
#     2   2   2   2   2   2   2   2
#     4  10  20  36  57  81 112 154 193 234 273 338
#     4  10  19  36  56  84 113 143 198 238 280 334
#     4   9  19  33  59  83 106 151 194 237 273 339
#     4  10  23  34  57  87 115 153 188 236 288 346
#     4  11  20  37  57  85 119 151 189 230 294 343
#     4   9  20  33  58  84 109 147 195 234 280 334
#     4   9  17  35  58  79 109 149 193 235 279 338
#     4  10  20  33  59  85 109 145 195 243 278 325
#
# _framework density 20.882199
#
# number of rings (size 3 to 8) (size 9 to 14) (size 15 to 20)
#    0.000    2.250    1.250    2.250    3.500    0.500 
#    0.000    3.125    8.250    0.000    0.000    0.000 
#    0.000    0.000    0.000    0.000    0.000    0.000 
#
# Total GULP energy -89105.943135 kJ/mol
# GULP energy per Si atom -5569.121446 kJ/mol
# Density = 2.083467 g / cm^3
# Si number density = 20.882199 Si / 1000 Ang^3
#
#
#
# Elastic Constant Matrix: (Units=GPa)
#
#
# Indices 1 2 3 4 5 6 
#
# 1 45.7305 9.2118 9.3181 11.3513 12.9747 -5.0643
# 2 9.2118 122.5233 35.0804 14.0657 8.1487 -7.6728
# 3 9.3181 35.0804 109.9746 1.1411 24.8547 0.7833
# 4 11.3513 14.0657 1.1411 50.8467 3.9324 10.5102
# 5 12.9747 8.1487 24.8547 3.9324 19.5313 0.4007
# 6 -5.0643 -7.6728 0.7833 10.5102 0.4007 14.3909
#
#
#
# Elastic Compliance Matrix: (Units=1/GPa)
#
#
# Indices 1 2 3 4 5 6 
#
# 1 0.032373 0.000816 0.002166 -0.009743 -0.023040 0.019467
# 2 0.000816 0.010218 -0.003424 -0.004924 0.000349 0.009508
# 3 0.002166 -0.003424 0.014160 0.002170 -0.018407 -0.002906
# 4 -0.009743 -0.004924 0.002170 0.028730 0.000538 -0.027170
# 5 -0.023040 0.000349 -0.018407 0.000538 0.089877 -0.009816
# 6 0.019467 0.009508 -0.002906 -0.027170 -0.009816 0.101684
#
#
# Mechanical properties :
#
#
# Convention : Reuss Voigt Hill
#
# Bulk Modulus (GPa) = 17.89947 42.82765 30.36356
# Shear Modulus (GPa) = 16.86065 31.92831 24.39448
#
# Velocity S-wave (km/s) = 2.84459 3.91445 3.42159
# Velocity P-wave (km/s) = 4.40218 6.40189 5.49379
#
# Compressibility (1/GPa) = 0.05586757
#
# Stress axis : x y z
#
# Youngs Moduli (GPa) = 30.89008 97.86355 70.62158
#
# Poissons Ratio (x) = -0.07983 -0.15300
# Poissons Ratio (y) = -0.02520 0.24181
# Poissons Ratio (z) = -0.06692 0.33509
#
# Static dielectric constant tensor:
#      x y z
#    x 1.756810 -0.002480 0.016680 
#    y -0.002480 1.821130 0.041600 
#    z 0.016680 0.041600 1.825110 
# 
# From -- ./inp_files/180364.got.cif
#   From: 2010.05.17/outbox.cif.g08.bks.cpg/sg2_91_cif.got.tgz:180364.got - 2010.06.03 11:33:40.
