data_PCOD9086326
_publ_section_title
;
Structure prediction by ZEFSAII (Michael W. Deem and Ramdas Pophale) SiO2 
 PCOD9086326
Probable space group: P -1
;
_chemical_formula_sum "Si O2"
_cell_formula_units_Z 14
_cell_length_a 13.481758
_cell_length_b 7.667953
_cell_length_c 9.582755
_cell_angle_alpha 113.555503
_cell_angle_beta 41.592633
_cell_angle_gamma 106.719998
_cell_volume 602.718436
_symmetry_space_group_name_H-M "P -1"
_symmetry_group_IT_number 2
_symmetry_cell_setting 'triclinic'
loop_
_space_group_symop_operation_xyz
x,y,z
-x,-y,-z
loop_
_atom_site_type_symbol
_atom_site_label
_atom_site_fract_x
_atom_site_fract_y
_atom_site_fract_z
Si Si1 0.348828 0.107271 0.542804
Si Si2 0.503796 0.805895 0.092222
Si Si3 0.271178 0.879737 0.139748
Si Si4 0.667955 0.646575 0.120611
Si Si5 0.351269 0.667763 0.737768
Si Si6 0.048086 0.601144 0.342688
Si Si7 0.138559 0.423691 0.734928
O O1 0.322059 0.144447 0.748797
O O2 0.509612 0.201559 0.384911
O O3 0.216912 0.232135 0.650778
O O4 0.383410 0.918538 0.356674
O O5 0.403040 0.766741 0.050484
O O6 0.577939 0.660416 0.076368
O O7 0.645473 0.923099 0.916383
O O8 0.122190 0.809225 0.351370
O O9 0.241205 0.794456 0.990714
O O10 0.603592 0.508884 0.264692
O O11 0.827442 0.547774 0.895863
O O12 0.264290 0.584186 0.672190
O O13 0.000000 0.500000 0.500000
O O14 0.915592 0.610834 0.374229
O O15 0.000000 0.500000 0.000000
#
# Coordination Sequence:
#
# PCOD9086326 Si02
#       7
#     2   2   2   2   2   2   2
#     4  10  20  36  62  91 113 159 205 240 297 359
#     4  10  21  36  61  85 123 155 193 250 302 349
#     4   9  20  39  56  84 120 159 199 239 294 360
#     4  10  19  36  57  87 117 149 202 255 285 345
#     4   9  19  35  64  88 108 156 211 245 289 344
#     4  11  24  38  61  90 119 156 205 248 296 352
#     4  11  18  37  63  83 117 154 193 250 296 344
#
# _framework density 23.228092
#
# number of rings (size 3 to 8) (size 9 to 14) (size 15 to 20)
#    0.000    2.000    4.286    2.143    0.000    8.000 
#    0.000    2.857    0.000   11.143    0.000    0.000 
#    0.000    0.000    0.000    0.000    0.000    0.000 
#
# Total GULP energy -77941.781384 kJ/mol
# GULP energy per Si atom -5567.270099 kJ/mol
# Density = 2.317522 g / cm^3
# Si number density = 23.228092 Si / 1000 Ang^3
#
#
#
# Elastic Constant Matrix: (Units=GPa)
#
#
# Indices 1 2 3 4 5 6 
#
# 1 164.8741 31.0015 -2.4844 -24.3237 4.3124 -4.8987
# 2 31.0015 49.5341 10.7310 -8.0579 -3.0835 -8.0342
# 3 -2.4844 10.7310 59.3794 -4.6802 -4.6582 -6.6162
# 4 -24.3237 -8.0579 -4.6802 31.8246 -3.9246 -3.0416
# 5 4.3124 -3.0835 -4.6582 -3.9246 28.4633 4.0145
# 6 -4.8987 -8.0342 -6.6162 -3.0416 4.0145 38.1001
#
#
#
# Elastic Compliance Matrix: (Units=1/GPa)
#
#
# Indices 1 2 3 4 5 6 
#
# 1 0.007665 -0.004226 0.001508 0.004991 -0.000802 0.000839
# 2 -0.004226 0.025002 -0.003782 0.003254 0.002606 0.004057
# 3 0.001508 -0.003782 0.018342 0.003446 0.002473 0.002596
# 4 0.004991 0.003254 0.003446 0.037573 0.004716 0.004429
# 5 -0.000802 0.002606 0.002473 0.004716 0.036964 -0.002643
# 6 0.000839 0.004057 0.002596 0.004429 -0.002643 0.028293
#
#
# Mechanical properties :
#
#
# Convention : Reuss Voigt Hill
#
# Bulk Modulus (GPa) = 26.30899 39.14267 32.72583
# Shear Modulus (GPa) = 27.85394 35.31357 31.58375
#
# Velocity S-wave (km/s) = 3.46663 3.90333 3.69144
# Velocity P-wave (km/s) = 5.23205 6.09940 5.68229
#
# Compressibility (1/GPa) = 0.03800983
#
# Stress axis : x y z
#
# Youngs Moduli (GPa) = 130.46592 39.99723 54.51881
#
# Poissons Ratio (x) = 0.16902 -0.08223
# Poissons Ratio (y) = 0.55131 0.20620
# Poissons Ratio (z) = -0.19679 0.15128
#
# Static dielectric constant tensor:
#      x y z
#    x 1.848020 0.022990 0.030980 
#    y 0.022990 1.971160 0.037180 
#    z 0.030980 0.037180 2.189090 
# 
# From -- ./inp_files/239472.got.cif
#   From: 2010.05.17/outbox.cif.g08.bks.cpg/sg2_120_cif.got.tgz:239472.got - 2010.06.03 11:33:40.
