data_PCOD9086566
_publ_section_title
;
Structure prediction by ZEFSAII (Michael W. Deem and Ramdas Pophale) SiO2 
 PCOD9086566
Probable space group: P -1
;
_chemical_formula_sum "Si O2"
_cell_formula_units_Z 15
_cell_length_a 16.442288
_cell_length_b 8.634832
_cell_length_c 15.381698
_cell_angle_alpha 44.915595
_cell_angle_beta 155.859345
_cell_angle_gamma 121.700482
_cell_volume 572.847159
_symmetry_space_group_name_H-M "P -1"
_symmetry_group_IT_number 2
_symmetry_cell_setting 'triclinic'
loop_
_space_group_symop_operation_xyz
x,y,z
-x,-y,-z
loop_
_atom_site_type_symbol
_atom_site_label
_atom_site_fract_x
_atom_site_fract_y
_atom_site_fract_z
Si Si1 0.551441 0.915436 0.798220
Si Si2 0.414035 0.556622 0.009539
Si Si3 0.000000 0.000000 0.500000
Si Si4 0.169730 0.093448 0.237500
Si Si5 0.754033 0.668152 0.382361
Si Si6 0.821423 0.522479 0.029698
Si Si7 0.612932 0.240275 0.873452
Si Si8 0.304066 0.793668 0.311985
O O1 0.602797 0.644803 0.989109
O O2 0.295055 0.016822 0.480936
O O3 0.628145 0.047812 0.893976
O O4 0.638104 0.007648 0.760407
O O5 0.649389 0.557772 0.253111
O O6 0.363977 0.428350 0.098972
O O7 0.218410 0.818920 0.721699
O O8 0.141711 0.150088 0.613470
O O9 0.242525 0.892649 0.311368
O O10 0.220858 0.305497 0.160469
O O11 0.910618 0.194022 0.951448
O O12 0.553164 0.775874 0.210329
O O13 0.962920 0.480952 0.713856
O O14 0.836523 0.253605 0.125552
O O15 0.478709 0.513936 0.595554
#
# Coordination Sequence:
#
# PCOD9086566 Si02
#       8
#     2   2   1   2   2   2   2   2
#     4  12  24  36  55  89 130 163 197 235 288 358
#     4  10  22  39  65  91 114 147 199 254 298 350
#     4  10  22  42  74  90 108 138 200 266 308 352
#     4  11  21  33  58  83 116 169 209 244 272 324
#     4  10  21  41  65  92 111 150 198 250 302 350
#     4  10  19  36  59  83 118 158 203 244 283 331
#     4  11  23  37  55  85 131 167 192 235 293 353
#     4  11  22  35  54  84 123 169 206 238 275 335
#
# _framework density 26.184996000000002
#
# number of rings (size 3 to 8) (size 9 to 14) (size 15 to 20)
#    0.000    1.333    4.000    2.800    1.867    1.600 
#    0.000    0.667    0.000    8.000    0.000    0.000 
#    0.000    0.000    0.000    0.000    0.000    0.000 
#
# Total GULP energy -83538.263600 kJ/mol
# GULP energy per Si atom -5569.217573 kJ/mol
# Density = 2.612540 g / cm^3
# Si number density = 26.184996 Si / 1000 Ang^3
#
#
#
# Elastic Constant Matrix: (Units=GPa)
#
#
# Indices 1 2 3 4 5 6 
#
# 1 43.2050 28.7951 7.6047 19.7159 -23.9942 4.1312
# 2 28.7951 226.2552 40.1039 29.8494 -1.7433 9.9622
# 3 7.6047 40.1039 94.8608 41.0492 -3.1400 -3.2319
# 4 19.7159 29.8494 41.0492 52.8654 11.3410 -2.4365
# 5 -23.9942 -1.7433 -3.1400 11.3410 5.7294 1.0985
# 6 4.1312 9.9622 -3.2319 -2.4365 1.0985 35.8912
#
#
#
# Elastic Compliance Matrix: (Units=1/GPa)
#
#
# Indices 1 2 3 4 5 6 
#
# 1 -0.000998 -0.000851 -0.006520 0.013534 -0.035137 0.001758
# 2 -0.000851 0.005108 -0.001108 -0.002238 0.002126 -0.001637
# 3 -0.006520 -0.001108 0.013122 -0.004420 -0.012145 0.002311
# 4 0.013534 -0.002238 -0.004420 0.012071 0.029956 -0.001432
# 5 -0.035137 0.002126 -0.012145 0.029956 -0.038990 0.005588
# 6 0.001758 -0.001637 0.002311 -0.001432 0.005588 0.028054
#
#
# Mechanical properties :
#
#
# Convention : Reuss Voigt Hill
#
# Bulk Modulus (GPa) = 3649.20820 57.48094 1853.34457
# Shear Modulus (GPa) = 141.16960 38.08504 89.62732
#
# Velocity S-wave (km/s) = 7.35047 3.81788 5.85686
# Velocity P-wave (km/s) = 38.32350 6.43696 27.47840
#
# Compressibility (1/GPa) = 0.00027403
#
# Stress axis : x y z
#
# Youngs Moduli (GPa) = -1002.41598 195.76246 76.20560
#
# Poissons Ratio (x) = 0.16660 0.49687
# Poissons Ratio (y) = -0.85309 0.08447
# Poissons Ratio (z) = -6.53582 0.21699
#
# Static dielectric constant tensor:
#      x y z
#    x 2.199120 -0.133970 -0.079960 
#    y -0.133970 2.130310 -0.063730 
#    z -0.079960 -0.063730 2.352140 
# 
# From -- ./inp_files/349413.got.cif
#   From: 2010.05.17/outbox.cif.g08.bks.cpg/sg2_175_cif.got.tgz:349413.got - 2010.06.03 11:33:40.
