data_PCOD9086935
_publ_section_title
;
Structure prediction by ZEFSAII (Michael W. Deem and Ramdas Pophale) SiO2 
 PCOD9086935
Probable space group: P -1
;
_chemical_formula_sum "Si O2"
_cell_formula_units_Z 14
_cell_length_a 7.770875
_cell_length_b 18.307246
_cell_length_c 8.876893
_cell_angle_alpha 124.775324
_cell_angle_beta 48.836075
_cell_angle_gamma 145.023154
_cell_volume 543.582705
_symmetry_space_group_name_H-M "P -1"
_symmetry_group_IT_number 2
_symmetry_cell_setting 'triclinic'
loop_
_space_group_symop_operation_xyz
x,y,z
-x,-y,-z
loop_
_atom_site_type_symbol
_atom_site_label
_atom_site_fract_x
_atom_site_fract_y
_atom_site_fract_z
Si Si1 0.166195 0.266896 0.863470
Si Si2 0.767959 0.004612 0.224384
Si Si3 0.653675 0.383918 0.490653
Si Si4 0.325770 0.530900 0.730092
Si Si5 0.032861 0.102299 0.523037
Si Si6 0.677980 0.271172 0.728121
Si Si7 0.000502 0.254018 0.254622
O O1 0.408506 0.378514 0.730136
O O2 0.909019 0.141570 0.760234
O O3 0.391494 0.255992 0.811484
O O4 0.955913 0.395632 0.817885
O O5 0.806704 0.108202 0.233011
O O6 0.889444 0.062739 0.392488
O O7 0.455829 0.854143 0.260270
O O8 0.000000 0.000000 0.000000
O O9 0.713221 0.410314 0.311641
O O10 0.417246 0.233033 0.452160
O O11 0.000000 0.500000 0.500000
O O12 0.500000 0.500000 0.500000
O O13 0.611220 0.642991 0.806991
O O14 0.000000 0.000000 0.500000
O O15 0.143116 0.714159 0.509475
O O16 0.000681 0.274862 0.101523
#
# Coordination Sequence:
#
# PCOD9086935 Si02
#       7
#     2   2   2   2   2   2   2
#     4  10  21  38  63  87 121 158 208 245 311 368
#     4  12  21  39  63  90 120 164 208 252 311 372
#     4  10  19  37  63  86 118 167 200 249 315 360
#     4  10  21  39  62  91 127 162 204 262 307 362
#     4  10  19  36  61  84 121 159 197 259 303 358
#     4  11  22  38  62  90 125 157 205 256 304 363
#     4  11  22  40  63  89 124 163 203 258 311 364
#
# _framework density 25.755049
#
# number of rings (size 3 to 8) (size 9 to 14) (size 15 to 20)
#    0.857    0.571    5.714    0.429    0.000    0.571 
#    2.571    3.571    9.429    0.000    0.000    0.000 
#    0.000    0.000    0.000    0.000    0.000    0.000 
#
# Total GULP energy -78114.346857 kJ/mol
# GULP energy per Si atom -5579.596204 kJ/mol
# Density = 2.569643 g / cm^3
# Si number density = 25.755049 Si / 1000 Ang^3
#
#
#
# Elastic Constant Matrix: (Units=GPa)
#
#
# Indices 1 2 3 4 5 6 
#
# 1 67.0687 37.7241 12.0157 5.5655 16.0621 9.7233
# 2 37.7241 210.2024 20.4489 8.9011 20.6066 5.8504
# 3 12.0157 20.4489 118.7644 -14.6705 33.0524 4.3088
# 4 5.5655 8.9011 -14.6705 29.8545 3.8615 6.6253
# 5 16.0621 20.6066 33.0524 3.8615 49.0623 1.4057
# 6 9.7233 5.8504 4.3088 6.6253 1.4057 22.5684
#
#
#
# Elastic Compliance Matrix: (Units=1/GPa)
#
#
# Indices 1 2 3 4 5 6 
#
# 1 0.018577 -0.002662 0.000108 -0.000464 -0.004802 -0.006899
# 2 -0.002662 0.005431 -0.000592 -0.001364 -0.000913 0.000309
# 3 0.000108 -0.000592 0.011976 0.008014 -0.008371 -0.004011
# 4 -0.000464 -0.001364 0.008014 0.041740 -0.007594 -0.012757
# 5 -0.004802 -0.000913 -0.008371 -0.007594 0.028450 0.004361
# 6 -0.006899 0.000309 -0.004011 -0.012757 0.004361 0.051441
#
#
# Mechanical properties :
#
#
# Convention : Reuss Voigt Hill
#
# Bulk Modulus (GPa) = 33.67729 59.60141 46.63935
# Shear Modulus (GPa) = 28.76816 42.02020 35.39418
#
# Velocity S-wave (km/s) = 3.34577 4.04361 3.71113
# Velocity P-wave (km/s) = 5.29433 6.70767 6.04247
#
# Compressibility (1/GPa) = 0.02969360
#
# Stress axis : x y z
#
# Youngs Moduli (GPa) = 53.83087 184.12014 83.50018
#
# Poissons Ratio (x) = 0.49012 -0.00905
# Poissons Ratio (y) = 0.14330 0.04940
# Poissons Ratio (z) = -0.00584 0.10893
#
# Static dielectric constant tensor:
#      x y z
#    x 2.134920 -0.020460 -0.108420 
#    y -0.020460 2.019040 -0.007210 
#    z -0.108420 -0.007210 2.068650 
# 
# From -- ./inp_files/404844.got.cif
#   From: 2010.05.17/outbox.cif.g08.bks.cpg/sg2_203_cif.got.tgz:404844.got - 2010.06.03 11:33:40.
