data_PCOD9086051
_publ_section_title
;
Structure prediction by ZEFSAII (Michael W. Deem and Ramdas Pophale) SiO2 
 PCOD9086051
Probable space group: P -1
;
_chemical_formula_sum "Si O2"
_cell_formula_units_Z 16
_cell_length_a 6.333110
_cell_length_b 12.079166
_cell_length_c 19.790377
_cell_angle_alpha 137.359246
_cell_angle_beta 55.936505
_cell_angle_gamma 108.280532
_cell_volume 836.424387
_symmetry_space_group_name_H-M "P -1"
_symmetry_group_IT_number 2
_symmetry_cell_setting 'triclinic'
loop_
_space_group_symop_operation_xyz
x,y,z
-x,-y,-z
loop_
_atom_site_type_symbol
_atom_site_label
_atom_site_fract_x
_atom_site_fract_y
_atom_site_fract_z
Si Si1 0.494203 0.828586 0.465617
Si Si2 0.061827 0.041854 0.709395
Si Si3 0.634604 0.056290 0.904225
Si Si4 0.948562 0.565362 0.113964
Si Si5 0.386113 0.595359 0.266449
Si Si6 0.951837 0.137799 0.626890
Si Si7 0.217953 0.864763 0.935402
Si Si8 0.171751 0.366827 0.109565
O O1 0.370224 0.694007 0.384584
O O2 0.803485 0.765826 0.383683
O O3 0.500000 0.000000 0.500000
O O4 0.322550 0.902635 0.593913
O O5 0.095888 0.234617 0.792631
O O6 0.862773 0.016967 0.791659
O O7 0.940309 0.045761 0.658009
O O8 0.487550 0.900438 0.872616
O O9 0.753054 0.102569 0.975273
O O10 0.414137 0.212841 0.991076
O O11 0.679573 0.519444 0.165372
O O12 0.152819 0.484822 0.098906
O O13 0.000000 0.500000 0.000000
O O14 0.305341 0.738907 0.289743
O O15 0.219643 0.458889 0.212201
O O16 0.000000 0.000000 0.500000
O O17 0.097718 0.701472 0.869806
O O18 0.000000 0.000000 0.000000
#
# Coordination Sequence:
#
# PCOD9086051 Si02
#       8
#     2   2   2   2   2   2   2   2
#     4  10  19  36  51  76 113 156 196 229 266 334
#     4  11  20  36  54  85 120 148 195 231 274 342
#     4  10  22  39  63  83 112 153 188 243 288 340
#     4  12  24  33  49  85 126 152 185 231 283 344
#     4  12  20  34  54  77 115 159 191 223 278 333
#     4  11  19  34  54  78 116 160 195 223 274 333
#     4   9  20  43  60  81 109 145 200 238 291 344
#     4  11  22  36  56  84 115 153 192 229 287 345
#
# _framework density 19.129047
#
# number of rings (size 3 to 8) (size 9 to 14) (size 15 to 20)
#    0.000    1.250    6.250    2.250    1.750    1.000 
#    4.500    0.000    0.000    0.750    0.000   13.125 
#    0.000    0.000    0.000    0.000    0.000    0.000 
#
# Total GULP energy -89078.542237 kJ/mol
# GULP energy per Si atom -5567.408890 kJ/mol
# Density = 1.908551 g / cm^3
# Si number density = 19.129047 Si / 1000 Ang^3
#
#
#
# Elastic Constant Matrix: (Units=GPa)
#
#
# Indices 1 2 3 4 5 6 
#
# 1 103.8505 38.6336 49.4154 -10.0588 13.5787 9.0480
# 2 38.6336 64.7288 48.4629 -17.6830 5.6364 12.9449
# 3 49.4154 48.4629 111.4507 -13.0877 10.7288 13.0809
# 4 -10.0588 -17.6830 -13.0877 26.3250 5.0159 -2.7659
# 5 13.5787 5.6364 10.7288 5.0159 39.1882 15.4440
# 6 9.0480 12.9449 13.0809 -2.7659 15.4440 40.6733
#
#
#
# Elastic Compliance Matrix: (Units=1/GPa)
#
#
# Indices 1 2 3 4 5 6 
#
# 1 0.013689 -0.005281 -0.003475 0.000762 -0.003590 0.001168
# 2 -0.005281 0.029328 -0.008343 0.013043 0.000041 -0.004605
# 3 -0.003475 -0.008343 0.014395 0.000407 -0.001325 -0.000671
# 4 0.000762 0.013043 0.000407 0.049330 -0.009564 0.002535
# 5 -0.003590 0.000041 -0.001325 -0.009564 0.033070 -0.011996
# 6 0.001168 -0.004605 -0.000671 0.002535 -0.011996 0.030735
#
#
# Mechanical properties :
#
#
# Convention : Reuss Voigt Hill
#
# Bulk Modulus (GPa) = 43.07861 61.45041 52.26451
# Shear Modulus (GPa) = 23.53114 30.80517 27.16816
#
# Velocity S-wave (km/s) = 3.51112 4.01732 3.77272
# Velocity P-wave (km/s) = 6.24549 7.32887 6.80876
#
# Compressibility (1/GPa) = 0.02321338
#
# Stress axis : x y z
#
# Youngs Moduli (GPa) = 73.05193 34.09666 69.46743
#
# Poissons Ratio (x) = 0.18008 0.24139
# Poissons Ratio (y) = 0.38582 0.57959
# Poissons Ratio (z) = 0.25385 0.28448
#
# Static dielectric constant tensor:
#      x y z
#    x 1.776860 0.001640 -0.004830 
#    y 0.001640 1.695860 0.043900 
#    z -0.004830 0.043900 1.706890 
# 
# From -- ./inp_files/549538.got.cif
#   From: 2010.05.17/outbox.cif.g08.bks.cpg/sg2_275_cif.got.tgz:549538.got - 2010.06.03 11:33:40.
