data_PCOD9086277
_publ_section_title
;
Structure prediction by ZEFSAII (Michael W. Deem and Ramdas Pophale) SiO2 
 PCOD9086277
Probable space group: P -1
;
_chemical_formula_sum "Si O2"
_cell_formula_units_Z 16
_cell_length_a 8.153491
_cell_length_b 18.204442
_cell_length_c 13.808522
_cell_angle_alpha 142.397444
_cell_angle_beta 135.836828
_cell_angle_gamma 48.183017
_cell_volume 847.643611
_symmetry_space_group_name_H-M "P -1"
_symmetry_group_IT_number 2
_symmetry_cell_setting 'triclinic'
loop_
_space_group_symop_operation_xyz
x,y,z
-x,-y,-z
loop_
_atom_site_type_symbol
_atom_site_label
_atom_site_fract_x
_atom_site_fract_y
_atom_site_fract_z
Si Si1 0.822432 0.876912 0.997360
Si Si2 0.829377 0.687454 0.636350
Si Si3 0.761125 0.487879 0.833233
Si Si4 0.681786 0.134682 0.143908
Si Si5 0.285048 0.680389 0.038598
Si Si6 0.352175 0.708409 0.883836
Si Si7 0.389855 0.405088 0.736081
Si Si8 0.578460 0.382912 0.479715
O O1 0.790455 0.817447 0.815301
O O2 0.583048 0.889633 0.973565
O O3 0.031163 0.779201 0.039244
O O4 0.862805 0.012434 0.133330
O O5 0.750328 0.668004 0.472316
O O6 0.660311 0.623113 0.564563
O O7 0.121233 0.644780 0.715846
O O8 0.598056 0.616758 0.858129
O O9 0.595716 0.441482 0.794181
O O10 0.785349 0.398385 0.658631
O O11 0.000000 0.500000 0.000000
O O12 0.712050 0.171294 0.084225
O O13 0.674764 0.258832 0.330790
O O14 0.391698 0.723583 0.029911
O O15 0.249970 0.539537 0.859900
O O16 0.469018 0.672481 0.196461
O O17 0.500000 0.500000 0.500000
#
# Coordination Sequence:
#
# PCOD9086277 Si02
#       8
#     2   2   2   2   2   2   2   2
#     4   9  20  36  61  77 111 150 182 232 270 338
#     4   9  20  35  58  81 112 143 184 226 281 318
#     4  10  21  33  52  83 115 146 177 227 283 325
#     4  10  20  36  56  86 109 141 196 223 279 322
#     4   9  19  34  54  80 105 155 173 224 274 320
#     4  10  20  35  54  85 109 145 182 233 269 332
#     4   9  19  36  54  81 115 142 187 222 273 340
#     4  10  19  36  57  83 111 146 184 232 273 327
#
# _framework density 18.875855999999999
#
# number of rings (size 3 to 8) (size 9 to 14) (size 15 to 20)
#    0.000    2.500    1.250    0.000    1.750   12.000 
#    6.750    0.000    2.750    4.500    0.000    0.000 
#    0.000    0.000    0.000    0.000    0.000    0.000 
#
# Total GULP energy -89092.950376 kJ/mol
# GULP energy per Si atom -5568.309399 kJ/mol
# Density = 1.883289 g / cm^3
# Si number density = 18.875856 Si / 1000 Ang^3
#
#
#
# Elastic Constant Matrix: (Units=GPa)
#
#
# Indices 1 2 3 4 5 6 
#
# 1 35.1513 33.3069 20.1697 -4.5965 -6.8939 6.7956
# 2 33.3069 127.7435 58.5113 -14.3423 -4.5909 9.9235
# 3 20.1697 58.5113 92.9839 -16.1764 -4.4250 11.0233
# 4 -4.5965 -14.3423 -16.1764 29.4628 1.2758 -4.5106
# 5 -6.8939 -4.5909 -4.4250 1.2758 18.2178 -7.1769
# 6 6.7956 9.9235 11.0233 -4.5106 -7.1769 26.0533
#
#
#
# Elastic Compliance Matrix: (Units=1/GPa)
#
#
# Indices 1 2 3 4 5 6 
#
# 1 0.041198 -0.009019 -0.002381 -0.000255 0.011505 -0.003178
# 2 -0.009019 0.013094 -0.006042 0.001684 -0.001812 -0.000286
# 3 -0.002381 -0.006042 0.016342 0.005186 -0.000041 -0.003105
# 4 -0.000255 0.001684 0.005186 0.038155 0.000479 0.003969
# 5 0.011505 -0.001812 -0.000041 0.000479 0.064919 0.015673
# 6 -0.003178 -0.000286 -0.003105 0.003969 0.015673 0.045639
#
#
# Mechanical properties :
#
#
# Convention : Reuss Voigt Hill
#
# Bulk Modulus (GPa) = 27.97371 53.31716 40.64544
# Shear Modulus (GPa) = 18.78653 24.33949 21.56301
#
# Velocity S-wave (km/s) = 3.15821 3.59479 3.38355
# Velocity P-wave (km/s) = 5.30576 6.74815 6.06995
#
# Compressibility (1/GPa) = 0.03574785
#
# Stress axis : x y z
#
# Youngs Moduli (GPa) = 24.27290 76.37348 61.19366
#
# Poissons Ratio (x) = 0.68884 0.14571
# Poissons Ratio (y) = 0.21893 0.36975
# Poissons Ratio (z) = 0.05780 0.46147
#
# Static dielectric constant tensor:
#      x y z
#    x 1.726780 -0.023790 -0.021360 
#    y -0.023790 1.679690 0.023990 
#    z -0.021360 0.023990 1.683900 
# 
# From -- ./inp_files/507073.got.cif
#   From: 2010.05.17/outbox.cif.g08.bks.cpg/sg2_254_cif.got.tgz:507073.got - 2010.06.03 11:33:40.
