data_PCOD9086424
_publ_section_title
;
Structure prediction by ZEFSAII (Michael W. Deem and Ramdas Pophale) SiO2 
 PCOD9086424
Probable space group: P -1
;
_chemical_formula_sum "Si O2"
_cell_formula_units_Z 14
_cell_length_a 11.724374
_cell_length_b 12.475203
_cell_length_c 12.163869
_cell_angle_alpha 37.794202
_cell_angle_beta 141.985222
_cell_angle_gamma 144.546671
_cell_volume 578.082998
_symmetry_space_group_name_H-M "P -1"
_symmetry_group_IT_number 2
_symmetry_cell_setting 'triclinic'
loop_
_space_group_symop_operation_xyz
x,y,z
-x,-y,-z
loop_
_atom_site_type_symbol
_atom_site_label
_atom_site_fract_x
_atom_site_fract_y
_atom_site_fract_z
Si Si1 0.952021 0.633358 0.769293
Si Si2 0.378246 0.292523 0.420898
Si Si3 0.807396 0.058715 0.598619
Si Si4 0.218558 0.714789 0.221674
Si Si5 0.299144 0.301524 0.770692
Si Si6 0.726161 0.013445 0.151469
Si Si7 0.614214 0.931095 0.782081
O O1 0.739304 0.626101 0.657072
O O2 0.930050 0.523297 0.725911
O O3 0.135258 0.866535 0.735049
O O4 0.000000 0.500000 0.000000
O O5 0.211856 0.093842 0.388573
O O6 0.542698 0.248224 0.647035
O O7 0.532798 0.463620 0.311720
O O8 0.722882 0.930227 0.751398
O O9 0.628708 0.119883 0.384192
O O10 0.052416 0.234420 0.659065
O O11 0.248212 0.833927 0.260325
O O12 0.164834 0.835354 0.993094
O O13 0.298056 0.193223 0.742481
O O14 0.375247 0.208988 0.001251
O O15 0.500000 0.000000 0.000000
#
# Coordination Sequence:
#
# PCOD9086424 Si02
#       7
#     2   2   2   2   2   2   2
#     4  10  19  36  58  84 119 156 190 243 305 345
#     4  11  22  39  60  88 121 153 203 249 293 370
#     4  10  21  43  63  88 122 160 202 250 306 347
#     4   9  20  38  58  83 120 157 191 249 299 348
#     4  11  21  39  62  91 120 158 205 244 304 361
#     4  10  20  38  59  87 122 157 200 246 299 364
#     4   9  21  41  64  86 124 158 200 256 296 356
#
# _framework density 24.217976
#
# number of rings (size 3 to 8) (size 9 to 14) (size 15 to 20)
#    0.000    2.000    1.429    2.571    0.000    0.571 
#   12.857    7.857    0.000    0.000    0.000    0.000 
#    0.000    0.000    0.000    0.000    0.000    0.000 
#
# Total GULP energy -78277.741212 kJ/mol
# GULP energy per Si atom -5591.267229 kJ/mol
# Density = 2.416285 g / cm^3
# Si number density = 24.217976 Si / 1000 Ang^3
#
#
#
# Elastic Constant Matrix: (Units=GPa)
#
#
# Indices 1 2 3 4 5 6 
#
# 1 68.1890 8.1805 37.4594 0.6308 -7.2712 4.8055
# 2 8.1805 57.3546 18.2640 20.6116 -14.0710 3.6867
# 3 37.4594 18.2640 131.5442 1.6235 -14.4759 13.7595
# 4 0.6308 20.6116 1.6235 27.7287 4.5488 3.2806
# 5 -7.2712 -14.0710 -14.4759 4.5488 27.0199 2.7874
# 6 4.8055 3.6867 13.7595 3.2806 2.7874 41.0228
#
#
#
# Elastic Compliance Matrix: (Units=1/GPa)
#
#
# Indices 1 2 3 4 5 6 
#
# 1 0.017531 -0.000460 -0.004639 -0.000054 0.002063 -0.000592
# 2 -0.000460 0.033432 -0.001655 -0.028047 0.021287 -0.001599
# 3 -0.004639 -0.001655 0.009815 0.000551 0.003352 -0.002872
# 4 -0.000054 -0.028047 0.000551 0.061004 -0.024505 -0.000871
# 5 0.002063 0.021287 0.003352 -0.024505 0.055094 -0.005063
# 6 -0.000592 -0.001599 -0.002872 -0.000871 -0.005063 0.025967
#
#
# Mechanical properties :
#
#
# Convention : Reuss Voigt Hill
#
# Bulk Modulus (GPa) = 21.15439 42.76617 31.96028
# Shear Modulus (GPa) = 21.54190 32.03321 26.78755
#
# Velocity S-wave (km/s) = 2.98568 3.64084 3.32942
# Velocity P-wave (km/s) = 4.54309 5.94740 5.29203
#
# Compressibility (1/GPa) = 0.04727150
#
# Stress axis : x y z
#
# Youngs Moduli (GPa) = 57.04252 29.91128 101.88302
#
# Poissons Ratio (x) = 0.01375 0.47260
# Poissons Ratio (y) = 0.02622 0.16862
# Poissons Ratio (z) = 0.26460 0.04950
#
# Static dielectric constant tensor:
#      x y z
#    x 1.884120 -0.000300 -0.019320 
#    y -0.000300 1.974620 -0.004040 
#    z -0.019320 -0.004040 1.941500 
# 
# From -- ./inp_files/195048.got.cif
#   From: 2010.05.17/outbox.cif.g08.bks.cpg/sg2_98_cif.got.tgz:195048.got - 2010.06.03 11:33:40.
