data_PCOD9086668
_publ_section_title
;
Structure prediction by ZEFSAII (Michael W. Deem and Ramdas Pophale) SiO2 
 PCOD9086668
Probable space group: P -1
;
_chemical_formula_sum "Si O2"
_cell_formula_units_Z 16
_cell_length_a 12.336229
_cell_length_b 8.807399
_cell_length_c 19.704129
_cell_angle_alpha 118.763493
_cell_angle_beta 28.059048
_cell_angle_gamma 102.675215
_cell_volume 765.678448
_symmetry_space_group_name_H-M "P -1"
_symmetry_group_IT_number 2
_symmetry_cell_setting 'triclinic'
loop_
_space_group_symop_operation_xyz
x,y,z
-x,-y,-z
loop_
_atom_site_type_symbol
_atom_site_label
_atom_site_fract_x
_atom_site_fract_y
_atom_site_fract_z
Si Si1 0.134214 0.885565 0.524298
Si Si2 0.567443 0.803357 0.377251
Si Si3 0.665328 0.032449 0.125298
Si Si4 0.772015 0.498205 0.673451
Si Si5 0.443896 0.065297 0.121733
Si Si6 0.139461 0.105815 0.869860
Si Si7 0.587311 0.661189 0.476169
Si Si8 0.880980 0.723846 0.444595
O O1 0.302239 0.852716 0.492933
O O2 0.285369 0.674500 0.356200
O O3 0.841521 0.915875 0.702275
O O4 0.108718 0.077723 0.540417
O O5 0.792448 0.763187 0.189405
O O6 0.649309 0.648640 0.359392
O O7 0.500000 0.000000 0.500000
O O8 0.635645 0.943628 0.051710
O O9 0.371725 0.195312 0.347651
O O10 0.785273 0.885891 0.091843
O O11 0.851007 0.129891 0.033647
O O12 0.551467 0.726413 0.836465
O O13 0.000000 0.500000 0.500000
O O14 0.877516 0.437657 0.678917
O O15 0.500000 0.000000 0.000000
O O16 0.344216 0.878462 0.681294
O O17 0.500000 0.500000 0.500000
O O18 0.821422 0.636499 0.391229
#
# Coordination Sequence:
#
# PCOD9086668 Si02
#       8
#     2   2   2   2   2   2   2   2
#     4  11  21  38  69  87 122 162 206 258 297 372
#     4  10  19  36  59  93 116 159 208 245 313 362
#     4  10  19  37  61  86 119 156 207 243 312 356
#     4  10  22  38  62  91 115 162 211 249 294 377
#     4  11  26  39  62  92 125 163 201 259 317 357
#     4   9  20  36  62  83 118 162 202 250 293 375
#     4  10  22  33  59  89 124 157 198 260 304 366
#     4  11  20  39  62  90 118 161 215 245 307 362
#
# _framework density 20.896498999999999
#
# number of rings (size 3 to 8) (size 9 to 14) (size 15 to 20)
#    0.000    1.750    6.250    0.375    7.000    0.000 
#    0.000    0.625    5.500    4.500    0.000    0.000 
#    0.000    0.000    0.000    0.000    0.000    0.000 
#
# Total GULP energy -89200.167908 kJ/mol
# GULP energy per Si atom -5575.010494 kJ/mol
# Density = 2.084894 g / cm^3
# Si number density = 20.896499 Si / 1000 Ang^3
#
#
#
# Elastic Constant Matrix: (Units=GPa)
#
#
# Indices 1 2 3 4 5 6 
#
# 1 188.9387 69.6062 32.7211 -26.1222 4.8736 -19.2879
# 2 69.6062 123.3800 11.3531 -19.0571 8.6507 -10.6035
# 3 32.7211 11.3531 28.5551 -17.6676 4.3793 -3.3438
# 4 -26.1222 -19.0571 -17.6676 27.0977 -0.3825 4.4545
# 5 4.8736 8.6507 4.3793 -0.3825 18.7095 -11.3140
# 6 -19.2879 -10.6035 -3.3438 4.4545 -11.3140 28.7839
#
#
#
# Elastic Compliance Matrix: (Units=1/GPa)
#
#
# Indices 1 2 3 4 5 6 
#
# 1 0.008651 -0.004141 -0.009322 -0.001469 0.005088 0.005416
# 2 -0.004141 0.011462 0.006063 0.008204 -0.006479 -0.001665
# 3 -0.009322 0.006063 0.073099 0.044529 -0.023656 -0.011711
# 4 -0.001469 0.008204 0.044529 0.071910 -0.019326 -0.011514
# 5 0.005088 -0.006479 -0.023656 -0.019326 0.080055 0.032733
# 6 0.005416 -0.001665 -0.011711 -0.011514 0.032733 0.051045
#
#
# Mechanical properties :
#
#
# Convention : Reuss Voigt Hill
#
# Bulk Modulus (GPa) = 12.75327 63.13717 37.94522
# Shear Modulus (GPa) = 14.82976 30.06443 22.44709
#
# Velocity S-wave (km/s) = 2.66687 3.79717 3.28106
# Velocity P-wave (km/s) = 3.94958 7.03595 5.70543
#
# Compressibility (1/GPa) = 0.07841128
#
# Stress axis : x y z
#
# Youngs Moduli (GPa) = 115.58922 87.24653 13.68011
#
# Poissons Ratio (x) = 0.36130 0.12753
# Poissons Ratio (y) = 0.47867 -0.08294
# Poissons Ratio (z) = 1.07752 -0.52895
#
# Static dielectric constant tensor:
#      x y z
#    x 1.783980 -0.018600 -0.013270 
#    y -0.018600 1.759330 0.026220 
#    z -0.013270 0.026220 1.771740 
# 
# From -- ./inp_files/593669.got.cif
#   From: 2010.05.17/outbox.cif.g08.bks.cpg/sg2_297_cif.got.tgz:593669.got - 2010.06.03 11:33:40.
