data_PCOD9086215
_publ_section_title
;
Structure prediction by ZEFSAII (Michael W. Deem and Ramdas Pophale) SiO2 
 PCOD9086215
Probable space group: P -1
;
_chemical_formula_sum "Si O2"
_cell_formula_units_Z 16
_cell_length_a 13.401596
_cell_length_b 8.304512
_cell_length_c 14.361143
_cell_angle_alpha 42.215375
_cell_angle_beta 102.294796
_cell_angle_gamma 128.223388
_cell_volume 747.051542
_symmetry_space_group_name_H-M "P -1"
_symmetry_group_IT_number 2
_symmetry_cell_setting 'triclinic'
loop_
_space_group_symop_operation_xyz
x,y,z
-x,-y,-z
loop_
_atom_site_type_symbol
_atom_site_label
_atom_site_fract_x
_atom_site_fract_y
_atom_site_fract_z
Si Si1 0.148132 0.723277 0.991293
Si Si2 0.661318 0.379387 0.876844
Si Si3 0.328657 0.928809 0.261855
Si Si4 0.666042 0.575778 0.600026
Si Si5 0.658893 0.288650 0.452398
Si Si6 0.655868 0.804123 0.331837
Si Si7 0.152939 0.235105 0.878980
Si Si8 0.339165 0.442827 0.990131
O O1 0.258283 0.905165 0.849835
O O2 0.164194 0.984732 0.946042
O O3 0.205802 0.588714 0.117428
O O4 0.000000 0.500000 0.000000
O O5 0.674362 0.594353 0.704352
O O6 0.667841 0.496737 0.930263
O O7 0.500000 0.000000 0.000000
O O8 0.287073 0.612854 0.339360
O O9 0.309510 0.854352 0.399904
O O10 0.496898 0.262182 0.136294
O O11 0.265786 0.058235 0.143797
O O12 0.729681 0.884217 0.412838
O O13 0.499780 0.331071 0.640743
O O14 0.650913 0.530452 0.401740
O O15 0.784219 0.507416 0.305818
O O16 0.500000 0.000000 0.500000
O O17 0.258090 0.458229 0.890027
O O18 0.000000 0.000000 0.000000
#
# Coordination Sequence:
#
# PCOD9086215 Si02
#       8
#     2   2   2   2   2   2   2   2
#     4  11  23  42  63  87 124 167 207 251 311 374
#     4  12  22  35  61  93 124 158 206 258 304 362
#     4  10  20  34  56  89 119 155 191 258 301 357
#     4  10  19  36  56  90 122 152 199 253 311 348
#     4  10  20  35  60  89 121 156 205 252 308 359
#     4   9  20  35  60  88 121 158 201 256 303 369
#     4  11  24  42  62  89 125 167 207 250 310 382
#     4  11  22  34  58  91 126 155 206 246 314 363
#
# _framework density 21.417531
#
# number of rings (size 3 to 8) (size 9 to 14) (size 15 to 20)
#    0.000    1.500    3.750    1.500    3.500    0.000 
#    2.250    1.250    0.000    0.000    0.000    0.000 
#    0.000    0.000    0.000    0.000    0.000    0.000 
#
# Total GULP energy -89138.966672 kJ/mol
# GULP energy per Si atom -5571.185417 kJ/mol
# Density = 2.136878 g / cm^3
# Si number density = 21.417531 Si / 1000 Ang^3
#
#
#
# Elastic Constant Matrix: (Units=GPa)
#
#
# Indices 1 2 3 4 5 6 
#
# 1 53.9604 6.5356 28.1974 13.6837 -9.8054 -7.6640
# 2 6.5356 75.5117 23.1049 32.9315 -5.2768 -9.5410
# 3 28.1974 23.1049 119.8550 53.6797 -7.9411 -17.5488
# 4 13.6837 32.9315 53.6797 39.8437 -4.8106 -5.1930
# 5 -9.8054 -5.2768 -7.9411 -4.8106 34.3499 5.1128
# 6 -7.6640 -9.5410 -17.5488 -5.1930 5.1128 23.7496
#
#
#
# Elastic Compliance Matrix: (Units=1/GPa)
#
#
# Indices 1 2 3 4 5 6 
#
# 1 0.022265 0.001430 -0.002961 -0.003774 0.004810 0.003710
# 2 0.001430 0.029514 0.016112 -0.044683 0.000266 0.014396
# 3 -0.002961 0.016112 0.032847 -0.054319 -0.001085 0.018144
# 4 -0.003774 -0.044683 -0.054319 0.132812 0.002692 -0.030845
# 5 0.004810 0.000266 -0.001085 0.002692 0.031445 -0.005323
# 6 0.003710 0.014396 0.018144 -0.030845 -0.005323 0.056895
#
#
# Mechanical properties :
#
#
# Convention : Reuss Voigt Hill
#
# Bulk Modulus (GPa) = 8.78845 40.55589 24.67217
# Shear Modulus (GPa) = 15.89604 32.35458 24.12531
#
# Velocity S-wave (km/s) = 2.72729 3.89094 3.35987
# Velocity P-wave (km/s) = 3.74563 6.25802 5.15716
#
# Compressibility (1/GPa) = 0.11378569
#
# Stress axis : x y z
#
# Youngs Moduli (GPa) = 44.91453 33.88274 30.44441
#
# Poissons Ratio (x) = -0.04845 0.09015
# Poissons Ratio (y) = -0.06423 -0.49051
# Poissons Ratio (z) = 0.13300 -0.54591
#
# Static dielectric constant tensor:
#      x y z
#    x 1.722410 -0.068290 0.022230 
#    y -0.068290 1.780580 0.024370 
#    z 0.022230 0.024370 1.871890 
# 
# From -- ./inp_files/218911.got.cif
#   From: 2010.05.17/outbox.cif.g08.bks.cpg/sg2_110_cif.got.tgz:218911.got - 2010.06.03 11:33:40.
