data_PCOD9086678
_publ_section_title
;
Structure prediction by ZEFSAII (Michael W. Deem and Ramdas Pophale) SiO2 
 PCOD9086678
Probable space group: P -1
;
_chemical_formula_sum "Si O2"
_cell_formula_units_Z 16
_cell_length_a 5.259708
_cell_length_b 21.592824
_cell_length_c 10.914130
_cell_angle_alpha 33.077821
_cell_angle_beta 118.548797
_cell_angle_gamma 115.130594
_cell_volume 593.496316
_symmetry_space_group_name_H-M "P -1"
_symmetry_group_IT_number 2
_symmetry_cell_setting 'triclinic'
loop_
_space_group_symop_operation_xyz
x,y,z
-x,-y,-z
loop_
_atom_site_type_symbol
_atom_site_label
_atom_site_fract_x
_atom_site_fract_y
_atom_site_fract_z
Si Si1 0.719001 0.087208 0.836884
Si Si2 0.129177 0.372050 0.680499
Si Si3 0.726677 0.604623 0.861600
Si Si4 0.437111 0.172997 0.392062
Si Si5 0.458299 0.700306 0.416167
Si Si6 0.719214 0.425476 0.810935
Si Si7 0.280313 0.140348 0.997299
Si Si8 0.782881 0.172762 0.217740
O O1 0.594401 0.101250 0.649648
O O2 0.701368 0.217669 0.663553
O O3 0.031026 0.061001 0.009980
O O4 0.500000 0.000000 0.000000
O O5 0.372875 0.404590 0.784774
O O6 0.225897 0.459504 0.446598
O O7 0.159752 0.236345 0.900079
O O8 0.784063 0.377496 0.580055
O O9 0.622664 0.705650 0.758230
O O10 0.691792 0.642211 0.650300
O O11 0.500000 0.500000 0.000000
O O12 0.049856 0.575635 0.024256
O O13 0.645590 0.177039 0.315225
O O14 0.105563 0.131168 0.357022
O O15 0.605695 0.784729 0.214060
O O16 0.789883 0.306327 0.955345
O O17 0.556095 0.100866 0.200322
#
# Coordination Sequence:
#
# PCOD9086678 Si02
#       8
#     2   2   2   2   2   2   2   2
#     4  10  24  45  68  94 128 166 212 272 338 400
#     4   9  18  36  52  85 124 169 218 258 309 374
#     4  10  19  36  59  94 129 173 215 271 320 382
#     4  10  24  43  67  98 132 174 220 271 327 395
#     4  10  21  38  62  89 126 163 220 265 325 386
#     4   9  18  33  54  85 125 171 217 253 310 370
#     4  10  23  39  66  91 127 173 215 274 328 392
#     4  10  23  43  66  94 136 177 219 269 328 383
#
# _framework density 26.958887000000001
#
# number of rings (size 3 to 8) (size 9 to 14) (size 15 to 20)
#    0.000    2.250    1.250    0.000   10.500    1.500 
#    0.000    6.250    0.000    0.000    0.000    0.000 
#    0.000    0.000    0.000    0.000    0.000    0.000 
#
# Total GULP energy -89452.839837 kJ/mol
# GULP energy per Si atom -5590.802490 kJ/mol
# Density = 2.689753 g / cm^3
# Si number density = 26.958887 Si / 1000 Ang^3
#
#
#
# Elastic Constant Matrix: (Units=GPa)
#
#
# Indices 1 2 3 4 5 6 
#
# 1 74.0948 68.5742 51.2001 12.3631 3.8778 26.0114
# 2 68.5742 190.8318 72.9826 38.8090 22.2547 60.8131
# 3 51.2001 72.9826 150.4540 48.4231 10.4347 13.5951
# 4 12.3631 38.8090 48.4231 46.0259 -4.0722 13.9199
# 5 3.8778 22.2547 10.4347 -4.0722 62.2166 -4.1062
# 6 26.0114 60.8131 13.5951 13.9199 -4.1062 58.4935
#
#
#
# Elastic Compliance Matrix: (Units=1/GPa)
#
#
# Indices 1 2 3 4 5 6 
#
# 1 0.025023 -0.006684 -0.007849 0.008673 0.002435 -0.004247
# 2 -0.006684 0.012478 -0.000841 -0.005605 -0.004854 -0.008812
# 3 -0.007849 -0.000841 0.013686 -0.013016 -0.002084 0.004135
# 4 0.008673 -0.005605 -0.013016 0.039555 0.005973 -0.003998
# 5 0.002435 -0.004854 -0.002084 0.005973 0.018684 0.004338
# 6 -0.004247 -0.008812 0.004135 -0.003998 0.004338 0.028440
#
#
# Mechanical properties :
#
#
# Convention : Reuss Voigt Hill
#
# Bulk Modulus (GPa) = 48.93136 88.98826 68.95981
# Shear Modulus (GPa) = 28.50178 48.18879 38.34528
#
# Velocity S-wave (km/s) = 3.25504 4.23246 3.77551
# Velocity P-wave (km/s) = 5.68479 7.54755 6.68140
#
# Compressibility (1/GPa) = 0.02043679
#
# Stress axis : x y z
#
# Youngs Moduli (GPa) = 39.96375 80.14127 73.06858
#
# Poissons Ratio (x) = 0.53569 0.57354
# Poissons Ratio (y) = 0.26713 0.06146
# Poissons Ratio (z) = 0.31369 0.06741
#
# Static dielectric constant tensor:
#      x y z
#    x 2.204590 -0.079280 0.083250 
#    y -0.079280 2.135700 -0.010780 
#    z 0.083250 -0.010780 2.136880 
# 
# From -- ./inp_files/371432.got.cif
#   From: 2010.05.17/outbox.cif.g08.bks.cpg/sg2_186_cif.got.tgz:371432.got - 2010.06.03 11:33:40.
