data_PCOD9086955
_publ_section_title
;
Structure prediction by ZEFSAII (Michael W. Deem and Ramdas Pophale) SiO2 
 PCOD9086955
Probable space group: P -1
;
_chemical_formula_sum "Si O2"
_cell_formula_units_Z 14
_cell_length_a 8.451223
_cell_length_b 6.014094
_cell_length_c 14.039598
_cell_angle_alpha 85.113818
_cell_angle_beta 71.915155
_cell_angle_gamma 67.894497
_cell_volume 628.062333
_symmetry_space_group_name_H-M "P -1"
_symmetry_group_IT_number 2
_symmetry_cell_setting 'triclinic'
loop_
_space_group_symop_operation_xyz
x,y,z
-x,-y,-z
loop_
_atom_site_type_symbol
_atom_site_label
_atom_site_fract_x
_atom_site_fract_y
_atom_site_fract_z
Si Si1 0.038424 0.298840 0.635716
Si Si2 0.855236 0.244710 0.050744
Si Si3 0.671745 0.231257 0.402443
Si Si4 0.200021 0.442027 0.770202
Si Si5 0.718449 0.515870 0.554252
Si Si6 0.425532 0.003093 0.862041
Si Si7 0.357329 0.363857 0.042022
O O1 0.054559 0.392099 0.734124
O O2 0.151021 0.402632 0.539622
O O3 0.837259 0.389388 0.628175
O O4 0.159757 0.016917 0.626514
O O5 0.882500 0.391172 0.129789
O O6 0.693880 0.159897 0.113110
O O7 0.819263 0.416493 0.959806
O O8 0.000000 0.000000 0.000000
O O9 0.711710 0.415795 0.318165
O O10 0.669430 0.321819 0.508235
O O11 0.470185 0.258562 0.409011
O O12 0.357273 0.193235 0.782950
O O13 0.616221 0.796206 0.862039
O O14 0.384320 0.179443 0.955379
O O15 0.500000 0.500000 0.000000
#
# Coordination Sequence:
#
# PCOD9086955 Si02
#       7
#     2   2   2   2   2   2   2
#     4  10  19  36  61  85 124 155 194 247 291 350
#     4  10  20  35  60  80 109 152 202 246 294 352
#     4  10  19  36  61  87 123 155 194 241 294 357
#     4  10  21  34  57  82 119 160 191 245 308 346
#     4   9  20  35  61  93 112 157 204 229 291 367
#     4   9  17  34  58  74 107 146 187 240 293 349
#     4   8  16  31  56  81  98 135 192 236 289 345
#
# _framework density 22.290779000000001
#
# number of rings (size 3 to 8) (size 9 to 14) (size 15 to 20)
#    0.000    2.571    0.000    1.714    0.000    2.286 
#    0.000    0.000   81.714    0.000    0.000    0.000 
#    0.000    0.000    0.000    0.000    0.000    0.000 
#
# Total GULP energy -77977.005140 kJ/mol
# GULP energy per Si atom -5569.786081 kJ/mol
# Density = 2.224004 g / cm^3
# Si number density = 22.290779 Si / 1000 Ang^3
#
#
#
# Elastic Constant Matrix: (Units=GPa)
#
#
# Indices 1 2 3 4 5 6 
#
# 1 87.9566 40.5732 45.2348 -2.6239 37.2867 -10.4628
# 2 40.5732 160.5443 59.7639 -19.7524 36.7720 -29.8773
# 3 45.2348 59.7639 91.2079 -15.0364 34.5400 -18.0752
# 4 -2.6239 -19.7524 -15.0364 25.7927 -10.7928 12.4173
# 5 37.2867 36.7720 34.5400 -10.7928 33.4432 -9.4811
# 6 -10.4628 -29.8773 -18.0752 12.4173 -9.4811 40.0198
#
#
#
# Elastic Compliance Matrix: (Units=1/GPa)
#
#
# Indices 1 2 3 4 5 6 
#
# 1 0.024464 0.000328 -0.003579 -0.011772 -0.027099 0.002257
# 2 0.000328 0.009620 -0.003137 0.001011 -0.006226 0.004062
# 3 -0.003579 -0.003137 0.020196 0.003044 -0.011843 0.002094
# 4 -0.011772 0.001011 0.003044 0.056051 0.023327 -0.012814
# 5 -0.027099 -0.006226 -0.011843 0.023327 0.085572 -0.004046
# 6 0.002257 0.004062 0.002094 -0.012814 -0.004046 0.032573
#
#
# Mechanical properties :
#
#
# Convention : Reuss Voigt Hill
#
# Bulk Modulus (GPa) = 24.09391 70.09472 47.09431
# Shear Modulus (GPa) = 19.60117 32.79362 26.19739
#
# Velocity S-wave (km/s) = 2.96858 3.83975 3.43192
# Velocity P-wave (km/s) = 4.75209 7.15347 6.07266
#
# Compressibility (1/GPa) = 0.04150427
#
# Stress axis : x y z
#
# Youngs Moduli (GPa) = 40.87694 103.95076 49.51450
#
# Poissons Ratio (x) = -0.03414 0.17722
# Poissons Ratio (y) = -0.01342 0.15532
# Poissons Ratio (z) = 0.14631 0.32608
#
# Static dielectric constant tensor:
#      x y z
#    x 1.855060 0.046100 0.058650 
#    y 0.046100 1.723960 -0.057810 
#    z 0.058650 -0.057810 1.813710 
# 
# From -- ./inp_files/36054.got.cif
#   From: 2010.05.17/outbox.cif.g08.bks.cpg/sg2_19_cif.got.tgz:36054.got - 2010.06.03 11:33:40.
