data_PCOD9086205
_publ_section_title
;
Structure prediction by ZEFSAII (Michael W. Deem and Ramdas Pophale) SiO2 
 PCOD9086205
Probable space group: P -1
;
_chemical_formula_sum "Si O2"
_cell_formula_units_Z 16
_cell_length_a 11.760703
_cell_length_b 12.554537
_cell_length_c 16.709581
_cell_angle_alpha 45.225241
_cell_angle_beta 30.480931
_cell_angle_gamma 33.621016
_cell_volume 692.160286
_symmetry_space_group_name_H-M "P -1"
_symmetry_group_IT_number 2
_symmetry_cell_setting 'triclinic'
loop_
_space_group_symop_operation_xyz
x,y,z
-x,-y,-z
loop_
_atom_site_type_symbol
_atom_site_label
_atom_site_fract_x
_atom_site_fract_y
_atom_site_fract_z
Si Si1 0.730395 0.620135 0.394099
Si Si2 0.580650 0.332990 0.899649
Si Si3 0.554231 0.149428 0.862452
Si Si4 0.773712 0.763637 0.744501
Si Si5 0.082321 0.867209 0.600357
Si Si6 0.729867 0.807061 0.148778
Si Si7 0.871552 0.870901 0.237985
Si Si8 0.763969 0.234146 0.091155
O O1 0.407178 0.711549 0.516616
O O2 0.847104 0.638757 0.229256
O O3 0.738978 0.761120 0.372020
O O4 0.971116 0.393548 0.387240
O O5 0.485485 0.299477 0.891575
O O6 0.480792 0.543739 0.862893
O O7 0.921592 0.191449 0.779516
O O8 0.426048 0.291729 0.080857
O O9 0.378760 0.231607 0.842881
O O10 0.888707 0.020492 0.705286
O O11 0.500000 0.000000 0.000000
O O12 0.948873 0.762392 0.713261
O O13 0.535054 0.994225 0.752006
O O14 0.000000 0.000000 0.500000
O O15 0.975632 0.826660 0.974632
O O16 0.673582 0.100577 0.227905
O O17 0.087170 0.800856 0.067209
#
# Coordination Sequence:
#
# PCOD9086205 Si02
#       8
#     2   2   2   2   2   2   2   2
#     4  11  22  38  61  90 115 166 200 245 295 361
#     4  12  21  36  57  94 121 157 197 249 304 350
#     4  11  21  37  64  86 125 160 191 254 305 351
#     4  11  20  35  63  87 124 150 202 249 296 360
#     4  11  22  41  63  87 125 159 198 247 300 361
#     4  10  19  36  56  87 122 151 195 244 302 340
#     4  10  21  34  57  84 124 156 201 247 293 350
#     4  10  20  33  57  88 121 156 198 249 298 344
#
# _framework density 23.116033999999999
#
# number of rings (size 3 to 8) (size 9 to 14) (size 15 to 20)
#    0.000    1.250    8.750    0.750    0.000    0.500 
#    0.000    0.625    0.000    0.750    0.000    0.000 
#    0.000    0.000    0.000    0.000    0.000    0.000 
#
# Total GULP energy -89232.601122 kJ/mol
# GULP energy per Si atom -5577.037570 kJ/mol
# Density = 2.306342 g / cm^3
# Si number density = 23.116034 Si / 1000 Ang^3
#
#
#
# Elastic Constant Matrix: (Units=GPa)
#
#
# Indices 1 2 3 4 5 6 
#
# 1 75.6591 1.3488 -1.3680 -9.6484 -19.6007 9.9812
# 2 1.3488 98.4947 -0.0456 -12.7307 6.1573 11.8426
# 3 -1.3680 -0.0456 29.0423 6.1706 -15.1311 -3.5786
# 4 -9.6484 -12.7307 6.1706 14.3433 6.1467 -10.2462
# 5 -19.6007 6.1573 -15.1311 6.1467 31.7553 3.1433
# 6 9.9812 11.8426 -3.5786 -10.2462 3.1433 29.7120
#
#
#
# Elastic Compliance Matrix: (Units=1/GPa)
#
#
# Indices 1 2 3 4 5 6 
#
# 1 0.018976 -0.001774 0.013081 -0.010797 0.021377 -0.010077
# 2 -0.001774 0.014187 -0.013744 0.027401 -0.016138 0.004442
# 3 0.013081 -0.013744 0.091140 -0.095632 0.075538 -0.028909
# 4 -0.010797 0.027401 -0.095632 0.224021 -0.107821 0.069848
# 5 0.021377 -0.016138 0.075538 -0.107821 0.108670 -0.040329
# 6 -0.010077 0.004442 -0.028909 0.069848 -0.040329 0.060143
#
#
# Mechanical properties :
#
#
# Convention : Reuss Voigt Hill
#
# Bulk Modulus (GPa) = 8.37324 22.56294 15.46809
# Shear Modulus (GPa) = 8.89965 28.71285 18.80625
#
# Velocity S-wave (km/s) = 1.96427 3.52819 2.85539
# Velocity P-wave (km/s) = 2.96219 5.13609 4.19250
#
# Compressibility (1/GPa) = 0.11942811
#
# Stress axis : x y z
#
# Youngs Moduli (GPa) = 52.69863 70.48631 10.97218
#
# Poissons Ratio (x) = 0.12505 -0.14352
# Poissons Ratio (y) = 0.09349 0.15080
# Poissons Ratio (z) = -0.68934 0.96876
#
# Static dielectric constant tensor:
#      x y z
#    x 1.912710 -0.003570 -0.013620 
#    y -0.003570 1.907240 0.014100 
#    z -0.013620 0.014100 1.892350 
# 
# From -- ./inp_files/568634.got.cif
#   From: 2010.05.17/outbox.cif.g08.bks.cpg/sg2_285_cif.got.tgz:568634.got - 2010.06.03 11:33:40.
