data_PCOD9086620
_publ_section_title
;
Structure prediction by ZEFSAII (Michael W. Deem and Ramdas Pophale) SiO2 
 PCOD9086620
Probable space group: P -1
;
_chemical_formula_sum "Si O2"
_cell_formula_units_Z 16
_cell_length_a 11.258912
_cell_length_b 7.071088
_cell_length_c 12.731959
_cell_angle_alpha 68.000990
_cell_angle_beta 136.828757
_cell_angle_gamma 99.243770
_cell_volume 632.807397
_symmetry_space_group_name_H-M "P -1"
_symmetry_group_IT_number 2
_symmetry_cell_setting 'triclinic'
loop_
_space_group_symop_operation_xyz
x,y,z
-x,-y,-z
loop_
_atom_site_type_symbol
_atom_site_label
_atom_site_fract_x
_atom_site_fract_y
_atom_site_fract_z
Si Si1 0.873503 0.476424 0.827533
Si Si2 0.317435 0.704899 0.535141
Si Si3 0.010266 0.255943 0.532955
Si Si4 0.341474 0.891843 0.879904
Si Si5 0.249915 0.832208 0.044419
Si Si6 0.777372 0.717803 0.525965
Si Si7 0.501797 0.872226 0.780532
Si Si8 0.069636 0.894873 0.177173
O O1 0.743114 0.336813 0.824584
O O2 0.791706 0.674046 0.668173
O O3 0.970155 0.334644 0.823641
O O4 0.000000 0.500000 0.000000
O O5 0.299357 0.472608 0.538936
O O6 0.162199 0.778883 0.506532
O O7 0.260466 0.842578 0.365405
O O8 0.496176 0.734944 0.701925
O O9 0.178084 0.083461 0.714518
O O10 0.045161 0.251356 0.429728
O O11 0.000000 0.500000 0.500000
O O12 0.415052 0.778397 0.844539
O O13 0.500000 0.000000 0.000000
O O14 0.319762 0.747128 0.994820
O O15 0.330089 0.030854 0.095628
O O16 0.051990 0.941451 0.863991
O O17 0.632423 0.916977 0.373530
O O18 0.000000 0.000000 0.000000
#
# Coordination Sequence:
#
# PCOD9086620 Si02
#       8
#     2   2   2   2   2   2   2   2
#     4  10  22  37  58  84 112 153 196 246 291 345
#     4  10  19  36  59  87 113 152 199 238 293 348
#     4   9  17  32  58  84 113 154 190 244 294 339
#     4   9  18  34  58  86 119 153 194 239 297 354
#     4  10  20  39  59  82 119 156 191 236 300 350
#     4   9  21  37  54  87 122 143 198 249 285 343
#     4  10  22  36  61  88 119 156 190 242 297 352
#     4   9  19  36  57  79 110 146 194 240 274 347
#
# _framework density 25.284154000000001
#
# number of rings (size 3 to 8) (size 9 to 14) (size 15 to 20)
#    0.000    2.500    1.250    0.000    3.500    3.500 
#    2.250    5.625    0.000   14.250    0.000    0.000 
#    0.000    0.000    0.000    0.000    0.000    0.000 
#
# Total GULP energy -89073.259825 kJ/mol
# GULP energy per Si atom -5567.078739 kJ/mol
# Density = 2.522661 g / cm^3
# Si number density = 25.284154 Si / 1000 Ang^3
#
#
#
# Elastic Constant Matrix: (Units=GPa)
#
#
# Indices 1 2 3 4 5 6 
#
# 1 62.6340 11.5065 27.5005 -8.0326 -26.2354 10.3068
# 2 11.5065 76.4316 32.1772 17.3723 4.3164 -4.4211
# 3 27.5005 32.1772 103.8201 12.7327 -36.5869 11.3513
# 4 -8.0326 17.3723 12.7327 43.2652 1.1599 -4.2107
# 5 -26.2354 4.3164 -36.5869 1.1599 42.6493 -6.0855
# 6 10.3068 -4.4211 11.3513 -4.2107 -6.0855 22.3984
#
#
#
# Elastic Compliance Matrix: (Units=1/GPa)
#
#
# Indices 1 2 3 4 5 6 
#
# 1 0.025686 -0.007219 0.001374 0.006010 0.016353 -0.008368
# 2 -0.007219 0.020533 -0.009195 -0.005809 -0.013199 0.007356
# 3 0.001374 -0.009195 0.019540 -0.003068 0.017454 -0.008184
# 4 0.006010 -0.005809 -0.003068 0.027742 0.001359 0.003227
# 5 0.016353 -0.013199 0.017454 0.001359 0.049007 -0.005405
# 6 -0.008368 0.007356 -0.008184 0.003227 -0.005405 0.053235
#
#
# Mechanical properties :
#
#
# Convention : Reuss Voigt Hill
#
# Bulk Modulus (GPa) = 28.02778 42.80601 35.41689
# Shear Modulus (GPa) = 21.03364 33.10933 27.07149
#
# Velocity S-wave (km/s) = 2.88738 3.62261 3.27569
# Velocity P-wave (km/s) = 4.71435 5.87065 5.32398
#
# Compressibility (1/GPa) = 0.03567889
#
# Stress axis : x y z
#
# Youngs Moduli (GPa) = 38.93169 48.70296 51.17760
#
# Poissons Ratio (x) = 0.35159 -0.07032
# Poissons Ratio (y) = 0.28105 0.47057
# Poissons Ratio (z) = -0.05350 0.44782
#
# Static dielectric constant tensor:
#      x y z
#    x 2.251330 0.014170 0.011770 
#    y 0.014170 2.058630 0.042370 
#    z 0.011770 0.042370 2.070410 
# 
# From -- ./inp_files/257894.got.cif
#   From: 2010.05.17/outbox.cif.g08.bks.cpg/sg2_129_cif.got.tgz:257894.got - 2010.06.03 11:33:40.
