data_PCOD9086462
_publ_section_title
;
Structure prediction by ZEFSAII (Michael W. Deem and Ramdas Pophale) SiO2 
 PCOD9086462
Probable space group: P -1
;
_chemical_formula_sum "Si O2"
_cell_formula_units_Z 16
_cell_length_a 9.256898
_cell_length_b 5.104628
_cell_length_c 13.577314
_cell_angle_alpha 90.765390
_cell_angle_beta 101.325764
_cell_angle_gamma 75.799902
_cell_volume 609.444796
_symmetry_space_group_name_H-M "P -1"
_symmetry_group_IT_number 2
_symmetry_cell_setting 'triclinic'
loop_
_space_group_symop_operation_xyz
x,y,z
-x,-y,-z
loop_
_atom_site_type_symbol
_atom_site_label
_atom_site_fract_x
_atom_site_fract_y
_atom_site_fract_z
Si Si1 0.572287 0.019427 0.705232
Si Si2 0.048145 0.377154 0.897660
Si Si3 0.105739 0.243954 0.457542
Si Si4 0.193629 0.807803 0.641650
Si Si5 0.865485 0.929756 0.832799
Si Si6 0.616295 0.654032 0.475427
Si Si7 0.354580 0.208501 0.024550
Si Si8 0.466332 0.571957 0.796207
O O1 0.742820 0.049800 0.733848
O O2 0.483844 0.089853 0.593009
O O3 0.483103 0.261765 0.767798
O O4 0.556981 0.727684 0.735326
O O5 0.976968 0.121733 0.871806
O O6 0.230552 0.319665 0.923455
O O7 0.962088 0.627421 0.821505
O O8 0.000000 0.500000 0.000000
O O9 0.253207 0.312927 0.432520
O O10 0.000000 0.500000 0.500000
O O11 0.985828 0.161276 0.368940
O O12 0.177782 0.035282 0.554332
O O13 0.284472 0.540399 0.595472
O O14 0.295237 0.767213 0.755030
O O15 0.749982 0.907865 0.910082
O O16 0.500000 0.500000 0.500000
O O17 0.435488 0.415529 0.092372
O O18 0.500000 0.000000 0.000000
#
# Coordination Sequence:
#
# PCOD9086462 Si02
#       8
#     2   2   2   2   2   2   2   2
#     4  10  19  36  58  87 113 156 202 240 289 360
#     4  10  19  36  59  84 109 156 195 232 290 366
#     4   9  17  33  57  82 107 153 200 231 286 361
#     4   9  18  34  58  80 109 157 199 232 285 364
#     4  10  20  37  61  81 113 158 199 233 287 366
#     4  10  20  33  56  88 119 149 192 254 298 339
#     4  10  21  37  62  93 120 149 199 258 304 342
#     4  10  20  36  58  86 116 154 197 247 293 357
#
# _framework density 26.253402000000001
#
# number of rings (size 3 to 8) (size 9 to 14) (size 15 to 20)
#    0.000    2.250    1.250    3.750    0.000    1.500 
#    0.000   15.625    8.250    4.500    0.000    0.000 
#    0.000    0.000    0.000    0.000    0.000    0.000 
#
# Total GULP energy -89321.071693 kJ/mol
# GULP energy per Si atom -5582.566981 kJ/mol
# Density = 2.619365 g / cm^3
# Si number density = 26.253402 Si / 1000 Ang^3
#
#
#
# Elastic Constant Matrix: (Units=GPa)
#
#
# Indices 1 2 3 4 5 6 
#
# 1 190.1740 25.3468 64.4541 -7.0799 62.6927 -4.6951
# 2 25.3468 85.6199 29.7594 -10.5957 11.3984 -8.8991
# 3 64.4541 29.7594 97.6266 -9.7156 39.8607 4.1077
# 4 -7.0799 -10.5957 -9.7156 44.7956 -5.5126 14.0349
# 5 62.6927 11.3984 39.8607 -5.5126 66.5325 -2.6738
# 6 -4.6951 -8.8991 4.1077 14.0349 -2.6738 45.8174
#
#
#
# Elastic Compliance Matrix: (Units=1/GPa)
#
#
# Indices 1 2 3 4 5 6 
#
# 1 0.008306 -0.000618 -0.002937 -0.000450 -0.005967 0.000784
# 2 -0.000618 0.013609 -0.004065 0.001563 0.000917 0.002519
# 3 -0.002937 -0.004065 0.016400 0.002515 -0.006302 -0.003699
# 4 -0.000450 0.001563 0.002515 0.025670 0.000463 -0.007804
# 5 -0.005967 0.000917 -0.006302 0.000463 0.024366 0.001412
# 6 0.000784 0.002519 -0.003699 -0.007804 0.001412 0.025200
#
#
# Mechanical properties :
#
#
# Convention : Reuss Voigt Hill
#
# Bulk Modulus (GPa) = 43.33737 68.06014 55.69875
# Shear Modulus (GPa) = 36.63490 48.35311 42.49401
#
# Velocity S-wave (km/s) = 3.73960 4.29626 4.02756
# Velocity P-wave (km/s) = 5.93206 7.11274 6.54906
#
# Compressibility (1/GPa) = 0.02307478
#
# Stress axis : x y z
#
# Youngs Moduli (GPa) = 120.40053 73.48296 60.97485
#
# Poissons Ratio (x) = 0.04541 0.17906
# Poissons Ratio (y) = 0.07440 0.24787
# Poissons Ratio (z) = 0.35358 0.29872
#
# Static dielectric constant tensor:
#      x y z
#    x 2.120590 0.027620 -0.007330 
#    y 0.027620 2.069610 0.044450 
#    z -0.007330 0.044450 2.297980 
# 
# From -- ./inp_files/553448.got.cif
#   From: 2010.05.17/outbox.cif.g08.bks.cpg/sg2_277_cif.got.tgz:553448.got - 2010.06.03 11:33:40.
