data_PCOD9086105
_publ_section_title
;
Structure prediction by ZEFSAII (Michael W. Deem and Ramdas Pophale) SiO2 
 PCOD9086105
Probable space group: P -1
;
_chemical_formula_sum "Si O2"
_cell_formula_units_Z 12
_cell_length_a 13.917424
_cell_length_b 8.264107
_cell_length_c 5.633122
_cell_angle_alpha 66.588381
_cell_angle_beta 102.857670
_cell_angle_gamma 59.643072
_cell_volume 433.566910
_symmetry_space_group_name_H-M "P -1"
_symmetry_group_IT_number 2
_symmetry_cell_setting 'triclinic'
loop_
_space_group_symop_operation_xyz
x,y,z
-x,-y,-z
loop_
_atom_site_type_symbol
_atom_site_label
_atom_site_fract_x
_atom_site_fract_y
_atom_site_fract_z
Si Si1 0.169097 0.162704 0.666290
Si Si2 0.912293 0.364591 0.674146
Si Si3 0.594492 0.543323 0.434371
Si Si4 0.376748 0.001385 0.230624
Si Si5 0.096819 0.979234 0.381449
Si Si6 0.607387 0.626362 0.882382
O O1 0.179588 0.357306 0.491952
O O2 0.017527 0.304173 0.569771
O O3 0.192818 0.996273 0.566520
O O4 0.259539 0.031798 0.025956
O O5 0.855147 0.244305 0.623155
O O6 0.003139 0.211953 0.035088
O O7 0.500000 0.500000 0.500000
O O8 0.676137 0.477607 0.763669
O O9 0.383599 0.503890 0.805560
O O10 0.500221 0.171137 0.779611
O O11 0.332896 0.253506 0.093716
O O12 0.454165 0.846255 0.599531
O O13 0.000000 0.000000 0.500000
#
# Coordination Sequence:
#
# PCOD9086105 Si02
#       6
#     2   2   2   2   2   2
#     4  10  19  36  54  86 106 151 191 230 286 342
#     4   9  19  35  58  77 114 147 186 238 285 337
#     4  10  19  37  60  82 113 154 189 237 290 337
#     4   9  21  34  56  79 115 147 193 232 283 346
#     4   9  18  35  54  76 109 145 187 233 285 332
#     4   9  20  38  57  81 117 153 186 236 287 340
#
# _framework density 27.677389000000002
#
# number of rings (size 3 to 8) (size 9 to 14) (size 15 to 20)
#    1.000    1.667    0.000    1.500    0.000    1.333 
#    3.000    5.000    0.000    0.000    0.000    0.000 
#    0.000    0.000    0.000    0.000    0.000    0.000 
#
# Total GULP energy -66970.531637 kJ/mol
# GULP energy per Si atom -5580.877636 kJ/mol
# Density = 2.761439 g / cm^3
# Si number density = 27.677389 Si / 1000 Ang^3
#
#
#
# Elastic Constant Matrix: (Units=GPa)
#
#
# Indices 1 2 3 4 5 6 
#
# 1 63.9128 46.2088 74.2386 22.0955 6.4703 20.2582
# 2 46.2088 175.9723 80.8513 38.2561 -6.4524 28.9706
# 3 74.2386 80.8513 157.8742 28.6337 -4.2775 24.1671
# 4 22.0955 38.2561 28.6337 51.7561 5.6511 7.8231
# 5 6.4703 -6.4524 -4.2775 5.6511 54.4088 25.3402
# 6 20.2582 28.9706 24.1671 7.8231 25.3402 37.3240
#
#
#
# Elastic Compliance Matrix: (Units=1/GPa)
#
#
# Indices 1 2 3 4 5 6 
#
# 1 0.039482 -0.000257 -0.015986 -0.006371 -0.001281 -0.008675
# 2 -0.000257 0.009481 -0.002451 -0.004880 0.005288 -0.008200
# 3 -0.015986 -0.002451 0.015532 -0.000062 0.003786 -0.002035
# 4 -0.006371 -0.004880 -0.000062 0.025419 -0.004940 0.005313
# 5 -0.001281 0.005288 0.003786 -0.004940 0.032490 -0.026884
# 6 -0.008675 -0.008200 -0.002035 0.005313 -0.026884 0.056322
#
#
# Mechanical properties :
#
#
# Convention : Reuss Voigt Hill
#
# Bulk Modulus (GPa) = 36.88966 88.92853 62.90910
# Shear Modulus (GPa) = 22.20737 41.79516 32.00127
#
# Velocity S-wave (km/s) = 2.83568 3.89019 3.40402
# Velocity P-wave (km/s) = 4.90702 7.23729 6.18292
#
# Compressibility (1/GPa) = 0.02710786
#
# Stress axis : x y z
#
# Youngs Moduli (GPa) = 25.32792 105.47168 64.38332
#
# Poissons Ratio (x) = 0.02708 1.02922
# Poissons Ratio (y) = 0.00650 0.15781
# Poissons Ratio (z) = 0.40489 0.25852
#
# Static dielectric constant tensor:
#      x y z
#    x 2.255060 0.007080 -0.016210 
#    y 0.007080 2.317540 -0.004660 
#    z -0.016210 -0.004660 2.123250 
# 
# From -- ./inp_files/106527.got.cif
#   From: 2010.05.17/outbox.cif.g08.bks.cpg/sg2_54_cif.got.tgz:106527.got - 2010.06.03 11:33:40.
