data_PCOD9086722
_publ_section_title
;
Structure prediction by ZEFSAII (Michael W. Deem and Ramdas Pophale) SiO2 
 PCOD9086722
Probable space group: P -1
;
_chemical_formula_sum "Si O2"
_cell_formula_units_Z 16
_cell_length_a 9.636502
_cell_length_b 16.834170
_cell_length_c 7.290633
_cell_angle_alpha 52.611518
_cell_angle_beta 108.520826
_cell_angle_gamma 122.210088
_cell_volume 795.049755
_symmetry_space_group_name_H-M "P -1"
_symmetry_group_IT_number 2
_symmetry_cell_setting 'triclinic'
loop_
_space_group_symop_operation_xyz
x,y,z
-x,-y,-z
loop_
_atom_site_type_symbol
_atom_site_label
_atom_site_fract_x
_atom_site_fract_y
_atom_site_fract_z
Si Si1 0.497935 0.543024 0.677641
Si Si2 0.241968 0.356730 0.044720
Si Si3 0.481466 0.851493 0.850567
Si Si4 0.976177 0.110308 0.343064
Si Si5 0.636538 0.392112 0.786603
Si Si6 0.750941 0.157648 0.919935
Si Si7 0.037094 0.588982 0.228415
Si Si8 0.749612 0.089961 0.593229
O O1 0.604640 0.608710 0.803356
O O2 0.616092 0.498323 0.696774
O O3 0.438188 0.619825 0.432148
O O4 0.335472 0.426084 0.807812
O O5 0.133632 0.223912 0.189139
O O6 0.115345 0.410577 0.946665
O O7 0.359274 0.867619 0.633426
O O8 0.657141 0.954615 0.747204
O O9 0.465072 0.727740 0.992921
O O10 0.413686 0.860697 0.013109
O O11 0.917555 0.128224 0.496212
O O12 0.830806 0.094418 0.163632
O O13 0.000000 0.000000 0.500000
O O14 0.824275 0.416888 0.831899
O O15 0.873612 0.288616 0.813333
O O16 0.747899 0.127816 0.748023
O O17 0.000000 0.500000 0.500000
#
# Coordination Sequence:
#
# PCOD9086722 Si02
#       8
#     2   2   2   2   2   2   2   2
#     4  10  22  39  60  86 122 160 192 254 304 360
#     4  10  22  41  58  85 124 156 203 246 302 361
#     4   9  20  37  59  88 119 151 202 250 294 364
#     4  10  23  39  57  87 120 157 202 248 295 362
#     4  10  21  38  59  90 117 155 203 243 309 359
#     4   9  20  37  58  84 119 153 198 252 296 353
#     4  10  19  36  60  84 116 155 197 247 292 356
#     4  10  20  38  59  87 118 157 198 250 304 346
#
# _framework density 20.124525999999999
#
# number of rings (size 3 to 8) (size 9 to 14) (size 15 to 20)
#    0.000    2.250    1.250    1.125    1.750    4.000 
#    4.500    0.000    0.000    0.000    0.000    0.000 
#    0.000    0.000    0.000    0.000    0.000    0.000 
#
# Total GULP energy -89118.563009 kJ/mol
# GULP energy per Si atom -5569.910188 kJ/mol
# Density = 2.007872 g / cm^3
# Si number density = 20.124526 Si / 1000 Ang^3
#
#
#
# Elastic Constant Matrix: (Units=GPa)
#
#
# Indices 1 2 3 4 5 6 
#
# 1 50.9481 12.5631 13.4233 -0.5753 7.0559 1.4758
# 2 12.5631 18.4289 15.7237 -3.9868 -11.2043 0.9054
# 3 13.4233 15.7237 99.2299 -18.8245 -0.9267 -0.1652
# 4 -0.5753 -3.9868 -18.8245 35.7275 -6.7620 -10.4711
# 5 7.0559 -11.2043 -0.9267 -6.7620 27.2011 -3.3857
# 6 1.4758 0.9054 -0.1652 -10.4711 -3.3857 26.3485
#
#
#
# Elastic Compliance Matrix: (Units=1/GPa)
#
#
# Indices 1 2 3 4 5 6 
#
# 1 0.036359 -0.047701 -0.000445 -0.014495 -0.034009 -0.010530
# 2 -0.047701 0.155201 -0.010903 0.033675 0.087019 0.021835
# 3 -0.000445 -0.010903 0.012982 0.005970 -0.002128 0.002580
# 4 -0.014495 0.033675 0.005970 0.047464 0.032462 0.022726
# 5 -0.034009 0.087019 -0.002128 0.032462 0.092372 0.023671
# 6 -0.010530 0.021835 0.002580 0.022726 0.023671 0.049882
#
#
# Mechanical properties :
#
#
# Convention : Reuss Voigt Hill
#
# Bulk Modulus (GPa) = 11.56807 28.00298 19.78553
# Shear Modulus (GPa) = 9.23920 26.31521 17.77720
#
# Velocity S-wave (km/s) = 2.14499 3.62002 2.97536
# Velocity P-wave (km/s) = 3.44897 5.60516 4.65367
#
# Compressibility (1/GPa) = 0.08644481
#
# Stress axis : x y z
#
# Youngs Moduli (GPa) = 27.50369 6.44326 77.02814
#
# Poissons Ratio (x) = 0.30735 0.03425
# Poissons Ratio (y) = 1.31197 0.83980
# Poissons Ratio (z) = 0.01223 0.07025
#
# Static dielectric constant tensor:
#      x y z
#    x 1.768700 -0.013350 -0.028360 
#    y -0.013350 1.725310 0.033290 
#    z -0.028360 0.033290 1.749800 
# 
# From -- ./inp_files/214475.got.cif
#   From: 2010.05.17/outbox.cif.g08.bks.cpg/sg2_108_cif.got.tgz:214475.got - 2010.06.03 11:33:40.
