data_PCOD9086089
_publ_section_title
;
Structure prediction by ZEFSAII (Michael W. Deem and Ramdas Pophale) SiO2 
 PCOD9086089
Probable space group: P -1
;
_chemical_formula_sum "Si O2"
_cell_formula_units_Z 16
_cell_length_a 15.572739
_cell_length_b 15.492744
_cell_length_c 8.811850
_cell_angle_alpha 108.697371
_cell_angle_beta 102.205785
_cell_angle_gamma 139.957512
_cell_volume 857.453977
_symmetry_space_group_name_H-M "P -1"
_symmetry_group_IT_number 2
_symmetry_cell_setting 'triclinic'
loop_
_space_group_symop_operation_xyz
x,y,z
-x,-y,-z
loop_
_atom_site_type_symbol
_atom_site_label
_atom_site_fract_x
_atom_site_fract_y
_atom_site_fract_z
Si Si1 0.302987 0.858695 0.766348
Si Si2 0.867838 0.938894 0.807604
Si Si3 0.883402 0.493694 0.570260
Si Si4 0.439004 0.730875 0.918977
Si Si5 0.354751 0.507378 0.013391
Si Si6 0.519988 0.399302 0.335679
Si Si7 0.843826 0.634729 0.820466
Si Si8 0.705515 0.704789 0.334903
O O1 0.209378 0.692319 0.530813
O O2 0.115483 0.702693 0.721542
O O3 0.500000 0.000000 0.000000
O O4 0.396072 0.039955 0.842801
O O5 0.646425 0.729680 0.678069
O O6 0.869935 0.898702 0.618391
O O7 0.000000 0.000000 0.000000
O O8 0.949366 0.117548 0.941832
O O9 0.746706 0.400155 0.322433
O O10 0.865068 0.550558 0.728201
O O11 0.537476 0.748462 0.852504
O O12 0.359500 0.598537 0.956377
O O13 0.277479 0.462985 0.124584
O O14 0.575139 0.666141 0.198788
O O15 0.230277 0.309293 0.773804
O O16 0.723960 0.570932 0.601541
O O17 0.558368 0.508907 0.281396
#
# Coordination Sequence:
#
# PCOD9086089 Si02
#       8
#     2   2   2   2   2   2   2   2
#     4   9  17  36  63  87 105 133 175 226 272 330
#     4  12  21  31  56  81 102 147 200 236 270 311
#     4   9  19  35  61  87 107 133 180 225 274 325
#     4   9  19  35  57  81 109 146 177 221 275 329
#     4  10  21  37  53  75 120 152 181 225 277 318
#     4  10  19  36  54  76 111 143 193 241 266 302
#     4  11  21  35  54  81 113 146 182 234 271 319
#     4  10  20  37  54  75 109 158 191 228 271 314
#
# _framework density 18.659894999999999
#
# number of rings (size 3 to 8) (size 9 to 14) (size 15 to 20)
#    0.000    2.000    2.500    1.875    0.000    0.500 
#    2.250    0.625    0.000    6.750    0.000    0.000 
#    0.000    0.000    0.000    0.000    0.000    0.000 
#
# Total GULP energy -89184.126369 kJ/mol
# GULP energy per Si atom -5574.007898 kJ/mol
# Density = 1.861742 g / cm^3
# Si number density = 18.659895 Si / 1000 Ang^3
#
#
#
# Elastic Constant Matrix: (Units=GPa)
#
#
# Indices 1 2 3 4 5 6 
#
# 1 95.4316 29.2969 40.2103 5.2715 -28.3608 2.8970
# 2 29.2969 64.6233 26.8836 1.2360 -14.5273 -3.0054
# 3 40.2103 26.8836 89.6734 1.6415 -28.0872 -1.8959
# 4 5.2715 1.2360 1.6415 32.0456 0.4312 -2.4339
# 5 -28.3608 -14.5273 -28.0872 0.4312 36.4482 2.5258
# 6 2.8970 -3.0054 -1.8959 -2.4339 2.5258 23.9822
#
#
#
# Elastic Compliance Matrix: (Units=1/GPa)
#
#
# Indices 1 2 3 4 5 6 
#
# 1 0.015908 -0.004058 -0.003275 -0.002701 0.008536 -0.003862
# 2 -0.004058 0.019208 -0.003344 0.000263 0.001746 0.002476
# 3 -0.003275 -0.003344 0.016362 -0.000263 0.008708 0.000326
# 4 -0.002701 0.000263 -0.000263 0.031987 -0.002847 0.003884
# 5 0.008536 0.001746 0.008708 -0.002847 0.041853 -0.004821
# 6 -0.003862 0.002476 0.000326 0.003884 -0.004821 0.043402
#
#
# Mechanical properties :
#
#
# Convention : Reuss Voigt Hill
#
# Bulk Modulus (GPa) = 33.19769 49.16776 41.18273
# Shear Modulus (GPa) = 24.98565 28.71769 26.85167
#
# Velocity S-wave (km/s) = 3.66321 3.92727 3.79754
# Velocity P-wave (km/s) = 5.97676 6.85356 6.43012
#
# Compressibility (1/GPa) = 0.03012257
#
# Stress axis : x y z
#
# Youngs Moduli (GPa) = 62.86206 52.06165 61.11790
#
# Poissons Ratio (x) = 0.21129 0.20016
# Poissons Ratio (y) = 0.25512 0.20439
# Poissons Ratio (z) = 0.20587 0.17410
#
# Static dielectric constant tensor:
#      x y z
#    x 1.672340 -0.015080 -0.016620 
#    y -0.015080 1.627850 0.018130 
#    z -0.016620 0.018130 1.699670 
# 
# From -- ./inp_files/105204.got.cif
#   From: 2010.05.17/outbox.cif.g08.bks.cpg/sg2_53_cif.got.tgz:105204.got - 2010.06.03 11:33:40.
