data_PCOD9086242
_publ_section_title
;
Structure prediction by ZEFSAII (Michael W. Deem and Ramdas Pophale) SiO2 
 PCOD9086242
Probable space group: P -1
;
_chemical_formula_sum "Si O2"
_cell_formula_units_Z 14
_cell_length_a 13.645084
_cell_length_b 17.291585
_cell_length_c 8.701619
_cell_angle_alpha 34.324877
_cell_angle_beta 144.287033
_cell_angle_gamma 145.627645
_cell_volume 596.351125
_symmetry_space_group_name_H-M "P -1"
_symmetry_group_IT_number 2
_symmetry_cell_setting 'triclinic'
loop_
_space_group_symop_operation_xyz
x,y,z
-x,-y,-z
loop_
_atom_site_type_symbol
_atom_site_label
_atom_site_fract_x
_atom_site_fract_y
_atom_site_fract_z
Si Si1 0.498721 0.576141 0.538575
Si Si2 0.173820 0.044473 0.036621
Si Si3 0.671379 0.228739 0.634659
Si Si4 0.716330 0.216498 0.346833
Si Si5 0.383893 0.332545 0.017428
Si Si6 0.129571 0.471660 0.421614
Si Si7 0.336531 0.087949 0.874225
O O1 0.500000 0.500000 0.500000
O O2 0.538471 0.490914 0.874024
O O3 0.279481 0.534332 0.368356
O O4 0.640835 0.759519 0.432327
O O5 0.156519 0.024780 0.864389
O O6 0.268712 0.941596 0.382324
O O7 0.300750 0.222911 0.943719
O O8 0.000000 0.000000 0.000000
O O9 0.704422 0.243197 0.469440
O O10 0.834332 0.375745 0.688378
O O11 0.656893 0.063523 0.937586
O O12 0.483538 0.253435 0.374716
O O13 0.526770 0.174211 0.081234
O O14 0.910325 0.357040 0.300178
O O15 0.212425 0.368544 0.786985
#
# Coordination Sequence:
#
# PCOD9086242 Si02
#       7
#     2   2   2   2   2   2   2
#     4  10  20  37  55  82 113 151 187 227 280 337
#     4  11  17  33  57  85 107 139 193 235 268 322
#     4  11  20  37  57  85 114 144 188 237 279 325
#     4  11  20  34  57  88 111 142 188 239 275 324
#     4  10  19  36  57  80 111 148 190 224 278 331
#     4  10  23  34  57  84 115 151 185 227 285 334
#     4  11  21  35  60  84 115 148 182 236 281 327
#
# _framework density 23.476102999999998
#
# number of rings (size 3 to 8) (size 9 to 14) (size 15 to 20)
#    0.857    0.571    5.714    1.714    0.000    1.143 
#    0.000    0.000    0.000    0.000    0.000    6.000 
#    0.000    0.000    0.000    0.000    0.000    0.000 
#
# Total GULP energy -78006.327886 kJ/mol
# GULP energy per Si atom -5571.880563 kJ/mol
# Density = 2.342267 g / cm^3
# Si number density = 23.476103 Si / 1000 Ang^3
#
#
#
# Elastic Constant Matrix: (Units=GPa)
#
#
# Indices 1 2 3 4 5 6 
#
# 1 80.5991 22.3232 7.7568 -2.9446 21.6775 13.0816
# 2 22.3232 72.3273 23.2484 -29.8351 16.9404 -4.2440
# 3 7.7568 23.2484 81.4702 -32.8646 24.8188 -3.8812
# 4 -2.9446 -29.8351 -32.8646 36.0281 -10.8553 3.2114
# 5 21.6775 16.9404 24.8188 -10.8553 25.2124 -12.3103
# 6 13.0816 -4.2440 -3.8812 3.2114 -12.3103 35.0439
#
#
#
# Elastic Compliance Matrix: (Units=1/GPa)
#
#
# Indices 1 2 3 4 5 6 
#
# 1 0.029314 -0.004578 0.009688 -0.004164 -0.046302 -0.026308
# 2 -0.004578 0.024512 0.004449 0.021744 -0.007242 0.000634
# 3 0.009688 0.004449 0.029840 0.021303 -0.039064 -0.015447
# 4 -0.004164 0.021744 0.021303 0.063370 -0.005257 -0.001107
# 5 -0.046302 -0.007242 -0.039064 -0.005257 0.152887 0.066269
# 6 -0.026308 0.000634 -0.015447 -0.001107 0.066269 0.060103
#
#
# Mechanical properties :
#
#
# Convention : Reuss Voigt Hill
#
# Bulk Modulus (GPa) = 9.72919 37.89482 23.81200
# Shear Modulus (GPa) = 13.32737 31.32807 22.32772
#
# Velocity S-wave (km/s) = 2.38523 3.65700 3.08731
# Velocity P-wave (km/s) = 3.42623 5.83167 4.78265
#
# Compressibility (1/GPa) = 0.10278351
#
# Stress axis : x y z
#
# Youngs Moduli (GPa) = 34.11392 40.79684 33.51158
#
# Poissons Ratio (x) = 0.18676 -0.32465
# Poissons Ratio (y) = 0.15617 -0.14909
# Poissons Ratio (z) = -0.33049 -0.18150
#
# Static dielectric constant tensor:
#      x y z
#    x 1.968650 0.022160 -0.018520 
#    y 0.022160 1.939610 -0.016680 
#    z -0.018520 -0.016680 1.969930 
# 
# From -- ./inp_files/457064.got.cif
#   From: 2010.05.17/outbox.cif.g08.bks.cpg/sg2_229_cif.got.tgz:457064.got - 2010.06.03 11:33:40.
