data_PCOD9086343
_publ_section_title
;
Structure prediction by ZEFSAII (Michael W. Deem and Ramdas Pophale) SiO2 
 PCOD9086343
Probable space group: P -1
;
_chemical_formula_sum "Si O2"
_cell_formula_units_Z 12
_cell_length_a 10.672169
_cell_length_b 8.195623
_cell_length_c 10.656037
_cell_angle_alpha 52.427369
_cell_angle_beta 124.609421
_cell_angle_gamma 136.717201
_cell_volume 493.078830
_symmetry_space_group_name_H-M "P -1"
_symmetry_group_IT_number 2
_symmetry_cell_setting 'triclinic'
loop_
_space_group_symop_operation_xyz
x,y,z
-x,-y,-z
loop_
_atom_site_type_symbol
_atom_site_label
_atom_site_fract_x
_atom_site_fract_y
_atom_site_fract_z
Si Si1 0.857581 0.148103 0.469213
Si Si2 0.237079 0.044377 0.034064
Si Si3 0.371402 0.382018 0.360581
Si Si4 0.420616 0.734941 0.013372
Si Si5 0.903684 0.604127 0.175580
Si Si6 0.057257 0.920099 0.725946
O O1 0.874238 0.403897 0.354699
O O2 0.036336 0.153775 0.611970
O O3 0.685131 0.902021 0.557330
O O4 0.843643 0.064049 0.353921
O O5 0.457802 0.189273 0.080069
O O6 0.185685 0.241777 0.931889
O O7 0.152476 0.924423 0.905055
O O8 0.122478 0.818405 0.173506
O O9 0.500000 0.500000 0.500000
O O10 0.454175 0.567162 0.202394
O O11 0.163326 0.317563 0.295341
O O12 0.204365 0.563468 0.931227
O O13 0.500000 0.000000 0.000000
#
# Coordination Sequence:
#
# PCOD9086343 Si02
#       6
#     2   2   2   2   2   2
#     4   9  20  36  63  82 119 152 200 243 292 344
#     4  11  24  40  62  85 126 162 191 248 295 356
#     4  10  19  36  57  89 121 146 196 253 293 341
#     4  12  25  38  66  90 119 155 203 248 297 349
#     4  11  23  43  58  89 124 159 201 235 301 362
#     4   9  19  37  59  88 114 151 199 246 288 341
#
# _framework density 24.336879
#
# number of rings (size 3 to 8) (size 9 to 14) (size 15 to 20)
#    1.000    0.667    1.667    3.500    2.333    2.000 
#    0.000    0.833    0.000    0.000    0.000    0.000 
#    0.000    0.000    0.000    0.000    0.000    0.000 
#
# Total GULP energy -66992.824455 kJ/mol
# GULP energy per Si atom -5582.735371 kJ/mol
# Density = 2.428149 g / cm^3
# Si number density = 24.336879 Si / 1000 Ang^3
#
#
#
# Elastic Constant Matrix: (Units=GPa)
#
#
# Indices 1 2 3 4 5 6 
#
# 1 41.5683 30.6474 -0.7018 -34.8564 2.0277 0.4423
# 2 30.6474 107.1188 49.0979 -26.1120 -4.1165 3.4844
# 3 -0.7018 49.0979 91.5576 -32.3039 10.9874 5.4227
# 4 -34.8564 -26.1120 -32.3039 62.7395 0.9600 -4.2351
# 5 2.0277 -4.1165 10.9874 0.9600 19.3582 -5.1334
# 6 0.4423 3.4844 5.4227 -4.2351 -5.1334 30.5869
#
#
#
# Elastic Compliance Matrix: (Units=1/GPa)
#
#
# Indices 1 2 3 4 5 6 
#
# 1 0.185534 -0.069740 0.094689 0.123569 -0.096971 -0.010690
# 2 -0.069740 0.039686 -0.043200 -0.044785 0.043893 0.005312
# 3 0.094689 -0.043200 0.067600 0.069768 -0.063431 -0.009418
# 4 0.123569 -0.044785 0.069768 0.102495 -0.068851 -0.006418
# 5 -0.096971 0.043893 -0.063431 -0.068851 0.115192 0.017447
# 6 -0.010690 0.005312 -0.009418 -0.006418 0.017447 0.035952
#
#
# Mechanical properties :
#
#
# Convention : Reuss Voigt Hill
#
# Bulk Modulus (GPa) = 3.90139 44.25908 24.08024
# Shear Modulus (GPa) = 7.48054 33.28365 20.38210
#
# Velocity S-wave (km/s) = 1.75511 3.70215 2.89710
# Velocity P-wave (km/s) = 2.39035 6.04153 4.59423
#
# Compressibility (1/GPa) = 0.25631892
#
# Stress axis : x y z
#
# Youngs Moduli (GPa) = 5.38983 25.19772 14.79296
#
# Poissons Ratio (x) = 1.75730 -1.40073
# Poissons Ratio (y) = 0.37589 0.63905
# Poissons Ratio (z) = -0.51036 1.08853
#
# Static dielectric constant tensor:
#      x y z
#    x 2.006950 -0.008420 -0.007990 
#    y -0.008420 1.977960 -0.020880 
#    z -0.007990 -0.020880 1.981580 
# 
# From -- ./inp_files/153942.got.cif
#   From: 2010.05.17/outbox.cif.g08.bks.cpg/sg2_77_cif.got.tgz:153942.got - 2010.06.03 11:33:40.
