data_PCOD9086594
_publ_section_title
;
Structure prediction by ZEFSAII (Michael W. Deem and Ramdas Pophale) SiO2 
 PCOD9086594
Probable space group: P -1
;
_chemical_formula_sum "Si O2"
_cell_formula_units_Z 14
_cell_length_a 8.417261
_cell_length_b 15.576648
_cell_length_c 7.743826
_cell_angle_alpha 64.313143
_cell_angle_beta 80.009254
_cell_angle_gamma 36.825125
_cell_volume 519.360539
_symmetry_space_group_name_H-M "P -1"
_symmetry_group_IT_number 2
_symmetry_cell_setting 'triclinic'
loop_
_space_group_symop_operation_xyz
x,y,z
-x,-y,-z
loop_
_atom_site_type_symbol
_atom_site_label
_atom_site_fract_x
_atom_site_fract_y
_atom_site_fract_z
Si Si1 0.622583 0.814284 0.481738
Si Si2 0.258486 0.076355 0.858560
Si Si3 0.490399 0.337553 0.521470
Si Si4 0.191728 0.543208 0.069204
Si Si5 0.150203 0.471879 0.807135
Si Si6 0.991288 0.844377 0.803379
Si Si7 0.085335 0.993196 0.797099
O O1 0.800897 0.807381 0.354161
O O2 0.569609 0.743814 0.444757
O O3 0.844793 0.670753 0.704996
O O4 0.303271 0.009035 0.376913
O O5 0.324217 0.953839 0.832633
O O6 0.047894 0.151764 0.984679
O O7 0.500000 0.000000 0.000000
O O8 0.381723 0.452176 0.283259
O O9 0.321521 0.428377 0.651167
O O10 0.821793 0.183913 0.618095
O O11 0.929989 0.601477 0.128348
O O12 0.310012 0.424917 0.990121
O O13 0.138524 0.673399 0.888944
O O14 0.114462 0.892566 0.744376
O O15 0.000000 0.000000 0.000000
#
# Coordination Sequence:
#
# PCOD9086594 Si02
#       7
#     2   2   2   2   2   2   2
#     4   9  17  31  56  84 115 153 197 247 291 340
#     4   9  16  30  56  87 111 140 190 243 291 349
#     4  10  19  36  59  85 121 156 192 243 299 355
#     4  10  20  34  57  87 122 161 200 243 292 348
#     4  10  20  34  55  88 122 159 203 242 291 350
#     4   9  17  31  53  83 117 152 195 245 291 343
#     4   9  19  34  58  86 113 153 196 240 301 355
#
# _framework density 26.956223000000001
#
# number of rings (size 3 to 8) (size 9 to 14) (size 15 to 20)
#    0.000    2.571    0.000    4.286    0.000    2.857 
#    0.000    6.429    0.000    9.429    0.000    4.000 
#    0.000    0.000    0.000    0.000    0.000    0.000 
#
# Total GULP energy -78133.758881 kJ/mol
# GULP energy per Si atom -5580.982777 kJ/mol
# Density = 2.689487 g / cm^3
# Si number density = 26.956223 Si / 1000 Ang^3
#
#
#
# Elastic Constant Matrix: (Units=GPa)
#
#
# Indices 1 2 3 4 5 6 
#
# 1 113.0595 45.8096 32.3738 -8.5508 2.0155 20.2802
# 2 45.8096 78.4684 54.8754 -12.7089 2.1434 -4.4448
# 3 32.3738 54.8754 144.8102 -15.0673 8.0767 -14.7022
# 4 -8.5508 -12.7089 -15.0673 44.7592 -2.0960 0.9134
# 5 2.0155 2.1434 8.0767 -2.0960 40.9777 -7.6233
# 6 20.2802 -4.4448 -14.7022 0.9134 -7.6233 30.6012
#
#
#
# Elastic Compliance Matrix: (Units=1/GPa)
#
#
# Indices 1 2 3 4 5 6 
#
# 1 0.014857 -0.008417 -0.001227 0.000177 -0.002317 -0.012241
# 2 -0.008417 0.022473 -0.005791 0.002773 0.001713 0.006404
# 3 -0.001227 -0.005791 0.010020 0.001368 -0.000691 0.004573
# 4 0.000177 0.002773 0.001368 0.023655 0.000871 0.000454
# 5 -0.002317 0.001713 -0.000691 0.000871 0.026083 0.007924
# 6 -0.012241 0.006404 0.004573 0.000454 0.007924 0.045878
#
#
# Mechanical properties :
#
#
# Convention : Reuss Voigt Hill
#
# Bulk Modulus (GPa) = 60.68227 66.93953 63.81090
# Shear Modulus (GPa) = 27.88180 36.81956 32.35068
#
# Velocity S-wave (km/s) = 3.21960 3.69982 3.46803
# Velocity P-wave (km/s) = 6.03170 6.56796 6.30553
#
# Compressibility (1/GPa) = 0.01647928
#
# Stress axis : x y z
#
# Youngs Moduli (GPa) = 67.30869 44.49854 99.80380
#
# Poissons Ratio (x) = 0.37453 0.12247
# Poissons Ratio (y) = 0.56652 0.57798
# Poissons Ratio (z) = 0.08259 0.25770
#
# Static dielectric constant tensor:
#      x y z
#    x 2.272770 0.021450 0.183620 
#    y 0.021450 2.086340 -0.376430 
#    z 0.183620 -0.376430 1.204880 
# 
# From -- ./inp_files/200879.got.cif
#   From: 2010.05.17/outbox.cif.g08.bks.cpg/sg2_101_cif.got.tgz:200879.got - 2010.06.03 11:33:40.
