data_PCOD9086098
_publ_section_title
;
Structure prediction by ZEFSAII (Michael W. Deem and Ramdas Pophale) SiO2 
 PCOD9086098
Probable space group: P -1
;
_chemical_formula_sum "Si O2"
_cell_formula_units_Z 14
_cell_length_a 8.819487
_cell_length_b 14.671766
_cell_length_c 13.478570
_cell_angle_alpha 29.008823
_cell_angle_beta 116.200832
_cell_angle_gamma 95.111726
_cell_volume 554.556091
_symmetry_space_group_name_H-M "P -1"
_symmetry_group_IT_number 2
_symmetry_cell_setting 'triclinic'
loop_
_space_group_symop_operation_xyz
x,y,z
-x,-y,-z
loop_
_atom_site_type_symbol
_atom_site_label
_atom_site_fract_x
_atom_site_fract_y
_atom_site_fract_z
Si Si1 0.575222 0.597585 0.076626
Si Si2 0.231056 0.883942 0.538060
Si Si3 0.028678 0.965474 0.924309
Si Si4 0.384786 0.141783 0.687470
Si Si5 0.869355 0.707919 0.349516
Si Si6 0.714428 0.226481 0.001822
Si Si7 0.629584 0.992771 0.713221
O O1 0.325212 0.815391 0.741376
O O2 0.503548 0.555511 0.200587
O O3 0.669549 0.738773 0.976295
O O4 0.705825 0.361262 0.263606
O O5 0.378395 0.926927 0.477677
O O6 0.956538 0.113572 0.225565
O O7 0.258201 0.747196 0.132468
O O8 0.990613 0.214945 0.649132
O O9 0.843312 0.953557 0.850377
O O10 0.000000 0.000000 0.000000
O O11 0.208238 0.349218 0.521866
O O12 0.419310 0.194492 0.537150
O O13 0.312121 0.979849 0.807001
O O14 0.633545 0.957298 0.989956
O O15 0.000000 0.500000 0.500000
#
# Coordination Sequence:
#
# PCOD9086098 Si02
#       7
#     2   2   2   2   2   2   2
#     4  10  21  40  63  87 116 156 189 246 301 349
#     4  10  21  39  63  90 117 146 201 240 296 362
#     4  10  19  36  54  82 118 150 189 239 278 336
#     4   9  19  35  55  79 116 146 191 242 277 340
#     4  10  20  36  58  78 109 159 196 233 287 331
#     4   9  20  36  60  83 119 153 191 241 292 344
#     4  10  20  37  60  86 121 151 193 244 289 342
#
# _framework density 25.245417
#
# number of rings (size 3 to 8) (size 9 to 14) (size 15 to 20)
#    0.000    2.286    1.429    0.857    0.000    6.857 
#    2.571    5.000    0.000   15.429    0.000    0.000 
#    0.000    0.000    0.000    0.000    0.000    0.000 
#
# Total GULP energy -78157.638456 kJ/mol
# GULP energy per Si atom -5582.688461 kJ/mol
# Density = 2.518796 g / cm^3
# Si number density = 25.245417 Si / 1000 Ang^3
#
#
#
# Elastic Constant Matrix: (Units=GPa)
#
#
# Indices 1 2 3 4 5 6 
#
# 1 186.4027 62.4047 32.9109 -23.0881 -2.4481 -18.5020
# 2 62.4047 110.4771 14.0871 -17.7692 6.6446 0.3606
# 3 32.9109 14.0871 57.7440 -16.7398 3.3660 4.4056
# 4 -23.0881 -17.7692 -16.7398 28.2776 4.5053 2.7494
# 5 -2.4481 6.6446 3.3660 4.5053 50.1089 -8.9489
# 6 -18.5020 0.3606 4.4056 2.7494 -8.9489 72.0877
#
#
#
# Elastic Compliance Matrix: (Units=1/GPa)
#
#
# Indices 1 2 3 4 5 6 
#
# 1 0.007621 -0.003736 -0.003246 0.001514 0.001358 0.002284
# 2 -0.003736 0.012121 0.001145 0.005832 -0.002685 -0.001645
# 3 -0.003246 0.001145 0.022972 0.012540 -0.003546 -0.003161
# 4 0.001514 0.005832 0.012540 0.049024 -0.006500 -0.003084
# 5 0.001358 -0.002685 -0.003546 -0.006500 0.021833 0.003537
# 6 0.002284 -0.001645 -0.003161 -0.003084 0.003537 0.015216
#
#
# Mechanical properties :
#
#
# Convention : Reuss Voigt Hill
#
# Bulk Modulus (GPa) = 32.21793 63.71437 47.96615
# Shear Modulus (GPa) = 33.15469 46.44290 39.79879
#
# Velocity S-wave (km/s) = 3.62787 4.29377 3.97479
# Velocity P-wave (km/s) = 5.50801 7.06221 6.33297
#
# Compressibility (1/GPa) = 0.03103861
#
# Stress axis : x y z
#
# Youngs Moduli (GPa) = 131.21884 82.50149 43.53132
#
# Poissons Ratio (x) = 0.30826 0.14132
# Poissons Ratio (y) = 0.49028 -0.04985
# Poissons Ratio (z) = 0.42598 -0.09447
#
# Static dielectric constant tensor:
#      x y z
#    x 1.977610 -0.035990 -0.005100 
#    y -0.035990 2.046420 0.085100 
#    z -0.005100 0.085100 2.170010 
# 
# From -- ./inp_files/89230.got.cif
#   From: 2010.05.17/outbox.cif.g08.bks.cpg/sg2_45_cif.got.tgz:89230.got - 2010.06.03 11:33:40.
