data_PCOD9086640
_publ_section_title
;
Structure prediction by ZEFSAII (Michael W. Deem and Ramdas Pophale) SiO2 
 PCOD9086640
Probable space group: P -1
;
_chemical_formula_sum "Si O2"
_cell_formula_units_Z 16
_cell_length_a 12.081126
_cell_length_b 9.448612
_cell_length_c 8.034013
_cell_angle_alpha 93.270647
_cell_angle_beta 117.269490
_cell_angle_gamma 67.756308
_cell_volume 746.907832
_symmetry_space_group_name_H-M "P -1"
_symmetry_group_IT_number 2
_symmetry_cell_setting 'triclinic'
loop_
_space_group_symop_operation_xyz
x,y,z
-x,-y,-z
loop_
_atom_site_type_symbol
_atom_site_label
_atom_site_fract_x
_atom_site_fract_y
_atom_site_fract_z
Si Si1 0.826238 0.052639 0.210538
Si Si2 0.349631 0.118583 0.846063
Si Si3 0.370979 0.678134 0.725628
Si Si4 0.353818 0.439808 0.918361
Si Si5 0.691286 0.900650 0.576401
Si Si6 0.503647 0.752092 0.497126
Si Si7 0.095488 0.959208 0.225259
Si Si8 0.300133 0.700817 0.151869
O O1 0.754886 0.158973 0.326917
O O2 0.986809 0.984914 0.298071
O O3 0.763954 0.925840 0.150202
O O4 0.758707 0.168235 0.019055
O O5 0.339413 0.099844 0.640289
O O6 0.313911 0.296135 0.870075
O O7 0.500000 0.000000 0.000000
O O8 0.483834 0.646074 0.946434
O O9 0.454501 0.691895 0.623533
O O10 0.318552 0.546435 0.735447
O O11 0.297250 0.550972 0.047888
O O12 0.649855 0.763546 0.609478
O O13 0.833623 0.918051 0.701666
O O14 0.591089 0.067619 0.588056
O O15 0.453862 0.669704 0.311197
O O16 0.205872 0.784064 0.252405
O O17 0.000000 0.000000 0.000000
#
# Coordination Sequence:
#
# PCOD9086640 Si02
#       8
#     2   2   2   2   2   2   2   2
#     4  10  19  37  64  85 118 161 203 242 301 360
#     4  12  21  37  60  93 126 153 202 254 302 357
#     4  10  20  36  56  91 117 162 195 240 310 360
#     4  10  22  36  57  87 129 156 196 243 308 370
#     4  10  21  34  58  96 120 152 206 258 297 349
#     4  10  19  36  59  88 127 147 198 257 303 352
#     4   9  20  39  62  86 120 162 204 249 300 355
#     4   9  20  38  60  89 119 162 197 244 305 366
#
# _framework density 21.421652999999999
#
# number of rings (size 3 to 8) (size 9 to 14) (size 15 to 20)
#    0.000    2.000    2.500    0.750    3.500    5.000 
#    0.000    0.625    0.000    8.250    0.000    2.625 
#    0.000    0.000    0.000    0.000    0.000    0.000 
#
# Total GULP energy -89121.434550 kJ/mol
# GULP energy per Si atom -5570.089659 kJ/mol
# Density = 2.137290 g / cm^3
# Si number density = 21.421653 Si / 1000 Ang^3
#
#
#
# Elastic Constant Matrix: (Units=GPa)
#
#
# Indices 1 2 3 4 5 6 
#
# 1 146.5877 71.6769 44.0838 8.4181 8.7692 11.4663
# 2 71.6769 146.9773 32.6764 18.2403 0.8972 21.7120
# 3 44.0838 32.6764 86.7596 16.8494 1.4138 12.8699
# 4 8.4181 18.2403 16.8494 31.2969 0.6563 -4.3229
# 5 8.7692 0.8972 1.4138 0.6563 31.9956 8.3646
# 6 11.4663 21.7120 12.8699 -4.3229 8.3646 34.1617
#
#
#
# Elastic Compliance Matrix: (Units=1/GPa)
#
#
# Indices 1 2 3 4 5 6 
#
# 1 0.010253 -0.004697 -0.004233 0.002634 -0.003130 0.002239
# 2 -0.004697 0.010775 0.000550 -0.006340 0.002920 -0.006996
# 3 -0.004233 0.000550 0.016146 -0.008851 0.002367 -0.006711
# 4 0.002634 -0.006340 -0.008851 0.041564 -0.004353 0.012805
# 5 -0.003130 0.002920 0.002367 -0.004353 0.034832 -0.010777
# 6 0.002239 -0.006996 -0.006711 0.012805 -0.010777 0.039755
#
#
# Mechanical properties :
#
#
# Convention : Reuss Voigt Hill
#
# Bulk Modulus (GPa) = 48.98912 75.24429 62.11671
# Shear Modulus (GPa) = 28.26646 34.95001 31.60824
#
# Velocity S-wave (km/s) = 3.63647 4.04360 3.84543
# Velocity P-wave (km/s) = 6.36793 7.55000 6.98402
#
# Compressibility (1/GPa) = 0.02041269
#
# Stress axis : x y z
#
# Youngs Moduli (GPa) = 97.53665 92.81070 61.93648
#
# Poissons Ratio (x) = 0.43596 0.26217
# Poissons Ratio (y) = 0.45816 -0.03407
# Poissons Ratio (z) = 0.41286 -0.05106
#
# Static dielectric constant tensor:
#      x y z
#    x 1.914860 0.000980 -0.068230 
#    y 0.000980 1.833860 0.039330 
#    z -0.068230 0.039330 1.947480 
# 
# From -- ./inp_files/244155.got.cif
#   From: 2010.05.17/outbox.cif.g08.bks.cpg/sg2_123_cif.got.tgz:244155.got - 2010.06.03 11:33:40.
