data_PCOD9086623
_publ_section_title
;
Structure prediction by ZEFSAII (Michael W. Deem and Ramdas Pophale) SiO2 
 PCOD9086623
Probable space group: P -1
;
_chemical_formula_sum "Si O2"
_cell_formula_units_Z 16
_cell_length_a 8.481529
_cell_length_b 8.886097
_cell_length_c 12.188650
_cell_angle_alpha 74.556542
_cell_angle_beta 120.566415
_cell_angle_gamma 120.220278
_cell_volume 683.415432
_symmetry_space_group_name_H-M "P -1"
_symmetry_group_IT_number 2
_symmetry_cell_setting 'triclinic'
loop_
_space_group_symop_operation_xyz
x,y,z
-x,-y,-z
loop_
_atom_site_type_symbol
_atom_site_label
_atom_site_fract_x
_atom_site_fract_y
_atom_site_fract_z
Si Si1 0.551976 0.837622 0.146733
Si Si2 0.406018 0.226269 0.240464
Si Si3 0.000877 0.668762 0.265331
Si Si4 0.364793 0.606850 0.926871
Si Si5 0.442409 0.889184 0.334479
Si Si6 0.980210 0.036111 0.178764
Si Si7 0.167092 0.155518 0.457836
Si Si8 0.289020 0.418305 0.627409
O O1 0.463742 0.896184 0.207751
O O2 0.644126 0.718335 0.262872
O O3 0.740305 0.985881 0.116154
O O4 0.393091 0.713848 0.026265
O O5 0.536315 0.272755 0.166363
O O6 0.520261 0.394554 0.325479
O O7 0.164906 0.166094 0.140910
O O8 0.425361 0.062002 0.330063
O O9 0.864610 0.526117 0.157301
O O10 0.900596 0.597340 0.362110
O O11 0.237609 0.723777 0.328927
O O12 0.980365 0.847876 0.202228
O O13 0.500000 0.500000 0.000000
O O14 0.633746 0.875530 0.456208
O O15 0.075963 0.125378 0.311193
O O16 0.218582 0.339567 0.497698
O O17 0.000000 0.000000 0.500000
#
# Coordination Sequence:
#
# PCOD9086623 Si02
#       8
#     2   2   2   2   2   2   2   2
#     4  10  19  37  63  82 114 158 191 232 282 350
#     4  10  22  36  56  90 120 141 194 250 281 326
#     4   9  18  34  56  85 115 148 191 231 284 340
#     4  11  19  38  65  81 112 161 194 229 288 346
#     4  10  22  37  57  90 120 143 191 247 283 335
#     4  10  19  36  59  87 114 150 200 231 281 346
#     4  11  19  38  67  80 111 164 193 220 291 355
#     4   9  18  37  59  81 115 153 194 225 279 349
#
# _framework density 23.411822999999998
#
# number of rings (size 3 to 8) (size 9 to 14) (size 15 to 20)
#    0.000    2.000    7.500    0.000    0.000    4.000 
#    0.000    5.625    2.750    0.000    0.000    0.000 
#    0.000    0.000    0.000    0.000    0.000    0.000 
#
# Total GULP energy -89412.608191 kJ/mol
# GULP energy per Si atom -5588.288012 kJ/mol
# Density = 2.335854 g / cm^3
# Si number density = 23.411823 Si / 1000 Ang^3
#
#
#
# Elastic Constant Matrix: (Units=GPa)
#
#
# Indices 1 2 3 4 5 6 
#
# 1 81.5494 36.6457 10.4250 18.9615 8.6496 12.2508
# 2 36.6457 100.4072 35.0015 34.3810 6.3762 11.9204
# 3 10.4250 35.0015 84.1528 34.1736 -14.5297 -9.2925
# 4 18.9615 34.3810 34.1736 35.3685 -4.8616 0.8777
# 5 8.6496 6.3762 -14.5297 -4.8616 34.6208 13.2591
# 6 12.2508 11.9204 -9.2925 0.8777 13.2591 32.7294
#
#
#
# Elastic Compliance Matrix: (Units=1/GPa)
#
#
# Indices 1 2 3 4 5 6 
#
# 1 0.015961 -0.003452 0.001489 -0.006908 -0.002513 -0.003091
# 2 -0.003452 0.017190 -0.002612 -0.012750 -0.003710 -0.003866
# 3 0.001489 -0.002612 0.021800 -0.018817 0.004618 0.005218
# 4 -0.006908 -0.012750 -0.018817 0.063423 0.005932 -0.002217
# 5 -0.002513 -0.003710 0.004618 0.005932 0.037459 -0.011732
# 6 -0.003091 -0.003866 0.005218 -0.002217 -0.011732 0.039412
#
#
# Mechanical properties :
#
#
# Convention : Reuss Voigt Hill
#
# Bulk Modulus (GPa) = 21.83414 47.80599 34.82006
# Shear Modulus (GPa) = 22.76219 32.81288 27.78753
#
# Velocity S-wave (km/s) = 3.12148 3.74779 3.44888
# Velocity P-wave (km/s) = 4.72629 6.26034 5.54661
#
# Compressibility (1/GPa) = 0.04579984
#
# Stress axis : x y z
#
# Youngs Moduli (GPa) = 62.65429 58.17313 45.87138
#
# Poissons Ratio (x) = 0.20082 -0.06829
# Poissons Ratio (y) = 0.21629 0.11982
# Poissons Ratio (z) = -0.09327 0.15195
#
# Static dielectric constant tensor:
#      x y z
#    x 1.940260 0.009660 -0.008990 
#    y 0.009660 1.903200 -0.046600 
#    z -0.008990 -0.046600 1.904520 
# 
# From -- ./inp_files/495077.got.cif
#   From: 2010.05.17/outbox.cif.g08.bks.cpg/sg2_248_cif.got.tgz:495077.got - 2010.06.03 11:33:40.
