data_PCOD9086920
_publ_section_title
;
Structure prediction by ZEFSAII (Michael W. Deem and Ramdas Pophale) SiO2 
 PCOD9086920
Probable space group: P -1
;
_chemical_formula_sum "Si O2"
_cell_formula_units_Z 14
_cell_length_a 9.248448
_cell_length_b 12.749352
_cell_length_c 9.653331
_cell_angle_alpha 130.248829
_cell_angle_beta 129.799628
_cell_angle_gamma 65.422914
_cell_volume 667.450298
_symmetry_space_group_name_H-M "P -1"
_symmetry_group_IT_number 2
_symmetry_cell_setting 'triclinic'
loop_
_space_group_symop_operation_xyz
x,y,z
-x,-y,-z
loop_
_atom_site_type_symbol
_atom_site_label
_atom_site_fract_x
_atom_site_fract_y
_atom_site_fract_z
Si Si1 0.795953 0.429032 0.305774
Si Si2 0.357199 0.366968 0.395863
Si Si3 0.214533 0.583440 0.305733
Si Si4 0.911507 0.036790 0.828221
Si Si5 0.347824 0.186530 0.473567
Si Si6 0.752399 0.317470 0.889588
Si Si7 0.018244 0.769761 0.558016
O O1 0.658882 0.519614 0.393442
O O2 0.833939 0.283760 0.281349
O O3 0.000000 0.500000 0.500000
O O4 0.737344 0.407466 0.094862
O O5 0.227002 0.431720 0.251751
O O6 0.574788 0.359894 0.481069
O O7 0.301191 0.228188 0.321286
O O8 0.193449 0.596624 0.140027
O O9 0.069245 0.682334 0.380262
O O10 0.701775 0.971048 0.661435
O O11 0.014774 0.935288 0.694870
O O12 0.895142 0.192667 0.905422
O O13 0.000000 0.000000 0.000000
O O14 0.553514 0.243382 0.674941
O O15 0.191182 0.260317 0.537607
#
# Coordination Sequence:
#
# PCOD9086920 Si02
#       7
#     2   2   2   2   2   2   2
#     4  11  19  35  61  81 110 156 196 228 276 344
#     4   9  18  37  58  80 120 150 183 228 294 336
#     4   9  20  34  57  89 115 153 172 244 292 337
#     4  10  19  36  61  83 111 154 195 233 275 339
#     4   9  19  34  60  87 109 150 196 234 268 338
#     4  11  21  35  60  89 114 144 199 235 281 332
#     4   9  19  36  58  81 113 152 187 226 291 335
#
# _framework density 20.975344
#
# number of rings (size 3 to 8) (size 9 to 14) (size 15 to 20)
#    0.857    1.429    2.857    0.429    0.000    2.857 
#    0.000    2.857    6.286    3.429    0.000    0.000 
#    0.000    0.000    0.000    0.000    0.000    0.000 
#
# Total GULP energy -78003.684925 kJ/mol
# GULP energy per Si atom -5571.691780 kJ/mol
# Density = 2.092760 g / cm^3
# Si number density = 20.975344 Si / 1000 Ang^3
#
#
#
# Elastic Constant Matrix: (Units=GPa)
#
#
# Indices 1 2 3 4 5 6 
#
# 1 78.4245 12.5717 10.4226 -9.1308 -9.1054 3.5584
# 2 12.5717 101.7274 13.6059 -10.6001 -9.0481 12.2019
# 3 10.4226 13.6059 62.9952 -28.1948 -0.2818 15.5743
# 4 -9.1308 -10.6001 -28.1948 29.6312 6.3519 -2.8948
# 5 -9.1054 -9.0481 -0.2818 6.3519 26.1048 -10.9849
# 6 3.5584 12.2019 15.5743 -2.8948 -10.9849 32.3706
#
#
#
# Elastic Compliance Matrix: (Units=1/GPa)
#
#
# Indices 1 2 3 4 5 6 
#
# 1 0.013798 -0.001088 -0.001845 0.001237 0.004747 0.001502
# 2 -0.001088 0.010773 -0.000067 0.002861 0.001307 -0.003210
# 3 -0.001845 -0.000067 0.038041 0.037457 -0.018160 -0.020887
# 4 0.001237 0.002861 0.037457 0.074110 -0.025094 -0.021124
# 5 0.004747 0.001307 -0.018160 -0.025094 0.056732 0.024730
# 6 0.001502 -0.003210 -0.020887 -0.021124 0.024730 0.048490
#
#
# Mechanical properties :
#
#
# Convention : Reuss Voigt Hill
#
# Bulk Modulus (GPa) = 17.66342 35.14974 26.40658
# Shear Modulus (GPa) = 18.73971 31.39112 25.06542
#
# Velocity S-wave (km/s) = 2.99225 3.87275 3.46062
# Velocity P-wave (km/s) = 4.51413 6.06561 5.34645
#
# Compressibility (1/GPa) = 0.05661419
#
# Stress axis : x y z
#
# Youngs Moduli (GPa) = 72.47661 92.82529 26.28716
#
# Poissons Ratio (x) = 0.10095 0.04849
# Poissons Ratio (y) = 0.07882 0.00176
# Poissons Ratio (z) = 0.13369 0.00620
#
# Static dielectric constant tensor:
#      x y z
#    x 1.781430 0.010520 0.024690 
#    y 0.010520 1.828970 -0.018470 
#    z 0.024690 -0.018470 1.767460 
# 
# From -- ./inp_files/194512.got.cif
#   From: 2010.05.17/outbox.cif.g08.bks.cpg/sg2_98_cif.got.tgz:194512.got - 2010.06.03 11:33:40.
