data_PCOD9086474
_publ_section_title
;
Structure prediction by ZEFSAII (Michael W. Deem and Ramdas Pophale) SiO2 
 PCOD9086474
Probable space group: P -1
;
_chemical_formula_sum "Si O2"
_cell_formula_units_Z 16
_cell_length_a 5.183208
_cell_length_b 5.213343
_cell_length_c 22.682738
_cell_angle_alpha 76.951409
_cell_angle_beta 83.625551
_cell_angle_gamma 87.527724
_cell_volume 593.307931
_symmetry_space_group_name_H-M "P -1"
_symmetry_group_IT_number 2
_symmetry_cell_setting 'triclinic'
loop_
_space_group_symop_operation_xyz
x,y,z
-x,-y,-z
loop_
_atom_site_type_symbol
_atom_site_label
_atom_site_fract_x
_atom_site_fract_y
_atom_site_fract_z
Si Si1 0.822583 0.267299 0.388109
Si Si2 0.105971 0.502650 0.871145
Si Si3 0.449123 0.953548 0.235145
Si Si4 0.595755 0.162044 0.894123
Si Si5 0.933714 0.197292 0.255410
Si Si6 0.315857 0.628065 0.366282
Si Si7 0.752450 0.308691 0.511796
Si Si8 0.927035 0.790310 0.963229
O O1 0.861847 0.151237 0.328028
O O2 0.573824 0.456969 0.377641
O O3 0.780923 0.132858 0.460650
O O4 0.071878 0.443625 0.381047
O O5 0.337102 0.331019 0.902158
O O6 0.155705 0.561638 0.797646
O O7 0.073769 0.771171 0.896521
O O8 0.838723 0.348370 0.890546
O O9 0.750820 0.982051 0.240823
O O10 0.244998 0.195097 0.240930
O O11 0.405169 0.899279 0.171520
O O12 0.336627 0.754855 0.295716
O O13 0.642080 0.893916 0.944016
O O14 0.282584 0.815501 0.415498
O O15 0.500000 0.500000 0.500000
O O16 0.000000 0.500000 0.500000
O O17 0.000000 0.500000 0.000000
O O18 0.000000 0.000000 0.000000
#
# Coordination Sequence:
#
# PCOD9086474 Si02
#       8
#     2   2   2   2   2   2   2   2
#     4  10  19  36  58  87 122 172 232 289 359 434
#     4  12  27  50  79 109 150 199 249 306 372 440
#     4  12  24  40  65  99 139 180 234 301 368 435
#     4  12  27  50  79 109 150 199 249 306 372 440
#     4  12  24  40  65  99 139 180 234 301 368 435
#     4  10  19  36  58  87 122 172 232 289 359 434
#     4   8  16  30  54  80 116 166 226 288 348 431
#     4  12  28  54  82 120 158 203 254 309 374 456
#
# _framework density 26.967444
#
# number of rings (size 3 to 8) (size 9 to 14) (size 15 to 20)
#    0.000    1.000    2.500    4.500    0.000    1.000 
#    0.000    1.250    0.000    0.000    0.000    0.000 
#    0.000    0.000    0.000    0.000    0.000    0.000 
#
# Total GULP energy -89477.301742 kJ/mol
# GULP energy per Si atom -5592.331359 kJ/mol
# Density = 2.690606 g / cm^3
# Si number density = 26.967444 Si / 1000 Ang^3
#
#
#
# Elastic Constant Matrix: (Units=GPa)
#
#
# Indices 1 2 3 4 5 6 
#
# 1 154.5043 29.5198 26.1055 3.3984 11.7636 -14.5652
# 2 29.5198 92.8070 53.9415 12.8126 7.3810 -15.8392
# 3 26.1055 53.9415 206.3308 22.8974 20.3800 -2.3884
# 4 3.3984 12.8126 22.8974 51.3904 -2.7318 1.6008
# 5 11.7636 7.3810 20.3800 -2.7318 50.2505 -1.4447
# 6 -14.5652 -15.8392 -2.3884 1.6008 -1.4447 41.0995
#
#
#
# Elastic Compliance Matrix: (Units=1/GPa)
#
#
# Indices 1 2 3 4 5 6 
#
# 1 0.007110 -0.001663 -0.000317 -0.000037 -0.001241 0.001818
# 2 -0.001663 0.014318 -0.003192 -0.002209 -0.000401 0.004815
# 3 -0.000317 -0.003192 0.006137 -0.001998 -0.002083 -0.000981
# 4 -0.000037 -0.002209 -0.001998 0.021075 0.002240 -0.001723
# 5 -0.001241 -0.000401 -0.002083 0.002240 0.021215 -0.000057
# 6 0.001818 0.004815 -0.000981 -0.001723 -0.000057 0.026839
#
#
# Mechanical properties :
#
#
# Convention : Reuss Voigt Hill
#
# Bulk Modulus (GPa) = 58.07007 74.75286 66.41146
# Shear Modulus (GPa) = 44.33406 51.48642 47.91024
#
# Velocity S-wave (km/s) = 4.05901 4.37419 4.21954
# Velocity P-wave (km/s) = 6.59905 7.30008 6.95840
#
# Compressibility (1/GPa) = 0.01722057
#
# Stress axis : x y z
#
# Youngs Moduli (GPa) = 140.63913 69.84156 162.93650
#
# Poissons Ratio (x) = 0.11616 0.05166
# Poissons Ratio (y) = 0.23392 0.52015
# Poissons Ratio (z) = 0.04459 0.22296
#
# Static dielectric constant tensor:
#      x y z
#    x 2.075480 -0.027320 -0.034930 
#    y -0.027320 2.187750 -0.013240 
#    z -0.034930 -0.013240 2.214100 
# 
# From -- ./inp_files/125565.got.cif
#   From: 2010.05.17/outbox.cif.g08.bks.cpg/sg2_63_cif.got.tgz:125565.got - 2010.06.03 11:33:40.
