data_PCOD9086426
_publ_section_title
;
Structure prediction by ZEFSAII (Michael W. Deem and Ramdas Pophale) SiO2 
 PCOD9086426
Probable space group: P -1
;
_chemical_formula_sum "Si O2"
_cell_formula_units_Z 14
_cell_length_a 9.701244
_cell_length_b 21.584515
_cell_length_c 5.063704
_cell_angle_alpha 124.629518
_cell_angle_beta 133.244277
_cell_angle_gamma 43.713384
_cell_volume 528.102208
_symmetry_space_group_name_H-M "P -1"
_symmetry_group_IT_number 2
_symmetry_cell_setting 'triclinic'
loop_
_space_group_symop_operation_xyz
x,y,z
-x,-y,-z
loop_
_atom_site_type_symbol
_atom_site_label
_atom_site_fract_x
_atom_site_fract_y
_atom_site_fract_z
Si Si1 0.624598 0.528577 0.526067
Si Si2 0.671925 0.684414 0.919490
Si Si3 0.842067 0.789404 0.189423
Si Si4 0.186563 0.650971 0.877090
Si Si5 0.751142 0.969260 0.655799
Si Si6 0.619895 0.249009 0.820455
Si Si7 0.697552 0.077570 0.325898
O O1 0.500000 0.500000 0.500000
O O2 0.722235 0.589659 0.867126
O O3 0.417133 0.593818 0.217937
O O4 0.822753 0.433172 0.431457
O O5 0.586191 0.695795 0.531047
O O6 0.841265 0.718214 0.215748
O O7 0.472135 0.754697 0.025039
O O8 0.892148 0.861058 0.543729
O O9 0.996272 0.729185 0.002977
O O10 0.577616 0.856205 0.915070
O O11 0.257314 0.698134 0.870880
O O12 0.500000 0.000000 0.500000
O O13 0.730887 0.014278 0.458995
O O14 0.812890 0.017609 0.073043
O O15 0.762506 0.149192 0.643989
#
# Coordination Sequence:
#
# PCOD9086426 Si02
#       7
#     2   2   2   2   2   2   2
#     4  10  20  42  61  82 116 165 192 232 310 361
#     4  10  21  37  62  84 119 153 196 240 291 359
#     4  10  21  38  58  95 115 151 201 251 285 338
#     4  10  22  39  62  85 122 151 200 249 290 350
#     4  10  19  36  58  84 121 158 188 237 296 348
#     4  10  19  38  59  87 114 162 196 230 296 358
#     4  10  20  37  61  82 120 160 194 232 292 354
#
# _framework density 26.510019
#
# number of rings (size 3 to 8) (size 9 to 14) (size 15 to 20)
#    0.000    2.000    1.429    4.286    0.000    1.714 
#   12.857    2.143    0.000    0.000    0.000    1.000 
#    0.000    0.000    0.000    0.000    0.000    0.000 
#
# Total GULP energy -78333.811383 kJ/mol
# GULP energy per Si atom -5595.272242 kJ/mol
# Density = 2.644968 g / cm^3
# Si number density = 26.510019 Si / 1000 Ang^3
#
#
#
# Elastic Constant Matrix: (Units=GPa)
#
#
# Indices 1 2 3 4 5 6 
#
# 1 75.0515 12.4137 24.8703 8.8858 4.5840 10.0568
# 2 12.4137 133.3047 44.3681 29.0148 1.1841 6.0102
# 3 24.8703 44.3681 126.6880 51.9828 6.9223 3.9108
# 4 8.8858 29.0148 51.9828 63.0919 6.4246 1.3454
# 5 4.5840 1.1841 6.9223 6.4246 51.4954 13.0954
# 6 10.0568 6.0102 3.9108 1.3454 13.0954 55.6943
#
#
#
# Elastic Compliance Matrix: (Units=1/GPa)
#
#
# Indices 1 2 3 4 5 6 
#
# 1 0.014609 -0.000427 -0.002868 0.000591 -0.000391 -0.002313
# 2 -0.000427 0.008758 -0.002032 -0.002338 0.000608 -0.000812
# 3 -0.002868 -0.002032 0.013023 -0.009362 -0.000312 0.000122
# 4 0.000591 -0.002338 -0.009362 0.024745 -0.001999 0.000675
# 5 -0.000391 0.000608 -0.000312 -0.001999 0.020966 -0.004855
# 6 -0.002313 -0.000812 0.000122 0.000675 -0.004855 0.019577
#
#
# Mechanical properties :
#
#
# Convention : Reuss Voigt Hill
#
# Bulk Modulus (GPa) = 38.85724 55.37205 47.11464
# Shear Modulus (GPa) = 41.35299 50.94913 46.15106
#
# Velocity S-wave (km/s) = 3.95384 4.38868 4.17693
# Velocity P-wave (km/s) = 5.96097 6.82739 6.40884
#
# Compressibility (1/GPa) = 0.02573523
#
# Stress axis : x y z
#
# Youngs Moduli (GPa) = 68.45070 114.18441 76.78713
#
# Poissons Ratio (x) = 0.04872 0.22025
# Poissons Ratio (y) = 0.02921 0.15606
# Poissons Ratio (z) = 0.19633 0.23206
#
# Static dielectric constant tensor:
#      x y z
#    x 2.032860 -0.026180 0.104170 
#    y -0.026180 2.110690 -0.060870 
#    z 0.104170 -0.060870 2.202370 
# 
# From -- ./inp_files/53803.got.cif
#   From: 2010.05.17/outbox.cif.g08.bks.cpg/sg2_27_cif.got.tgz:53803.got - 2010.06.03 11:33:40.
