data_PCOD9086860
_publ_section_title
;
Structure prediction by ZEFSAII (Michael W. Deem and Ramdas Pophale) SiO2 
 PCOD9086860
Probable space group: P -1
;
_chemical_formula_sum "Si O2"
_cell_formula_units_Z 12
_cell_length_a 13.567940
_cell_length_b 7.301653
_cell_length_c 14.727051
_cell_angle_alpha 137.554889
_cell_angle_beta 150.327185
_cell_angle_gamma 41.832067
_cell_volume 463.253339
_symmetry_space_group_name_H-M "P -1"
_symmetry_group_IT_number 2
_symmetry_cell_setting 'triclinic'
loop_
_space_group_symop_operation_xyz
x,y,z
-x,-y,-z
loop_
_atom_site_type_symbol
_atom_site_label
_atom_site_fract_x
_atom_site_fract_y
_atom_site_fract_z
Si Si1 0.180796 0.620160 0.750759
Si Si2 0.115065 0.222522 0.856490
Si Si3 0.760364 0.615475 0.478746
Si Si4 0.823697 0.838166 0.790151
Si Si5 0.584433 0.014104 0.838894
Si Si6 0.751247 0.040934 0.312214
O O1 0.283646 0.414168 0.674364
O O2 0.015308 0.519071 0.637279
O O3 0.050451 0.934137 0.718008
O O4 0.333093 0.719909 0.973791
O O5 0.940125 0.508800 0.791784
O O6 0.268259 0.123638 0.856252
O O7 0.241070 0.238072 0.054840
O O8 0.739025 0.854129 0.625396
O O9 0.663967 0.383600 0.357377
O O10 0.632517 0.948774 0.748097
O O11 0.000000 0.000000 0.000000
O O12 0.375913 0.031114 0.733513
O O13 0.000000 0.000000 0.500000
#
# Coordination Sequence:
#
# PCOD9086860 Si02
#       6
#     2   2   2   2   2   2
#     4   8  19  37  62  87 119 169 204 243 303 366
#     4   9  20  38  63  86 121 165 204 244 309 370
#     4  10  19  36  60  91 124 158 204 254 298 366
#     4  12  21  37  63  95 129 158 201 262 314 362
#     4  10  22  37  64  93 124 164 206 244 319 369
#     4  11  21  39  65  92 120 165 212 259 297 359
#
# _framework density 25.903752000000001
#
# number of rings (size 3 to 8) (size 9 to 14) (size 15 to 20)
#    1.000    1.000    3.333    1.000    0.000    0.667 
#    0.000    3.333    3.667    2.000    0.000    0.000 
#    0.000    0.000    0.000    0.000    0.000    0.000 
#
# Total GULP energy -66910.703968 kJ/mol
# GULP energy per Si atom -5575.891997 kJ/mol
# Density = 2.584479 g / cm^3
# Si number density = 25.903752 Si / 1000 Ang^3
#
#
#
# Elastic Constant Matrix: (Units=GPa)
#
#
# Indices 1 2 3 4 5 6 
#
# 1 211.6800 11.9803 89.6015 18.3018 -7.1488 -16.6366
# 2 11.9803 53.2034 -1.5055 20.1842 8.0778 -14.6590
# 3 89.6015 -1.5055 127.2337 10.0684 -18.7764 -6.8367
# 4 18.3018 20.1842 10.0684 32.2027 -1.2033 2.4304
# 5 -7.1488 8.0778 -18.7764 -1.2033 58.5741 3.5633
# 6 -16.6366 -14.6590 -6.8367 2.4304 3.5633 51.8953
#
#
#
# Elastic Compliance Matrix: (Units=1/GPa)
#
#
# Indices 1 2 3 4 5 6 
#
# 1 0.007115 -0.000127 -0.004831 -0.002620 -0.000825 0.001788
# 2 -0.000127 0.029990 0.001907 -0.020242 -0.004561 0.009943
# 3 -0.004831 0.001907 0.011901 -0.002098 0.002891 0.000458
# 4 -0.002620 -0.020242 -0.002098 0.046708 0.003322 -0.009249
# 5 -0.000825 -0.004561 0.002891 0.003322 0.018755 -0.002615
# 6 0.001788 0.009943 0.000458 -0.009249 -0.002615 0.023324
#
#
# Mechanical properties :
#
#
# Convention : Reuss Voigt Hill
#
# Bulk Modulus (GPa) = 23.30695 65.80774 44.55734
# Shear Modulus (GPa) = 31.60643 48.00380 39.80511
#
# Velocity S-wave (km/s) = 3.49685 4.30950 3.92427
# Velocity P-wave (km/s) = 5.03200 7.08677 6.14587
#
# Compressibility (1/GPa) = 0.04290566
#
# Stress axis : x y z
#
# Youngs Moduli (GPa) = 140.54433 33.34468 84.02444
#
# Poissons Ratio (x) = 0.00424 0.40589
# Poissons Ratio (y) = 0.01787 -0.16028
# Poissons Ratio (z) = 0.67892 -0.06360
#
# Static dielectric constant tensor:
#      x y z
#    x 1.948550 0.043910 -0.076580 
#    y 0.043910 2.256390 -0.139520 
#    z -0.076580 -0.139520 2.112500 
# 
# From -- ./inp_files/159971.got.cif
#   From: 2010.05.17/outbox.cif.g08.bks.cpg/sg2_80_cif.got.tgz:159971.got - 2010.06.03 11:33:40.
