data_PCOD9086238
_publ_section_title
;
Structure prediction by ZEFSAII (Michael W. Deem and Ramdas Pophale) SiO2 
 PCOD9086238
Probable space group: P -1
;
_chemical_formula_sum "Si O2"
_cell_formula_units_Z 16
_cell_length_a 16.184724
_cell_length_b 11.404919
_cell_length_c 11.337842
_cell_angle_alpha 58.998794
_cell_angle_beta 35.273907
_cell_angle_gamma 48.790781
_cell_volume 907.960056
_symmetry_space_group_name_H-M "P -1"
_symmetry_group_IT_number 2
_symmetry_cell_setting 'triclinic'
loop_
_space_group_symop_operation_xyz
x,y,z
-x,-y,-z
loop_
_atom_site_type_symbol
_atom_site_label
_atom_site_fract_x
_atom_site_fract_y
_atom_site_fract_z
Si Si1 0.144022 0.360723 0.976336
Si Si2 0.824965 0.735151 0.532850
Si Si3 0.490134 0.730134 0.932151
Si Si4 0.976200 0.408389 0.395421
Si Si5 0.683344 0.970369 0.161127
Si Si6 0.539001 0.615064 0.469936
Si Si7 0.624992 0.473016 0.703462
Si Si8 0.660475 0.037886 0.419858
O O1 0.185026 0.197846 0.950733
O O2 0.307958 0.374700 0.768556
O O3 0.090149 0.367350 0.170314
O O4 0.000000 0.500000 0.000000
O O5 0.653219 0.741201 0.763807
O O6 0.933329 0.697835 0.542567
O O7 0.914508 0.587085 0.417187
O O8 0.782861 0.894765 0.432595
O O9 0.534183 0.614647 0.828370
O O10 0.350406 0.896222 0.963785
O O11 0.437932 0.651206 0.136495
O O12 0.815254 0.399140 0.551348
O O13 0.510758 0.968013 0.373952
O O14 0.717133 0.011255 0.231526
O O15 0.500000 0.500000 0.500000
O O16 0.590239 0.545126 0.577402
O O17 0.387966 0.789996 0.567473
#
# Coordination Sequence:
#
# PCOD9086238 Si02
#       8
#     2   2   2   2   2   2   2   2
#     4  11  21  36  58  82 110 147 186 223 277 332
#     4   9  19  35  60  83 107 143 184 233 267 317
#     4   9  18  34  59  84 102 142 190 227 269 317
#     4  10  20  36  54  85 113 144 181 220 279 334
#     4   9  17  32  59  83 104 142 190 229 265 320
#     4  11  23  37  56  85 113 144 182 232 278 320
#     4  10  19  36  57  79 112 145 181 224 275 329
#     4   9  17  35  58  81 108 139 188 233 266 317
#
# _framework density 17.621919999999999
#
# number of rings (size 3 to 8) (size 9 to 14) (size 15 to 20)
#    0.000    2.250    2.500    0.750    5.250    0.000 
#    2.250    3.750    0.000    2.250    0.000    0.000 
#    0.000    0.000    0.000    0.000    0.000    0.000 
#
# Total GULP energy -89254.704558 kJ/mol
# GULP energy per Si atom -5578.419035 kJ/mol
# Density = 1.758181 g / cm^3
# Si number density = 17.621920 Si / 1000 Ang^3
#
#
#
# Elastic Constant Matrix: (Units=GPa)
#
#
# Indices 1 2 3 4 5 6 
#
# 1 69.4430 45.9097 13.4188 8.7165 5.0973 -7.1695
# 2 45.9097 137.9669 32.4911 10.1120 1.0072 -13.2836
# 3 13.4188 32.4911 64.0788 9.3267 14.6631 3.4566
# 4 8.7165 10.1120 9.3267 21.4799 3.9037 -1.8444
# 5 5.0973 1.0072 14.6631 3.9037 17.4036 -2.2561
# 6 -7.1695 -13.2836 3.4566 -1.8444 -2.2561 27.6009
#
#
#
# Elastic Compliance Matrix: (Units=1/GPa)
#
#
# Indices 1 2 3 4 5 6 
#
# 1 0.019337 -0.006124 0.000700 -0.004289 -0.004767 0.001312
# 2 -0.006124 0.011268 -0.006229 -0.000996 0.007280 0.005141
# 3 0.000700 -0.006229 0.024410 -0.004933 -0.020324 -0.007864
# 4 -0.004289 -0.000996 -0.004933 0.052165 -0.005969 0.002022
# 5 -0.004767 0.007280 -0.020324 -0.005969 0.078299 0.010812
# 6 0.001312 0.005141 -0.007864 0.002022 0.010812 0.041049
#
#
# Mechanical properties :
#
#
# Convention : Reuss Voigt Hill
#
# Bulk Modulus (GPa) = 31.53595 50.56977 41.05286
# Shear Modulus (GPa) = 19.20095 25.27483 22.23789
#
# Velocity S-wave (km/s) = 3.30450 3.79130 3.55624
# Velocity P-wave (km/s) = 5.70038 6.92276 6.34110
#
# Compressibility (1/GPa) = 0.03170984
#
# Stress axis : x y z
#
# Youngs Moduli (GPa) = 51.71306 88.74927 40.96602
#
# Poissons Ratio (x) = 0.54351 -0.02868
# Poissons Ratio (y) = 0.31670 0.25517
# Poissons Ratio (z) = -0.03621 0.55281
#
# Static dielectric constant tensor:
#      x y z
#    x 1.578600 0.000750 -0.005750 
#    y 0.000750 1.604170 -0.002400 
#    z -0.005750 -0.002400 1.593070 
# 
# From -- ./inp_files/260127.got.cif
#   From: 2010.05.17/outbox.cif.g08.bks.cpg/sg2_131_cif.got.tgz:260127.got - 2010.06.03 11:33:40.
