data_PCOD9086482
_publ_section_title
;
Structure prediction by ZEFSAII (Michael W. Deem and Ramdas Pophale) SiO2 
 PCOD9086482
Probable space group: P -1
;
_chemical_formula_sum "Si O2"
_cell_formula_units_Z 16
_cell_length_a 13.513122
_cell_length_b 20.422407
_cell_length_c 24.244596
_cell_angle_alpha 16.468356
_cell_angle_beta 24.444774
_cell_angle_gamma 33.478119
_cell_volume 740.452213
_symmetry_space_group_name_H-M "P -1"
_symmetry_group_IT_number 2
_symmetry_cell_setting 'triclinic'
loop_
_space_group_symop_operation_xyz
x,y,z
-x,-y,-z
loop_
_atom_site_type_symbol
_atom_site_label
_atom_site_fract_x
_atom_site_fract_y
_atom_site_fract_z
Si Si1 0.259313 0.159531 0.882466
Si Si2 0.466488 0.823493 0.492260
Si Si3 0.875307 0.614554 0.422667
Si Si4 0.266266 0.789289 0.259728
Si Si5 0.372950 0.963304 0.873465
Si Si6 0.132620 0.618171 0.580559
Si Si7 0.184076 0.153321 0.364129
Si Si8 0.259440 0.320889 0.067284
O O1 0.104416 0.338152 0.829538
O O2 0.562465 0.261898 0.660269
O O3 0.279925 0.109742 0.848233
O O4 0.146605 0.925770 0.166812
O O5 0.738194 0.784189 0.384873
O O6 0.448073 0.860725 0.404670
O O7 0.413780 0.069962 0.339358
O O8 0.305679 0.579918 0.804464
O O9 0.684336 0.415344 0.639718
O O10 0.000000 0.500000 0.500000
O O11 0.112267 0.772412 0.137621
O O12 0.092765 0.665616 0.498653
O O13 0.500000 0.000000 0.000000
O O14 0.521668 0.798480 0.959348
O O15 0.962785 0.725293 0.618239
O O16 0.249608 0.313567 0.145174
O O17 0.989401 0.885636 0.662300
#
# Coordination Sequence:
#
# PCOD9086482 Si02
#       8
#     2   2   2   2   2   2   2   2
#     4  10  19  36  58  88 123 164 197 258 313 369
#     4  11  23  36  61  95 125 169 212 263 318 373
#     4  12  22  40  69  95 127 165 207 269 318 372
#     4  10  22  39  61  95 128 159 205 259 316 381
#     4  11  21  38  65  94 126 155 217 267 316 372
#     4  10  21  36  57  86 127 162 202 251 321 366
#     4  10  22  38  58  88 132 170 211 265 308 380
#     4  10  20  39  58  91 127 165 215 267 315 366
#
# _framework density 21.608415999999998
#
# number of rings (size 3 to 8) (size 9 to 14) (size 15 to 20)
#    0.000    1.500    3.750    1.500    1.750    1.000 
#    0.000    0.000    0.000    7.500    0.000    0.000 
#    0.000    0.000    0.000    0.000    0.000    0.000 
#
# Total GULP energy -89080.356063 kJ/mol
# GULP energy per Si atom -5567.522254 kJ/mol
# Density = 2.155923 g / cm^3
# Si number density = 21.608416 Si / 1000 Ang^3
#
#
#
# Elastic Constant Matrix: (Units=GPa)
#
#
# Indices 1 2 3 4 5 6 
#
# 1 78.6602 52.9626 41.7446 -11.2592 25.5753 5.8693
# 2 52.9626 184.9701 36.0692 -8.1268 25.3171 -9.0059
# 3 41.7446 36.0692 79.9891 -2.6605 35.9324 1.4665
# 4 -11.2592 -8.1268 -2.6605 28.2253 -7.2659 4.7626
# 5 25.5753 25.3171 35.9324 -7.2659 46.4520 -0.0936
# 6 5.8693 -9.0059 1.4665 4.7626 -0.0936 30.4437
#
#
#
# Elastic Compliance Matrix: (Units=1/GPa)
#
#
# Indices 1 2 3 4 5 6 
#
# 1 0.022399 -0.004469 -0.008240 0.007337 -0.002388 -0.006398
# 2 -0.004469 0.007045 -0.000400 -0.000606 -0.001158 0.003056
# 3 -0.008240 -0.000400 0.023003 -0.004976 -0.013814 0.001098
# 4 0.007337 -0.000606 -0.004976 0.040681 0.006487 -0.007698
# 5 -0.002388 -0.001158 -0.013814 0.006487 0.035174 -0.000123
# 6 -0.006398 0.003056 0.001098 -0.007698 -0.000123 0.036136
#
#
# Mechanical properties :
#
#
# Convention : Reuss Voigt Hill
#
# Bulk Modulus (GPa) = 38.12922 67.24135 52.68528
# Shear Modulus (GPa) = 25.07530 35.21374 30.14452
#
# Velocity S-wave (km/s) = 3.41022 4.04125 3.73907
# Velocity P-wave (km/s) = 5.76108 7.27745 6.56320
#
# Compressibility (1/GPa) = 0.02622661
#
# Stress axis : x y z
#
# Youngs Moduli (GPa) = 44.64491 141.95247 43.47305
#
# Poissons Ratio (x) = 0.63439 0.35824
# Poissons Ratio (y) = 0.19952 0.01741
# Poissons Ratio (z) = 0.36789 0.05684
#
# Static dielectric constant tensor:
#      x y z
#    x 1.830560 -0.042750 -0.033680 
#    y -0.042750 1.802010 -0.009680 
#    z -0.033680 -0.009680 1.908320 
# 
# From -- ./inp_files/595918.got.cif
#   From: 2010.05.17/outbox.cif.g08.bks.cpg/sg2_298_cif.got.tgz:595918.got - 2010.06.03 11:33:40.
