data_PCOD9086681
_publ_section_title
;
Structure prediction by ZEFSAII (Michael W. Deem and Ramdas Pophale) SiO2 
 PCOD9086681
Probable space group: P -1
;
_chemical_formula_sum "Si O2"
_cell_formula_units_Z 16
_cell_length_a 7.766266
_cell_length_b 17.416504
_cell_length_c 8.914044
_cell_angle_alpha 35.582465
_cell_angle_beta 90.268545
_cell_angle_gamma 75.079775
_cell_volume 626.860467
_symmetry_space_group_name_H-M "P -1"
_symmetry_group_IT_number 2
_symmetry_cell_setting 'triclinic'
loop_
_space_group_symop_operation_xyz
x,y,z
-x,-y,-z
loop_
_atom_site_type_symbol
_atom_site_label
_atom_site_fract_x
_atom_site_fract_y
_atom_site_fract_z
Si Si1 0.379107 0.442542 0.826881
Si Si2 0.219133 0.345282 0.695224
Si Si3 0.926063 0.378810 0.220667
Si Si4 0.619352 0.154376 0.482286
Si Si5 0.739554 0.912929 0.421774
Si Si6 0.074551 0.130744 0.179073
Si Si7 0.438793 0.872698 0.149604
Si Si8 0.766287 0.403748 0.852960
O O1 0.305177 0.373320 0.805257
O O2 0.206508 0.570821 0.712919
O O3 0.538813 0.487203 0.693749
O O4 0.503769 0.309340 0.152974
O O5 0.376756 0.259932 0.705591
O O6 0.122817 0.508753 0.359412
O O7 0.133453 0.230945 0.910939
O O8 0.114894 0.223151 0.463088
O O9 0.808025 0.386580 0.057163
O O10 0.000000 0.500000 0.000000
O O11 0.470500 0.083100 0.569974
O O12 0.633934 0.173936 0.628310
O O13 0.830534 0.035474 0.618394
O O14 0.825567 0.889735 0.624556
O O15 0.707801 0.057214 0.099624
O O16 0.852791 0.241474 0.036322
O O17 0.500000 0.000000 0.000000
#
# Coordination Sequence:
#
# PCOD9086681 Si02
#       8
#     2   2   2   2   2   2   2   2
#     4  12  24  42  63  91 134 173 199 253 319 384
#     4  12  22  41  66  90 129 166 214 262 309 361
#     4  11  22  40  67  91 121 165 212 260 304 366
#     4  11  20  37  66  90 127 157 211 259 318 356
#     4  10  19  36  59  96 119 147 207 264 308 355
#     4  11  21  39  65  95 118 165 212 267 301 367
#     4  10  21  35  62  98 120 151 204 277 312 351
#     4  11  27  41  60  96 133 166 209 249 318 381
#
# _framework density 25.524021000000001
#
# number of rings (size 3 to 8) (size 9 to 14) (size 15 to 20)
#    0.000    1.000    5.000    3.750    1.750    1.500 
#    0.000    0.000    0.000    4.500    0.000    0.000 
#    0.000    0.000    0.000    0.000    0.000    0.000 
#
# Total GULP energy -89537.312166 kJ/mol
# GULP energy per Si atom -5596.082010 kJ/mol
# Density = 2.546593 g / cm^3
# Si number density = 25.524021 Si / 1000 Ang^3
#
#
#
# Elastic Constant Matrix: (Units=GPa)
#
#
# Indices 1 2 3 4 5 6 
#
# 1 69.7720 14.9047 -14.8354 -1.1458 -3.3863 -10.4008
# 2 14.9047 127.2073 20.1105 -7.3361 -1.3657 -17.3493
# 3 -14.8354 20.1105 77.2494 -0.9708 -3.6677 -2.9423
# 4 -1.1458 -7.3361 -0.9708 40.8175 -5.6886 6.1551
# 5 -3.3863 -1.3657 -3.6677 -5.6886 27.2369 -3.2124
# 6 -10.4008 -17.3493 -2.9423 6.1551 -3.2124 28.8107
#
#
#
# Elastic Compliance Matrix: (Units=1/GPa)
#
#
# Indices 1 2 3 4 5 6 
#
# 1 0.016564 -0.001772 0.004007 -0.000181 0.003146 0.005711
# 2 -0.001772 0.009137 -0.002507 0.000945 0.000625 0.004474
# 3 0.004007 -0.002507 0.014554 0.000110 0.002554 0.001685
# 4 -0.000181 0.000945 0.000110 0.026034 0.004947 -0.004495
# 5 0.003146 0.000625 0.002554 0.004947 0.039113 0.005077
# 6 0.005711 0.004474 0.001685 -0.004495 0.005077 0.041164
#
#
# Mechanical properties :
#
#
# Convention : Reuss Voigt Hill
#
# Bulk Modulus (GPa) = 25.18210 34.95427 30.06819
# Shear Modulus (GPa) = 31.18252 36.30962 33.74607
#
# Velocity S-wave (km/s) = 3.49906 3.77578 3.64005
# Velocity P-wave (km/s) = 5.11977 5.72129 5.42887
#
# Compressibility (1/GPa) = 0.03971075
#
# Stress axis : x y z
#
# Youngs Moduli (GPa) = 60.37191 109.45072 68.70960
#
# Poissons Ratio (x) = 0.19394 -0.27532
# Poissons Ratio (y) = 0.10698 0.17225
# Poissons Ratio (z) = -0.24191 0.27438
#
# Static dielectric constant tensor:
#      x y z
#    x 2.113960 -0.034730 -0.017380 
#    y -0.034730 2.001930 -0.013640 
#    z -0.017380 -0.013640 2.056000 
# 
# From -- ./inp_files/216457.got.cif
#   From: 2010.05.17/outbox.cif.g08.bks.cpg/sg2_109_cif.got.tgz:216457.got - 2010.06.03 11:33:40.
