data_PCOD9086249
_publ_section_title
;
Structure prediction by ZEFSAII (Michael W. Deem and Ramdas Pophale) SiO2 
 PCOD9086249
Probable space group: P -1
;
_chemical_formula_sum "Si O2"
_cell_formula_units_Z 16
_cell_length_a 11.796509
_cell_length_b 11.541629
_cell_length_c 15.095840
_cell_angle_alpha 64.096257
_cell_angle_beta 29.007613
_cell_angle_gamma 72.639782
_cell_volume 879.885896
_symmetry_space_group_name_H-M "P -1"
_symmetry_group_IT_number 2
_symmetry_cell_setting 'triclinic'
loop_
_space_group_symop_operation_xyz
x,y,z
-x,-y,-z
loop_
_atom_site_type_symbol
_atom_site_label
_atom_site_fract_x
_atom_site_fract_y
_atom_site_fract_z
Si Si1 0.530402 0.855292 0.633805
Si Si2 0.830647 0.639854 0.540983
Si Si3 0.375893 0.163557 0.901673
Si Si4 0.406081 0.053196 0.247463
Si Si5 0.760305 0.224108 0.482496
Si Si6 0.767260 0.691545 0.773829
Si Si7 0.358633 0.644210 0.197870
Si Si8 0.813392 0.139853 0.287281
O O1 0.680516 0.739823 0.569511
O O2 0.470750 0.883005 0.767727
O O3 0.300860 0.826270 0.737719
O O4 0.696917 0.988263 0.438829
O O5 0.808705 0.650811 0.659160
O O6 0.723224 0.488262 0.644797
O O7 0.112206 0.674165 0.317460
O O8 0.521960 0.237139 0.693351
O O9 0.501419 0.238571 0.876355
O O10 0.426568 0.015560 0.906758
O O11 0.097790 0.160902 0.087544
O O12 0.285414 0.160861 0.247915
O O13 0.220958 0.925882 0.451964
O O14 0.740398 0.223644 0.391246
O O15 0.996715 0.312305 0.329835
O O16 0.537789 0.617828 0.007714
#
# Coordination Sequence:
#
# PCOD9086249 Si02
#       8
#     2   2   2   2   2   2   2   2
#     4   9  20  38  56  77 110 142 174 222 262 315
#     4  10  22  39  52  79 113 136 182 218 260 315
#     4  10  20  33  52  83 109 135 175 219 264 316
#     4   8  19  31  49  83 107 136 165 222 274 304
#     4   9  18  32  49  80 110 135 166 221 269 310
#     4  11  18  34  54  78 110 136 179 216 270 318
#     4  11  22  34  57  80 105 150 172 215 267 319
#     4  10  19  36  57  81 104 142 179 213 273 312
#
# _framework density 18.184176000000001
#
# number of rings (size 3 to 8) (size 9 to 14) (size 15 to 20)
#    0.750    1.500    2.500    0.750    1.750    2.000 
#    0.000    0.625    0.000    0.750    0.000    0.000 
#    0.000    0.000    0.000    0.000    0.000    0.000 
#
# Total GULP energy -89090.036044 kJ/mol
# GULP energy per Si atom -5568.127253 kJ/mol
# Density = 1.814279 g / cm^3
# Si number density = 18.184176 Si / 1000 Ang^3
#
#
#
# Elastic Constant Matrix: (Units=GPa)
#
#
# Indices 1 2 3 4 5 6 
#
# 1 65.1393 13.7755 9.6255 -7.7399 -7.7973 7.1504
# 2 13.7755 42.8044 -4.8157 2.8111 -4.4103 0.5529
# 3 9.6255 -4.8157 72.4535 9.1355 -12.0281 11.5644
# 4 -7.7399 2.8111 9.1355 17.1033 6.3860 4.5027
# 5 -7.7973 -4.4103 -12.0281 6.3860 20.3439 3.3368
# 6 7.1504 0.5529 11.5644 4.5027 3.3368 16.1690
#
#
#
# Elastic Compliance Matrix: (Units=1/GPa)
#
#
# Indices 1 2 3 4 5 6 
#
# 1 0.020524 -0.007561 -0.002986 0.014377 0.001761 -0.011049
# 2 -0.007561 0.029118 0.007429 -0.016864 0.013266 -0.001007
# 3 -0.002986 0.007429 0.023346 -0.019670 0.022883 -0.014876
# 4 0.014377 -0.016864 -0.019670 0.095152 -0.037941 -0.010381
# 5 0.001761 0.013266 0.022883 -0.037941 0.082076 -0.023971
# 6 -0.011049 -0.001007 -0.014876 -0.010381 -0.023971 0.085244
#
#
# Mechanical properties :
#
#
# Convention : Reuss Voigt Hill
#
# Bulk Modulus (GPa) = 14.98071 24.17419 19.57745
# Shear Modulus (GPa) = 13.73826 21.51071 17.62449
#
# Velocity S-wave (km/s) = 2.75163 3.44311 3.11661
# Velocity P-wave (km/s) = 4.28386 5.39719 4.87243
#
# Compressibility (1/GPa) = 0.06675250
#
# Stress axis : x y z
#
# Youngs Moduli (GPa) = 48.72378 34.34246 42.83429
#
# Poissons Ratio (x) = 0.25966 0.12790
# Poissons Ratio (y) = 0.36840 -0.31822
# Poissons Ratio (z) = 0.14549 -0.25513
#
# Static dielectric constant tensor:
#      x y z
#    x 1.601830 0.036360 0.014830 
#    y 0.036360 1.649430 -0.000250 
#    z 0.014830 -0.000250 1.640700 
# 
# From -- ./inp_files/464641.got.cif
#   From: 2010.05.17/outbox.cif.g08.bks.cpg/sg2_233_cif.got.tgz:464641.got - 2010.06.03 11:33:40.
