data_PCOD9086574
_publ_section_title
;
Structure prediction by ZEFSAII (Michael W. Deem and Ramdas Pophale) SiO2 
 PCOD9086574
Probable space group: P -1
;
_chemical_formula_sum "Si O2"
_cell_formula_units_Z 16
_cell_length_a 25.935929
_cell_length_b 11.538291
_cell_length_c 4.986647
_cell_angle_alpha 51.982751
_cell_angle_beta 125.484515
_cell_angle_gamma 143.381119
_cell_volume 689.384134
_symmetry_space_group_name_H-M "P -1"
_symmetry_group_IT_number 2
_symmetry_cell_setting 'triclinic'
loop_
_space_group_symop_operation_xyz
x,y,z
-x,-y,-z
loop_
_atom_site_type_symbol
_atom_site_label
_atom_site_fract_x
_atom_site_fract_y
_atom_site_fract_z
Si Si1 0.752217 0.170049 0.543417
Si Si2 0.417577 0.041947 0.033846
Si Si3 0.052406 0.226240 0.451470
Si Si4 0.056603 0.450295 0.640244
Si Si5 0.755666 0.501520 0.201406
Si Si6 0.644691 0.377811 0.530344
Si Si7 0.538921 0.424846 0.498863
Si Si8 0.371542 0.205314 0.025857
O O1 0.848229 0.332244 0.472702
O O2 0.748650 0.314623 0.500113
O O3 0.671920 0.058558 0.251744
O O4 0.725477 0.979095 0.895256
O O5 0.502736 0.248984 0.853323
O O6 0.404459 0.095511 0.203171
O O7 0.413907 0.862572 0.297850
O O8 0.022864 0.290620 0.516127
O O9 0.143314 0.303062 0.724191
O O10 0.067452 0.358440 0.055764
O O11 0.000000 0.000000 0.500000
O O12 0.000000 0.500000 0.500000
O O13 0.690227 0.476164 0.243428
O O14 0.723664 0.479214 0.836723
O O15 0.585026 0.406880 0.428885
O O16 0.613349 0.672806 0.366114
O O17 0.448858 0.369066 0.235660
#
# Coordination Sequence:
#
# PCOD9086574 Si02
#       8
#     2   2   2   2   2   2   2   2
#     4   9  20  38  63  87 120 170 215 253 319 397
#     4  10  19  36  59  84 114 169 213 254 313 385
#     4  11  23  45  73  99 139 179 217 271 347 414
#     4  11  24  43  72 106 137 172 226 282 331 401
#     4  10  21  40  65  89 123 165 212 255 322 391
#     4  11  22  38  60  92 120 158 216 269 309 368
#     4  10  23  35  54  88 124 162 209 271 320 371
#     4  10  20  39  58  80 123 171 213 251 331 385
#
# _framework density 23.209122000000001
#
# number of rings (size 3 to 8) (size 9 to 14) (size 15 to 20)
#    0.000    1.750    1.250    3.750    3.500    0.500 
#    2.250    0.000    0.000    0.000    0.000    0.000 
#    0.000    0.000    0.000    0.000    0.000    0.000 
#
# Total GULP energy -89199.317928 kJ/mol
# GULP energy per Si atom -5574.957370 kJ/mol
# Density = 2.315630 g / cm^3
# Si number density = 23.209122 Si / 1000 Ang^3
#
#
#
# Elastic Constant Matrix: (Units=GPa)
#
#
# Indices 1 2 3 4 5 6 
#
# 1 128.3623 33.7771 17.0267 -11.1793 -0.0350 6.5488
# 2 33.7771 147.8800 29.4438 -4.6063 6.5117 6.3877
# 3 17.0267 29.4438 47.0782 -6.1954 -4.6806 -5.2673
# 4 -11.1793 -4.6063 -6.1954 34.8868 -5.0953 -2.4574
# 5 -0.0350 6.5117 -4.6806 -5.0953 35.1800 1.2099
# 6 6.5488 6.3877 -5.2673 -2.4574 1.2099 30.6425
#
#
#
# Elastic Compliance Matrix: (Units=1/GPa)
#
#
# Indices 1 2 3 4 5 6 
#
# 1 0.008731 -0.001442 -0.002135 0.002157 0.000365 -0.001774
# 2 -0.001442 0.008316 -0.005268 -0.000795 -0.002277 -0.002305
# 3 -0.002135 -0.005268 0.027132 0.004624 0.005033 0.006390
# 4 0.002157 -0.000795 0.004624 0.031021 0.005162 0.002784
# 5 0.000365 -0.002277 0.005033 0.005162 0.030248 0.000481
# 6 -0.001774 -0.002305 0.006390 0.002784 0.000481 0.034797
#
#
# Mechanical properties :
#
#
# Convention : Reuss Voigt Hill
#
# Bulk Modulus (GPa) = 37.74995 53.75729 45.75362
# Shear Modulus (GPa) = 29.98258 36.34671 33.16465
#
# Velocity S-wave (km/s) = 3.59812 3.96163 3.78424
# Velocity P-wave (km/s) = 5.79331 6.64368 6.23301
#
# Compressibility (1/GPa) = 0.02649010
#
# Stress axis : x y z
#
# Youngs Moduli (GPa) = 114.52946 120.25715 36.85692
#
# Poissons Ratio (x) = 0.17336 0.07868
# Poissons Ratio (y) = 0.16510 0.19417
# Poissons Ratio (z) = 0.24448 0.63354
#
# Static dielectric constant tensor:
#      x y z
#    x 1.887470 -0.059020 -0.030670 
#    y -0.059020 2.019610 0.040990 
#    z -0.030670 0.040990 1.922060 
# 
# From -- ./inp_files/53936.got.cif
#   From: 2010.05.17/outbox.cif.g08.bks.cpg/sg2_27_cif.got.tgz:53936.got - 2010.06.03 11:33:40.
