data_PCOD9086439
_publ_section_title
;
Structure prediction by ZEFSAII (Michael W. Deem and Ramdas Pophale) SiO2 
 PCOD9086439
Probable space group: P -1
;
_chemical_formula_sum "Si O2"
_cell_formula_units_Z 14
_cell_length_a 12.522917
_cell_length_b 14.718206
_cell_length_c 22.826141
_cell_angle_alpha 149.620990
_cell_angle_beta 161.785427
_cell_angle_gamma 39.544004
_cell_volume 633.201219
_symmetry_space_group_name_H-M "P -1"
_symmetry_group_IT_number 2
_symmetry_cell_setting 'triclinic'
loop_
_space_group_symop_operation_xyz
x,y,z
-x,-y,-z
loop_
_atom_site_type_symbol
_atom_site_label
_atom_site_fract_x
_atom_site_fract_y
_atom_site_fract_z
Si Si1 0.142480 0.301659 0.845979
Si Si2 0.722435 0.129883 0.239764
Si Si3 0.691547 0.364530 0.556000
Si Si4 0.858995 0.873466 0.768875
Si Si5 0.357363 0.970104 0.730224
Si Si6 0.019231 0.544252 0.602588
Si Si7 0.371367 0.978719 0.489503
O O1 0.009271 0.439773 0.810853
O O2 0.906765 0.217955 0.735477
O O3 0.123831 0.113276 0.692171
O O4 0.560581 0.396417 0.129382
O O5 0.542340 0.042333 0.156763
O O6 0.765111 0.348716 0.386467
O O7 0.124535 0.114960 0.440774
O O8 0.500000 0.000000 0.000000
O O9 0.500000 0.500000 0.500000
O O10 0.413235 0.224027 0.376544
O O11 0.805791 0.237802 0.495886
O O12 0.703721 0.013573 0.727349
O O13 0.874088 0.711654 0.640531
O O14 0.246242 0.941844 0.039565
O O15 0.000000 0.500000 0.500000
O O16 0.500000 0.000000 0.500000
#
# Coordination Sequence:
#
# PCOD9086439 Si02
#       7
#     2   2   2   2   2   2   2
#     4   9  22  39  59  87 119 159 202 240 296 363
#     4  11  22  38  60  87 116 156 201 242 298 368
#     4  11  22  39  59  87 120 155 201 253 294 342
#     4  10  22  38  59  89 118 152 200 248 297 350
#     4  10  20  39  61  81 116 161 196 241 298 356
#     4  11  21  39  61  86 121 158 194 244 304 366
#     4  10  19  36  58  85 118 151 191 244 296 351
#
# _framework density 22.109874999999999
#
# number of rings (size 3 to 8) (size 9 to 14) (size 15 to 20)
#    0.000    1.714    0.000    6.000    0.000    1.143 
#    0.000   22.143    0.000    0.000    0.000    0.000 
#    0.000    0.000    0.000    0.000    0.000    0.000 
#
# Total GULP energy -77971.205327 kJ/mol
# GULP energy per Si atom -5569.371809 kJ/mol
# Density = 2.205955 g / cm^3
# Si number density = 22.109875 Si / 1000 Ang^3
#
#
#
# Elastic Constant Matrix: (Units=GPa)
#
#
# Indices 1 2 3 4 5 6 
#
# 1 87.3706 21.6058 14.6816 -7.7948 -17.1573 4.1830
# 2 21.6058 98.4093 31.6362 -12.2347 -15.7980 12.2688
# 3 14.6816 31.6362 46.4313 -4.5532 -5.7027 -7.4209
# 4 -7.7948 -12.2347 -4.5532 34.5567 -4.4614 -2.8393
# 5 -17.1573 -15.7980 -5.7027 -4.4614 31.7307 -6.2625
# 6 4.1830 12.2688 -7.4209 -2.8393 -6.2625 34.8835
#
#
#
# Elastic Compliance Matrix: (Units=1/GPa)
#
#
# Indices 1 2 3 4 5 6 
#
# 1 0.013770 -0.000448 -0.002937 0.003425 0.007064 -0.000571
# 2 -0.000448 0.015833 -0.010660 0.004212 0.005026 -0.006537
# 3 -0.002937 -0.010660 0.031721 0.000799 0.001111 0.011114
# 4 0.003425 0.004212 0.000799 0.032708 0.009203 0.002593
# 5 0.007064 0.005026 0.001111 0.009203 0.040442 0.005631
# 6 -0.000571 -0.006537 0.011114 0.002593 0.005631 0.034621
#
#
# Mechanical properties :
#
#
# Convention : Reuss Voigt Hill
#
# Bulk Modulus (GPa) = 30.09082 40.89535 35.49308
# Shear Modulus (GPa) = 24.00821 31.18670 27.59745
#
# Velocity S-wave (km/s) = 3.29881 3.75978 3.53681
# Velocity P-wave (km/s) = 5.30554 6.11429 5.72421
#
# Compressibility (1/GPa) = 0.03323273
#
# Stress axis : x y z
#
# Youngs Moduli (GPa) = 72.62260 63.16072 31.52533
#
# Poissons Ratio (x) = 0.02830 0.09258
# Poissons Ratio (y) = 0.03254 0.33607
# Poissons Ratio (z) = 0.21326 0.67332
#
# Static dielectric constant tensor:
#      x y z
#    x 1.785650 -0.050910 -0.023330 
#    y -0.050910 1.806710 -0.100530 
#    z -0.023330 -0.100530 1.894080 
# 
# From -- ./inp_files/258636.got.cif
#   From: 2010.05.17/outbox.cif.g08.bks.cpg/sg2_130_cif.got.tgz:258636.got - 2010.06.03 11:33:40.
