data_PCOD9086885
_publ_section_title
;
Structure prediction by ZEFSAII (Michael W. Deem and Ramdas Pophale) SiO2 
 PCOD9086885
Probable space group: P -1
;
_chemical_formula_sum "Si O2"
_cell_formula_units_Z 16
_cell_length_a 18.864106
_cell_length_b 12.826569
_cell_length_c 19.854532
_cell_angle_alpha 157.116959
_cell_angle_beta 160.598872
_cell_angle_gamma 27.724860
_cell_volume 615.626781
_symmetry_space_group_name_H-M "P -1"
_symmetry_group_IT_number 2
_symmetry_cell_setting 'triclinic'
loop_
_space_group_symop_operation_xyz
x,y,z
-x,-y,-z
loop_
_atom_site_type_symbol
_atom_site_label
_atom_site_fract_x
_atom_site_fract_y
_atom_site_fract_z
Si Si1 0.212138 0.546865 0.802940
Si Si2 0.289074 0.924925 0.730234
Si Si3 0.264192 0.289373 0.470641
Si Si4 0.090279 0.379711 0.228972
Si Si5 0.665067 0.376631 0.630960
Si Si6 0.565396 0.895403 0.350175
Si Si7 0.363465 0.355841 0.962406
Si Si8 0.044399 0.352437 0.858148
O O1 0.266167 0.362015 0.676579
O O2 0.346045 0.377916 0.880761
O O3 0.968114 0.602864 0.641353
O O4 0.330529 0.815486 0.071493
O O5 0.328984 0.054892 0.771724
O O6 0.101517 0.110474 0.713024
O O7 0.239336 0.622929 0.507913
O O8 0.500000 0.000000 0.000000
O O9 0.201028 0.206005 0.288239
O O10 0.378482 0.082805 0.506785
O O11 0.422492 0.523515 0.750403
O O12 0.845619 0.462192 0.085313
O O13 0.046538 0.380060 0.108676
O O14 0.500000 0.500000 0.500000
O O15 0.880806 0.279987 0.724796
O O16 0.595633 0.150363 0.483472
O O17 0.740375 0.596830 0.880426
#
# Coordination Sequence:
#
# PCOD9086885 Si02
#       8
#     2   2   2   2   2   2   2   2
#     4   9  20  35  59  95 125 168 210 281 328 385
#     4  11  21  35  66 103 129 170 207 283 344 382
#     4  10  19  36  60  94 127 160 207 272 339 389
#     4  10  21  37  63  96 134 157 209 274 334 391
#     4  11  27  46  66  89 134 191 224 265 312 397
#     4  10  22  39  61  88 129 169 226 268 322 385
#     4   9  18  31  52  90 130 156 199 255 331 385
#     4  10  25  44  62  98 133 171 228 265 325 400
#
# _framework density 25.989771999999999
#
# number of rings (size 3 to 8) (size 9 to 14) (size 15 to 20)
#    0.000    2.000    1.250    1.875    7.000    2.000 
#    2.250    0.625    0.000   22.500    0.000    0.000 
#    0.000    0.000    0.000    0.000    0.000    0.000 
#
# Total GULP energy -89404.630356 kJ/mol
# GULP energy per Si atom -5587.789397 kJ/mol
# Density = 2.593062 g / cm^3
# Si number density = 25.989772 Si / 1000 Ang^3
#
#
#
# Elastic Constant Matrix: (Units=GPa)
#
#
# Indices 1 2 3 4 5 6 
#
# 1 104.8224 40.9113 44.9129 11.9582 -0.7390 27.4113
# 2 40.9113 101.7051 51.6294 -17.8485 5.9067 32.6082
# 3 44.9129 51.6294 171.4457 -7.5976 21.4735 12.1934
# 4 11.9582 -17.8485 -7.5976 39.6357 9.5367 4.7478
# 5 -0.7390 5.9067 21.4735 9.5367 55.2164 -9.0564
# 6 27.4113 32.6082 12.1934 4.7478 -9.0564 60.8586
#
#
#
# Elastic Compliance Matrix: (Units=1/GPa)
#
#
# Indices 1 2 3 4 5 6 
#
# 1 0.014101 -0.005115 -0.002678 -0.007477 0.002727 -0.002085
# 2 -0.005115 0.018064 -0.002455 0.011267 -0.004372 -0.008413
# 3 -0.002678 -0.002455 0.007709 0.001864 -0.003031 0.000381
# 4 -0.007477 0.011267 0.001864 0.036060 -0.009449 -0.007262
# 5 0.002727 -0.004372 -0.003031 -0.009449 0.022375 0.005788
# 6 -0.002085 -0.008413 0.000381 -0.007262 0.005788 0.023230
#
#
# Mechanical properties :
#
#
# Convention : Reuss Voigt Hill
#
# Bulk Modulus (GPa) = 51.60350 72.54228 62.07289
# Shear Modulus (GPa) = 33.67118 47.17678 40.42398
#
# Velocity S-wave (km/s) = 3.60329 4.26515 3.94811
# Velocity P-wave (km/s) = 6.10000 7.22688 6.68722
#
# Compressibility (1/GPa) = 0.01937853
#
# Stress axis : x y z
#
# Youngs Moduli (GPa) = 70.91534 55.35731 129.72254
#
# Poissons Ratio (x) = 0.28314 0.34745
# Poissons Ratio (y) = 0.36271 0.31845
# Poissons Ratio (z) = 0.18994 0.13589
#
# Static dielectric constant tensor:
#      x y z
#    x 2.066830 -0.013840 -0.035750 
#    y -0.013840 2.185850 -0.020280 
#    z -0.035750 -0.020280 2.055840 
# 
# From -- ./inp_files/601461.got.cif
#   From: 2010.05.17/outbox.cif.g08.bks.cpg/sg2_301_cif.got.tgz:601461.got - 2010.06.03 11:33:40.
