data_PCOD9086972
_publ_section_title
;
Structure prediction by ZEFSAII (Michael W. Deem and Ramdas Pophale) SiO2 
 PCOD9086972
Probable space group: P -1
;
_chemical_formula_sum "Si O2"
_cell_formula_units_Z 14
_cell_length_a 17.709162
_cell_length_b 5.196008
_cell_length_c 14.761836
_cell_angle_alpha 72.079268
_cell_angle_beta 144.067089
_cell_angle_gamma 83.217017
_cell_volume 571.303442
_symmetry_space_group_name_H-M "P -1"
_symmetry_group_IT_number 2
_symmetry_cell_setting 'triclinic'
loop_
_space_group_symop_operation_xyz
x,y,z
-x,-y,-z
loop_
_atom_site_type_symbol
_atom_site_label
_atom_site_fract_x
_atom_site_fract_y
_atom_site_fract_z
Si Si1 0.728511 0.612907 0.850622
Si Si2 0.227759 0.877563 0.678831
Si Si3 0.507072 0.100941 0.098025
Si Si4 0.755003 0.777708 0.044268
Si Si5 0.948141 0.877419 0.881049
Si Si6 0.578097 0.256701 0.511105
Si Si7 0.050923 0.067249 0.664879
O O1 0.580306 0.596328 0.724200
O O2 0.664049 0.855727 0.671609
O O3 0.726350 0.836965 0.903316
O O4 0.920038 0.243123 0.059354
O O5 0.309165 0.019635 0.691974
O O6 0.092717 0.132782 0.598689
O O7 0.376765 0.533733 0.919660
O O8 0.143917 0.766575 0.545699
O O9 0.421206 0.012373 0.093802
O O10 0.500000 0.000000 0.000000
O O11 0.849929 0.355553 0.185772
O O12 0.875172 0.832927 0.200396
O O13 0.742913 0.180233 0.637390
O O14 0.000000 0.500000 0.000000
O O15 0.000000 0.000000 0.000000
O O16 0.500000 0.500000 0.500000
#
# Coordination Sequence:
#
# PCOD9086972 Si02
#       7
#     2   2   2   2   2   2   2
#     4  10  23  40  62  93 130 161 212 264 317 378
#     4   9  20  36  60  86 114 162 216 250 293 378
#     4  10  19  36  61  86 121 164 205 253 306 362
#     4  11  24  39  60  88 128 162 199 264 318 356
#     4  10  20  37  63  89 117 155 203 252 304 377
#     4  10  20  39  68  91 116 170 212 252 314 387
#     4  10  22  38  60  87 117 163 208 252 309 362
#
# _framework density 24.505367
#
# number of rings (size 3 to 8) (size 9 to 14) (size 15 to 20)
#    0.000    2.000    2.857    0.000    4.000    1.714 
#    2.571    0.000    0.000    0.000    0.000    0.000 
#    0.000    0.000    0.000    0.000    0.000    0.000 
#
# Total GULP energy -78148.562403 kJ/mol
# GULP energy per Si atom -5582.040172 kJ/mol
# Density = 2.444959 g / cm^3
# Si number density = 24.505367 Si / 1000 Ang^3
#
#
#
# Elastic Constant Matrix: (Units=GPa)
#
#
# Indices 1 2 3 4 5 6 
#
# 1 100.5961 32.2810 62.6199 20.1669 42.3379 -9.3979
# 2 32.2810 140.2397 47.5361 37.3746 22.9046 -4.3132
# 3 62.6199 47.5361 136.6845 39.9886 52.4749 -1.9271
# 4 20.1669 37.3746 39.9886 58.8741 12.6737 -0.2331
# 5 42.3379 22.9046 52.4749 12.6737 53.4239 -0.0461
# 6 -9.3979 -4.3132 -1.9271 -0.2331 -0.0461 33.5797
#
#
#
# Elastic Compliance Matrix: (Units=1/GPa)
#
#
# Indices 1 2 3 4 5 6 
#
# 1 0.016951 -0.000799 -0.003587 -0.000829 -0.009367 0.004417
# 2 -0.000799 0.009088 -0.000980 -0.004565 -0.001217 0.000854
# 3 -0.003587 -0.000980 0.014896 -0.006134 -0.009914 -0.000331
# 4 -0.000829 -0.004565 -0.006134 0.023679 0.003021 -0.001002
# 5 -0.009367 -0.001217 -0.009914 0.003021 0.035682 -0.003277
# 6 0.004417 0.000854 -0.000331 -0.001002 -0.003277 0.031095
#
#
# Mechanical properties :
#
#
# Convention : Reuss Voigt Hill
#
# Bulk Modulus (GPa) = 33.10868 73.59937 53.35403
# Shear Modulus (GPa) = 32.85301 44.84775 38.85038
#
# Velocity S-wave (km/s) = 3.66545 4.28263 3.98601
# Velocity P-wave (km/s) = 5.60840 7.38605 6.55774
#
# Compressibility (1/GPa) = 0.03020356
#
# Stress axis : x y z
#
# Youngs Moduli (GPa) = 58.99224 110.03113 67.13069
#
# Poissons Ratio (x) = 0.08797 0.24080
# Poissons Ratio (y) = 0.04716 0.06577
# Poissons Ratio (z) = 0.21161 0.10781
#
# Static dielectric constant tensor:
#      x y z
#    x 2.036980 0.027770 0.051350 
#    y 0.027770 1.986750 -0.073250 
#    z 0.051350 -0.073250 2.075720 
# 
# From -- ./inp_files/41744.got.cif
#   From: 2010.05.17/outbox.cif.g08.bks.cpg/sg2_21_cif.got.tgz:41744.got - 2010.06.03 11:33:40.
