data_PCOD9086064
_publ_section_title
;
Structure prediction by ZEFSAII (Michael W. Deem and Ramdas Pophale) SiO2 
 PCOD9086064
Probable space group: P -1
;
_chemical_formula_sum "Si O2"
_cell_formula_units_Z 13
_cell_length_a 9.064748
_cell_length_b 7.765285
_cell_length_c 11.293948
_cell_angle_alpha 102.297760
_cell_angle_beta 38.203913
_cell_angle_gamma 95.314077
_cell_volume 476.695776
_symmetry_space_group_name_H-M "P -1"
_symmetry_group_IT_number 2
_symmetry_cell_setting 'triclinic'
loop_
_space_group_symop_operation_xyz
x,y,z
-x,-y,-z
loop_
_atom_site_type_symbol
_atom_site_label
_atom_site_fract_x
_atom_site_fract_y
_atom_site_fract_z
Si Si1 0.873372 0.984729 0.334445
Si Si2 0.658027 0.672959 0.290236
Si Si3 0.553219 0.882401 0.709395
Si Si4 0.783837 0.494069 0.420033
Si Si5 0.000000 0.000000 0.000000
Si Si6 0.717771 0.600880 0.984718
Si Si7 0.390231 0.789867 0.035098
O O1 0.726399 0.847966 0.333375
O O2 0.700315 0.015807 0.562482
O O3 0.960085 0.082520 0.177551
O O4 0.119270 0.883570 0.218276
O O5 0.752069 0.520104 0.301733
O O6 0.379833 0.649300 0.452139
O O7 0.778449 0.667176 0.086136
O O8 0.680700 0.684764 0.565949
O O9 0.548976 0.884042 0.854606
O O10 0.274183 0.910278 0.850488
O O11 0.064416 0.440363 0.251102
O O12 0.518827 0.739019 0.069755
O O13 0.629139 0.409280 0.034564
#
# Coordination Sequence:
#
# PCOD9086064 Si02
#       7
#     2   2   2   2   1   2   2
#     4  10  21  38  58  81 109 142 183 231 267 316
#     4  10  20  33  53  81 114 145 175 219 270 327
#     4  10  19  36  52  80 108 141 181 226 267 315
#     4  10  20  31  54  82 113 144 177 218 269 325
#     4  10  22  36  58  80 102 140 188 238 274 304
#     4  11  20  33  51  83 121 150 171 207 267 336
#     4  10  21  32  52  81 118 150 174 211 264 330
#
# _framework density 27.271063000000002
#
# number of rings (size 3 to 8) (size 9 to 14) (size 15 to 20)
#    0.000    1.846    4.615    0.923    0.000    4.308 
#    0.000    0.000    0.000    3.692    0.000   23.692 
#    0.000    0.000    0.000    0.000    0.000    0.000 
#
# Total GULP energy -72546.477863 kJ/mol
# GULP energy per Si atom -5580.498297 kJ/mol
# Density = 2.720899 g / cm^3
# Si number density = 27.271063 Si / 1000 Ang^3
#
#
#
# Elastic Constant Matrix: (Units=GPa)
#
#
# Indices 1 2 3 4 5 6 
#
# 1 79.3451 19.7865 65.0753 12.6532 15.9579 -31.8828
# 2 19.7865 101.9476 54.0714 -17.9989 -11.3621 -5.7185
# 3 65.0753 54.0714 214.5946 5.8579 11.2989 -16.0560
# 4 12.6532 -17.9989 5.8579 44.4826 -1.5984 -2.2603
# 5 15.9579 -11.3621 11.2989 -1.5984 34.9868 2.9079
# 6 -31.8828 -5.7185 -16.0560 -2.2603 2.9079 33.1602
#
#
#
# Elastic Compliance Matrix: (Units=1/GPa)
#
#
# Indices 1 2 3 4 5 6 
#
# 1 0.040249 -0.007211 -0.006217 -0.012541 -0.022219 0.035539
# 2 -0.007211 0.014964 -0.002788 0.008526 0.009937 -0.005993
# 3 -0.006217 -0.002788 0.007036 -0.000446 -0.000107 -0.003073
# 4 -0.012541 0.008526 -0.000446 0.029449 0.010788 -0.009742
# 5 -0.022219 0.009937 -0.000107 0.010788 0.044370 -0.022857
# 6 0.035539 -0.005993 -0.003073 -0.009742 -0.022857 0.063145
#
#
# Mechanical properties :
#
#
# Convention : Reuss Voigt Hill
#
# Bulk Modulus (GPa) = 33.53911 74.86152 54.20031
# Shear Modulus (GPa) = 20.69668 39.65621 30.17645
#
# Velocity S-wave (km/s) = 2.75785 3.81747 3.33007
# Velocity P-wave (km/s) = 4.73984 6.85137 5.89098
#
# Compressibility (1/GPa) = 0.02981594
#
# Stress axis : x y z
#
# Youngs Moduli (GPa) = 24.84511 66.82850 142.13242
#
# Poissons Ratio (x) = 0.48191 0.88369
# Poissons Ratio (y) = 0.17916 0.39626
# Poissons Ratio (z) = 0.15447 0.18631
#
# Static dielectric constant tensor:
#      x y z
#    x 2.480430 0.267520 -0.226200 
#    y 0.267520 2.497770 -0.198370 
#    z -0.226200 -0.198370 2.363500 
# 
# From -- ./inp_files/385003.got.cif
#   From: 2010.05.17/outbox.cif.g08.bks.cpg/sg2_193_cif.got.tgz:385003.got - 2010.06.03 11:33:40.
