data_PCOD9086062
_publ_section_title
;
Structure prediction by ZEFSAII (Michael W. Deem and Ramdas Pophale) SiO2 
 PCOD9086062
Probable space group: P -1
;
_chemical_formula_sum "Si O2"
_cell_formula_units_Z 16
_cell_length_a 5.329139
_cell_length_b 14.688701
_cell_length_c 11.488151
_cell_angle_alpha 134.368413
_cell_angle_beta 80.653957
_cell_angle_gamma 100.834516
_cell_volume 630.778106
_symmetry_space_group_name_H-M "P -1"
_symmetry_group_IT_number 2
_symmetry_cell_setting 'triclinic'
loop_
_space_group_symop_operation_xyz
x,y,z
-x,-y,-z
loop_
_atom_site_type_symbol
_atom_site_label
_atom_site_fract_x
_atom_site_fract_y
_atom_site_fract_z
Si Si1 0.161158 0.387412 0.928633
Si Si2 0.794904 0.882805 0.303384
Si Si3 0.106229 0.481231 0.270674
Si Si4 0.634326 0.621069 0.341205
Si Si5 0.240221 0.084787 0.403185
Si Si6 0.464970 0.121718 0.900073
Si Si7 0.404046 0.850726 0.854105
Si Si8 0.878704 0.761524 0.795314
O O1 0.044442 0.238386 0.796911
O O2 0.369834 0.392017 0.812936
O O3 0.199049 0.413284 0.085538
O O4 0.000000 0.500000 0.000000
O O5 0.702943 0.926489 0.473462
O O6 0.572104 0.831616 0.185724
O O7 0.969184 0.999378 0.334746
O O8 0.343440 0.587696 0.374150
O O9 0.836721 0.533390 0.305479
O O10 0.094033 0.378102 0.282657
O O11 0.749643 0.766058 0.483664
O O12 0.444717 0.017831 0.252865
O O13 0.660170 0.192310 0.042527
O O14 0.206300 0.146791 0.010928
O O15 0.638425 0.770919 0.737817
O O16 0.145355 0.822562 0.780064
O O17 0.500000 0.000000 0.000000
#
# Coordination Sequence:
#
# PCOD9086062 Si02
#       8
#     2   2   2   2   2   2   2   2
#     4   9  18  33  51  74 109 150 196 241 283 319
#     4  10  19  36  52  79 115 163 197 242 275 335
#     4  11  20  37  53  79 111 147 195 237 281 331
#     4  10  23  34  52  75 111 156 197 236 270 323
#     4  10  22  36  51  80 119 161 203 233 276 330
#     4  10  21  32  60  81 121 147 194 229 300 337
#     4  10  21  38  60  94 121 138 178 236 307 362
#     4  10  21  35  61  87 116 146 181 232 301 349
#
# _framework density 25.365499
#
# number of rings (size 3 to 8) (size 9 to 14) (size 15 to 20)
#    0.750    1.250    1.250    2.625    1.750    1.000 
#   11.250    0.000    0.000    0.000    0.000    5.250 
#    0.000    0.000    0.000    0.000    0.000    0.000 
#
# Total GULP energy -89237.363100 kJ/mol
# GULP energy per Si atom -5577.335194 kJ/mol
# Density = 2.530777 g / cm^3
# Si number density = 25.365499 Si / 1000 Ang^3
#
#
#
# Elastic Constant Matrix: (Units=GPa)
#
#
# Indices 1 2 3 4 5 6 
#
# 1 85.4677 7.9853 -2.0550 2.0014 -8.3140 6.1171
# 2 7.9853 65.3439 14.4187 8.6982 -3.0725 4.0173
# 3 -2.0550 14.4187 84.9289 -0.2719 -11.6917 1.9402
# 4 2.0014 8.6982 -0.2719 45.7569 -0.3561 -0.0198
# 5 -8.3140 -3.0725 -11.6917 -0.3561 20.3414 7.3129
# 6 6.1171 4.0173 1.9402 -0.0198 7.3129 37.2186
#
#
#
# Elastic Compliance Matrix: (Units=1/GPa)
#
#
# Indices 1 2 3 4 5 6 
#
# 1 0.012818 -0.001337 0.001607 -0.000242 0.007200 -0.003461
# 2 -0.001337 0.016620 -0.002697 -0.003110 0.000941 -0.001620
# 3 0.001607 -0.002697 0.013558 0.000591 0.008927 -0.002433
# 4 -0.000242 -0.003110 0.000591 0.022460 0.000039 0.000349
# 5 0.007200 0.000941 0.008927 0.000039 0.062416 -0.014014
# 6 -0.003461 -0.001620 -0.002433 0.000349 -0.014014 0.030493
#
#
# Mechanical properties :
#
#
# Convention : Reuss Voigt Hill
#
# Bulk Modulus (GPa) = 26.21933 30.71540 28.46736
# Shear Modulus (GPa) = 28.41976 35.02282 31.72129
#
# Velocity S-wave (km/s) = 3.35088 3.71984 3.54017
# Velocity P-wave (km/s) = 5.03292 5.53038 5.28750
#
# Compressibility (1/GPa) = 0.03813980
#
# Stress axis : x y z
#
# Youngs Moduli (GPa) = 78.01700 60.16780 73.75817
#
# Poissons Ratio (x) = 0.08046 -0.11851
# Poissons Ratio (y) = 0.10433 0.19895
# Poissons Ratio (z) = -0.12535 0.16229
#
# Static dielectric constant tensor:
#      x y z
#    x 2.050800 0.011830 0.011240 
#    y 0.011830 2.218930 0.000010 
#    z 0.011240 0.000010 1.975970 
# 
# From -- ./inp_files/484479.got.cif
#   From: 2010.05.17/outbox.cif.g08.bks.cpg/sg2_243_cif.got.tgz:484479.got - 2010.06.03 11:33:40.
