data_PCOD9086220
_publ_section_title
;
Structure prediction by ZEFSAII (Michael W. Deem and Ramdas Pophale) SiO2 
 PCOD9086220
Probable space group: P -1
;
_chemical_formula_sum "Si O2"
_cell_formula_units_Z 16
_cell_length_a 9.695032
_cell_length_b 12.506590
_cell_length_c 18.584088
_cell_angle_alpha 25.849734
_cell_angle_beta 42.546444
_cell_angle_gamma 41.216159
_cell_volume 633.200240
_symmetry_space_group_name_H-M "P -1"
_symmetry_group_IT_number 2
_symmetry_cell_setting 'triclinic'
loop_
_space_group_symop_operation_xyz
x,y,z
-x,-y,-z
loop_
_atom_site_type_symbol
_atom_site_label
_atom_site_fract_x
_atom_site_fract_y
_atom_site_fract_z
Si Si1 0.635409 0.661332 0.309665
Si Si2 0.532272 0.728434 0.746677
Si Si3 0.071589 0.263328 0.723669
Si Si4 0.286908 0.507574 0.380327
Si Si5 0.770119 0.300424 0.998702
Si Si6 0.280654 0.832711 0.638371
Si Si7 0.922213 0.484200 0.165353
Si Si8 0.323327 0.015663 0.119520
O O1 0.500000 0.500000 0.500000
O O2 0.822231 0.683883 0.276347
O O3 0.757191 0.533963 0.266964
O O4 0.462081 0.931904 0.189168
O O5 0.683039 0.435028 0.875573
O O6 0.338792 0.800921 0.719404
O O7 0.675899 0.911166 0.562255
O O8 0.421705 0.759769 0.848107
O O9 0.236529 0.300417 0.576574
O O10 0.858106 0.455950 0.656428
O O11 0.054576 0.976688 0.906105
O O12 0.527652 0.402853 0.325064
O O13 0.233157 0.777236 0.280026
O O14 0.865642 0.485022 0.898317
O O15 0.072638 0.778731 0.718292
O O16 0.844902 0.709944 0.998142
O O17 0.500000 0.000000 0.000000
#
# Coordination Sequence:
#
# PCOD9086220 Si02
#       8
#     2   2   2   2   2   2   2   2
#     4  11  22  38  58  98 131 167 201 242 326 388
#     4  10  26  44  67  85 123 173 220 262 304 364
#     4  11  23  35  66  95 131 162 199 258 319 383
#     4  11  20  38  63  95 129 162 198 256 324 379
#     4  11  24  45  62  96 125 161 218 269 306 360
#     4  11  22  45  67  88 122 174 210 255 318 375
#     4  11  24  39  66  92 130 162 206 266 311 376
#     4  10  19  36  56  93 125 158 190 247 320 372
#
# _framework density 25.268467000000001
#
# number of rings (size 3 to 8) (size 9 to 14) (size 15 to 20)
#    0.000    1.250    6.250    0.000    3.500    1.500 
#    0.000    0.000    0.000    0.000    0.000    0.000 
#    0.000    0.000    0.000    0.000    0.000    0.000 
#
# Total GULP energy -89471.255365 kJ/mol
# GULP energy per Si atom -5591.953460 kJ/mol
# Density = 2.521095 g / cm^3
# Si number density = 25.268467 Si / 1000 Ang^3
#
#
#
# Elastic Constant Matrix: (Units=GPa)
#
#
# Indices 1 2 3 4 5 6 
#
# 1 147.1258 4.3888 53.5279 2.4146 -1.3449 10.9795
# 2 4.3888 21.2811 15.6256 6.7537 3.2026 2.0154
# 3 53.5279 15.6256 161.3195 3.8083 11.8003 14.1223
# 4 2.4146 6.7537 3.8083 28.1403 6.7235 -2.4630
# 5 -1.3449 3.2026 11.8003 6.7235 48.4501 4.1386
# 6 10.9795 2.0154 14.1223 -2.4630 4.1386 27.7176
#
#
#
# Elastic Compliance Matrix: (Units=1/GPa)
#
#
# Indices 1 2 3 4 5 6 
#
# 1 0.007890 0.000568 -0.002547 -0.000919 0.001110 -0.002116
# 2 0.000568 0.054843 -0.004929 -0.012688 -0.000412 -0.002767
# 3 -0.002547 -0.004929 0.007826 0.000500 -0.001520 -0.002349
# 4 -0.000919 -0.012688 0.000500 0.040350 -0.005371 0.005420
# 5 0.001110 -0.000412 -0.001520 -0.005371 0.022105 -0.003413
# 6 -0.002116 -0.002767 -0.002349 0.005420 -0.003413 0.039306
#
#
# Mechanical properties :
#
#
# Convention : Reuss Voigt Hill
#
# Bulk Modulus (GPa) = 17.62322 52.97900 35.30111
# Shear Modulus (GPa) = 24.38434 37.94053 31.16244
#
# Velocity S-wave (km/s) = 3.10983 3.87912 3.51558
# Velocity P-wave (km/s) = 4.45918 6.40901 5.52085
#
# Compressibility (1/GPa) = 0.05674333
#
# Stress axis : x y z
#
# Youngs Moduli (GPa) = 126.74488 18.23403 127.77115
#
# Poissons Ratio (x) = -0.01036 0.32546
# Poissons Ratio (y) = -0.07202 0.62975
# Poissons Ratio (z) = 0.32285 0.08987
#
# Static dielectric constant tensor:
#      x y z
#    x 2.014920 0.002260 -0.058370 
#    y 0.002260 2.116990 -0.018280 
#    z -0.058370 -0.018280 1.980680 
# 
# From -- ./inp_files/243126.got.cif
#   From: 2010.05.17/outbox.cif.g08.bks.cpg/sg2_122_cif.got.tgz:243126.got - 2010.06.03 11:33:40.
