data_PCOD9086856
_publ_section_title
;
Structure prediction by ZEFSAII (Michael W. Deem and Ramdas Pophale) SiO2 
 PCOD9086856
Probable space group: P -1
;
_chemical_formula_sum "Si O2"
_cell_formula_units_Z 16
_cell_length_a 11.296391
_cell_length_b 14.632144
_cell_length_c 9.260653
_cell_angle_alpha 58.871334
_cell_angle_beta 61.024867
_cell_angle_gamma 29.409420
_cell_volume 641.294735
_symmetry_space_group_name_H-M "P -1"
_symmetry_group_IT_number 2
_symmetry_cell_setting 'triclinic'
loop_
_space_group_symop_operation_xyz
x,y,z
-x,-y,-z
loop_
_atom_site_type_symbol
_atom_site_label
_atom_site_fract_x
_atom_site_fract_y
_atom_site_fract_z
Si Si1 0.304522 0.395497 0.174102
Si Si2 0.396111 0.664540 0.171003
Si Si3 0.138647 0.170077 0.015983
Si Si4 0.820178 0.225813 0.308586
Si Si5 0.341687 0.372869 0.712387
Si Si6 0.046777 0.762462 0.467785
Si Si7 0.583380 0.155015 0.478457
Si Si8 0.686085 0.780429 0.914302
O O1 0.381486 0.322382 0.349580
O O2 0.069281 0.624697 0.108022
O O3 0.530827 0.304419 0.028576
O O4 0.267231 0.305048 0.195198
O O5 0.582560 0.445188 0.220926
O O6 0.477780 0.672346 0.262497
O O7 0.145308 0.770312 0.270338
O O8 0.178545 0.204768 0.117454
O O9 0.029472 0.126686 0.157520
O O10 0.397536 0.990216 0.934019
O O11 0.874059 0.233226 0.431169
O O12 0.755988 0.145108 0.406392
O O13 0.174368 0.564329 0.567510
O O14 0.469317 0.211955 0.654691
O O15 0.236675 0.363523 0.901567
O O16 0.757471 0.949557 0.484690
#
# Coordination Sequence:
#
# PCOD9086856 Si02
#       8
#     2   2   2   2   2   2   2   2
#     4  10  24  38  57  92 127 153 188 248 304 350
#     4   9  18  36  54  80 120 160 196 233 285 350
#     4  10  22  41  67  87 111 157 207 251 285 342
#     4  10  19  36  60  91 119 153 199 246 289 350
#     4  10  20  38  59  86 118 154 201 247 285 348
#     4  11  20  34  57  86 124 162 197 233 285 358
#     4  12  23  34  58  95 128 157 183 236 315 361
#     4  10  22  43  68  87 108 155 214 247 287 344
#
# _framework density 24.949528999999998
#
# number of rings (size 3 to 8) (size 9 to 14) (size 15 to 20)
#    0.000    1.750    2.500    3.000    3.500    3.500 
#    0.000    0.625    0.000    9.000    0.000    0.000 
#    0.000    0.000    0.000    0.000    0.000    0.000 
#
# Total GULP energy -89548.598365 kJ/mol
# GULP energy per Si atom -5596.787398 kJ/mol
# Density = 2.489274 g / cm^3
# Si number density = 24.949529 Si / 1000 Ang^3
#
#
#
# Elastic Constant Matrix: (Units=GPa)
#
#
# Indices 1 2 3 4 5 6 
#
# 1 43.9586 15.8754 18.9908 -1.0954 -11.4939 2.5378
# 2 15.8754 109.5535 15.0227 -3.7761 5.6002 0.3699
# 3 18.9908 15.0227 52.6595 0.6367 4.7509 -5.5199
# 4 -1.0954 -3.7761 0.6367 25.0142 1.3344 -9.7041
# 5 -11.4939 5.6002 4.7509 1.3344 21.9557 0.0570
# 6 2.5378 0.3699 -5.5199 -9.7041 0.0570 27.2477
#
#
#
# Elastic Compliance Matrix: (Units=1/GPa)
#
#
# Indices 1 2 3 4 5 6 
#
# 1 0.037827 -0.004716 -0.015274 -0.002943 0.024509 -0.007653
# 2 -0.004716 0.010229 -0.000695 0.001962 -0.005049 0.000869
# 3 -0.015274 -0.000695 0.026715 0.002258 -0.013757 0.007677
# 4 -0.002943 0.001962 0.002258 0.047173 -0.005442 0.017517
# 5 0.024509 -0.005049 -0.013757 -0.005442 0.062991 -0.007071
# 6 -0.007653 0.000869 0.007677 0.017517 -0.007071 0.045210
#
#
# Mechanical properties :
#
#
# Convention : Reuss Voigt Hill
#
# Bulk Modulus (GPa) = 29.93791 33.99437 31.96614
# Shear Modulus (GPa) = 17.68977 25.26235 21.47606
#
# Velocity S-wave (km/s) = 2.66564 3.18549 2.93709
# Velocity P-wave (km/s) = 4.63677 5.21389 4.93377
#
# Compressibility (1/GPa) = 0.03340247
#
# Stress axis : x y z
#
# Youngs Moduli (GPa) = 26.43582 97.75806 37.43190
#
# Poissons Ratio (x) = 0.46098 0.57175
# Poissons Ratio (y) = 0.12466 0.02601
# Poissons Ratio (z) = 0.40379 0.06792
#
# Static dielectric constant tensor:
#      x y z
#    x 2.012350 -0.031280 -0.051060 
#    y -0.031280 2.023750 0.017940 
#    z -0.051060 0.017940 1.943580 
# 
# From -- ./inp_files/272445.got.cif
#   From: 2010.05.17/outbox.cif.g08.bks.cpg/sg2_137_cif.got.tgz:272445.got - 2010.06.03 11:33:40.
