data_PCOD9086788
_publ_section_title
;
Structure prediction by ZEFSAII (Michael W. Deem and Ramdas Pophale) SiO2 
 PCOD9086788
Probable space group: P -1
;
_chemical_formula_sum "Si O2"
_cell_formula_units_Z 16
_cell_length_a 14.782603
_cell_length_b 8.894767
_cell_length_c 14.617542
_cell_angle_alpha 99.269082
_cell_angle_beta 30.512307
_cell_angle_gamma 80.365139
_cell_volume 762.482728
_symmetry_space_group_name_H-M "P -1"
_symmetry_group_IT_number 2
_symmetry_cell_setting 'triclinic'
loop_
_space_group_symop_operation_xyz
x,y,z
-x,-y,-z
loop_
_atom_site_type_symbol
_atom_site_label
_atom_site_fract_x
_atom_site_fract_y
_atom_site_fract_z
Si Si1 0.311680 0.529500 0.919354
Si Si2 0.199570 0.280346 0.330751
Si Si3 0.280975 0.911470 0.490879
Si Si4 0.010177 0.889541 0.572643
Si Si5 0.823192 0.715060 0.433745
Si Si6 0.560086 0.551221 0.860103
Si Si7 0.429886 0.420988 0.448880
Si Si8 0.778581 0.170081 0.262021
O O1 0.492307 0.299349 0.749495
O O2 0.373237 0.614910 0.954271
O O3 0.380955 0.578913 0.770187
O O4 0.061341 0.601692 0.162277
O O5 0.156430 0.270155 0.474145
O O6 0.407518 0.286409 0.139875
O O7 0.000000 0.500000 0.500000
O O8 0.190412 0.129872 0.266096
O O9 0.075501 0.961690 0.609178
O O10 0.225859 0.908334 0.643842
O O11 0.318703 0.068854 0.457482
O O12 0.214370 0.659751 0.381660
O O13 0.000000 0.000000 0.500000
O O14 0.700624 0.620647 0.510534
O O15 0.500000 0.500000 0.000000
O O16 0.560125 0.257846 0.396868
O O17 0.254438 0.632740 0.666202
O O18 0.000000 0.000000 0.000000
#
# Coordination Sequence:
#
# PCOD9086788 Si02
#       8
#     2   2   2   2   2   2   2   2
#     4  10  21  40  62  91 132 168 209 262 325 372
#     4  10  20  35  62  91 127 174 215 256 322 385
#     4  10  23  39  64  96 130 167 215 273 315 389
#     4  10  19  36  60  87 129 164 209 261 317 376
#     4  12  22  40  69  95 129 173 213 263 326 380
#     4  10  20  36  58  87 127 168 215 264 312 381
#     4  10  23  42  68  96 126 167 219 265 317 397
#     4  10  22  45  67  94 132 169 211 270 334 377
#
# _framework density 20.984079999999999
#
# number of rings (size 3 to 8) (size 9 to 14) (size 15 to 20)
#    0.000    1.750    2.500    2.250    1.750    1.500 
#    0.000    9.375    8.250    0.000    0.000    0.000 
#    0.000    0.000    0.000    0.000    0.000    0.000 
#
# Total GULP energy -89212.613455 kJ/mol
# GULP energy per Si atom -5575.788341 kJ/mol
# Density = 2.093632 g / cm^3
# Si number density = 20.984080 Si / 1000 Ang^3
#
#
#
# Elastic Constant Matrix: (Units=GPa)
#
#
# Indices 1 2 3 4 5 6 
#
# 1 58.3866 10.9129 2.6100 -5.2123 3.3329 -21.4772
# 2 10.9129 90.6494 28.2411 -4.3454 -5.6888 -11.4196
# 3 2.6100 28.2411 63.7056 -3.3356 -0.8203 -0.5120
# 4 -5.2123 -4.3454 -3.3356 27.7467 -8.4844 -3.3270
# 5 3.3329 -5.6888 -0.8203 -8.4844 14.2445 -3.7895
# 6 -21.4772 -11.4196 -0.5120 -3.3270 -3.7895 39.0340
#
#
#
# Elastic Compliance Matrix: (Units=1/GPa)
#
#
# Indices 1 2 3 4 5 6 
#
# 1 0.022427 -0.000636 -0.000195 0.006094 0.001527 0.012819
# 2 -0.000636 0.014500 -0.005962 0.005132 0.010044 0.005226
# 3 -0.000195 -0.005962 0.018349 0.000617 -0.001361 -0.001690
# 4 0.006094 0.005132 0.000617 0.049831 0.033632 0.012375
# 5 0.001527 0.010044 -0.001361 0.033632 0.098107 0.016152
# 6 0.012819 0.005226 -0.001690 0.012375 0.016152 0.036801
#
#
# Mechanical properties :
#
#
# Convention : Reuss Voigt Hill
#
# Bulk Modulus (GPa) = 23.98653 32.91884 28.45269
# Shear Modulus (GPa) = 18.69166 27.60355 23.14761
#
# Velocity S-wave (km/s) = 2.98779 3.63085 3.32490
# Velocity P-wave (km/s) = 4.83303 5.77053 5.32246
#
# Compressibility (1/GPa) = 0.04169007
#
# Stress axis : x y z
#
# Youngs Moduli (GPa) = 44.58913 68.96438 54.49795
#
# Poissons Ratio (x) = 0.04389 0.01063
# Poissons Ratio (y) = 0.02838 0.32491
# Poissons Ratio (z) = 0.00869 0.41116
#
# Static dielectric constant tensor:
#      x y z
#    x 1.763140 -0.017260 0.009240 
#    y -0.017260 1.698460 0.016020 
#    z 0.009240 0.016020 1.722860 
# 
# From -- ./inp_files/529866.got.cif
#   From: 2010.05.17/outbox.cif.g08.bks.cpg/sg2_265_cif.got.tgz:529866.got - 2010.06.03 11:33:40.
