data_PCOD9086324
_publ_section_title
;
Structure prediction by ZEFSAII (Michael W. Deem and Ramdas Pophale) SiO2 
 PCOD9086324
Probable space group: P -1
;
_chemical_formula_sum "Si O2"
_cell_formula_units_Z 14
_cell_length_a 14.476054
_cell_length_b 13.827933
_cell_length_c 8.925201
_cell_angle_alpha 59.621385
_cell_angle_beta 38.579399
_cell_angle_gamma 40.679678
_cell_volume 709.331496
_symmetry_space_group_name_H-M "P -1"
_symmetry_group_IT_number 2
_symmetry_cell_setting 'triclinic'
loop_
_space_group_symop_operation_xyz
x,y,z
-x,-y,-z
loop_
_atom_site_type_symbol
_atom_site_label
_atom_site_fract_x
_atom_site_fract_y
_atom_site_fract_z
Si Si1 0.412741 0.148983 0.901153
Si Si2 0.088005 0.056352 0.047706
Si Si3 0.530229 0.861371 0.644208
Si Si4 0.837310 0.552323 0.383716
Si Si5 0.854699 0.705613 0.616601
Si Si6 0.015695 0.318554 0.085821
Si Si7 0.838725 0.967619 0.384666
O O1 0.603385 0.104918 0.613332
O O2 0.287217 0.275731 0.089071
O O3 0.239913 0.200316 0.965651
O O4 0.500000 0.000000 0.000000
O O5 0.978788 0.218605 0.133688
O O6 0.121419 0.056950 0.825573
O O7 0.966850 0.003854 0.260000
O O8 0.313653 0.937076 0.920561
O O9 0.615099 0.716102 0.549922
O O10 0.712544 0.779161 0.594698
O O11 0.500000 0.000000 0.500000
O O12 0.931955 0.461224 0.491581
O O13 0.870397 0.438213 0.307354
O O14 0.965917 0.592585 0.129188
O O15 0.894553 0.818378 0.499897
#
# Coordination Sequence:
#
# PCOD9086324 Si02
#       7
#     2   2   2   2   2   2   2
#     4   9  18  33  57  85 117 149 194 243 279 334
#     4  11  21  34  60  89 116 154 195 243 286 348
#     4  12  20  36  63  89 109 150 205 239 280 348
#     4  10  21  34  59  86 122 148 193 247 285 340
#     4  10  20  37  58  88 117 153 193 243 293 338
#     4  10  19  36  57  87 115 157 196 233 293 343
#     4  10  20  35  56  89 121 150 195 242 293 338
#
# _framework density 19.736893999999999
#
# number of rings (size 3 to 8) (size 9 to 14) (size 15 to 20)
#    0.000    1.714    2.857    3.000    0.000    0.000 
#    0.000   12.143    0.000   26.571    0.000    0.000 
#    0.000    0.000    0.000    0.000    0.000    0.000 
#
# Total GULP energy -77983.577287 kJ/mol
# GULP energy per Si atom -5570.255521 kJ/mol
# Density = 1.969197 g / cm^3
# Si number density = 19.736894 Si / 1000 Ang^3
#
#
#
# Elastic Constant Matrix: (Units=GPa)
#
#
# Indices 1 2 3 4 5 6 
#
# 1 80.9477 55.1247 33.0729 -7.4160 -8.4453 16.7266
# 2 55.1247 143.4423 36.2091 7.2541 -4.5315 -0.7210
# 3 33.0729 36.2091 67.1566 5.9363 -7.2623 12.3697
# 4 -7.4160 7.2541 5.9363 29.6373 3.1961 11.0901
# 5 -8.4453 -4.5315 -7.2623 3.1961 25.4287 -3.9536
# 6 16.7266 -0.7210 12.3697 11.0901 -3.9536 39.9180
#
#
#
# Elastic Compliance Matrix: (Units=1/GPa)
#
#
# Indices 1 2 3 4 5 6 
#
# 1 0.024860 -0.008678 -0.006402 0.014141 0.001176 -0.012402
# 2 -0.008678 0.011300 -0.002373 -0.006946 0.000344 0.006539
# 3 -0.006402 -0.002373 0.020506 -0.004753 0.003588 -0.002039
# 4 0.014141 -0.006946 -0.004753 0.047568 -0.006748 -0.018462
# 5 0.001176 0.000344 0.003588 -0.006748 0.042345 0.004470
# 6 -0.012402 0.006539 -0.002039 -0.018462 0.004470 0.036570
#
#
# Mechanical properties :
#
#
# Convention : Reuss Voigt Hill
#
# Bulk Modulus (GPa) = 45.95386 60.03999 52.99692
# Shear Modulus (GPa) = 22.19181 30.13945 26.16563
#
# Velocity S-wave (km/s) = 3.35682 3.91200 3.64500
# Velocity P-wave (km/s) = 6.19339 7.13381 6.68017
#
# Compressibility (1/GPa) = 0.02176096
#
# Stress axis : x y z
#
# Youngs Moduli (GPa) = 40.22564 88.49415 48.76507
#
# Poissons Ratio (x) = 0.76793 0.31222
# Poissons Ratio (y) = 0.34907 0.11570
# Poissons Ratio (z) = 0.25754 0.20996
#
# Static dielectric constant tensor:
#      x y z
#    x 1.780590 0.015120 0.091120 
#    y 0.015120 1.741400 0.056330 
#    z 0.091120 0.056330 1.751060 
# 
# From -- ./inp_files/311113.got.cif
#   From: 2010.05.17/outbox.cif.g08.bks.cpg/sg2_156_cif.got.tgz:311113.got - 2010.06.03 11:33:40.
