data_PCOD9086907
_publ_section_title
;
Structure prediction by ZEFSAII (Michael W. Deem and Ramdas Pophale) SiO2 
 PCOD9086907
Probable space group: P -1
;
_chemical_formula_sum "Si O2"
_cell_formula_units_Z 14
_cell_length_a 9.150365
_cell_length_b 6.700895
_cell_length_c 12.664769
_cell_angle_alpha 112.946899
_cell_angle_beta 53.287567
_cell_angle_gamma 107.000751
_cell_volume 571.401422
_symmetry_space_group_name_H-M "P -1"
_symmetry_group_IT_number 2
_symmetry_cell_setting 'triclinic'
loop_
_space_group_symop_operation_xyz
x,y,z
-x,-y,-z
loop_
_atom_site_type_symbol
_atom_site_label
_atom_site_fract_x
_atom_site_fract_y
_atom_site_fract_z
Si Si1 0.036192 0.331710 0.690984
Si Si2 0.946789 0.069630 0.887717
Si Si3 0.880778 0.673112 0.705211
Si Si4 0.650158 0.673049 0.597589
Si Si5 0.704291 0.191494 0.500880
Si Si6 0.347963 0.149934 0.735097
Si Si7 0.262479 0.631098 0.808253
O O1 0.193467 0.235111 0.531704
O O2 0.129690 0.543280 0.754525
O O3 0.965697 0.178793 0.784693
O O4 0.892755 0.431038 0.695601
O O5 0.149291 0.064898 0.852768
O O6 0.858480 0.832666 0.846554
O O7 0.829226 0.223688 0.037720
O O8 0.731287 0.692808 0.684355
O O9 0.078358 0.741587 0.578737
O O10 0.630657 0.412770 0.528755
O O11 0.447082 0.747938 0.703764
O O12 0.569223 0.153437 0.652190
O O13 0.675612 0.989614 0.391974
O O14 0.315407 0.406067 0.792526
#
# Coordination Sequence:
#
# PCOD9086907 Si02
#       7
#     2   2   2   2   2   2   2
#     4  10  19  36  61  82 106 146 193 238 279 322
#     4  10  21  36  57  83 116 150 185 229 280 335
#     4  10  21  36  57  83 116 150 185 229 280 335
#     4  10  20  35  56  83 116 149 184 231 282 334
#     4   8  14  27  49  76 103 134 175 223 270 312
#     4   8  14  27  49  76 103 134 175 223 270 312
#     4  10  20  35  56  83 116 149 184 231 282 334
#
# _framework density 24.501163999999999
#
# number of rings (size 3 to 8) (size 9 to 14) (size 15 to 20)
#    0.000    2.571    0.000    3.857    0.000    2.857 
#    0.000    3.571    0.000   15.429    0.000    0.000 
#    0.000    0.000    0.000    0.000    0.000    0.000 
#
# Total GULP energy -78112.531964 kJ/mol
# GULP energy per Si atom -5579.466569 kJ/mol
# Density = 2.444540 g / cm^3
# Si number density = 24.501164 Si / 1000 Ang^3
#
#
#
# Elastic Constant Matrix: (Units=GPa)
#
#
# Indices 1 2 3 4 5 6 
#
# 1 83.7066 -5.2854 24.2493 8.3760 -0.3221 3.6463
# 2 -5.2854 60.2826 8.2728 -6.5640 -6.3502 0.2959
# 3 24.2493 8.2728 137.8746 35.9074 -21.2259 -4.3195
# 4 8.3760 -6.5640 35.9074 32.9750 -9.2593 3.1742
# 5 -0.3221 -6.3502 -21.2259 -9.2593 27.1477 -3.5458
# 6 3.6463 0.2959 -4.3195 3.1742 -3.5458 13.9190
#
#
#
# Elastic Compliance Matrix: (Units=1/GPa)
#
#
# Indices 1 2 3 4 5 6 
#
# 1 0.013082 0.001286 -0.002875 -0.000160 -0.002492 -0.004945
# 2 0.001286 0.018417 -0.002730 0.007805 0.004565 -0.002193
# 3 -0.002875 -0.002730 0.012367 -0.012485 0.005914 0.009003
# 4 -0.000160 0.007805 -0.012485 0.048751 0.006946 -0.013346
# 5 -0.002492 0.004565 0.005914 0.006946 0.046520 0.012658
# 6 -0.004945 -0.002193 0.009003 -0.013346 0.012658 0.082248
#
#
# Mechanical properties :
#
#
# Convention : Reuss Voigt Hill
#
# Bulk Modulus (GPa) = 28.38631 37.37079 32.87855
# Shear Modulus (GPa) = 20.68110 31.78348 26.23229
#
# Velocity S-wave (km/s) = 2.90847 3.60561 3.27564
# Velocity P-wave (km/s) = 4.78433 5.71136 5.26827
#
# Compressibility (1/GPa) = 0.03522825
#
# Stress axis : x y z
#
# Youngs Moduli (GPa) = 76.43862 54.29651 80.86344
#
# Poissons Ratio (x) = -0.06982 0.23248
# Poissons Ratio (y) = -0.09829 0.22075
# Poissons Ratio (z) = 0.21976 0.14822
#
# Static dielectric constant tensor:
#      x y z
#    x 1.990870 -0.013490 -0.053600 
#    y -0.013490 2.052720 -0.039600 
#    z -0.053600 -0.039600 1.935010 
# 
# From -- ./inp_files/204064.got.cif
#   From: 2010.05.17/outbox.cif.g08.bks.cpg/sg2_103_cif.got.tgz:204064.got - 2010.06.03 11:33:40.
