data_PCOD9086297
_publ_section_title
;
Structure prediction by ZEFSAII (Michael W. Deem and Ramdas Pophale) SiO2 
 PCOD9086297
Probable space group: P -1
;
_chemical_formula_sum "Si O2"
_cell_formula_units_Z 16
_cell_length_a 32.839234
_cell_length_b 9.025820
_cell_length_c 10.427766
_cell_angle_alpha 29.828205
_cell_angle_beta 142.090533
_cell_angle_gamma 141.185226
_cell_volume 898.071038
_symmetry_space_group_name_H-M "P -1"
_symmetry_group_IT_number 2
_symmetry_cell_setting 'triclinic'
loop_
_space_group_symop_operation_xyz
x,y,z
-x,-y,-z
loop_
_atom_site_type_symbol
_atom_site_label
_atom_site_fract_x
_atom_site_fract_y
_atom_site_fract_z
Si Si1 0.030369 0.740769 0.511123
Si Si2 0.526297 0.700374 0.288244
Si Si3 0.975181 0.331619 0.930445
Si Si4 0.671491 0.021042 0.032775
Si Si5 0.169348 0.015672 0.274300
Si Si6 0.469561 0.289592 0.205718
Si Si7 0.671090 0.725655 0.532236
Si Si8 0.829980 0.276846 0.224759
O O1 0.113059 0.805036 0.658943
O O2 0.000000 0.500000 0.500000
O O3 0.008577 0.051305 0.205646
O O4 0.000237 0.574708 0.693669
O O5 0.500000 0.500000 0.500000
O O6 0.493730 0.490909 0.241393
O O7 0.609881 0.791566 0.411605
O O8 0.500000 0.000000 0.000000
O O9 0.000000 0.500000 0.000000
O O10 0.891684 0.175427 0.827782
O O11 0.750498 0.100561 0.121275
O O12 0.663661 0.824059 0.292575
O O13 0.661256 0.355653 0.789809
O O14 0.613254 0.844285 0.920137
O O15 0.249074 0.092033 0.367706
O O16 0.161997 0.828254 0.530457
O O17 0.159137 0.352230 0.026188
O O18 0.500000 0.000000 0.500000
O O19 0.500000 0.500000 0.000000
#
# Coordination Sequence:
#
# PCOD9086297 Si02
#       8
#     2   2   2   2   2   2   2   2
#     4  12  21  38  61  87 115 150 200 240 285 336
#     4  12  24  38  56  88 119 149 187 235 292 342
#     4  12  24  38  57  89 123 155 191 237 293 347
#     4  10  19  36  58  88 110 144 196 244 282 331
#     4  10  19  36  57  84 111 151 195 233 284 349
#     4  12  21  38  62  85 112 148 195 236 283 337
#     4  10  20  36  59  81 113 151 194 233 284 348
#     4  10  20  33  60  87 111 143 196 248 282 326
#
# _framework density 17.815961000000001
#
# number of rings (size 3 to 8) (size 9 to 14) (size 15 to 20)
#    0.000    1.000    5.000    3.000    0.000    0.000 
#    0.000    2.500    0.000    0.000    0.000    0.000 
#    0.000    0.000    0.000    0.000    0.000    0.000 
#
# Total GULP energy -89392.570425 kJ/mol
# GULP energy per Si atom -5587.035652 kJ/mol
# Density = 1.777541 g / cm^3
# Si number density = 17.815961 Si / 1000 Ang^3
#
#
#
# Elastic Constant Matrix: (Units=GPa)
#
#
# Indices 1 2 3 4 5 6 
#
# 1 79.0943 43.8021 16.8776 17.7799 11.0486 13.3056
# 2 43.8021 110.5318 24.7638 32.2602 11.4350 8.3283
# 3 16.8776 24.7638 95.8639 0.8181 8.7049 -0.2853
# 4 17.7799 32.2602 0.8181 30.9711 1.1130 8.4973
# 5 11.0486 11.4350 8.7049 1.1130 37.7702 8.9450
# 6 13.3056 8.3283 -0.2853 8.4973 8.9450 36.5609
#
#
#
# Elastic Compliance Matrix: (Units=1/GPa)
#
#
# Indices 1 2 3 4 5 6 
#
# 1 0.017536 -0.005002 -0.001573 -0.003677 -0.002232 -0.003854
# 2 -0.005002 0.015916 -0.002851 -0.014117 -0.002788 0.002136
# 3 -0.001573 -0.002851 0.011570 0.003370 -0.001664 0.000936
# 4 -0.003677 -0.014117 0.003370 0.051181 0.005092 -0.008561
# 5 -0.002232 -0.002788 -0.001664 0.005092 0.029878 -0.007059
# 6 -0.003854 0.002136 0.000936 -0.008561 -0.007059 0.031992
#
#
# Mechanical properties :
#
#
# Convention : Reuss Voigt Hill
#
# Bulk Modulus (GPa) = 38.21111 50.70856 44.45984
# Shear Modulus (GPa) = 26.93288 34.39689 30.66489
#
# Velocity S-wave (km/s) = 3.89231 4.39872 4.15324
# Velocity P-wave (km/s) = 6.45712 7.37038 6.92881
#
# Compressibility (1/GPa) = 0.02617040
#
# Stress axis : x y z
#
# Youngs Moduli (GPa) = 57.02690 62.82982 86.43123
#
# Poissons Ratio (x) = 0.31429 0.13592
# Poissons Ratio (y) = 0.28526 0.24639
# Poissons Ratio (z) = 0.08968 0.17911
#
# Static dielectric constant tensor:
#      x y z
#    x 1.579860 0.040760 0.017220 
#    y 0.040760 1.618740 0.009830 
#    z 0.017220 0.009830 1.605830 
# 
# From -- ./inp_files/351580.got.cif
#   From: 2010.05.17/outbox.cif.g08.bks.cpg/sg2_176_cif.got.tgz:351580.got - 2010.06.03 11:33:40.
