data_PCOD9086291
_publ_section_title
;
Structure prediction by ZEFSAII (Michael W. Deem and Ramdas Pophale) SiO2 
 PCOD9086291
Probable space group: P -1
;
_chemical_formula_sum "Si O2"
_cell_formula_units_Z 16
_cell_length_a 8.115694
_cell_length_b 8.803190
_cell_length_c 14.770311
_cell_angle_alpha 117.464508
_cell_angle_beta 69.086886
_cell_angle_gamma 133.516035
_cell_volume 677.728584
_symmetry_space_group_name_H-M "P -1"
_symmetry_group_IT_number 2
_symmetry_cell_setting 'triclinic'
loop_
_space_group_symop_operation_xyz
x,y,z
-x,-y,-z
loop_
_atom_site_type_symbol
_atom_site_label
_atom_site_fract_x
_atom_site_fract_y
_atom_site_fract_z
Si Si1 0.117862 0.646709 0.711275
Si Si2 0.654302 0.781376 0.455284
Si Si3 0.491239 0.660670 0.735833
Si Si4 0.391149 0.143120 0.766459
Si Si5 0.881600 0.806595 0.604093
Si Si6 0.181313 0.600693 0.126472
Si Si7 0.800381 0.594228 0.115501
Si Si8 0.260190 0.643142 0.412894
O O1 0.345158 0.697623 0.714668
O O2 0.957691 0.568714 0.809493
O O3 0.966700 0.431497 0.615296
O O4 0.202276 0.880619 0.723331
O O5 0.582987 0.570165 0.354167
O O6 0.731715 0.763461 0.532887
O O7 0.443883 0.787682 0.497270
O O8 0.866674 0.995811 0.421898
O O9 0.758269 0.841234 0.715863
O O10 0.405205 0.614243 0.842085
O O11 0.564954 0.211136 0.834150
O O12 0.262787 0.245016 0.830982
O O13 0.561140 0.255245 0.677694
O O14 0.851522 0.597785 0.590041
O O15 0.028731 0.670119 0.143911
O O16 0.190868 0.480980 0.006180
#
# Coordination Sequence:
#
# PCOD9086291 Si02
#       8
#     2   2   2   2   2   2   2   2
#     4  10  23  37  56  88 120 155 196 238 289 348
#     4  10  20  37  60  87 112 148 193 240 295 349
#     4  10  20  38  58  86 118 151 194 243 289 345
#     4  11  20  38  59  86 120 161 198 240 290 348
#     4  10  20  36  62  87 110 148 197 237 290 361
#     4   9  22  39  56  86 126 153 198 253 285 343
#     4  10  19  39  62  84 119 161 197 244 297 341
#     4  10  19  36  57  83 117 147 190 241 284 345
#
# _framework density 23.608270000000001
#
# number of rings (size 3 to 8) (size 9 to 14) (size 15 to 20)
#    0.000    2.000    2.500    2.625    0.000    3.500 
#    2.250    9.375    0.000    6.000    0.000    0.000 
#    0.000    0.000    0.000    0.000    0.000    0.000 
#
# Total GULP energy -89257.471796 kJ/mol
# GULP energy per Si atom -5578.591987 kJ/mol
# Density = 2.355454 g / cm^3
# Si number density = 23.608270 Si / 1000 Ang^3
#
#
#
# Elastic Constant Matrix: (Units=GPa)
#
#
# Indices 1 2 3 4 5 6 
#
# 1 103.8404 36.4355 29.3719 -1.8804 12.0077 17.7202
# 2 36.4355 107.0080 48.6836 -7.1673 -2.1944 14.8249
# 3 29.3719 48.6836 107.6083 -18.9125 -2.6134 4.5934
# 4 -1.8804 -7.1673 -18.9125 22.3352 -0.1594 -1.0855
# 5 12.0077 -2.1944 -2.6134 -0.1594 37.8715 -1.5013
# 6 17.7202 14.8249 4.5934 -1.0855 -1.5013 35.3242
#
#
#
# Elastic Compliance Matrix: (Units=1/GPa)
#
#
# Indices 1 2 3 4 5 6 
#
# 1 0.012652 -0.002691 -0.002515 -0.002211 -0.004554 -0.005152
# 2 -0.002691 0.013036 -0.005078 -0.000501 0.001120 -0.003428
# 3 -0.002515 -0.005078 0.014012 0.010130 0.001590 0.001949
# 4 -0.002211 -0.000501 0.010130 0.053098 0.001662 0.001705
# 5 -0.004554 0.001120 0.001590 0.001662 0.028144 0.002855
# 6 -0.005152 -0.003428 0.001949 0.001705 0.002855 0.032253
#
#
# Mechanical properties :
#
#
# Convention : Reuss Voigt Hill
#
# Bulk Modulus (GPa) = 52.26835 60.82651 56.54743
# Shear Modulus (GPa) = 27.75629 32.70389 30.23009
#
# Velocity S-wave (km/s) = 3.43257 3.72596 3.58227
# Velocity P-wave (km/s) = 6.15613 6.65817 6.41207
#
# Compressibility (1/GPa) = 0.01913204
#
# Stress axis : x y z
#
# Youngs Moduli (GPa) = 79.04134 76.71115 71.36534
#
# Poissons Ratio (x) = 0.20646 0.17948
# Poissons Ratio (y) = 0.21273 0.36237
# Poissons Ratio (z) = 0.19878 0.38951
#
# Static dielectric constant tensor:
#      x y z
#    x 2.061100 -0.003890 -0.022390 
#    y -0.003890 1.878860 0.017920 
#    z -0.022390 0.017920 1.892840 
# 
# From -- ./inp_files/493373.got.cif
#   From: 2010.05.17/outbox.cif.g08.bks.cpg/sg2_247_cif.got.tgz:493373.got - 2010.06.03 11:33:40.
