data_PCOD9086385
_publ_section_title
;
Structure prediction by ZEFSAII (Michael W. Deem and Ramdas Pophale) SiO2 
 PCOD9086385
Probable space group: P -1
;
_chemical_formula_sum "Si O2"
_cell_formula_units_Z 16
_cell_length_a 13.619564
_cell_length_b 13.906333
_cell_length_c 21.456150
_cell_angle_alpha 39.812066
_cell_angle_beta 22.547410
_cell_angle_gamma 30.452825
_cell_volume 781.516922
_symmetry_space_group_name_H-M "P -1"
_symmetry_group_IT_number 2
_symmetry_cell_setting 'triclinic'
loop_
_space_group_symop_operation_xyz
x,y,z
-x,-y,-z
loop_
_atom_site_type_symbol
_atom_site_label
_atom_site_fract_x
_atom_site_fract_y
_atom_site_fract_z
Si Si1 0.900770 0.246912 0.452697
Si Si2 0.218469 0.424011 0.184216
Si Si3 0.850345 0.015994 0.964546
Si Si4 0.320684 0.476617 0.342747
Si Si5 0.729592 0.053587 0.358678
Si Si6 0.909727 0.156268 0.627840
Si Si7 0.441928 0.885075 0.237432
Si Si8 0.382579 0.646882 0.900071
O O1 0.057365 0.151961 0.476582
O O2 0.569649 0.270029 0.641272
O O3 0.125122 0.091542 0.345798
O O4 0.919795 0.418481 0.351999
O O5 0.195550 0.587808 0.078744
O O6 0.304378 0.425212 0.205212
O O7 0.546932 0.216986 0.071030
O O8 0.974769 0.053035 0.811215
O O9 0.152488 0.872991 0.905336
O O10 0.733352 0.891172 0.075875
O O11 0.549906 0.275337 0.343185
O O12 0.239934 0.645000 0.349753
O O13 0.493143 0.460230 0.185399
O O14 0.000000 0.500000 0.500000
O O15 0.500000 0.000000 0.500000
O O16 0.840362 0.998406 0.391980
O O17 0.634001 0.137460 0.777280
#
# Coordination Sequence:
#
# PCOD9086385 Si02
#       8
#     2   2   2   2   2   2   2   2
#     4   8  17  36  62  80 108 147 189 229 272 327
#     4  10  19  36  58  81 108 151 182 229 288 319
#     4  10  21  38  55  80 114 145 187 231 275 329
#     4  11  21  36  56  81 115 146 179 232 279 329
#     4  11  23  36  56  86 112 146 190 224 276 342
#     4  10  19  38  59  81 112 150 180 231 278 328
#     4   8  18  37  61  79 111 150 185 231 278 318
#     4  10  22  35  53  85 115 142 185 232 277 335
#
# _framework density 20.473005000000001
#
# number of rings (size 3 to 8) (size 9 to 14) (size 15 to 20)
#    0.750    1.500    1.250    1.875    1.750    0.500 
#    0.000    5.625    0.000    0.000    0.000    0.000 
#    0.000    0.000    0.000    0.000    0.000    0.000 
#
# Total GULP energy -89164.819633 kJ/mol
# GULP energy per Si atom -5572.801227 kJ/mol
# Density = 2.042641 g / cm^3
# Si number density = 20.473005 Si / 1000 Ang^3
#
#
#
# Elastic Constant Matrix: (Units=GPa)
#
#
# Indices 1 2 3 4 5 6 
#
# 1 103.7188 34.3398 5.6168 -5.8544 8.1596 15.1621
# 2 34.3398 50.7614 -15.2629 -6.2188 8.0374 3.8739
# 3 5.6168 -15.2629 72.5659 -10.7708 -5.8176 7.2682
# 4 -5.8544 -6.2188 -10.7708 23.0770 3.2788 -0.2119
# 5 8.1596 8.0374 -5.8176 3.2788 22.4070 -9.2607
# 6 15.1621 3.8739 7.2682 -0.2119 -9.2607 30.1298
#
#
#
# Elastic Compliance Matrix: (Units=1/GPa)
#
#
# Indices 1 2 3 4 5 6 
#
# 1 0.014268 -0.008881 -0.002602 0.000765 -0.005764 -0.007177
# 2 -0.008881 0.031601 0.008762 0.011646 -0.009396 -0.004514
# 3 -0.002602 0.008762 0.017674 0.010030 -0.000838 -0.004267
# 4 0.000765 0.011646 0.010030 0.053105 -0.012883 -0.007888
# 5 -0.005764 -0.009396 -0.000838 -0.012883 0.061297 0.023061
# 6 -0.007177 -0.004514 -0.004267 -0.007888 0.023061 0.045444
#
#
# Mechanical properties :
#
#
# Convention : Reuss Voigt Hill
#
# Bulk Modulus (GPa) = 17.21146 30.71483 23.96315
# Shear Modulus (GPa) = 20.14519 28.61293 24.37906
#
# Velocity S-wave (km/s) = 3.14026 3.74250 3.45453
# Velocity P-wave (km/s) = 4.64473 5.80605 5.25755
#
# Compressibility (1/GPa) = 0.05810083
#
# Stress axis : x y z
#
# Youngs Moduli (GPa) = 70.08453 31.64438 56.58112
#
# Poissons Ratio (x) = 0.28103 0.14723
# Poissons Ratio (y) = 0.62240 -0.49574
# Poissons Ratio (z) = 0.18236 -0.27725
#
# Static dielectric constant tensor:
#      x y z
#    x 1.736390 0.027580 -0.043900 
#    y 0.027580 1.825700 -0.068300 
#    z -0.043900 -0.068300 1.847490 
# 
# From -- ./inp_files/612103.got.cif
#   From: 2010.05.17/outbox.cif.g08.bks.cpg/sg2_307_cif.got.tgz:612103.got - 2010.06.03 11:33:40.
