data_PCOD9086590
_publ_section_title
;
Structure prediction by ZEFSAII (Michael W. Deem and Ramdas Pophale) SiO2 
 PCOD9086590
Probable space group: P -1
;
_chemical_formula_sum "Si O2"
_cell_formula_units_Z 12
_cell_length_a 11.817836
_cell_length_b 7.193948
_cell_length_c 9.305889
_cell_angle_alpha 94.936060
_cell_angle_beta 96.217088
_cell_angle_gamma 144.759765
_cell_volume 432.310571
_symmetry_space_group_name_H-M "P -1"
_symmetry_group_IT_number 2
_symmetry_cell_setting 'triclinic'
loop_
_space_group_symop_operation_xyz
x,y,z
-x,-y,-z
loop_
_atom_site_type_symbol
_atom_site_label
_atom_site_fract_x
_atom_site_fract_y
_atom_site_fract_z
Si Si1 0.775331 0.508955 0.443550
Si Si2 0.695992 0.274561 0.718672
Si Si3 0.210013 0.952347 0.115808
Si Si4 0.674123 0.712712 0.257630
Si Si5 0.799172 0.271769 0.209851
Si Si6 0.784580 0.575852 0.043963
O O1 0.811079 0.528799 0.618624
O O2 0.773420 0.716909 0.395284
O O3 0.909628 0.552679 0.367016
O O4 0.537171 0.107473 0.370903
O O5 0.812399 0.243634 0.780829
O O6 0.703052 0.420543 0.865623
O O7 0.194612 0.826278 0.952493
O O8 0.022874 0.839685 0.096644
O O9 0.429669 0.343135 0.201362
O O10 0.722413 0.995484 0.279165
O O11 0.746671 0.723271 0.116094
O O12 0.682609 0.296184 0.126986
#
# Coordination Sequence:
#
# PCOD9086590 Si02
#       6
#     2   2   2   2   2   2
#     4   9  19  35  58  84 117 157 189 233 294 348
#     4   9  17  35  58  84 116 153 194 235 287 348
#     4  10  20  37  61  87 114 152 197 239 289 342
#     4  10  21  38  60  88 117 149 194 242 290 344
#     4  10  19  36  59  85 116 151 193 240 289 342
#     4  10  21  39  62  86 115 153 196 242 288 341
#
# _framework density 27.757822999999998
#
# number of rings (size 3 to 8) (size 9 to 14) (size 15 to 20)
#    0.000    2.333    0.000    3.500    0.000    4.667 
#    0.000   23.333    0.000    5.000    0.000    0.000 
#    0.000    0.000    0.000    0.000    0.000    0.000 
#
# Total GULP energy -67096.924096 kJ/mol
# GULP energy per Si atom -5591.410341 kJ/mol
# Density = 2.769465 g / cm^3
# Si number density = 27.757823 Si / 1000 Ang^3
#
#
#
# Elastic Constant Matrix: (Units=GPa)
#
#
# Indices 1 2 3 4 5 6 
#
# 1 111.2297 32.9338 26.4650 -8.6569 15.4259 -30.9956
# 2 32.9338 85.7701 54.8988 -18.2499 11.5804 -31.3781
# 3 26.4650 54.8988 172.2786 -43.6134 0.1766 -18.9080
# 4 -8.6569 -18.2499 -43.6134 53.9618 5.3223 9.6294
# 5 15.4259 11.5804 0.1766 5.3223 31.6396 -0.7129
# 6 -30.9956 -31.3781 -18.9080 9.6294 -0.7129 54.3760
#
#
#
# Elastic Compliance Matrix: (Units=1/GPa)
#
#
# Indices 1 2 3 4 5 6 
#
# 1 0.011864 -0.001237 -0.000691 0.000436 -0.005274 0.005663
# 2 -0.001237 0.019487 -0.004625 0.001784 -0.006612 0.008529
# 3 -0.000691 -0.004625 0.008636 0.005379 0.001054 -0.000999
# 4 0.000436 0.001784 0.005379 0.024262 -0.005004 -0.001214
# 5 -0.005274 -0.006612 0.001054 -0.005004 0.037318 -0.005079
# 6 0.005663 0.008529 -0.000999 -0.001214 -0.005079 0.026341
#
#
# Mechanical properties :
#
#
# Convention : Reuss Voigt Hill
#
# Bulk Modulus (GPa) = 37.20195 66.43040 51.81617
# Shear Modulus (GPa) = 33.33878 44.99420 39.16649
#
# Velocity S-wave (km/s) = 3.46939 4.03048 3.76041
# Velocity P-wave (km/s) = 5.42958 6.75602 6.12879
#
# Compressibility (1/GPa) = 0.02688031
#
# Stress axis : x y z
#
# Youngs Moduli (GPa) = 84.28638 51.31602 115.80040
#
# Poissons Ratio (x) = 0.06347 0.08003
# Poissons Ratio (y) = 0.10425 0.53562
# Poissons Ratio (z) = 0.05825 0.23735
#
# Static dielectric constant tensor:
#      x y z
#    x 2.407860 0.305060 -0.072500 
#    y 0.305060 2.469460 -0.102730 
#    z -0.072500 -0.102730 2.225710 
# 
# From -- ./inp_files/295278.got.cif
#   From: 2010.05.17/outbox.cif.g08.bks.cpg/sg2_148_cif.got.tgz:295278.got - 2010.06.03 11:33:40.
