data_PCOD9086456
_publ_section_title
;
Structure prediction by ZEFSAII (Michael W. Deem and Ramdas Pophale) SiO2 
 PCOD9086456
Probable space group: P -1
;
_chemical_formula_sum "Si O2"
_cell_formula_units_Z 16
_cell_length_a 17.346924
_cell_length_b 12.374561
_cell_length_c 14.202020
_cell_angle_alpha 29.210989
_cell_angle_beta 27.472075
_cell_angle_gamma 41.039188
_cell_volume 683.596172
_symmetry_space_group_name_H-M "P -1"
_symmetry_group_IT_number 2
_symmetry_cell_setting 'triclinic'
loop_
_space_group_symop_operation_xyz
x,y,z
-x,-y,-z
loop_
_atom_site_type_symbol
_atom_site_label
_atom_site_fract_x
_atom_site_fract_y
_atom_site_fract_z
Si Si1 0.182244 0.898152 0.334858
Si Si2 0.051107 0.101353 0.707865
Si Si3 0.829884 0.165811 0.391191
Si Si4 0.929511 0.413929 0.467777
Si Si5 0.561670 0.488657 0.837714
Si Si6 0.443232 0.221574 0.001486
Si Si7 0.318734 0.389510 0.816194
Si Si8 0.803290 0.863580 0.276900
O O1 0.109983 0.886022 0.528665
O O2 0.067249 0.735414 0.515230
O O3 0.363223 0.791737 0.227058
O O4 0.245149 0.147604 0.041040
O O5 0.178786 0.097921 0.659810
O O6 0.050271 0.333169 0.477453
O O7 0.073595 0.928323 0.730483
O O8 0.871590 0.059582 0.986887
O O9 0.807151 0.423866 0.207533
O O10 0.648463 0.021162 0.696179
O O11 0.734088 0.368218 0.744643
O O12 0.935878 0.678181 0.249833
O O13 0.624641 0.736396 0.545148
O O14 0.500000 0.500000 0.000000
O O15 0.440321 0.361170 0.993146
O O16 0.348289 0.336367 0.934104
O O17 0.500000 0.500000 0.500000
#
# Coordination Sequence:
#
# PCOD9086456 Si02
#       8
#     2   2   2   2   2   2   2   2
#     4  10  20  37  57  88 116 147 193 235 287 337
#     4  11  22  41  58  85 115 153 195 227 281 345
#     4  11  22  35  59  86 118 152 191 232 274 349
#     4   9  22  39  63  79 118 154 179 239 293 322
#     4   9  19  39  61  86 111 145 188 236 285 334
#     4  10  19  36  58  86 119 144 188 241 283 336
#     4  11  19  33  57  85 117 154 183 232 296 325
#     4   9  22  40  62  81 118 146 191 239 280 331
#
# _framework density 23.405631
#
# number of rings (size 3 to 8) (size 9 to 14) (size 15 to 20)
#    0.750    1.250    2.500    1.875    0.000    4.500 
#    4.500    1.875    0.000    0.000    0.000    0.000 
#    0.000    0.000    0.000    0.000    0.000    0.000 
#
# Total GULP energy -89292.712370 kJ/mol
# GULP energy per Si atom -5580.794523 kJ/mol
# Density = 2.335236 g / cm^3
# Si number density = 23.405631 Si / 1000 Ang^3
#
#
#
# Elastic Constant Matrix: (Units=GPa)
#
#
# Indices 1 2 3 4 5 6 
#
# 1 70.0729 26.4893 32.7375 -0.7902 3.1525 26.2546
# 2 26.4893 64.5299 16.8302 9.3024 11.9679 31.5793
# 3 32.7375 16.8302 81.7064 -3.9035 4.6180 8.7705
# 4 -0.7902 9.3024 -3.9035 41.7541 0.4412 2.5075
# 5 3.1525 11.9679 4.6180 0.4412 30.5408 2.0119
# 6 26.2546 31.5793 8.7705 2.5075 2.0119 42.8830
#
#
#
# Elastic Compliance Matrix: (Units=1/GPa)
#
#
# Indices 1 2 3 4 5 6 
#
# 1 0.022607 -0.002315 -0.007413 0.000888 0.000386 -0.010690
# 2 -0.002315 0.028670 -0.002742 -0.005486 -0.009291 -0.018378
# 3 -0.007413 -0.002742 0.015544 0.001733 -0.000754 0.003313
# 4 0.000888 -0.005486 0.001733 0.025240 0.001326 0.001603
# 5 0.000386 -0.009291 -0.000754 0.001326 0.036110 0.004988
# 6 -0.010690 -0.018378 0.003313 0.001603 0.004988 0.042392
#
#
# Mechanical properties :
#
#
# Convention : Reuss Voigt Hill
#
# Bulk Modulus (GPa) = 23.87750 40.93592 32.40671
# Shear Modulus (GPa) = 23.87033 32.38572 28.12802
#
# Velocity S-wave (km/s) = 3.19698 3.72381 3.47041
# Velocity P-wave (km/s) = 4.88378 6.00140 5.47120
#
# Compressibility (1/GPa) = 0.04188043
#
# Stress axis : x y z
#
# Youngs Moduli (GPa) = 44.23332 34.87991 64.33426
#
# Poissons Ratio (x) = 0.08074 0.47692
# Poissons Ratio (y) = 0.10239 0.17642
# Poissons Ratio (z) = 0.32791 0.09565
#
# Static dielectric constant tensor:
#      x y z
#    x 1.872260 -0.015880 -0.022670 
#    y -0.015880 1.967670 -0.017490 
#    z -0.022670 -0.017490 1.861860 
# 
# From -- ./inp_files/464240.got.cif
#   From: 2010.05.17/outbox.cif.g08.bks.cpg/sg2_233_cif.got.tgz:464240.got - 2010.06.03 11:33:40.
