data_PCOD9086167
_publ_section_title
;
Structure prediction by ZEFSAII (Michael W. Deem and Ramdas Pophale) SiO2 
 PCOD9086167
Probable space group: P -1
;
_chemical_formula_sum "Si O2"
_cell_formula_units_Z 13
_cell_length_a 11.899764
_cell_length_b 9.850889
_cell_length_c 21.759472
_cell_angle_alpha 153.662368
_cell_angle_beta 143.557441
_cell_angle_gamma 35.314966
_cell_volume 626.985866
_symmetry_space_group_name_H-M "P -1"
_symmetry_group_IT_number 2
_symmetry_cell_setting 'triclinic'
loop_
_space_group_symop_operation_xyz
x,y,z
-x,-y,-z
loop_
_atom_site_type_symbol
_atom_site_label
_atom_site_fract_x
_atom_site_fract_y
_atom_site_fract_z
Si Si1 0.662245 0.764005 0.205221
Si Si2 0.782525 0.300504 0.870322
Si Si3 0.665312 0.759949 0.655816
Si Si4 0.439186 0.748263 0.978205
Si Si5 0.252142 0.781246 0.433208
Si Si6 0.155329 0.489934 0.147769
Si Si7 0.000000 0.000000 0.500000
O O1 0.603836 0.718525 0.091784
O O2 0.460350 0.025022 0.254831
O O3 0.837834 0.904162 0.343939
O O4 0.700460 0.428431 0.123073
O O5 0.821655 0.300318 0.815116
O O6 0.793221 0.951136 0.759334
O O7 0.557842 0.543728 0.889335
O O8 0.941912 0.438743 0.027794
O O9 0.487368 0.735838 0.523527
O O10 0.788166 0.404989 0.596216
O O11 0.319370 0.124507 0.064478
O O12 0.195232 0.640595 0.290148
O O13 0.104181 0.124192 0.532271
#
# Coordination Sequence:
#
# PCOD9086167 Si02
#       7
#     2   2   2   2   2   2   1
#     4   9  18  33  54  84 109 137 183 226 272 326
#     4  10  23  37  55  82 116 145 188 223 268 330
#     4   9  19  37  54  79 109 142 180 229 272 325
#     4  10  19  36  56  80 113 147 177 224 276 324
#     4  10  20  35  58  80 107 141 185 226 280 320
#     4  11  22  37  57  83 112 150 183 225 272 330
#     4  10  20  32  54  84 110 134 178 240 272 318
#
# _framework density 20.734120000000001
#
# number of rings (size 3 to 8) (size 9 to 14) (size 15 to 20)
#    0.000    2.154    1.538    1.385    2.154    1.231 
#    0.000    0.000    0.000    0.923    0.000    0.000 
#    0.000    0.000    0.000    0.000    0.000    0.000 
#
# Total GULP energy -72390.576094 kJ/mol
# GULP energy per Si atom -5568.505853 kJ/mol
# Density = 2.068693 g / cm^3
# Si number density = 20.734120 Si / 1000 Ang^3
#
#
#
# Elastic Constant Matrix: (Units=GPa)
#
#
# Indices 1 2 3 4 5 6 
#
# 1 81.3484 37.7977 30.9656 -6.9267 9.9710 10.1641
# 2 37.7977 32.7883 19.8992 -7.2643 2.7645 0.9027
# 3 30.9656 19.8992 69.7138 -12.1378 -11.0554 18.1287
# 4 -6.9267 -7.2643 -12.1378 30.8505 2.6217 -4.0802
# 5 9.9710 2.7645 -11.0554 2.6217 34.4955 3.0459
# 6 10.1641 0.9027 18.1287 -4.0802 3.0459 24.1930
#
#
#
# Elastic Compliance Matrix: (Units=1/GPa)
#
#
# Indices 1 2 3 4 5 6 
#
# 1 0.030537 -0.033044 -0.003337 -0.002869 -0.006254 -0.008793
# 2 -0.033044 0.077662 -0.012110 0.009289 -0.003205 0.022030
# 3 -0.003337 -0.012110 0.026733 0.003375 0.011934 -0.019112
# 4 -0.002869 0.009289 0.003375 0.036071 -0.001987 0.004663
# 5 -0.006254 -0.003205 0.011934 -0.001987 0.036006 -0.011064
# 6 -0.008793 0.022030 -0.019112 0.004663 -0.011064 0.060707
#
#
# Mechanical properties :
#
#
# Convention : Reuss Voigt Hill
#
# Bulk Modulus (GPa) = 26.34945 40.13062 33.24003
# Shear Modulus (GPa) = 13.25031 24.25364 18.75198
#
# Velocity S-wave (km/s) = 2.53070 3.42386 3.01059
# Velocity P-wave (km/s) = 4.61250 5.91839 5.30577
#
# Compressibility (1/GPa) = 0.03795146
#
# Stress axis : x y z
#
# Youngs Moduli (GPa) = 32.74677 12.87623 37.40662
#
# Poissons Ratio (x) = 0.42548 0.12482
# Poissons Ratio (y) = 1.08208 0.45300
# Poissons Ratio (z) = 0.10927 0.15593
#
# Static dielectric constant tensor:
#      x y z
#    x 1.838870 -0.109670 -0.023270 
#    y -0.109670 1.883610 0.078770 
#    z -0.023270 0.078770 1.790170 
# 
# From -- ./inp_files/149393.got.cif
#   From: 2010.05.17/outbox.cif.g08.bks.cpg/sg2_75_cif.got.tgz:149393.got - 2010.06.03 11:33:40.
