data_PCOD9086727
_publ_section_title
;
Structure prediction by ZEFSAII (Michael W. Deem and Ramdas Pophale) SiO2 
 PCOD9086727
Probable space group: P -1
;
_chemical_formula_sum "Si O2"
_cell_formula_units_Z 16
_cell_length_a 7.533044
_cell_length_b 11.588588
_cell_length_c 13.296962
_cell_angle_alpha 70.875012
_cell_angle_beta 97.104954
_cell_angle_gamma 142.837256
_cell_volume 643.021238
_symmetry_space_group_name_H-M "P -1"
_symmetry_group_IT_number 2
_symmetry_cell_setting 'triclinic'
loop_
_space_group_symop_operation_xyz
x,y,z
-x,-y,-z
loop_
_atom_site_type_symbol
_atom_site_label
_atom_site_fract_x
_atom_site_fract_y
_atom_site_fract_z
Si Si1 0.405245 0.832360 0.245326
Si Si2 0.862272 0.044894 0.364095
Si Si3 0.491901 0.667791 0.165445
Si Si4 0.174860 0.952689 0.411189
Si Si5 0.294581 0.605086 0.705330
Si Si6 0.632994 0.562689 0.382057
Si Si7 0.247205 0.386182 0.933307
Si Si8 0.915601 0.262448 0.134575
O O1 0.566847 0.840991 0.165895
O O2 0.062071 0.603232 0.274247
O O3 0.517063 0.848961 0.357483
O O4 0.548981 0.047675 0.181000
O O5 0.999485 0.199647 0.237749
O O6 0.008731 0.993010 0.383286
O O7 0.869348 0.106409 0.457994
O O8 0.494148 0.585462 0.290268
O O9 0.741580 0.730919 0.099318
O O10 0.171268 0.496979 0.129074
O O11 0.526189 0.170029 0.347903
O O12 0.992934 0.775053 0.367058
O O13 0.431858 0.603121 0.623530
O O14 0.344051 0.552641 0.823363
O O15 0.500000 0.500000 0.500000
O O16 0.500000 0.500000 0.000000
O O17 0.974237 0.275489 0.017150
#
# Coordination Sequence:
#
# PCOD9086727 Si02
#       8
#     2   2   2   2   2   2   2   2
#     4  10  23  39  55  89 122 153 189 243 302 346
#     4   9  19  37  59  84 115 154 189 243 289 333
#     4  10  19  36  60  85 114 153 197 236 296 345
#     4  11  19  37  60  85 119 153 196 238 282 348
#     4  11  25  38  59  90 122 150 195 243 296 344
#     4  11  21  36  62  89 111 158 205 237 279 355
#     4   9  19  38  63  86 111 156 199 242 283 347
#     4   9  19  38  58  81 122 149 193 243 290 337
#
# _framework density 24.882539000000001
#
# number of rings (size 3 to 8) (size 9 to 14) (size 15 to 20)
#    0.750    1.250    1.250    4.500    0.000    2.500 
#    0.000    6.875    0.000    0.000    0.000    0.000 
#    0.000    0.000    0.000    0.000    0.000    0.000 
#
# Total GULP energy -89169.011846 kJ/mol
# GULP energy per Si atom -5573.063240 kJ/mol
# Density = 2.482591 g / cm^3
# Si number density = 24.882539 Si / 1000 Ang^3
#
#
#
# Elastic Constant Matrix: (Units=GPa)
#
#
# Indices 1 2 3 4 5 6 
#
# 1 31.2653 4.1853 17.6868 5.8103 -5.5689 -6.7126
# 2 4.1853 144.1485 22.7553 3.3634 -6.8311 6.3596
# 3 17.6868 22.7553 124.3439 7.6543 -20.6896 -2.2519
# 4 5.8103 3.3634 7.6543 33.3862 2.0723 -5.7444
# 5 -5.5689 -6.8311 -20.6896 2.0723 23.2317 9.0499
# 6 -6.7126 6.3596 -2.2519 -5.7444 9.0499 39.2469
#
#
#
# Elastic Compliance Matrix: (Units=1/GPa)
#
#
# Indices 1 2 3 4 5 6 
#
# 1 0.036946 -0.000323 -0.004202 -0.004876 0.003674 0.004569
# 2 -0.000323 0.007296 -0.000922 -0.000923 0.002070 -0.001903
# 3 -0.004202 -0.000922 0.010458 -0.002572 0.009228 -0.002473
# 4 -0.004876 -0.000923 -0.002572 0.033096 -0.009059 0.006101
# 5 0.003674 0.002070 0.009228 -0.009059 0.059062 -0.014122
# 6 0.004569 -0.001903 -0.002473 0.006101 -0.014122 0.030577
#
#
# Mechanical properties :
#
#
# Convention : Reuss Voigt Hill
#
# Bulk Modulus (GPa) = 22.82849 43.22360 33.02605
# Shear Modulus (GPa) = 24.63896 36.18164 30.41030
#
# Velocity S-wave (km/s) = 3.15018 3.81740 3.49972
# Velocity P-wave (km/s) = 4.73560 6.06950 5.44356
#
# Compressibility (1/GPa) = 0.04380491
#
# Stress axis : x y z
#
# Youngs Moduli (GPa) = 27.06633 137.06384 95.62422
#
# Poissons Ratio (x) = 0.04429 0.40180
# Poissons Ratio (y) = 0.00875 0.08821
# Poissons Ratio (z) = 0.11373 0.12643
#
# Static dielectric constant tensor:
#      x y z
#    x 2.066630 0.101290 -0.086250 
#    y 0.101290 2.114730 -0.069730 
#    z -0.086250 -0.069730 1.970470 
# 
# From -- ./inp_files/398954.got.cif
#   From: 2010.05.17/outbox.cif.g08.bks.cpg/sg2_200_cif.got.tgz:398954.got - 2010.06.03 11:33:40.
