data_PCOD9086894
_publ_section_title
;
Structure prediction by ZEFSAII (Michael W. Deem and Ramdas Pophale) SiO2 
 PCOD9086894
Probable space group: P -1
;
_chemical_formula_sum "Si O2"
_cell_formula_units_Z 16
_cell_length_a 10.695891
_cell_length_b 34.800289
_cell_length_c 5.793188
_cell_angle_alpha 130.143653
_cell_angle_beta 57.414356
_cell_angle_gamma 153.722242
_cell_volume 724.779600
_symmetry_space_group_name_H-M "P -1"
_symmetry_group_IT_number 2
_symmetry_cell_setting 'triclinic'
loop_
_space_group_symop_operation_xyz
x,y,z
-x,-y,-z
loop_
_atom_site_type_symbol
_atom_site_label
_atom_site_fract_x
_atom_site_fract_y
_atom_site_fract_z
Si Si1 0.916438 0.787381 0.772737
Si Si2 0.021201 0.583463 0.825864
Si Si3 0.596650 0.069632 0.492605
Si Si4 0.370192 0.602422 0.297587
Si Si5 0.507165 0.711357 0.214529
Si Si6 0.318462 0.075063 0.522662
Si Si7 0.786595 0.203339 0.182250
Si Si8 0.298504 0.737145 0.834637
O O1 0.650900 0.699507 0.532268
O O2 0.186405 0.886338 0.749182
O O3 0.007895 0.761018 0.694476
O O4 0.803259 0.791939 0.100268
O O5 0.116715 0.567183 0.488730
O O6 0.738245 0.483335 0.848252
O O7 0.267112 0.655761 0.053688
O O8 0.055937 0.643941 0.878896
O O9 0.357884 0.034632 0.469496
O O10 0.500000 0.000000 0.500000
O O11 0.775934 0.160892 0.820071
O O12 0.434060 0.635322 0.098482
O O13 0.484779 0.745862 0.572306
O O14 0.482915 0.117277 0.279706
O O15 0.493928 0.167315 0.853059
O O16 0.000000 0.000000 0.500000
O O17 0.835911 0.270553 0.272510
#
# Coordination Sequence:
#
# PCOD9086894 Si02
#       8
#     2   2   2   2   2   2   2   2
#     4  10  21  39  63  90 124 164 203 250 310 366
#     4   9  18  34  57  92 128 160 204 251 299 360
#     4  10  23  45  65  90 122 162 210 261 313 375
#     4   9  18  34  57  92 128 160 204 251 299 360
#     4  10  19  36  60  96 122 166 202 250 309 360
#     4  10  23  45  65  90 122 162 210 261 313 375
#     4  10  22  44  61  84 126 162 199 254 316 358
#     4  10  21  39  63  90 124 164 203 250 310 366
#
# _framework density 22.075676000000001
#
# number of rings (size 3 to 8) (size 9 to 14) (size 15 to 20)
#    0.000    2.250    0.000    1.875    0.000    5.000 
#   29.250    0.625    0.000   14.250    0.000    0.000 
#    0.000    0.000    0.000    0.000    0.000    0.000 
#
# Total GULP energy -89352.934929 kJ/mol
# GULP energy per Si atom -5584.558433 kJ/mol
# Density = 2.202543 g / cm^3
# Si number density = 22.075676 Si / 1000 Ang^3
#
#
#
# Elastic Constant Matrix: (Units=GPa)
#
#
# Indices 1 2 3 4 5 6 
#
# 1 121.2345 57.2518 3.5156 -5.4825 19.3849 -41.8470
# 2 57.2518 84.5767 25.2218 -13.6969 -6.6740 -35.9249
# 3 3.5156 25.2218 67.2291 -17.5010 -8.9443 -10.0234
# 4 -5.4825 -13.6969 -17.5010 27.6236 -3.6139 7.3285
# 5 19.3849 -6.6740 -8.9443 -3.6139 28.4540 -7.0053
# 6 -41.8470 -35.9249 -10.0234 7.3285 -7.0053 42.4486
#
#
#
# Elastic Compliance Matrix: (Units=1/GPa)
#
#
# Indices 1 2 3 4 5 6 
#
# 1 0.017919 -0.011418 0.001342 -0.004847 -0.013368 0.006949
# 2 -0.011418 0.029638 -0.003690 0.008637 0.018231 0.014473
# 3 0.001342 -0.003690 0.020430 0.011691 0.006644 0.002102
# 4 -0.004847 0.008637 0.011691 0.049084 0.015066 -0.000696
# 5 -0.013368 0.018231 0.006644 0.015066 0.055067 0.010305
# 6 0.006949 0.014473 0.002102 -0.000696 0.010305 0.044974
#
#
# Mechanical properties :
#
#
# Convention : Reuss Voigt Hill
#
# Bulk Modulus (GPa) = 24.71941 49.44651 37.08296
# Shear Modulus (GPa) = 19.37015 32.17532 25.77274
#
# Velocity S-wave (km/s) = 2.96538 3.82187 3.42054
# Velocity P-wave (km/s) = 4.79025 6.47478 5.69514
#
# Compressibility (1/GPa) = 0.04045404
#
# Stress axis : x y z
#
# Youngs Moduli (GPa) = 55.80798 33.74043 48.94838
#
# Poissons Ratio (x) = 0.38525 -0.06570
# Poissons Ratio (y) = 0.63721 0.18064
# Poissons Ratio (z) = -0.07491 0.12451
#
# Static dielectric constant tensor:
#      x y z
#    x 1.846900 -0.042400 -0.023200 
#    y -0.042400 1.822290 -0.013870 
#    z -0.023200 -0.013870 1.834000 
# 
# From -- ./inp_files/56953.got.cif
#   From: 2010.05.17/outbox.cif.g08.bks.cpg/sg2_29_cif.got.tgz:56953.got - 2010.06.03 11:33:40.
