data_PCOD9086219
_publ_section_title
;
Structure prediction by ZEFSAII (Michael W. Deem and Ramdas Pophale) SiO2 
 PCOD9086219
Probable space group: P -1
;
_chemical_formula_sum "Si O2"
_cell_formula_units_Z 16
_cell_length_a 5.933562
_cell_length_b 11.980235
_cell_length_c 16.201035
_cell_angle_alpha 34.353948
_cell_angle_beta 115.471296
_cell_angle_gamma 107.265140
_cell_volume 582.869040
_symmetry_space_group_name_H-M "P -1"
_symmetry_group_IT_number 2
_symmetry_cell_setting 'triclinic'
loop_
_space_group_symop_operation_xyz
x,y,z
-x,-y,-z
loop_
_atom_site_type_symbol
_atom_site_label
_atom_site_fract_x
_atom_site_fract_y
_atom_site_fract_z
Si Si1 0.123955 0.298800 0.352438
Si Si2 0.412246 0.524744 0.064104
Si Si3 0.069361 0.580808 0.572895
Si Si4 0.066170 0.202540 0.227936
Si Si5 0.729119 0.765782 0.078178
Si Si6 0.753392 0.244544 0.896182
Si Si7 0.397356 0.866606 0.397074
Si Si8 0.447557 0.284072 0.655232
O O1 0.995961 0.314777 0.412542
O O2 0.984503 0.217210 0.301968
O O3 0.204910 0.525359 0.214223
O O4 0.362786 0.136635 0.505130
O O5 0.310574 0.322283 0.198319
O O6 0.637877 0.600051 0.103598
O O7 0.500000 0.500000 0.000000
O O8 0.162783 0.682685 0.928447
O O9 0.853996 0.671820 0.420637
O O10 0.126097 0.351131 0.750144
O O11 0.318953 0.647503 0.534313
O O12 0.169423 0.012632 0.307423
O O13 0.447883 0.844718 0.020199
O O14 0.958661 0.855073 0.012084
O O15 0.610993 0.239734 0.789076
O O16 0.472085 0.876416 0.307047
O O17 0.500000 0.500000 0.500000
#
# Coordination Sequence:
#
# PCOD9086219 Si02
#       8
#     2   2   2   2   2   2   2   2
#     4  10  19  36  56  91 127 165 200 251 317 378
#     4  11  24  41  66  86 117 166 214 269 314 378
#     4  10  20  33  59  91 127 165 203 247 313 381
#     4  11  24  40  61  89 125 158 214 262 320 374
#     4  11  21  37  63  95 124 160 219 262 315 366
#     4  11  21  36  62  95 125 165 210 261 307 378
#     4  11  22  36  57  93 130 166 200 259 312 383
#     4  11  20  35  58  90 130 166 208 248 312 374
#
# _framework density 27.450420999999999
#
# number of rings (size 3 to 8) (size 9 to 14) (size 15 to 20)
#    0.000    1.250    6.250    1.875    3.500    3.500 
#    0.000    0.000    0.000    1.500    0.000    0.000 
#    0.000    0.000    0.000    0.000    0.000    0.000 
#
# Total GULP energy -89413.804395 kJ/mol
# GULP energy per Si atom -5588.362775 kJ/mol
# Density = 2.738794 g / cm^3
# Si number density = 27.450421 Si / 1000 Ang^3
#
#
#
# Elastic Constant Matrix: (Units=GPa)
#
#
# Indices 1 2 3 4 5 6 
#
# 1 158.4248 19.7674 26.2058 -5.1550 16.5911 -0.1529
# 2 19.7674 116.2319 35.6284 8.5295 0.6189 -4.7238
# 3 26.2058 35.6284 61.2324 11.6989 27.7902 5.5038
# 4 -5.1550 8.5295 11.6989 51.0036 -3.5652 10.3237
# 5 16.5911 0.6189 27.7902 -3.5652 38.0470 7.7858
# 6 -0.1529 -4.7238 5.5038 10.3237 7.7858 38.8240
#
#
#
# Elastic Compliance Matrix: (Units=1/GPa)
#
#
# Indices 1 2 3 4 5 6 
#
# 1 0.006935 -0.000532 -0.002346 0.001196 -0.001236 0.000225
# 2 -0.000532 0.011767 -0.010114 0.000546 0.007219 0.001271
# 3 -0.002346 -0.010114 0.037165 -0.009246 -0.027109 0.001387
# 4 0.001196 0.000546 -0.009246 0.023853 0.009879 -0.006942
# 5 -0.001236 0.007219 -0.027109 0.009879 0.049015 -0.007740
# 6 0.000225 0.001271 0.001387 -0.006942 -0.007740 0.029114
#
#
# Mechanical properties :
#
#
# Convention : Reuss Voigt Hill
#
# Bulk Modulus (GPa) = 33.46412 55.45473 44.45942
# Shear Modulus (GPa) = 25.80032 42.52741 34.16387
#
# Velocity S-wave (km/s) = 3.06909 3.94031 3.53167
# Velocity P-wave (km/s) = 4.97758 6.39899 5.73251
#
# Compressibility (1/GPa) = 0.02988275
#
# Stress axis : x y z
#
# Youngs Moduli (GPa) = 144.19136 84.98035 26.90675
#
# Poissons Ratio (x) = 0.04524 0.06313
# Poissons Ratio (y) = 0.07676 0.27214
# Poissons Ratio (z) = 0.33831 0.85949
#
# Static dielectric constant tensor:
#      x y z
#    x 2.284830 -0.010380 0.060250 
#    y -0.010380 2.312220 0.102590 
#    z 0.060250 0.102590 2.341370 
# 
# From -- ./inp_files/72193.got.cif
#   From: 2010.05.17/outbox.cif.g08.bks.cpg/sg2_37_cif.got.tgz:72193.got - 2010.06.03 11:33:40.
