data_PCOD9086983
_publ_section_title
;
Structure prediction by ZEFSAII (Michael W. Deem and Ramdas Pophale) SiO2 
 PCOD9086983
Probable space group: P -1
;
_chemical_formula_sum "Si O2"
_cell_formula_units_Z 16
_cell_length_a 23.611827
_cell_length_b 14.872273
_cell_length_c 22.212203
_cell_angle_alpha 24.379904
_cell_angle_beta 164.209579
_cell_angle_gamma 160.797718
_cell_volume 697.923319
_symmetry_space_group_name_H-M "P -1"
_symmetry_group_IT_number 2
_symmetry_cell_setting 'triclinic'
loop_
_space_group_symop_operation_xyz
x,y,z
-x,-y,-z
loop_
_atom_site_type_symbol
_atom_site_label
_atom_site_fract_x
_atom_site_fract_y
_atom_site_fract_z
Si Si1 0.307372 0.841307 0.285265
Si Si2 0.383500 0.187241 0.584183
Si Si3 0.262471 0.380392 0.585283
Si Si4 0.391853 0.377272 0.090591
Si Si5 0.806519 0.371916 0.823285
Si Si6 0.138379 0.282235 0.717811
Si Si7 0.097834 0.777310 0.361865
Si Si8 0.728311 0.791983 0.422786
O O1 0.196840 0.582234 0.372293
O O2 0.158921 0.760611 0.118254
O O3 0.331973 0.087590 0.191868
O O4 0.607796 0.957526 0.507879
O O5 0.500000 0.500000 0.500000
O O6 0.534150 0.136730 0.720718
O O7 0.435869 0.179835 0.712560
O O8 0.078425 0.973228 0.389024
O O9 0.442752 0.500153 0.754579
O O10 0.387700 0.335609 0.683043
O O11 0.996327 0.087970 0.506327
O O12 0.575173 0.588740 0.094563
O O13 0.112899 0.315219 0.849042
O O14 0.790597 0.599064 0.636470
O O15 0.000000 0.500000 0.000000
O O16 0.039833 0.194157 0.739096
O O17 0.118946 0.531208 0.539399
#
# Coordination Sequence:
#
# PCOD9086983 Si02
#       8
#     2   2   2   2   2   2   2   2
#     4  10  22  41  61  90 126 162 201 257 309 357
#     4  10  19  36  61  87 117 157 194 243 314 361
#     4  10  20  39  61  84 124 164 211 248 298 364
#     4  11  22  37  65  90 116 169 209 247 306 373
#     4  10  21  38  63  93 124 152 198 259 314 375
#     4  10  20  39  59  91 127 156 195 258 319 360
#     4  10  22  38  61  90 126 157 201 260 307 367
#     4   9  20  38  63  85 117 167 200 248 311 363
#
# _framework density 22.925155
#
# number of rings (size 3 to 8) (size 9 to 14) (size 15 to 20)
#    0.000    2.000    2.500    0.750    0.000    3.500 
#    0.000    0.000    8.250    3.000    0.000    0.000 
#    0.000    0.000    0.000    0.000    0.000    0.000 
#
# Total GULP energy -89315.059985 kJ/mol
# GULP energy per Si atom -5582.191249 kJ/mol
# Density = 2.287298 g / cm^3
# Si number density = 22.925155 Si / 1000 Ang^3
#
#
#
# Elastic Constant Matrix: (Units=GPa)
#
#
# Indices 1 2 3 4 5 6 
#
# 1 86.7472 28.5422 13.1814 -2.8574 -23.8295 0.2877
# 2 28.5422 99.9842 5.3912 8.6367 -0.4599 -1.3995
# 3 13.1814 5.3912 55.4064 12.2823 -5.6991 0.4326
# 4 -2.8574 8.6367 12.2823 24.0231 -6.5580 -7.1678
# 5 -23.8295 -0.4599 -5.6991 -6.5580 23.1845 8.5562
# 6 0.2877 -1.3995 0.4326 -7.1678 8.5562 29.0645
#
#
#
# Elastic Compliance Matrix: (Units=1/GPa)
#
#
# Indices 1 2 3 4 5 6 
#
# 1 0.022929 -0.007435 -0.004896 0.013992 0.028147 -0.005348
# 2 -0.007435 0.012755 0.001357 -0.008439 -0.010008 0.001533
# 3 -0.004896 0.001357 0.021912 -0.013807 -0.002457 -0.002894
# 4 0.013992 -0.008439 -0.013807 0.062664 0.025766 0.007530
# 5 0.028147 -0.010008 -0.002457 0.025766 0.085790 -0.019625
# 6 -0.005348 0.001533 -0.002894 0.007530 -0.019625 0.042210
#
#
# Mechanical properties :
#
#
# Convention : Reuss Voigt Hill
#
# Bulk Modulus (GPa) = 28.05281 37.37417 32.71349
# Shear Modulus (GPa) = 17.72470 28.25596 22.99033
#
# Velocity S-wave (km/s) = 2.78358 3.51455 3.17021
# Velocity P-wave (km/s) = 4.75335 5.72778 5.26317
#
# Compressibility (1/GPa) = 0.03564705
#
# Stress axis : x y z
#
# Youngs Moduli (GPa) = 43.61345 78.39861 45.63741
#
# Poissons Ratio (x) = 0.58292 0.22344
# Poissons Ratio (y) = 0.32428 -0.06193
# Poissons Ratio (z) = 0.21353 -0.10639
#
# Static dielectric constant tensor:
#      x y z
#    x 1.957310 -0.028610 0.007720 
#    y -0.028610 1.831050 0.001670 
#    z 0.007720 0.001670 1.890910 
# 
# From -- ./inp_files/602116.got.cif
#   From: 2010.05.17/outbox.cif.g08.bks.cpg/sg2_302_cif.got.tgz:602116.got - 2010.06.03 11:33:40.
