data_PCOD9086910
_publ_section_title
;
Structure prediction by ZEFSAII (Michael W. Deem and Ramdas Pophale) SiO2 
 PCOD9086910
Probable space group: P -1
;
_chemical_formula_sum "Si O2"
_cell_formula_units_Z 16
_cell_length_a 19.482129
_cell_length_b 7.254463
_cell_length_c 8.014160
_cell_angle_alpha 37.145404
_cell_angle_beta 68.059458
_cell_angle_gamma 61.529652
_cell_volume 601.188897
_symmetry_space_group_name_H-M "P -1"
_symmetry_group_IT_number 2
_symmetry_cell_setting 'triclinic'
loop_
_space_group_symop_operation_xyz
x,y,z
-x,-y,-z
loop_
_atom_site_type_symbol
_atom_site_label
_atom_site_fract_x
_atom_site_fract_y
_atom_site_fract_z
Si Si1 0.827195 0.454748 0.660719
Si Si2 0.982438 0.286437 0.442987
Si Si3 0.922412 0.263851 0.052518
Si Si4 0.677360 0.971722 0.743024
Si Si5 0.729661 0.995258 0.160099
Si Si6 0.479823 0.786494 0.449558
Si Si7 0.767697 0.434368 0.259820
Si Si8 0.423866 0.736228 0.048869
O O1 0.874296 0.367272 0.852708
O O2 0.770410 0.818311 0.418977
O O3 0.893628 0.392844 0.504602
O O4 0.777034 0.212345 0.880722
O O5 0.011486 0.564866 0.139277
O O6 0.000000 0.000000 0.500000
O O7 0.035612 0.114181 0.678514
O O8 0.856560 0.381007 0.169527
O O9 0.612694 0.041705 0.607184
O O10 0.747481 0.116591 0.551592
O O11 0.630324 0.157773 0.813472
O O12 0.714082 0.601915 0.029387
O O13 0.739960 0.687166 0.252574
O O14 0.638859 0.203925 0.085237
O O15 0.500000 0.500000 0.500000
O O16 0.517775 0.617482 0.709083
O O17 0.525314 0.027263 0.179843
#
# Coordination Sequence:
#
# PCOD9086910 Si02
#       8
#     2   2   2   2   2   2   2   2
#     4  12  24  40  61  86 117 153 190 235 284 340
#     4  12  24  43  66  90 116 149 188 236 286 340
#     4  12  25  42  61  88 118 152 191 234 283 341
#     4  10  18  30  51  81 116 152 188 238 293 340
#     4  11  21  37  57  85 115 152 192 235 286 340
#     4  10  16  27  46  78 116 149 182 235 296 339
#     4  11  21  36  56  83 116 152 193 239 285 341
#     4  10  18  29  49  79 115 149 186 236 288 339
#
# _framework density 26.61393
#
# number of rings (size 3 to 8) (size 9 to 14) (size 15 to 20)
#    0.000    1.000    0.000   12.375    0.000    0.000 
#    0.000    0.000    0.000    0.000    0.000   17.500 
#    0.000    0.000    0.000    0.000    0.000    0.000 
#
# Total GULP energy -89789.073588 kJ/mol
# GULP energy per Si atom -5611.817099 kJ/mol
# Density = 2.655336 g / cm^3
# Si number density = 26.613930 Si / 1000 Ang^3
#
#
#
# Elastic Constant Matrix: (Units=GPa)
#
#
# Indices 1 2 3 4 5 6 
#
# 1 110.1281 18.0399 46.8127 9.5360 15.5969 -12.7982
# 2 18.0399 84.9653 10.1346 17.1521 -2.5502 -8.0557
# 3 46.8127 10.1346 166.6651 -8.2374 -4.0990 -1.0765
# 4 9.5360 17.1521 -8.2374 31.6790 -8.8293 8.6387
# 5 15.5969 -2.5502 -4.0990 -8.8293 77.2208 -10.1141
# 6 -12.7982 -8.0557 -1.0765 8.6387 -10.1141 33.2313
#
#
#
# Elastic Compliance Matrix: (Units=1/GPa)
#
#
# Indices 1 2 3 4 5 6 
#
# 1 0.012384 -0.000366 -0.003825 -0.006791 -0.002775 0.005477
# 2 -0.000366 0.014494 -0.001212 -0.009612 0.000160 0.005881
# 3 -0.003825 -0.001212 0.007401 0.004751 0.001361 -0.002348
# 4 -0.006791 -0.009612 0.004751 0.045463 0.004509 -0.015238
# 5 -0.002775 0.000160 0.001361 0.004509 0.014395 0.002223
# 6 0.005477 0.005881 -0.002348 -0.015238 0.002223 0.038189
#
#
# Mechanical properties :
#
#
# Convention : Reuss Voigt Hill
#
# Bulk Modulus (GPa) = 42.59954 56.85921 49.72937
# Shear Modulus (GPa) = 33.12248 47.54430 40.33339
#
# Velocity S-wave (km/s) = 3.53165 4.23122 3.89716
# Velocity P-wave (km/s) = 5.71588 6.72918 6.24312
#
# Compressibility (1/GPa) = 0.02347443
#
# Stress axis : x y z
#
# Youngs Moduli (GPa) = 80.75132 68.99175 135.11448
#
# Poissons Ratio (x) = 0.02526 0.51676
# Poissons Ratio (y) = 0.02957 0.16372
# Poissons Ratio (z) = 0.30884 0.08360
#
# Static dielectric constant tensor:
#      x y z
#    x 2.110030 0.047780 0.125870 
#    y 0.047780 2.100240 0.080230 
#    z 0.125870 0.080230 2.067500 
# 
# From -- ./inp_files/217603.got.cif
#   From: 2010.05.17/outbox.cif.g08.bks.cpg/sg2_109_cif.got.tgz:217603.got - 2010.06.03 11:33:40.
