data_PCOD9086760
_publ_section_title
;
Structure prediction by ZEFSAII (Michael W. Deem and Ramdas Pophale) SiO2 
 PCOD9086760
Probable space group: P -1
;
_chemical_formula_sum "Si O2"
_cell_formula_units_Z 16
_cell_length_a 21.334291
_cell_length_b 9.299319
_cell_length_c 13.431307
_cell_angle_alpha 134.620718
_cell_angle_beta 137.089411
_cell_angle_gamma 28.523425
_cell_volume 852.017007
_symmetry_space_group_name_H-M "P -1"
_symmetry_group_IT_number 2
_symmetry_cell_setting 'triclinic'
loop_
_space_group_symop_operation_xyz
x,y,z
-x,-y,-z
loop_
_atom_site_type_symbol
_atom_site_label
_atom_site_fract_x
_atom_site_fract_y
_atom_site_fract_z
Si Si1 0.497192 0.839606 0.690129
Si Si2 0.268271 0.286205 0.150089
Si Si3 0.765503 0.017704 0.888030
Si Si4 0.983690 0.394791 0.332005
Si Si5 0.597047 0.668064 0.020238
Si Si6 0.708672 0.832133 0.108646
Si Si7 0.299591 0.867483 0.357876
Si Si8 0.999203 0.060944 0.910743
O O1 0.588184 0.833206 0.720948
O O2 0.375087 0.917950 0.533174
O O3 0.608050 0.487408 0.687292
O O4 0.435190 0.100837 0.825684
O O5 0.149748 0.645326 0.166052
O O6 0.230637 0.186262 0.140315
O O7 0.279193 0.168434 0.995765
O O8 0.699097 0.092174 0.738593
O O9 0.677406 0.342506 0.995327
O O10 0.913232 0.880412 0.972795
O O11 0.000000 0.500000 0.500000
O O12 0.848059 0.686254 0.251391
O O13 0.135855 0.132705 0.328513
O O14 0.947390 0.220259 0.224644
O O15 0.686811 0.632823 0.021326
O O16 0.447421 0.833795 0.886580
O O17 0.000000 0.000000 0.000000
#
# Coordination Sequence:
#
# PCOD9086760 Si02
#       8
#     2   2   2   2   2   2   2   2
#     4  10  22  39  62  88 122 158 204 249 290 350
#     4  11  22  38  61  90 120 161 199 238 299 361
#     4  12  23  36  63  90 123 161 195 240 302 356
#     4  12  23  36  65  93 113 146 198 263 300 337
#     4  10  20  37  61  90 117 155 200 249 287 344
#     4  10  19  36  60  86 119 148 203 244 287 341
#     4  11  22  39  61  89 119 158 202 249 297 348
#     4  12  20  41  65  88 116 153 204 252 287 352
#
# _framework density 18.778966
#
# number of rings (size 3 to 8) (size 9 to 14) (size 15 to 20)
#    0.000    1.000    5.000    3.375    0.000    3.500 
#    0.000    0.000    2.750    1.500    0.000    0.000 
#    0.000    0.000    0.000    0.000    0.000    0.000 
#
# Total GULP energy -89128.735348 kJ/mol
# GULP energy per Si atom -5570.545959 kJ/mol
# Density = 1.873622 g / cm^3
# Si number density = 18.778966 Si / 1000 Ang^3
#
#
#
# Elastic Constant Matrix: (Units=GPa)
#
#
# Indices 1 2 3 4 5 6 
#
# 1 107.9248 28.1778 35.7105 -10.4258 3.5652 10.1913
# 2 28.1778 67.9988 35.5501 -7.7066 0.5233 -10.6150
# 3 35.7105 35.5501 115.6351 -8.1336 7.1714 -7.6181
# 4 -10.4258 -7.7066 -8.1336 33.1849 -10.3552 7.8786
# 5 3.5652 0.5233 7.1714 -10.3552 22.4950 -5.1200
# 6 10.1913 -10.6150 -7.6181 7.8786 -5.1200 32.0503
#
#
#
# Elastic Compliance Matrix: (Units=1/GPa)
#
#
# Indices 1 2 3 4 5 6 
#
# 1 0.012325 -0.004438 -0.002593 0.003571 -0.000982 -0.007040
# 2 -0.004438 0.020194 -0.004492 0.001759 0.004128 0.007259
# 3 -0.002593 -0.004492 0.011084 -0.000412 -0.002839 0.001619
# 4 0.003571 0.001759 -0.000412 0.038157 0.015365 -0.007576
# 5 -0.000982 0.004128 -0.002839 0.015365 0.053818 0.005825
# 6 -0.007040 0.007259 0.001619 -0.007576 0.005825 0.039021
#
#
# Mechanical properties :
#
#
# Convention : Reuss Voigt Hill
#
# Bulk Modulus (GPa) = 48.64805 54.49283 51.57044
# Shear Modulus (GPa) = 24.45020 30.35405 27.40213
#
# Velocity S-wave (km/s) = 3.61224 4.02479 3.82408
# Velocity P-wave (km/s) = 6.58479 7.11896 6.85708
#
# Compressibility (1/GPa) = 0.02055581
#
# Stress axis : x y z
#
# Youngs Moduli (GPa) = 81.13772 49.51878 90.22387
#
# Poissons Ratio (x) = 0.21977 0.23399
# Poissons Ratio (y) = 0.36009 0.40528
# Poissons Ratio (z) = 0.21043 0.22243
#
# Static dielectric constant tensor:
#      x y z
#    x 1.671360 -0.073870 -0.007330 
#    y -0.073870 1.771160 0.011930 
#    z -0.007330 0.011930 1.673870 
# 
# From -- ./inp_files/470140.got.cif
#   From: 2010.05.17/outbox.cif.g08.bks.cpg/sg2_236_cif.got.tgz:470140.got - 2010.06.03 11:33:40.
