data_PCOD9086232
_publ_section_title
;
Structure prediction by ZEFSAII (Michael W. Deem and Ramdas Pophale) SiO2 
 PCOD9086232
Probable space group: P -1
;
_chemical_formula_sum "Si O2"
_cell_formula_units_Z 12
_cell_length_a 12.529220
_cell_length_b 9.989778
_cell_length_c 9.451278
_cell_angle_alpha 58.724662
_cell_angle_beta 131.750601
_cell_angle_gamma 85.491992
_cell_volume 563.060686
_symmetry_space_group_name_H-M "P -1"
_symmetry_group_IT_number 2
_symmetry_cell_setting 'triclinic'
loop_
_space_group_symop_operation_xyz
x,y,z
-x,-y,-z
loop_
_atom_site_type_symbol
_atom_site_label
_atom_site_fract_x
_atom_site_fract_y
_atom_site_fract_z
Si Si1 0.763269 0.143673 0.040421
Si Si2 0.986664 0.548380 0.295228
Si Si3 0.390243 0.972059 0.614691
Si Si4 0.010646 0.233482 0.326288
Si Si5 0.331695 0.957087 0.265413
Si Si6 0.575028 0.766340 0.162489
O O1 0.856269 0.240801 0.105465
O O2 0.898899 0.923175 0.370492
O O3 0.556088 0.261964 0.858824
O O4 0.734409 0.122443 0.862796
O O5 0.918885 0.454800 0.189252
O O6 0.204347 0.414700 0.510815
O O7 0.000000 0.500000 0.500000
O O8 0.845611 0.793997 0.018626
O O9 0.487487 0.070157 0.614559
O O10 0.188801 0.132388 0.432067
O O11 0.371473 0.887936 0.500535
O O12 0.535824 0.780390 0.953921
O O13 0.500000 0.000000 0.000000
#
# Coordination Sequence:
#
# PCOD9086232 Si02
#       6
#     2   2   2   2   2   2
#     4  10  19  36  57  79 107 151 180 213 273 334
#     4  12  19  34  59  86 105 136 187 236 254 309
#     4  10  20  36  56  82 110 148 176 219 274 329
#     4  10  20  35  56  79 112 146 180 216 275 326
#     4  11  21  34  59  86 108 137 187 227 265 313
#     4  11  17  37  59  79 105 148 183 218 266 327
#
# _framework density 21.312089
#
# number of rings (size 3 to 8) (size 9 to 14) (size 15 to 20)
#    0.000    1.333    8.333    0.000    0.000    1.333 
#    0.000    2.500    0.000    5.000    0.000    0.000 
#    0.000    0.000    0.000    0.000    0.000    0.000 
#
# Total GULP energy -67029.955016 kJ/mol
# GULP energy per Si atom -5585.829585 kJ/mol
# Density = 2.126358 g / cm^3
# Si number density = 21.312089 Si / 1000 Ang^3
#
#
#
# Elastic Constant Matrix: (Units=GPa)
#
#
# Indices 1 2 3 4 5 6 
#
# 1 58.6090 46.8098 32.5334 14.7158 21.6373 -5.9114
# 2 46.8098 122.6618 55.5534 56.7938 6.9158 -5.3295
# 3 32.5334 55.5534 75.7273 31.4484 11.7569 -0.3420
# 4 14.7158 56.7938 31.4484 45.8863 -7.8853 -4.4895
# 5 21.6373 6.9158 11.7569 -7.8853 38.9849 16.8139
# 6 -5.9114 -5.3295 -0.3420 -4.4895 16.8139 19.0234
#
#
#
# Elastic Compliance Matrix: (Units=1/GPa)
#
#
# Indices 1 2 3 4 5 6 
#
# 1 0.057826 -0.012165 -0.005619 -0.003093 -0.056220 0.063420
# 2 -0.012165 0.027532 -0.002371 -0.029121 -0.003267 -0.000095
# 3 -0.005619 -0.002371 0.023493 -0.012387 -0.006355 0.000706
# 4 -0.003093 -0.029121 -0.012387 0.071050 0.035208 -0.023694
# 5 -0.056220 -0.003267 -0.006355 0.035208 0.114523 -0.111412
# 6 0.063420 -0.000095 0.000706 -0.023694 -0.111412 0.165141
#
#
# Mechanical properties :
#
#
# Convention : Reuss Voigt Hill
#
# Bulk Modulus (GPa) = 14.58991 58.53236 36.56113
# Shear Modulus (GPa) = 9.56531 28.91903 19.24217
#
# Velocity S-wave (km/s) = 2.12084 3.68765 3.00805
# Velocity P-wave (km/s) = 3.58580 6.75690 5.40896
#
# Compressibility (1/GPa) = 0.06854053
#
# Stress axis : x y z
#
# Youngs Moduli (GPa) = 17.29325 36.32122 42.56593
#
# Poissons Ratio (x) = 0.44185 0.23919
# Poissons Ratio (y) = 0.21037 0.10093
# Poissons Ratio (z) = 0.09718 0.08612
#
# Static dielectric constant tensor:
#      x y z
#    x 1.812420 -0.000590 0.000010 
#    y -0.000590 1.802850 0.046920 
#    z 0.000010 0.046920 1.788000 
# 
# From -- ./inp_files/146544.got.cif
#   From: 2010.05.17/outbox.cif.g08.bks.cpg/sg2_74_cif.got.tgz:146544.got - 2010.06.03 11:33:40.
