data_PCOD9086129
_publ_section_title
;
Structure prediction by ZEFSAII (Michael W. Deem and Ramdas Pophale) SiO2 
 PCOD9086129
Probable space group: P -1
;
_chemical_formula_sum "Si O2"
_cell_formula_units_Z 16
_cell_length_a 5.287556
_cell_length_b 8.589382
_cell_length_c 17.420162
_cell_angle_alpha 71.988150
_cell_angle_beta 56.387354
_cell_angle_gamma 78.370459
_cell_volume 626.132247
_symmetry_space_group_name_H-M "P -1"
_symmetry_group_IT_number 2
_symmetry_cell_setting 'triclinic'
loop_
_space_group_symop_operation_xyz
x,y,z
-x,-y,-z
loop_
_atom_site_type_symbol
_atom_site_label
_atom_site_fract_x
_atom_site_fract_y
_atom_site_fract_z
Si Si1 0.622447 0.658545 0.128067
Si Si2 0.434077 0.822330 0.572303
Si Si3 0.836195 0.594284 0.423859
Si Si4 0.229940 0.470748 0.111948
Si Si5 0.743387 0.907547 0.657169
Si Si6 0.677154 0.988441 0.148529
Si Si7 0.673110 0.288896 0.591861
Si Si8 0.266680 0.148534 0.077917
O O1 0.361716 0.536718 0.160803
O O2 0.924814 0.562952 0.120711
O O3 0.586391 0.804748 0.173445
O O4 0.694072 0.755793 0.022438
O O5 0.642239 0.698850 0.505023
O O6 0.557088 0.814471 0.638824
O O7 0.070288 0.821437 0.630030
O O8 0.500000 0.000000 0.500000
O O9 0.805687 0.409229 0.485379
O O10 0.680685 0.660430 0.362734
O O11 0.174806 0.645703 0.367739
O O12 0.159413 0.280874 0.139880
O O13 0.500000 0.500000 0.000000
O O14 0.548130 0.935144 0.761710
O O15 0.762199 0.098622 0.595174
O O16 0.586360 0.080639 0.069981
O O17 0.011662 0.016981 0.122137
#
# Coordination Sequence:
#
# PCOD9086129 Si02
#       8
#     2   2   2   2   2   2   2   2
#     4  11  21  39  65  93 120 165 216 255 300 369
#     4  12  21  38  63  90 110 155 198 250 297 370
#     4  10  20  33  60  86 108 138 194 235 295 341
#     4  10  20  37  64  94 119 154 209 268 304 349
#     4  12  24  39  58  85 126 154 198 247 312 364
#     4  12  25  39  58  91 128 170 199 256 316 368
#     4  10  19  36  55  84 112 143 180 246 287 355
#     4  11  21  40  63  90 125 162 212 258 302 361
#
# _framework density 25.553709000000001
#
# number of rings (size 3 to 8) (size 9 to 14) (size 15 to 20)
#    0.000    1.000    2.500    7.125    0.000    0.000 
#    0.000    3.750    0.000    1.500    0.000    0.000 
#    0.000    0.000    0.000    0.000    0.000    0.000 
#
# Total GULP energy -89430.771068 kJ/mol
# GULP energy per Si atom -5589.423192 kJ/mol
# Density = 2.549555 g / cm^3
# Si number density = 25.553709 Si / 1000 Ang^3
#
#
#
# Elastic Constant Matrix: (Units=GPa)
#
#
# Indices 1 2 3 4 5 6 
#
# 1 198.8305 21.0594 14.9732 2.5936 32.4532 29.6375
# 2 21.0594 67.7977 18.4437 -3.1901 11.2605 10.6096
# 3 14.9732 18.4437 64.3822 12.8676 3.4617 13.0625
# 4 2.5936 -3.1901 12.8676 17.8616 0.1765 5.4873
# 5 32.4532 11.2605 3.4617 0.1765 15.1473 2.3995
# 6 29.6375 10.6096 13.0625 5.4873 2.3995 49.8917
#
#
#
# Elastic Compliance Matrix: (Units=1/GPa)
#
#
# Indices 1 2 3 4 5 6 
#
# 1 0.008632 0.001351 -0.000697 0.001041 -0.018646 -0.004450
# 2 0.001351 0.019576 -0.006152 0.008991 -0.015576 -0.003594
# 3 -0.000697 -0.006152 0.020869 -0.015394 0.001816 -0.002136
# 4 0.001041 0.008991 -0.015394 0.070424 -0.005268 -0.005992
# 5 -0.018646 -0.015576 0.001816 -0.005268 0.115780 0.008925
# 6 -0.004450 -0.003594 -0.002136 -0.005992 0.008925 0.024240
#
#
# Mechanical properties :
#
#
# Convention : Reuss Voigt Hill
#
# Bulk Modulus (GPa) = 26.26048 48.88480 37.57264
# Shear Modulus (GPa) = 17.65460 35.01572 26.33516
#
# Velocity S-wave (km/s) = 2.63132 3.70574 3.21375
# Velocity P-wave (km/s) = 4.41935 6.12224 5.33912
#
# Compressibility (1/GPa) = 0.03808004
#
# Stress axis : x y z
#
# Youngs Moduli (GPa) = 115.84746 51.08172 47.91749
#
# Poissons Ratio (x) = -0.06900 0.03341
# Poissons Ratio (y) = -0.15648 0.29481
# Poissons Ratio (z) = 0.08076 0.31428
#
# Static dielectric constant tensor:
#      x y z
#    x 2.108720 0.050460 0.012190 
#    y 0.050460 2.072390 -0.024130 
#    z 0.012190 -0.024130 2.018330 
# 
# From -- ./inp_files/547122.got.cif
#   From: 2010.05.17/outbox.cif.g08.bks.cpg/sg2_274_cif.got.tgz:547122.got - 2010.06.03 11:33:40.
