data_PCOD9086395
_publ_section_title
;
Structure prediction by ZEFSAII (Michael W. Deem and Ramdas Pophale) SiO2 
 PCOD9086395
Probable space group: P -1
;
_chemical_formula_sum "Si O2"
_cell_formula_units_Z 10
_cell_length_a 9.845869
_cell_length_b 10.931226
_cell_length_c 6.891687
_cell_angle_alpha 102.487227
_cell_angle_beta 82.950401
_cell_angle_gamma 38.780522
_cell_volume 398.824812
_symmetry_space_group_name_H-M "P -1"
_symmetry_group_IT_number 2
_symmetry_cell_setting 'triclinic'
loop_
_space_group_symop_operation_xyz
x,y,z
-x,-y,-z
loop_
_atom_site_type_symbol
_atom_site_label
_atom_site_fract_x
_atom_site_fract_y
_atom_site_fract_z
Si Si1 0.229056 0.258656 0.484987
Si Si2 0.133027 0.106480 0.204245
Si Si3 0.725812 0.263829 0.766864
Si Si4 0.370089 0.402925 0.635678
Si Si5 0.983749 0.735637 0.136781
O O1 0.289889 0.091787 0.286439
O O2 0.137745 0.275153 0.711962
O O3 0.000000 0.500000 0.500000
O O4 0.412869 0.232924 0.485132
O O5 0.842221 0.364206 0.369057
O O6 0.189321 0.924315 0.197953
O O7 0.166079 0.100039 0.966282
O O8 0.609104 0.303121 0.600684
O O9 0.934339 0.210723 0.723557
O O10 0.771963 0.503870 0.099234
O O11 0.500000 0.500000 0.000000
#
# Coordination Sequence:
#
# PCOD9086395 Si02
#       5
#     2   2   2   2   2
#     4  10  19  36  58  82 110 146 182 221 270 327
#     4   9  20  34  60  79 112 143 179 225 274 315
#     4  10  19  36  59  82 109 144 183 226 270 324
#     4   8  19  34  60  79 111 141 180 220 274 321
#     4   9  19  34  60  79 111 145 179 221 275 319
#
# _framework density 25.073664000000001
#
# number of rings (size 3 to 8) (size 9 to 14) (size 15 to 20)
#    1.200    1.600    0.000    1.200    0.000    1.600 
#    0.000    5.000   17.600    0.000    0.000    0.000 
#    0.000    0.000    0.000    0.000    0.000    0.000 
#
# Total GULP energy -55881.371897 kJ/mol
# GULP energy per Si atom -5588.137190 kJ/mol
# Density = 2.501660 g / cm^3
# Si number density = 25.073664 Si / 1000 Ang^3
#
#
#
# Elastic Constant Matrix: (Units=GPa)
#
#
# Indices 1 2 3 4 5 6 
#
# 1 178.2242 41.5427 51.8914 -2.1363 51.9435 26.8043
# 2 41.5427 137.4893 34.9727 -4.8327 3.7043 20.6606
# 3 51.8914 34.9727 76.3130 -0.8057 4.4788 1.4155
# 4 -2.1363 -4.8327 -0.8057 37.1153 -7.3942 5.4037
# 5 51.9435 3.7043 4.4788 -7.3942 31.4225 -4.3532
# 6 26.8043 20.6606 1.4155 5.4037 -4.3532 36.8650
#
#
#
# Elastic Compliance Matrix: (Units=1/GPa)
#
#
# Indices 1 2 3 4 5 6 
#
# 1 0.028233 0.000533 -0.016144 -0.004745 -0.049054 -0.025304
# 2 0.000533 0.009198 -0.004349 0.001629 -0.001769 -0.005824
# 3 -0.016144 -0.004349 0.024246 0.001956 0.026431 0.016079
# 4 -0.004745 0.001629 0.001956 0.029816 0.014359 -0.000213
# 5 -0.049054 -0.001769 0.026431 0.014359 0.119333 0.047631
# 6 -0.025304 -0.005824 0.016079 -0.000213 0.047631 0.053826
#
#
# Mechanical properties :
#
#
# Convention : Reuss Voigt Hill
#
# Bulk Modulus (GPa) = 45.96092 72.09333 59.02712
# Shear Modulus (GPa) = 16.03466 38.65522 27.34494
#
# Velocity S-wave (km/s) = 2.53158 3.93067 3.30598
# Velocity P-wave (km/s) = 5.18800 7.02959 6.17781
#
# Compressibility (1/GPa) = 0.02175762
#
# Stress axis : x y z
#
# Youngs Moduli (GPa) = 35.41992 108.71363 41.24460
#
# Poissons Ratio (x) = -0.05796 0.66584
# Poissons Ratio (y) = -0.01888 0.17937
# Poissons Ratio (z) = 0.57181 0.47279
#
# Static dielectric constant tensor:
#      x y z
#    x 1.993850 -0.059450 0.019260 
#    y -0.059450 1.957580 0.022850 
#    z 0.019260 0.022850 1.958250 
# 
# From -- ./inp_files/151304.got.cif
#   From: 2010.05.17/outbox.cif.g08.bks.cpg/sg2_76_cif.got.tgz:151304.got - 2010.06.03 11:33:40.
