data_PCOD9086336
_publ_section_title
;
Structure prediction by ZEFSAII (Michael W. Deem and Ramdas Pophale) SiO2 
 PCOD9086336
Probable space group: P -1
;
_chemical_formula_sum "Si O2"
_cell_formula_units_Z 14
_cell_length_a 13.082941
_cell_length_b 12.071790
_cell_length_c 9.460616
_cell_angle_alpha 143.883453
_cell_angle_beta 130.887687
_cell_angle_gamma 54.740800
_cell_volume 661.850186
_symmetry_space_group_name_H-M "P -1"
_symmetry_group_IT_number 2
_symmetry_cell_setting 'triclinic'
loop_
_space_group_symop_operation_xyz
x,y,z
-x,-y,-z
loop_
_atom_site_type_symbol
_atom_site_label
_atom_site_fract_x
_atom_site_fract_y
_atom_site_fract_z
Si Si1 0.828918 0.418859 0.666916
Si Si2 0.333629 0.505301 0.960659
Si Si3 0.598010 0.989093 0.942507
Si Si4 0.444824 0.571284 0.676678
Si Si5 0.496264 0.809107 0.388902
Si Si6 0.126397 0.317776 0.761009
Si Si7 0.164205 0.979500 0.618832
O O1 0.707107 0.486187 0.521446
O O2 0.963755 0.340565 0.622947
O O3 0.792666 0.244806 0.556289
O O4 0.854190 0.581749 0.966857
O O5 0.394943 0.354378 0.745305
O O6 0.198633 0.431792 0.825561
O O7 0.440743 0.490744 0.171859
O O8 0.351841 0.719363 0.150851
O O9 0.541811 0.859076 0.639263
O O10 0.750598 0.942545 0.093927
O O11 0.500000 0.000000 0.000000
O O12 0.581205 0.203518 0.094398
O O13 0.500000 0.500000 0.500000
O O14 0.500000 0.000000 0.500000
O O15 0.190132 0.101640 0.627940
O O16 0.000000 0.000000 0.500000
#
# Coordination Sequence:
#
# PCOD9086336 Si02
#       7
#     2   2   2   2   2   2   2
#     4   9  20  32  55  91 125 149 198 248 300 352
#     4  11  23  38  62  82 122 165 201 251 306 360
#     4  11  22  36  64  92 118 155 204 251 302 359
#     4  11  19  34  58  94 122 151 200 254 294 356
#     4  11  25  42  57  90 124 160 203 255 309 363
#     4  10  19  36  57  88 119 159 193 250 301 353
#     4   9  20  36  56  90 123 151 193 252 298 350
#
# _framework density 21.152823000000001
#
# number of rings (size 3 to 8) (size 9 to 14) (size 15 to 20)
#    0.000    1.714    2.857    1.714    4.000    0.000 
#    0.000    0.000    0.000   12.857    0.000    0.000 
#    0.000    0.000    0.000    0.000    0.000    0.000 
#
# Total GULP energy -78057.040172 kJ/mol
# GULP energy per Si atom -5575.502869 kJ/mol
# Density = 2.110468 g / cm^3
# Si number density = 21.152823 Si / 1000 Ang^3
#
#
#
# Elastic Constant Matrix: (Units=GPa)
#
#
# Indices 1 2 3 4 5 6 
#
# 1 98.9875 21.2202 37.6163 -0.9646 11.4360 10.1877
# 2 21.2202 71.0837 16.9200 17.7645 9.8138 4.7810
# 3 37.6163 16.9200 111.4539 2.0827 -8.1225 -3.6031
# 4 -0.9646 17.7645 2.0827 33.6686 7.4221 9.1531
# 5 11.4360 9.8138 -8.1225 7.4221 39.0011 2.1663
# 6 10.1877 4.7810 -3.6031 9.1531 2.1663 27.6666
#
#
#
# Elastic Compliance Matrix: (Units=1/GPa)
#
#
# Indices 1 2 3 4 5 6 
#
# 1 0.013944 -0.003188 -0.004893 0.005261 -0.004942 -0.006575
# 2 -0.003188 0.017950 -0.001601 -0.009276 -0.002211 0.001106
# 3 -0.004893 -0.001601 0.011348 -0.002016 0.004369 0.003881
# 4 0.005261 -0.009276 -0.002016 0.039915 -0.006486 -0.013294
# 5 -0.004942 -0.002211 0.004369 -0.006486 0.029646 0.002595
# 6 -0.006575 0.001106 0.003881 -0.013294 0.002595 0.043075
#
#
# Mechanical properties :
#
#
# Convention : Reuss Voigt Hill
#
# Bulk Modulus (GPa) = 41.88050 48.11536 44.99793
# Shear Modulus (GPa) = 27.29226 33.78517 30.53871
#
# Velocity S-wave (km/s) = 3.59589 4.00083 3.80375
# Velocity P-wave (km/s) = 6.08955 6.64365 6.37262
#
# Compressibility (1/GPa) = 0.02387746
#
# Stress axis : x y z
#
# Youngs Moduli (GPa) = 71.71538 55.71040 88.11830
#
# Poissons Ratio (x) = 0.17762 0.43118
# Poissons Ratio (y) = 0.22865 0.14108
# Poissons Ratio (z) = 0.35091 0.08919
#
# Static dielectric constant tensor:
#      x y z
#    x 1.399840 -0.407270 0.005570 
#    y -0.407270 1.393770 0.017720 
#    z 0.005570 0.017720 1.781800 
# 
# From -- ./inp_files/304470.got.cif
#   From: 2010.05.17/outbox.cif.g08.bks.cpg/sg2_153_cif.got.tgz:304470.got - 2010.06.03 11:33:40.
