data_PCOD9086371
_publ_section_title
;
Structure prediction by ZEFSAII (Michael W. Deem and Ramdas Pophale) SiO2 
 PCOD9086371
Probable space group: P -1
;
_chemical_formula_sum "Si O2"
_cell_formula_units_Z 12
_cell_length_a 18.457859
_cell_length_b 5.395546
_cell_length_c 25.054559
_cell_angle_alpha 115.511776
_cell_angle_beta 15.970174
_cell_angle_gamma 106.996231
_cell_volume 539.971936
_symmetry_space_group_name_H-M "P -1"
_symmetry_group_IT_number 2
_symmetry_cell_setting 'triclinic'
loop_
_space_group_symop_operation_xyz
x,y,z
-x,-y,-z
loop_
_atom_site_type_symbol
_atom_site_label
_atom_site_fract_x
_atom_site_fract_y
_atom_site_fract_z
Si Si1 0.160305 0.212157 0.697186
Si Si2 0.719214 0.701219 0.782667
Si Si3 0.271367 0.257337 0.413576
Si Si4 0.780791 0.632125 0.217330
Si Si5 0.339694 0.602800 0.302813
Si Si6 0.228650 0.560291 0.586410
O O1 0.063376 0.387252 0.838530
O O2 0.088133 0.437738 0.719204
O O3 0.528533 0.998558 0.420576
O O4 0.071178 0.939014 0.728026
O O5 0.563382 0.593609 0.838527
O O6 0.931410 0.414542 0.644877
O O7 0.971468 0.759188 0.579424
O O8 0.500000 0.000000 0.000000
O O9 0.428832 0.384538 0.271963
O O10 0.250018 0.400428 0.499986
O O11 0.411872 0.884648 0.280791
O O12 0.568599 0.472217 0.355120
O O13 0.000000 0.500000 0.000000
#
# Coordination Sequence:
#
# PCOD9086371 Si02
#       6
#     2   2   2   2   2   2
#     4   9  20  36  57  78 108 145 182 222 268 329
#     4   9  20  36  60  79 108 143 190 218 271 323
#     4  10  19  36  58  78 114 145 178 227 279 314
#     4   9  20  36  60  79 108 143 190 218 271 323
#     4   9  20  36  57  78 108 145 182 222 268 329
#     4  10  19  36  58  78 114 145 178 227 279 314
#
# _framework density 22.223375999999998
#
# number of rings (size 3 to 8) (size 9 to 14) (size 15 to 20)
#    2.000    0.667    0.000    2.000    0.000    1.333 
#    0.000    1.667    0.000    0.000    0.000    0.000 
#    0.000    0.000    0.000    0.000    0.000    0.000 
#
# Total GULP energy -66911.627562 kJ/mol
# GULP energy per Si atom -5575.968963 kJ/mol
# Density = 2.217279 g / cm^3
# Si number density = 22.223376 Si / 1000 Ang^3
#
#
#
# Elastic Constant Matrix: (Units=GPa)
#
#
# Indices 1 2 3 4 5 6 
#
# 1 171.9817 114.0665 43.5882 15.2956 50.9352 17.6454
# 2 114.0665 180.0521 28.4617 9.2915 28.2245 -19.3297
# 3 43.5882 28.4617 99.4241 10.1389 23.9691 6.5883
# 4 15.2956 9.2915 10.1389 -8.2257 20.0702 6.1706
# 5 50.9352 28.2245 23.9691 20.0702 40.7327 8.7671
# 6 17.6454 -19.3297 6.5883 6.1706 8.7671 24.0395
#
#
#
# Elastic Compliance Matrix: (Units=1/GPa)
#
#
# Indices 1 2 3 4 5 6 
#
# 1 0.018781 -0.012410 -0.001127 -0.008846 -0.005756 -0.019085
# 2 -0.012410 0.015923 -0.000498 0.004913 -0.002297 0.021625
# 3 -0.001127 -0.000498 0.011977 -0.000467 -0.004856 -0.000965
# 4 -0.008846 0.004913 -0.000467 -0.050344 0.030039 0.012539
# 5 -0.005756 -0.002297 -0.004856 0.030039 0.024154 -0.012811
# 6 -0.019085 0.021625 -0.000965 0.012539 -0.012811 0.074713
#
#
# Mechanical properties :
#
#
# Convention : Reuss Voigt Hill
#
# Bulk Modulus (GPa) = 53.72989 91.52119 72.62554
# Shear Modulus (GPa) = 38.61753 28.99873 33.80813
#
# Velocity S-wave (km/s) = 4.17309 3.61622 3.90460
# Velocity P-wave (km/s) = 6.88834 7.66211 7.28551
#
# Compressibility (1/GPa) = 0.01861162
#
# Stress axis : x y z
#
# Youngs Moduli (GPa) = 53.24636 62.80322 83.49628
#
# Poissons Ratio (x) = 0.77938 0.09406
# Poissons Ratio (y) = 0.66078 0.04156
# Poissons Ratio (z) = 0.05999 0.03126
#
# Static dielectric constant tensor:
#      x y z
#    x 1.809170 0.002580 -0.070160 
#    y 0.002580 1.799620 -0.024140 
#    z -0.070160 -0.024140 1.865590 
# 
# From -- ./inp_files/546011.got.cif
#   From: 2010.05.17/outbox.cif.g08.bks.cpg/sg2_274_cif.got.tgz:546011.got - 2010.06.03 11:33:40.
