data_PCOD9086115
_publ_section_title
;
Structure prediction by ZEFSAII (Michael W. Deem and Ramdas Pophale) SiO2 
 PCOD9086115
Probable space group: P -1
;
_chemical_formula_sum "Si O2"
_cell_formula_units_Z 14
_cell_length_a 9.184507
_cell_length_b 13.514268
_cell_length_c 23.215789
_cell_angle_alpha 26.135772
_cell_angle_beta 27.034841
_cell_angle_gamma 39.481685
_cell_volume 571.355703
_symmetry_space_group_name_H-M "P -1"
_symmetry_group_IT_number 2
_symmetry_cell_setting 'triclinic'
loop_
_space_group_symop_operation_xyz
x,y,z
-x,-y,-z
loop_
_atom_site_type_symbol
_atom_site_label
_atom_site_fract_x
_atom_site_fract_y
_atom_site_fract_z
Si Si1 0.252795 0.321504 0.408958
Si Si2 0.304047 0.387627 0.479543
Si Si3 0.310533 0.029610 0.172011
Si Si4 0.242292 0.418467 0.683813
Si Si5 0.190676 0.733197 0.836216
Si Si6 0.538574 0.486609 0.925956
Si Si7 0.925659 0.182719 0.822032
O O1 0.435656 0.322975 0.405452
O O2 0.477432 0.209713 0.345149
O O3 0.216458 0.575697 0.266409
O O4 0.897353 0.176577 0.613422
O O5 0.566535 0.545625 0.342447
O O6 0.000000 0.500000 0.500000
O O7 0.166306 0.197686 0.675030
O O8 0.050778 0.095320 0.183548
O O9 0.413368 0.240751 0.068960
O O10 0.614166 0.000923 0.038757
O O11 0.500000 0.500000 0.500000
O O12 0.917716 0.534838 0.748402
O O13 0.100775 0.189296 0.819249
O O14 0.313156 0.667240 0.888848
O O15 0.000000 0.500000 0.000000
O O16 0.500000 0.500000 0.000000
#
# Coordination Sequence:
#
# PCOD9086115 Si02
#       7
#     2   2   2   2   2   2   2
#     4  11  19  35  57  84 113 149 189 226 284 331
#     4   9  20  31  59  87 105 147 194 228 277 346
#     4  10  21  35  59  81 115 150 186 229 285 333
#     4   9  17  34  57  77 110 149 186 230 285 329
#     4  10  19  36  55  77 117 150 181 232 281 330
#     4  10  21  36  59  83 110 154 190 234 286 337
#     4   9  18  38  55  82 115 150 183 235 280 327
#
# _framework density 24.503122999999999
#
# number of rings (size 3 to 8) (size 9 to 14) (size 15 to 20)
#    0.000    2.286    4.286    0.429    4.000    0.571 
#    0.000    2.143    0.000   42.000    0.000    0.000 
#    0.000    0.000    0.000    0.000    0.000    0.000 
#
# Total GULP energy -77945.946732 kJ/mol
# GULP energy per Si atom -5567.567624 kJ/mol
# Density = 2.444735 g / cm^3
# Si number density = 24.503123 Si / 1000 Ang^3
#
#
#
# Elastic Constant Matrix: (Units=GPa)
#
#
# Indices 1 2 3 4 5 6 
#
# 1 197.6500 24.6700 42.0592 1.7202 0.4864 26.2019
# 2 24.6700 19.4857 18.3346 -2.8719 -2.9225 -1.0307
# 3 42.0592 18.3346 136.9042 10.5750 10.0011 -13.6634
# 4 1.7202 -2.8719 10.5750 29.3787 -1.2612 2.4267
# 5 0.4864 -2.9225 10.0011 -1.2612 40.4471 12.1925
# 6 26.2019 -1.0307 -13.6634 2.4267 12.1925 35.2609
#
#
#
# Elastic Compliance Matrix: (Units=1/GPa)
#
#
# Indices 1 2 3 4 5 6 
#
# 1 0.007409 -0.007310 -0.002215 0.000348 0.002156 -0.007347
# 2 -0.007310 0.071423 -0.008608 0.010757 0.007451 0.000867
# 3 -0.002215 -0.008608 0.010784 -0.005502 -0.005836 0.007970
# 4 0.000348 0.010757 -0.005502 0.037813 0.005273 -0.006502
# 5 0.002156 0.007451 -0.005836 0.005273 0.031316 -0.014837
# 6 -0.007347 0.000867 0.007970 -0.006502 -0.014837 0.042510
#
#
# Mechanical properties :
#
#
# Convention : Reuss Voigt Hill
#
# Bulk Modulus (GPa) = 18.74394 58.24084 38.49239
# Shear Modulus (GPa) = 19.58445 38.94907 29.26676
#
# Velocity S-wave (km/s) = 2.83019 3.99125 3.45977
# Velocity P-wave (km/s) = 4.28325 6.71271 5.63057
#
# Compressibility (1/GPa) = 0.05335056
#
# Stress axis : x y z
#
# Youngs Moduli (GPa) = 134.97637 14.00110 92.72721
#
# Poissons Ratio (x) = 0.10235 0.20536
# Poissons Ratio (y) = 0.98667 0.79820
# Poissons Ratio (z) = 0.29893 0.12052
#
# Static dielectric constant tensor:
#      x y z
#    x 1.998610 0.024130 -0.005590 
#    y 0.024130 2.151500 -0.004300 
#    z -0.005590 -0.004300 2.018800 
# 
# From -- ./inp_files/353734.got.cif
#   From: 2010.05.17/outbox.cif.g08.bks.cpg/sg2_177_cif.got.tgz:353734.got - 2010.06.03 11:33:40.
