data_PCOD9086053
_publ_section_title
;
Structure prediction by ZEFSAII (Michael W. Deem and Ramdas Pophale) SiO2 
 PCOD9086053
Probable space group: P -1
;
_chemical_formula_sum "Si O2"
_cell_formula_units_Z 16
_cell_length_a 17.147852
_cell_length_b 14.503468
_cell_length_c 10.911162
_cell_angle_alpha 147.107960
_cell_angle_beta 105.488399
_cell_angle_gamma 49.664376
_cell_volume 836.081787
_symmetry_space_group_name_H-M "P -1"
_symmetry_group_IT_number 2
_symmetry_cell_setting 'triclinic'
loop_
_space_group_symop_operation_xyz
x,y,z
-x,-y,-z
loop_
_atom_site_type_symbol
_atom_site_label
_atom_site_fract_x
_atom_site_fract_y
_atom_site_fract_z
Si Si1 0.288905 0.698085 0.850625
Si Si2 0.474726 0.481404 0.328270
Si Si3 0.122727 0.750882 0.988361
Si Si4 0.391907 0.301875 0.222693
Si Si5 0.947029 0.275668 0.821444
Si Si6 0.040337 0.237984 0.204439
Si Si7 0.169566 0.107925 0.860987
Si Si8 0.128733 0.560214 0.294437
O O1 0.400128 0.660218 0.858882
O O2 0.333030 0.514172 0.546049
O O3 0.258622 0.625467 0.870254
O O4 0.139432 0.021359 0.114091
O O5 0.500000 0.500000 0.500000
O O6 0.457466 0.310282 0.153993
O O7 0.332378 0.802438 0.577416
O O8 0.134561 0.616176 0.965292
O O9 0.997537 0.097736 0.346138
O O10 0.078403 0.698637 0.800886
O O11 0.267229 0.412250 0.233662
O O12 0.500000 0.000000 0.000000
O O13 0.869653 0.470697 0.886313
O O14 0.077480 0.172362 0.791918
O O15 0.000000 0.000000 0.500000
O O16 0.000000 0.500000 0.500000
O O17 0.128441 0.087390 0.947926
O O18 0.126164 0.378019 0.149398
#
# Coordination Sequence:
#
# PCOD9086053 Si02
#       8
#     2   2   2   2   2   2   2   2
#     4  11  21  35  54  80 124 149 187 240 289 353
#     4  10  19  36  51  77 116 151 187 230 282 347
#     4  10  21  37  53  84 118 150 191 239 296 340
#     4  11  22  35  59  85 116 152 193 233 295 345
#     4   9  20  37  59  80 112 151 196 244 285 336
#     4  11  21  32  53  82 121 153 178 241 301 349
#     4  11  20  35  56  86 113 148 197 239 286 347
#     4  11  20  36  61  85 112 152 194 243 290 343
#
# _framework density 19.136883000000001
#
# number of rings (size 3 to 8) (size 9 to 14) (size 15 to 20)
#    0.000    1.500    3.750    4.500    1.750    0.000 
#    0.000    0.000    0.000    9.750    0.000    5.250 
#    0.000    0.000    0.000    0.000    0.000    0.000 
#
# Total GULP energy -89218.973876 kJ/mol
# GULP energy per Si atom -5576.185867 kJ/mol
# Density = 1.909333 g / cm^3
# Si number density = 19.136883 Si / 1000 Ang^3
#
#
#
# Elastic Constant Matrix: (Units=GPa)
#
#
# Indices 1 2 3 4 5 6 
#
# 1 136.4363 32.4542 19.9686 -1.2913 -5.1997 -5.4037
# 2 32.4542 78.2626 16.4661 7.6703 -7.4820 -3.0479
# 3 19.9686 16.4661 48.9665 6.7864 12.4402 -3.3547
# 4 -1.2913 7.6703 6.7864 16.3753 1.4845 11.2251
# 5 -5.1997 -7.4820 12.4402 1.4845 32.5756 -3.1514
# 6 -5.4037 -3.0479 -3.3547 11.2251 -3.1514 28.0559
#
#
#
# Elastic Compliance Matrix: (Units=1/GPa)
#
#
# Indices 1 2 3 4 5 6 
#
# 1 0.008656 -0.003048 -0.003490 0.003613 0.001818 -0.000322
# 2 -0.003048 0.016747 -0.003982 -0.010953 0.005941 0.005806
# 3 -0.003490 -0.003982 0.028315 -0.013582 -0.011039 0.006475
# 4 0.003613 -0.010953 -0.013582 0.102674 -0.005672 -0.043835
# 5 0.001818 0.005941 -0.011039 -0.005672 0.037422 0.006148
# 6 -0.000322 0.005806 0.006475 -0.043835 0.006148 0.055215
#
#
# Mechanical properties :
#
#
# Convention : Reuss Voigt Hill
#
# Bulk Modulus (GPa) = 30.60186 44.60481 37.60334
# Shear Modulus (GPa) = 17.79608 28.38648 23.09128
#
# Velocity S-wave (km/s) = 3.05279 3.85559 3.47744
# Velocity P-wave (km/s) = 5.33402 6.57112 5.98463
#
# Compressibility (1/GPa) = 0.03267775
#
# Stress axis : x y z
#
# Youngs Moduli (GPa) = 115.52758 59.71270 35.31700
#
# Poissons Ratio (x) = 0.18201 0.12325
# Poissons Ratio (y) = 0.35213 0.14064
# Poissons Ratio (z) = 0.40315 0.23779
#
# Static dielectric constant tensor:
#      x y z
#    x 1.715100 0.097980 0.093300 
#    y 0.097980 1.559050 -0.154630 
#    z 0.093300 -0.154630 1.470520 
# 
# From -- ./inp_files/262800.got.cif
#   From: 2010.05.17/outbox.cif.g08.bks.cpg/sg2_132_cif.got.tgz:262800.got - 2010.06.03 11:33:40.
