data_PCOD9086471
_publ_section_title
;
Structure prediction by ZEFSAII (Michael W. Deem and Ramdas Pophale) SiO2 
 PCOD9086471
Probable space group: P -1
;
_chemical_formula_sum "Si O2"
_cell_formula_units_Z 14
_cell_length_a 14.262705
_cell_length_b 24.242290
_cell_length_c 9.275403
_cell_angle_alpha 131.504790
_cell_angle_beta 119.625711
_cell_angle_gamma 18.051125
_cell_volume 603.640398
_symmetry_space_group_name_H-M "P -1"
_symmetry_group_IT_number 2
_symmetry_cell_setting 'triclinic'
loop_
_space_group_symop_operation_xyz
x,y,z
-x,-y,-z
loop_
_atom_site_type_symbol
_atom_site_label
_atom_site_fract_x
_atom_site_fract_y
_atom_site_fract_z
Si Si1 0.447377 0.216562 0.337545
Si Si2 0.243690 0.638442 0.676657
Si Si3 0.490098 0.087360 0.714509
Si Si4 0.517931 0.424456 0.002534
Si Si5 0.593279 0.595281 0.372026
Si Si6 0.321200 0.158184 0.986855
Si Si7 0.339688 0.995219 0.593752
O O1 0.521962 0.248803 0.391288
O O2 0.000000 0.500000 0.500000
O O3 0.618243 0.096226 0.417134
O O4 0.554445 0.071576 0.085850
O O5 0.500000 0.500000 0.500000
O O6 0.227252 0.716020 0.915333
O O7 0.397243 0.470603 0.605128
O O8 0.870034 0.857509 0.689862
O O9 0.475713 0.145530 0.661379
O O10 0.500000 0.000000 0.500000
O O11 0.186642 0.283394 0.950697
O O12 0.096931 0.697802 0.221213
O O13 0.500000 0.500000 0.000000
O O14 0.612211 0.295760 0.744174
O O15 0.003793 0.339776 0.169745
O O16 0.511163 0.958139 0.730003
#
# Coordination Sequence:
#
# PCOD9086471 Si02
#       7
#     2   2   2   2   2   2   2
#     4  10  21  35  57  87 125 155 195 249 302 346
#     4  11  21  38  62  87 120 154 201 247 297 354
#     4  10  22  34  61  90 118 150 199 252 293 345
#     4   9  19  36  60  85 108 154 205 241 283 349
#     4   9  21  38  58  90 118 153 200 250 295 348
#     4   9  20  35  60  91 112 157 201 242 292 351
#     4  10  19  36  58  87 120 153 201 242 291 355
#
# _framework density 23.192616000000001
#
# number of rings (size 3 to 8) (size 9 to 14) (size 15 to 20)
#    0.000    2.286    1.429    0.429   14.000    0.000 
#    0.000    7.143    0.000    1.714    0.000    0.000 
#    0.000    0.000    0.000    0.000    0.000    0.000 
#
# Total GULP energy -77942.506247 kJ/mol
# GULP energy per Si atom -5567.321875 kJ/mol
# Density = 2.313983 g / cm^3
# Si number density = 23.192616 Si / 1000 Ang^3
#
#
#
# Elastic Constant Matrix: (Units=GPa)
#
#
# Indices 1 2 3 4 5 6 
#
# 1 134.6983 33.9630 59.3660 -16.2313 -9.3080 10.1341
# 2 33.9630 97.6665 44.6335 -26.4346 4.6398 -10.9309
# 3 59.3660 44.6335 88.8167 -25.8542 -13.7374 14.9976
# 4 -16.2313 -26.4346 -25.8542 42.5244 2.0210 -2.6827
# 5 -9.3080 4.6398 -13.7374 2.0210 49.9681 -11.8863
# 6 10.1341 -10.9309 14.9976 -2.6827 -11.8863 43.1890
#
#
#
# Elastic Compliance Matrix: (Units=1/GPa)
#
#
# Indices 1 2 3 4 5 6 
#
# 1 0.010566 -0.000787 -0.006765 -0.000596 0.000127 -0.000332
# 2 -0.000787 0.016376 -0.007487 0.005859 -0.002384 0.006637
# 3 -0.006765 -0.007487 0.023111 0.006196 0.003903 -0.006874
# 4 -0.000596 0.005859 0.006196 0.030781 0.000142 0.001422
# 5 0.000127 -0.002384 0.003903 0.000142 0.022315 0.004162
# 6 -0.000332 0.006637 -0.006874 0.001422 0.004162 0.028533
#
#
# Mechanical properties :
#
#
# Convention : Reuss Voigt Hill
#
# Bulk Modulus (GPa) = 50.06221 66.34517 58.20369
# Shear Modulus (GPa) = 29.68791 39.35089 34.51940
#
# Velocity S-wave (km/s) = 3.58167 4.12357 3.86214
# Velocity P-wave (km/s) = 6.22389 7.16520 6.71107
#
# Compressibility (1/GPa) = 0.01997515
#
# Stress axis : x y z
#
# Youngs Moduli (GPa) = 94.64556 61.06326 43.26877
#
# Poissons Ratio (x) = 0.04807 0.29269
# Poissons Ratio (y) = 0.07451 0.32397
# Poissons Ratio (z) = 0.64024 0.45720
#
# Static dielectric constant tensor:
#      x y z
#    x 2.003560 -0.033060 -0.046320 
#    y -0.033060 1.986510 0.010880 
#    z -0.046320 0.010880 1.961820 
# 
# From -- ./inp_files/302292.got.cif
#   From: 2010.05.17/outbox.cif.g08.bks.cpg/sg2_152_cif.got.tgz:302292.got - 2010.06.03 11:33:40.
