data_PCOD9086211
_publ_section_title
;
Structure prediction by ZEFSAII (Michael W. Deem and Ramdas Pophale) SiO2 
 PCOD9086211
Probable space group: P -1
;
_chemical_formula_sum "Si O2"
_cell_formula_units_Z 14
_cell_length_a 8.349789
_cell_length_b 11.445999
_cell_length_c 16.192353
_cell_angle_alpha 153.022447
_cell_angle_beta 130.522260
_cell_angle_gamma 56.397540
_cell_volume 532.171759
_symmetry_space_group_name_H-M "P -1"
_symmetry_group_IT_number 2
_symmetry_cell_setting 'triclinic'
loop_
_space_group_symop_operation_xyz
x,y,z
-x,-y,-z
loop_
_atom_site_type_symbol
_atom_site_label
_atom_site_fract_x
_atom_site_fract_y
_atom_site_fract_z
Si Si1 0.225822 0.081659 0.169498
Si Si2 0.887725 0.935504 0.287724
Si Si3 0.666484 0.421472 0.891256
Si Si4 0.250697 0.500408 0.844105
Si Si5 0.073316 0.045629 0.263403
Si Si6 0.805356 0.278631 0.608756
Si Si7 0.648472 0.787496 0.879319
O O1 0.191025 0.198899 0.323459
O O2 0.361140 0.216482 0.226397
O O3 0.303046 0.799232 0.032192
O O4 0.000000 0.000000 0.000000
O O5 0.785412 0.670169 0.043533
O O6 0.960692 0.136149 0.365471
O O7 0.084851 0.853031 0.359275
O O8 0.734348 0.066396 0.383497
O O9 0.695170 0.537358 0.066220
O O10 0.417490 0.366565 0.758371
O O11 0.777920 0.158776 0.774294
O O12 0.002762 0.421576 0.713671
O O13 0.881292 0.893578 0.054324
O O14 0.641910 0.483389 0.708924
O O15 0.500000 0.000000 0.000000
#
# Coordination Sequence:
#
# PCOD9086211 Si02
#       7
#     2   2   2   2   2   2   2
#     4   9  17  34  55  78 115 147 197 238 273 330
#     4  10  20  34  60  86 127 145 183 247 305 332
#     4   9  17  30  57  89 109 144 194 242 281 342
#     4   9  16  31  56  82 110 150 194 230 289 338
#     4  10  19  36  56  89 111 152 200 237 281 351
#     4  10  20  38  55  90 122 153 181 245 301 337
#     4  11  22  36  60  85 111 157 205 234 275 352
#
# _framework density 26.307296999999998
#
# number of rings (size 3 to 8) (size 9 to 14) (size 15 to 20)
#    0.000    2.286    5.714    0.429    2.000    0.000 
#    0.000    2.143    0.000    3.429    0.000    1.000 
#    0.000    0.000    0.000    0.000    0.000    0.000 
#
# Total GULP energy -77975.564256 kJ/mol
# GULP energy per Si atom -5569.683161 kJ/mol
# Density = 2.624742 g / cm^3
# Si number density = 26.307297 Si / 1000 Ang^3
#
#
#
# Elastic Constant Matrix: (Units=GPa)
#
#
# Indices 1 2 3 4 5 6 
#
# 1 100.3403 48.5879 22.9654 -9.3523 -30.3291 21.5756
# 2 48.5879 92.9792 28.2884 9.5661 -16.7026 5.7435
# 3 22.9654 28.2884 64.5691 -4.9485 -14.4172 -0.7289
# 4 -9.3523 9.5661 -4.9485 27.6516 -5.6693 -10.4202
# 5 -30.3291 -16.7026 -14.4172 -5.6693 42.7314 -13.7954
# 6 21.5756 5.7435 -0.7289 -10.4202 -13.7954 57.3628
#
#
#
# Elastic Compliance Matrix: (Units=1/GPa)
#
#
# Indices 1 2 3 4 5 6 
#
# 1 0.019060 -0.009235 0.000629 0.011498 0.011186 -0.001458
# 2 -0.009235 0.018191 -0.006429 -0.011871 -0.003662 -0.001467
# 3 0.000629 -0.006429 0.020478 0.009164 0.007385 0.004108
# 4 0.011498 -0.011871 0.009164 0.053399 0.017188 0.010814
# 5 0.011186 -0.003662 0.007385 0.017188 0.037383 0.008366
# 6 -0.001458 -0.001467 0.004108 0.010814 0.008366 0.022157
#
#
# Mechanical properties :
#
#
# Convention : Reuss Voigt Hill
#
# Bulk Modulus (GPa) = 36.15470 50.84132 43.49801
# Shear Modulus (GPa) = 23.81445 36.08562 29.95004
#
# Velocity S-wave (km/s) = 3.01199 3.70766 3.37778
# Velocity P-wave (km/s) = 5.08617 6.13978 5.63764
#
# Compressibility (1/GPa) = 0.02765892
#
# Stress axis : x y z
#
# Youngs Moduli (GPa) = 52.46556 54.97170 48.83388
#
# Poissons Ratio (x) = 0.50767 -0.03073
# Poissons Ratio (y) = 0.48453 0.31395
# Poissons Ratio (z) = -0.03301 0.35341
#
# Static dielectric constant tensor:
#      x y z
#    x 2.322810 0.008030 0.087270 
#    y 0.008030 2.167600 0.007590 
#    z 0.087270 0.007590 2.290260 
# 
# From -- ./inp_files/401579.got.cif
#   From: 2010.05.17/outbox.cif.g08.bks.cpg/sg2_201_cif.got.tgz:401579.got - 2010.06.03 11:33:40.
