data_PCOD9086567
_publ_section_title
;
Structure prediction by ZEFSAII (Michael W. Deem and Ramdas Pophale) SiO2 
 PCOD9086567
Probable space group: P -1
;
_chemical_formula_sum "Si O2"
_cell_formula_units_Z 14
_cell_length_a 18.998920
_cell_length_b 9.208251
_cell_length_c 9.120315
_cell_angle_alpha 49.045650
_cell_angle_beta 143.719622
_cell_angle_gamma 117.168731
_cell_volume 703.802616
_symmetry_space_group_name_H-M "P -1"
_symmetry_group_IT_number 2
_symmetry_cell_setting 'triclinic'
loop_
_space_group_symop_operation_xyz
x,y,z
-x,-y,-z
loop_
_atom_site_type_symbol
_atom_site_label
_atom_site_fract_x
_atom_site_fract_y
_atom_site_fract_z
Si Si1 0.223292 0.330877 0.671547
Si Si2 0.148888 0.682152 0.664674
Si Si3 0.575616 0.808945 0.684180
Si Si4 0.018564 0.418741 0.805366
Si Si5 0.629715 0.409368 0.125012
Si Si6 0.177796 0.107033 0.461093
Si Si7 0.594906 0.990650 0.296131
O O1 0.293814 0.517353 0.661917
O O2 0.234480 0.199491 0.634329
O O3 0.085343 0.414405 0.418324
O O4 0.291370 0.216900 0.000150
O O5 0.123963 0.523142 0.845936
O O6 0.274954 0.624683 0.828239
O O7 0.045108 0.680961 0.368024
O O8 0.142981 0.897150 0.577219
O O9 0.536421 0.602365 0.798715
O O10 0.576698 0.842028 0.491557
O O11 0.500000 0.000000 0.500000
O O12 0.067971 0.261866 0.113601
O O13 0.583682 0.207705 0.202123
O O14 0.274325 0.067634 0.517934
O O15 0.500000 0.000000 0.000000
#
# Coordination Sequence:
#
# PCOD9086567 Si02
#       7
#     2   2   2   2   2   2   2
#     4   9  21  40  55  86 124 146 188 239 281 342
#     4   9  19  35  58  87 115 152 189 237 279 339
#     4  10  21  41  60  81 115 154 184 239 291 338
#     4  10  19  36  59  83 119 153 190 228 290 333
#     4   8  20  40  58  84 119 147 190 236 287 340
#     4  11  21  37  58  88 115 150 195 235 281 339
#     4  11  23  39  63  87 110 152 199 236 284 343
#
# _framework density 19.891940999999999
#
# number of rings (size 3 to 8) (size 9 to 14) (size 15 to 20)
#    0.857    1.429    0.000    2.571    2.000    1.714 
#    2.571    0.000    0.000    0.000    0.000    0.000 
#    0.000    0.000    0.000    0.000    0.000    0.000 
#
# Total GULP energy -78043.811997 kJ/mol
# GULP energy per Si atom -5574.558000 kJ/mol
# Density = 1.984667 g / cm^3
# Si number density = 19.891941 Si / 1000 Ang^3
#
#
#
# Elastic Constant Matrix: (Units=GPa)
#
#
# Indices 1 2 3 4 5 6 
#
# 1 32.0349 11.2648 3.9908 -3.0322 2.6383 -12.3393
# 2 11.2648 93.8676 9.0767 -7.9414 -6.6628 -20.2902
# 3 3.9908 9.0767 80.7729 -14.1186 5.7629 -12.6776
# 4 -3.0322 -7.9414 -14.1186 20.9830 -9.2019 0.8541
# 5 2.6383 -6.6628 5.7629 -9.2019 25.4754 5.5015
# 6 -12.3393 -20.2902 -12.6776 0.8541 5.5015 25.9142
#
#
#
# Elastic Compliance Matrix: (Units=1/GPa)
#
#
# Indices 1 2 3 4 5 6 
#
# 1 0.040492 -0.000832 0.002560 0.002541 -0.008749 0.021655
# 2 -0.000832 0.013620 0.000979 0.006990 0.003857 0.009698
# 3 0.002560 0.000979 0.015543 0.009910 -0.002039 0.009696
# 4 0.002541 0.006990 0.009910 0.067049 0.022564 0.004531
# 5 -0.008749 0.003857 -0.002039 0.022564 0.052825 -0.014102
# 6 0.021655 0.009698 0.009696 0.004531 -0.014102 0.064081
#
#
# Mechanical properties :
#
#
# Convention : Reuss Voigt Hill
#
# Bulk Modulus (GPa) = 13.32090 28.37113 20.84602
# Shear Modulus (GPa) = 18.30032 26.63072 22.46552
#
# Velocity S-wave (km/s) = 3.03642 3.66289 3.36427
# Velocity P-wave (km/s) = 4.35939 5.67297 5.05900
#
# Compressibility (1/GPa) = 0.07506998
#
# Stress axis : x y z
#
# Youngs Moduli (GPa) = 24.69633 73.42209 64.33591
#
# Poissons Ratio (x) = 0.06108 -0.16470
# Poissons Ratio (y) = 0.02055 -0.06301
# Poissons Ratio (z) = -0.06322 -0.07191
#
# Static dielectric constant tensor:
#      x y z
#    x 1.718980 -0.003440 0.030930 
#    y -0.003440 1.713420 -0.009210 
#    z 0.030930 -0.009210 1.683120 
# 
# From -- ./inp_files/327233.got.cif
#   From: 2010.05.17/outbox.cif.g08.bks.cpg/sg2_164_cif.got.tgz:327233.got - 2010.06.03 11:33:40.
