data_PCOD9086754
_publ_section_title
;
Structure prediction by ZEFSAII (Michael W. Deem and Ramdas Pophale) SiO2 
 PCOD9086754
Probable space group: P -1
;
_chemical_formula_sum "Si O2"
_cell_formula_units_Z 12
_cell_length_a 8.172924
_cell_length_b 9.953919
_cell_length_c 7.567616
_cell_angle_alpha 70.042015
_cell_angle_beta 63.971069
_cell_angle_gamma 82.046693
_cell_volume 519.931005
_symmetry_space_group_name_H-M "P -1"
_symmetry_group_IT_number 2
_symmetry_cell_setting 'triclinic'
loop_
_space_group_symop_operation_xyz
x,y,z
-x,-y,-z
loop_
_atom_site_type_symbol
_atom_site_label
_atom_site_fract_x
_atom_site_fract_y
_atom_site_fract_z
Si Si1 0.328103 0.161551 0.869331
Si Si2 0.561739 0.099722 0.263728
Si Si3 0.944241 0.257011 0.086065
Si Si4 0.560716 0.567158 0.130046
Si Si5 0.316218 0.324959 0.432855
Si Si6 0.064002 0.452213 0.214832
O O1 0.460784 0.272437 0.861327
O O2 0.294987 0.232584 0.659669
O O3 0.412928 0.008216 0.861319
O O4 0.123858 0.158808 0.049346
O O5 0.757863 0.173458 0.171741
O O6 0.409750 0.222186 0.287655
O O7 0.500000 0.000000 0.500000
O O8 0.923938 0.338170 0.248745
O O9 0.972180 0.380240 0.865685
O O10 0.456469 0.454033 0.352322
O O11 0.500000 0.500000 0.000000
O O12 0.775823 0.560461 0.003992
O O13 0.144561 0.397892 0.385520
#
# Coordination Sequence:
#
# PCOD9086754 Si02
#       6
#     2   2   2   2   2   2
#     4  10  21  34  57  89 116 153 191 236 295 343
#     4  10  21  37  59  84 118 158 190 234 291 347
#     4  10  19  37  59  82 118 155 191 236 291 344
#     4   9  17  34  57  83 111 149 193 238 277 335
#     4  10  19  36  60  86 117 149 196 240 281 341
#     4   9  19  34  61  85 110 156 194 236 290 333
#
# _framework density 23.079985000000001
#
# number of rings (size 3 to 8) (size 9 to 14) (size 15 to 20)
#    0.000    2.333    1.667    1.000    0.000    0.667 
#    0.000   10.833    3.667    0.000    0.000    0.000 
#    0.000    0.000    0.000    0.000    0.000    0.000 
#
# Total GULP energy -66835.678315 kJ/mol
# GULP energy per Si atom -5569.639860 kJ/mol
# Density = 2.302745 g / cm^3
# Si number density = 23.079985 Si / 1000 Ang^3
#
#
#
# Elastic Constant Matrix: (Units=GPa)
#
#
# Indices 1 2 3 4 5 6 
#
# 1 67.3848 50.5350 29.0836 2.8032 12.2087 16.0012
# 2 50.5350 172.5615 20.4509 4.8689 -10.3958 4.9774
# 3 29.0836 20.4509 56.2196 -3.6354 16.3669 8.3509
# 4 2.8032 4.8689 -3.6354 24.1453 -4.9069 -1.9911
# 5 12.2087 -10.3958 16.3669 -4.9069 30.2058 -0.0722
# 6 16.0012 4.9774 8.3509 -1.9911 -0.0722 31.9525
#
#
#
# Elastic Compliance Matrix: (Units=1/GPa)
#
#
# Indices 1 2 3 4 5 6 
#
# 1 0.029045 -0.007783 -0.007537 -0.006220 -0.011373 -0.011777
# 2 -0.007783 0.008579 -0.001555 0.000621 0.007049 0.003022
# 3 -0.007537 -0.001555 0.026077 0.002619 -0.011200 -0.002661
# 4 -0.006220 0.000621 0.002619 0.044570 0.008561 0.005130
# 5 -0.011373 0.007049 -0.011200 0.008561 0.047608 0.008166
# 6 -0.011777 0.003022 -0.002661 0.005130 0.008166 0.037757
#
#
# Mechanical properties :
#
#
# Convention : Reuss Voigt Hill
#
# Bulk Modulus (GPa) = 33.38696 55.14499 44.26598
# Shear Modulus (GPa) = 21.06427 30.33383 25.69905
#
# Velocity S-wave (km/s) = 3.02431 3.62925 3.34050
# Velocity P-wave (km/s) = 5.16647 6.44258 5.83949
#
# Compressibility (1/GPa) = 0.02995181
#
# Stress axis : x y z
#
# Youngs Moduli (GPa) = 34.42888 116.57023 38.34776
#
# Poissons Ratio (x) = 0.90724 0.28901
# Poissons Ratio (y) = 0.26795 0.05964
# Poissons Ratio (z) = 0.25947 0.18130
#
# Static dielectric constant tensor:
#      x y z
#    x 2.000800 0.027580 -0.013640 
#    y 0.027580 1.995540 0.024290 
#    z -0.013640 0.024290 1.924900 
# 
# From -- ./inp_files/148180.got.cif
#   From: 2010.05.17/outbox.cif.g08.bks.cpg/sg2_75_cif.got.tgz:148180.got - 2010.06.03 11:33:40.
