data_PCOD9086458
_publ_section_title
;
Structure prediction by ZEFSAII (Michael W. Deem and Ramdas Pophale) SiO2 
 PCOD9086458
Probable space group: P -1
;
_chemical_formula_sum "Si O2"
_cell_formula_units_Z 16
_cell_length_a 13.977656
_cell_length_b 7.831657
_cell_length_c 8.501727
_cell_angle_alpha 109.869457
_cell_angle_beta 113.860865
_cell_angle_gamma 58.857951
_cell_volume 718.243709
_symmetry_space_group_name_H-M "P -1"
_symmetry_group_IT_number 2
_symmetry_cell_setting 'triclinic'
loop_
_space_group_symop_operation_xyz
x,y,z
-x,-y,-z
loop_
_atom_site_type_symbol
_atom_site_label
_atom_site_fract_x
_atom_site_fract_y
_atom_site_fract_z
Si Si1 0.002998 0.650399 0.414943
Si Si2 0.763820 0.368915 0.550458
Si Si3 0.417992 0.231726 0.965118
Si Si4 0.454220 0.643771 0.667775
Si Si5 0.198715 0.404806 0.085540
Si Si6 0.831108 0.949386 0.606008
Si Si7 0.027832 0.302729 0.100783
Si Si8 0.598027 0.938726 0.412087
O O1 0.120572 0.673978 0.483828
O O2 0.002261 0.523118 0.224237
O O3 0.000000 0.500000 0.500000
O O4 0.894364 0.856119 0.453185
O O5 0.660594 0.382203 0.374588
O O6 0.738036 0.559018 0.707293
O O7 0.781466 0.186513 0.623827
O O8 0.410193 0.219697 0.767681
O O9 0.468354 0.370737 0.132300
O O10 0.289569 0.306681 0.976585
O O11 0.500000 0.000000 0.000000
O O12 0.500000 0.500000 0.500000
O O13 0.424563 0.862980 0.643698
O O14 0.137606 0.262705 0.050722
O O15 0.096874 0.628894 0.041208
O O16 0.927015 0.858996 0.779983
O O17 0.729072 0.879049 0.543246
O O18 0.500000 0.000000 0.500000
#
# Coordination Sequence:
#
# PCOD9086458 Si02
#       8
#     2   2   2   2   2   2   2   2
#     4   9  18  34  57  85 114 155 208 247 303 370
#     4  10  20  34  59  88 125 165 197 261 318 376
#     4  10  21  37  64  91 120 168 218 255 312 375
#     4  10  20  38  62  88 121 163 206 252 318 365
#     4  10  19  36  58  86 121 158 215 259 308 375
#     4  10  20  35  57  86 125 161 207 254 322 369
#     4   9  20  33  58  87 116 162 206 262 308 370
#     4  10  23  38  62  89 124 162 211 260 304 375
#
# _framework density 22.276558999999999
#
# number of rings (size 3 to 8) (size 9 to 14) (size 15 to 20)
#    0.000    2.250    1.250    1.125    3.500    1.500 
#    0.000    1.875   11.000    0.000    0.000    0.000 
#    0.000    0.000    0.000    0.125    0.000    0.000 
#
# Total GULP energy -89164.449575 kJ/mol
# GULP energy per Si atom -5572.778098 kJ/mol
# Density = 2.222586 g / cm^3
# Si number density = 22.276559 Si / 1000 Ang^3
#
#
#
# Elastic Constant Matrix: (Units=GPa)
#
#
# Indices 1 2 3 4 5 6 
#
# 1 147.3266 -1.2335 63.7274 6.9871 -1.7866 -14.6375
# 2 -1.2335 53.0346 12.6729 -4.3756 -1.0088 5.7050
# 3 63.7274 12.6729 106.7001 10.4897 8.1886 -1.1875
# 4 6.9871 -4.3756 10.4897 26.8133 -1.2186 -7.0852
# 5 -1.7866 -1.0088 8.1886 -1.2186 34.0384 5.1196
# 6 -14.6375 5.7050 -1.1875 -7.0852 5.1196 24.9693
#
#
#
# Elastic Compliance Matrix: (Units=1/GPa)
#
#
# Indices 1 2 3 4 5 6 
#
# 1 0.010024 0.001318 -0.006340 0.001584 0.001327 0.005451
# 2 0.001318 0.020517 -0.003796 0.003662 0.002251 -0.003518
# 3 -0.006340 -0.003796 0.014404 -0.005559 -0.003659 -0.002992
# 4 0.001584 0.003662 -0.005559 0.042807 0.001301 0.011708
# 5 0.001327 0.002251 -0.003659 0.001301 0.031339 -0.005967
# 6 0.005451 -0.003518 -0.002992 0.011708 -0.005967 0.048452
#
#
# Mechanical properties :
#
#
# Convention : Reuss Voigt Hill
#
# Bulk Modulus (GPa) = 36.61972 50.82166 43.72069
# Shear Modulus (GPa) = 25.73589 32.62382 29.17986
#
# Velocity S-wave (km/s) = 3.40264 3.83102 3.62317
# Velocity P-wave (km/s) = 5.64904 6.51402 6.09689
#
# Compressibility (1/GPa) = 0.02730769
#
# Stress axis : x y z
#
# Youngs Moduli (GPa) = 99.76367 48.74087 69.42698
#
# Poissons Ratio (x) = -0.06423 0.44018
# Poissons Ratio (y) = -0.13146 0.26353
# Poissons Ratio (z) = 0.63252 0.18501
#
# Static dielectric constant tensor:
#      x y z
#    x 1.908520 -0.037280 0.080360 
#    y -0.037280 1.877910 -0.000310 
#    z 0.080360 -0.000310 1.964320 
# 
# From -- ./inp_files/296469.got.cif
#   From: 2010.05.17/outbox.cif.g08.bks.cpg/sg2_149_cif.got.tgz:296469.got - 2010.06.03 11:33:40.
