data_PCOD9086510
_publ_section_title
;
Structure prediction by ZEFSAII (Michael W. Deem and Ramdas Pophale) SiO2 
 PCOD9086510
Probable space group: P -1
;
_chemical_formula_sum "Si O2"
_cell_formula_units_Z 15
_cell_length_a 12.733138
_cell_length_b 7.336853
_cell_length_c 10.572002
_cell_angle_alpha 112.836808
_cell_angle_beta 109.875392
_cell_angle_gamma 46.887414
_cell_volume 660.367896
_symmetry_space_group_name_H-M "P -1"
_symmetry_group_IT_number 2
_symmetry_cell_setting 'triclinic'
loop_
_space_group_symop_operation_xyz
x,y,z
-x,-y,-z
loop_
_atom_site_type_symbol
_atom_site_label
_atom_site_fract_x
_atom_site_fract_y
_atom_site_fract_z
Si Si1 0.664829 0.676572 0.458497
Si Si2 0.164561 0.388285 0.884924
Si Si3 0.455411 0.589139 0.649952
Si Si4 0.500000 0.000000 0.000000
Si Si5 0.661367 0.705840 0.765223
Si Si6 0.980915 0.147672 0.402611
Si Si7 0.224191 0.127457 0.597141
Si Si8 0.976886 0.249422 0.872150
O O1 0.569215 0.598112 0.352826
O O2 0.649623 0.727839 0.615787
O O3 0.654228 0.889066 0.432855
O O4 0.829774 0.425771 0.433869
O O5 0.335614 0.219362 0.931871
O O6 0.140770 0.365463 0.722629
O O7 0.103058 0.263948 0.898872
O O8 0.072982 0.672590 0.981923
O O9 0.500000 0.500000 0.500000
O O10 0.573191 0.609414 0.756489
O O11 0.304453 0.876639 0.651722
O O12 0.579307 0.960592 0.883107
O O13 0.829773 0.490029 0.806629
O O14 0.116880 0.141964 0.461295
O O15 0.985405 0.999837 0.243985
O O16 0.000000 0.000000 0.500000
#
# Coordination Sequence:
#
# PCOD9086510 Si02
#       8
#     2   2   2   1   2   2   2   2
#     4  11  23  36  62  95 126 158 209 258 316 367
#     4  10  20  37  60  94 122 166 209 256 306 378
#     4  10  20  36  57  86 120 163 200 248 310 362
#     4  10  20  34  62  86 124 162 214 246 308 372
#     4  10  19  36  58  92 118 165 203 249 307 374
#     4  12  19  37  63  92 126 163 206 257 310 375
#     4  12  22  38  63  94 128 160 208 263 313 371
#     4  10  20  36  65  88 124 166 210 249 312 373
#
# _framework density 22.714611000000001
#
# number of rings (size 3 to 8) (size 9 to 14) (size 15 to 20)
#    0.000    1.333    5.333    1.200    0.000    2.133 
#    0.000    0.667    2.933    1.600    0.000    0.000 
#    0.000    0.000    0.000    0.000    0.000    0.000 
#
# Total GULP energy -83507.220369 kJ/mol
# GULP energy per Si atom -5567.148025 kJ/mol
# Density = 2.266291 g / cm^3
# Si number density = 22.714611 Si / 1000 Ang^3
#
#
#
# Elastic Constant Matrix: (Units=GPa)
#
#
# Indices 1 2 3 4 5 6 
#
# 1 102.7337 23.3225 12.2666 -0.8308 10.8645 -7.7407
# 2 23.3225 75.0616 20.4677 22.5296 -4.0489 -26.4563
# 3 12.2666 20.4677 108.2833 27.4029 -9.8295 0.0913
# 4 -0.8308 22.5296 27.4029 21.8695 -14.8866 -4.5194
# 5 10.8645 -4.0489 -9.8295 -14.8866 40.8884 -1.0874
# 6 -7.7407 -26.4563 0.0913 -4.5194 -1.0874 39.5189
#
#
#
# Elastic Compliance Matrix: (Units=1/GPa)
#
#
# Indices 1 2 3 4 5 6 
#
# 1 0.011475 -0.005754 -0.002487 0.008594 -0.001105 -0.000646
# 2 -0.005754 0.030554 0.004125 -0.039643 -0.008500 0.014551
# 3 -0.002487 0.004125 0.015094 -0.026963 -0.005145 -0.000986
# 4 0.008594 -0.039643 -0.026963 0.146898 0.040608 -0.006877
# 5 -0.001105 -0.008500 -0.005145 0.040608 0.037451 -0.000220
# 6 -0.000646 0.014551 -0.000986 -0.006877 -0.000220 0.034129
#
#
# Mechanical properties :
#
#
# Convention : Reuss Voigt Hill
#
# Bulk Modulus (GPa) = 20.45372 44.24356 32.34864
# Shear Modulus (GPa) = 16.65940 35.79014 26.22477
#
# Velocity S-wave (km/s) = 2.71111 3.97374 3.40153
# Velocity P-wave (km/s) = 4.33871 6.36981 5.44972
#
# Compressibility (1/GPa) = 0.04889086
#
# Stress axis : x y z
#
# Youngs Moduli (GPa) = 87.14737 32.72859 66.24961
#
# Poissons Ratio (x) = 0.18833 0.16476
# Poissons Ratio (y) = 0.50147 -0.27327
# Poissons Ratio (z) = 0.21673 -0.13500
#
# Static dielectric constant tensor:
#      x y z
#    x 1.874730 0.037600 0.020350 
#    y 0.037600 1.952870 0.073170 
#    z 0.020350 0.073170 1.951530 
# 
# From -- ./inp_files/200819.got.cif
#   From: 2010.05.17/outbox.cif.g08.bks.cpg/sg2_101_cif.got.tgz:200819.got - 2010.06.03 11:33:40.
