data_PCOD9086990
_publ_section_title
;
Structure prediction by ZEFSAII (Michael W. Deem and Ramdas Pophale) SiO2 
 PCOD9086990
Probable space group: P -1
;
_chemical_formula_sum "Si O2"
_cell_formula_units_Z 14
_cell_length_a 24.191727
_cell_length_b 5.200498
_cell_length_c 8.618434
_cell_angle_alpha 113.923334
_cell_angle_beta 33.954048
_cell_angle_gamma 106.723933
_cell_volume 551.056494
_symmetry_space_group_name_H-M "P -1"
_symmetry_group_IT_number 2
_symmetry_cell_setting 'triclinic'
loop_
_space_group_symop_operation_xyz
x,y,z
-x,-y,-z
loop_
_atom_site_type_symbol
_atom_site_label
_atom_site_fract_x
_atom_site_fract_y
_atom_site_fract_z
Si Si1 0.561009 0.047801 0.616688
Si Si2 0.579957 0.625663 0.230414
Si Si3 0.948508 0.807243 0.365688
Si Si4 0.783674 0.708050 0.348257
Si Si5 0.387193 0.851608 0.162739
Si Si6 0.906338 0.350057 0.745224
Si Si7 0.881476 0.290162 0.277454
O O1 0.482490 0.221732 0.728968
O O2 0.614687 0.216718 0.665555
O O3 0.624876 0.850471 0.295920
O O4 0.496548 0.867715 0.838565
O O5 0.500000 0.500000 0.500000
O O6 0.650813 0.382049 0.922793
O O7 0.894340 0.522625 0.437866
O O8 0.043994 0.798391 0.253252
O O9 0.882021 0.094392 0.628702
O O10 0.005492 0.792013 0.066366
O O11 0.818270 0.482114 0.343145
O O12 0.670906 0.841032 0.644940
O O13 0.835613 0.996140 0.327398
O O14 0.819382 0.571389 0.066550
O O15 0.000000 0.500000 0.500000
#
# Coordination Sequence:
#
# PCOD9086990 Si02
#       7
#     2   2   2   2   2   2   2
#     4   9  19  38  64  89 115 166 212 253 318 388
#     4   9  18  36  62  88 116 153 212 255 308 386
#     4   9  20  36  62  83 115 161 213 248 303 374
#     4  11  24  39  59  90 129 159 205 261 320 368
#     4  10  21  37  61  89 124 164 207 267 317 383
#     4  10  19  36  61  87 120 163 205 258 305 376
#     4  10  22  39  59  88 117 163 205 254 308 371
#
# _framework density 25.405742
#
# number of rings (size 3 to 8) (size 9 to 14) (size 15 to 20)
#    0.000    2.286    1.429    0.429    4.000    1.714 
#    2.571    0.000    0.000    0.000    0.000    0.000 
#    0.000    0.000    0.000    0.000    0.000    0.000 
#
# Total GULP energy -78080.774148 kJ/mol
# GULP energy per Si atom -5577.198153 kJ/mol
# Density = 2.534792 g / cm^3
# Si number density = 25.405742 Si / 1000 Ang^3
#
#
#
# Elastic Constant Matrix: (Units=GPa)
#
#
# Indices 1 2 3 4 5 6 
#
# 1 95.7008 32.5517 52.1648 18.4972 25.1603 -12.5973
# 2 32.5517 98.0546 39.4314 16.0060 20.0081 2.8139
# 3 52.1648 39.4314 176.1910 54.4645 36.2255 11.8379
# 4 18.4972 16.0060 54.4645 42.2354 12.1158 8.6742
# 5 25.1603 20.0081 36.2255 12.1158 41.2149 6.4868
# 6 -12.5973 2.8139 11.8379 8.6742 6.4868 42.5089
#
#
#
# Elastic Compliance Matrix: (Units=1/GPa)
#
#
# Indices 1 2 3 4 5 6 
#
# 1 0.015834 -0.002745 -0.002507 -0.002216 -0.006585 0.007029
# 2 -0.002745 0.012316 -0.000853 -0.001356 -0.003053 -0.000648
# 3 -0.002507 -0.000853 0.011102 -0.011500 -0.004311 -0.000774
# 4 -0.002216 -0.001356 -0.011500 0.040904 0.001018 -0.005867
# 5 -0.006585 -0.003053 -0.004311 0.001018 0.034195 -0.005975
# 6 0.007029 -0.000648 -0.000774 -0.005867 -0.005975 0.027975
#
#
# Mechanical properties :
#
#
# Convention : Reuss Voigt Hill
#
# Bulk Modulus (GPa) = 36.97959 68.69355 52.83657
# Shear Modulus (GPa) = 30.57181 41.57840 36.07511
#
# Velocity S-wave (km/s) = 3.47269 4.04985 3.77232
# Velocity P-wave (km/s) = 5.53774 6.99755 6.31000
#
# Compressibility (1/GPa) = 0.02704194
#
# Stress axis : x y z
#
# Youngs Moduli (GPa) = 63.15407 81.19845 90.07367
#
# Poissons Ratio (x) = 0.22286 0.22582
# Poissons Ratio (y) = 0.17334 0.07685
# Poissons Ratio (z) = 0.15833 0.06928
#
# Static dielectric constant tensor:
#      x y z
#    x 2.170310 0.073720 0.087110 
#    y 0.073720 2.115840 0.047410 
#    z 0.087110 0.047410 2.031120 
# 
# From -- ./inp_files/356053.got.cif
#   From: 2010.05.17/outbox.cif.g08.bks.cpg/sg2_179_cif.got.tgz:356053.got - 2010.06.03 11:33:40.
