data_PCOD9086795
_publ_section_title
;
Structure prediction by ZEFSAII (Michael W. Deem and Ramdas Pophale) SiO2 
 PCOD9086795
Probable space group: P -1
;
_chemical_formula_sum "Si O2"
_cell_formula_units_Z 16
_cell_length_a 10.284693
_cell_length_b 15.084668
_cell_length_c 10.766394
_cell_angle_alpha 57.422683
_cell_angle_beta 80.455742
_cell_angle_gamma 33.924280
_cell_volume 629.922145
_symmetry_space_group_name_H-M "P -1"
_symmetry_group_IT_number 2
_symmetry_cell_setting 'triclinic'
loop_
_space_group_symop_operation_xyz
x,y,z
-x,-y,-z
loop_
_atom_site_type_symbol
_atom_site_label
_atom_site_fract_x
_atom_site_fract_y
_atom_site_fract_z
Si Si1 0.230332 0.181586 0.245897
Si Si2 0.826568 0.159747 0.679229
Si Si3 0.747554 0.217117 0.279346
Si Si4 0.623630 0.694534 0.840270
Si Si5 0.686794 0.831611 0.218427
Si Si6 0.600917 0.674749 0.278977
Si Si7 0.841928 0.324604 0.342414
Si Si8 0.846286 0.938655 0.136317
O O1 0.323243 0.222417 0.271817
O O2 0.470507 0.983518 0.255211
O O3 0.145601 0.140338 0.370490
O O4 0.931012 0.429526 0.037437
O O5 0.524366 0.314871 0.606607
O O6 0.843824 0.246073 0.518298
O O7 0.077582 0.903023 0.786718
O O8 0.893745 0.167297 0.793794
O O9 0.509149 0.296811 0.238940
O O10 0.659401 0.392800 0.214769
O O11 0.000000 0.000000 0.500000
O O12 0.395902 0.868824 0.860993
O O13 0.906290 0.771365 0.253822
O O14 0.784720 0.643723 0.315558
O O15 0.500000 0.000000 0.000000
O O16 0.744602 0.503964 0.278392
O O17 0.305796 0.926605 0.070584
#
# Coordination Sequence:
#
# PCOD9086795 Si02
#       8
#     2   2   2   2   2   2   2   2
#     4  10  19  36  60  88 116 150 195 244 296 342
#     4  10  21  38  57  79 119 154 192 239 289 347
#     4   9  20  39  57  81 117 153 193 237 287 350
#     4   9  18  35  61  87 113 148 194 249 286 342
#     4   9  20  36  59  85 115 148 190 243 293 345
#     4  11  20  37  57  83 114 157 194 238 291 342
#     4  11  22  37  56  87 119 154 191 243 292 347
#     4   9  18  38  58  84 110 148 200 237 287 350
#
# _framework density 25.399965000000002
#
# number of rings (size 3 to 8) (size 9 to 14) (size 15 to 20)
#    0.000    2.250    1.250    1.500    1.750    0.500 
#    6.750   13.125    0.000    0.000    0.000    0.000 
#    0.000    0.000    0.000    0.000    0.000    0.000 
#
# Total GULP energy -89401.689487 kJ/mol
# GULP energy per Si atom -5587.605593 kJ/mol
# Density = 2.534215 g / cm^3
# Si number density = 25.399965 Si / 1000 Ang^3
#
#
#
# Elastic Constant Matrix: (Units=GPa)
#
#
# Indices 1 2 3 4 5 6 
#
# 1 197.2336 53.4466 46.8040 5.1195 19.4422 33.1475
# 2 53.4466 58.7028 10.4544 3.8741 -6.1790 20.3650
# 3 46.8040 10.4544 57.2918 0.6335 3.7672 -6.8789
# 4 5.1195 3.8741 0.6335 25.4870 -8.8069 -7.4377
# 5 19.4422 -6.1790 3.7672 -8.8069 41.2822 5.2679
# 6 33.1475 20.3650 -6.8789 -7.4377 5.2679 48.0847
#
#
#
# Elastic Compliance Matrix: (Units=1/GPa)
#
#
# Indices 1 2 3 4 5 6 
#
# 1 0.010022 -0.006209 -0.007316 -0.004265 -0.005201 -0.005416
# 2 -0.006209 0.026856 -0.001321 -0.002670 0.007583 -0.008526
# 3 -0.007316 -0.001321 0.024751 0.004105 0.000626 0.009710
# 4 -0.004265 -0.002670 0.004105 0.046971 0.009871 0.010842
# 5 -0.005201 0.007583 0.000626 0.009871 0.030022 -0.001299
# 6 -0.005416 -0.008526 0.009710 0.010842 -0.001299 0.031350
#
#
# Mechanical properties :
#
#
# Convention : Reuss Voigt Hill
#
# Bulk Modulus (GPa) = 31.31080 59.40425 45.35753
# Shear Modulus (GPa) = 23.77443 36.47233 30.12338
#
# Velocity S-wave (km/s) = 3.06273 3.79346 3.44751
# Velocity P-wave (km/s) = 4.98608 6.52882 5.80889
#
# Compressibility (1/GPa) = 0.03193786
#
# Stress axis : x y z
#
# Youngs Moduli (GPa) = 99.77780 37.23600 40.40184
#
# Poissons Ratio (x) = 0.23120 0.29557
# Poissons Ratio (y) = 0.61954 0.05337
# Poissons Ratio (z) = 0.72994 0.04918
#
# Static dielectric constant tensor:
#      x y z
#    x 2.050630 0.049870 -0.039640 
#    y 0.049870 2.015910 -0.026330 
#    z -0.039640 -0.026330 2.111270 
# 
# From -- ./inp_files/239686.got.cif
#   From: 2010.05.17/outbox.cif.g08.bks.cpg/sg2_120_cif.got.tgz:239686.got - 2010.06.03 11:33:40.
