data_PCOD9086607
_publ_section_title
;
Structure prediction by ZEFSAII (Michael W. Deem and Ramdas Pophale) SiO2 
 PCOD9086607
Probable space group: P -1
;
_chemical_formula_sum "Si O2"
_cell_formula_units_Z 16
_cell_length_a 17.568417
_cell_length_b 11.850166
_cell_length_c 18.009946
_cell_angle_alpha 28.096453
_cell_angle_beta 147.922501
_cell_angle_gamma 128.728143
_cell_volume 818.954283
_symmetry_space_group_name_H-M "P -1"
_symmetry_group_IT_number 2
_symmetry_cell_setting 'triclinic'
loop_
_space_group_symop_operation_xyz
x,y,z
-x,-y,-z
loop_
_atom_site_type_symbol
_atom_site_label
_atom_site_fract_x
_atom_site_fract_y
_atom_site_fract_z
Si Si1 0.817211 0.658851 0.290460
Si Si2 0.834808 0.719159 0.976778
Si Si3 0.335611 0.054482 0.148949
Si Si4 0.701468 0.115322 0.050940
Si Si5 0.390741 0.486682 0.484226
Si Si6 0.739515 0.319784 0.537937
Si Si7 0.191821 0.330731 0.484232
Si Si8 0.595426 0.670236 0.694472
O O1 0.764803 0.459854 0.404836
O O2 0.000000 0.500000 0.500000
O O3 0.806510 0.884746 0.210688
O O4 0.689814 0.808217 0.031307
O O5 0.686820 0.746011 0.788183
O O6 0.787840 0.734903 0.015292
O O7 0.850432 0.991575 0.818033
O O8 0.999273 0.444803 0.253816
O O9 0.300459 0.800937 0.254244
O O10 0.510215 0.897624 0.427137
O O11 0.717464 0.962081 0.230655
O O12 0.521079 0.268294 0.776516
O O13 0.722660 0.378695 0.932258
O O14 0.500000 0.500000 0.500000
O O15 0.262711 0.374596 0.439944
O O16 0.787474 0.466455 0.557488
O O17 0.556168 0.360963 0.377031
#
# Coordination Sequence:
#
# PCOD9086607 Si02
#       8
#     2   2   2   2   2   2   2   2
#     4  11  23  34  59  97 119 142 187 261 299 328
#     4  11  22  39  59  87 120 153 202 233 289 343
#     4  10  19  36  59  86 117 151 193 235 295 337
#     4  10  21  37  59  86 120 145 198 234 297 343
#     4  11  20  32  58  89 113 149 182 242 288 345
#     4  10  20  36  63  85 114 154 198 240 286 344
#     4  11  21  34  61  88 114 149 194 254 285 332
#     4  10  22  39  62  83 115 165 196 232 279 363
#
# _framework density 19.537109999999998
#
# number of rings (size 3 to 8) (size 9 to 14) (size 15 to 20)
#    0.000    1.500    5.000    3.750    3.500    0.500 
#    0.000    2.500    0.000    8.250    0.000    0.000 
#    0.000    0.000    0.000    0.000    0.000    0.000 
#
# Total GULP energy -89104.476194 kJ/mol
# GULP energy per Si atom -5569.029762 kJ/mol
# Density = 1.949264 g / cm^3
# Si number density = 19.537110 Si / 1000 Ang^3
#
#
#
# Elastic Constant Matrix: (Units=GPa)
#
#
# Indices 1 2 3 4 5 6 
#
# 1 98.0387 11.3818 33.6186 4.0438 -14.5193 -1.8022
# 2 11.3818 33.5471 14.6362 3.7789 3.5550 -4.8961
# 3 33.6186 14.6362 69.0333 0.3288 -13.1470 11.8397
# 4 4.0438 3.7789 0.3288 24.8672 -4.4721 5.5846
# 5 -14.5193 3.5550 -13.1470 -4.4721 35.0168 -5.6350
# 6 -1.8022 -4.8961 11.8397 5.5846 -5.6350 16.6114
#
#
#
# Elastic Compliance Matrix: (Units=1/GPa)
#
#
# Indices 1 2 3 4 5 6 
#
# 1 0.013665 -0.000031 -0.007484 -0.003507 0.003910 0.009313
# 2 -0.000031 0.041941 -0.014428 -0.013013 -0.007407 0.024505
# 3 -0.007484 -0.014428 0.026544 0.009749 0.005485 -0.025401
# 4 -0.003507 -0.013013 0.009749 0.049463 0.005682 -0.025866
# 5 0.003910 -0.007407 0.005485 0.005682 0.034373 0.004082
# 6 0.009313 0.024505 -0.025401 -0.025866 0.004082 0.096618
#
#
# Mechanical properties :
#
#
# Convention : Reuss Voigt Hill
#
# Bulk Modulus (GPa) = 26.13468 35.54358 30.83913
# Shear Modulus (GPa) = 15.66194 24.69789 20.17992
#
# Velocity S-wave (km/s) = 2.83442 3.55935 3.21737
# Velocity P-wave (km/s) = 4.91099 5.92658 5.44253
#
# Compressibility (1/GPa) = 0.03826333
#
# Stress axis : x y z
#
# Youngs Moduli (GPa) = 73.18016 23.84279 37.67334
#
# Poissons Ratio (x) = 0.00074 0.28194
# Poissons Ratio (y) = 0.00229 0.54356
# Poissons Ratio (z) = 0.54767 0.34401
#
# Static dielectric constant tensor:
#      x y z
#    x 1.777500 -0.018850 0.034020 
#    y -0.018850 1.702210 -0.008120 
#    z 0.034020 -0.008120 1.743500 
# 
# From -- ./inp_files/277973.got.cif
#   From: 2010.05.17/outbox.cif.g08.bks.cpg/sg2_139_cif.got.tgz:277973.got - 2010.06.03 11:33:40.
