data_PCOD9086358
_publ_section_title
;
Structure prediction by ZEFSAII (Michael W. Deem and Ramdas Pophale) SiO2 
 PCOD9086358
Probable space group: P -1
;
_chemical_formula_sum "Si O2"
_cell_formula_units_Z 16
_cell_length_a 17.654499
_cell_length_b 5.773921
_cell_length_c 14.550695
_cell_angle_alpha 59.343970
_cell_angle_beta 149.970540
_cell_angle_gamma 113.886076
_cell_volume 636.238143
_symmetry_space_group_name_H-M "P -1"
_symmetry_group_IT_number 2
_symmetry_cell_setting 'triclinic'
loop_
_space_group_symop_operation_xyz
x,y,z
-x,-y,-z
loop_
_atom_site_type_symbol
_atom_site_label
_atom_site_fract_x
_atom_site_fract_y
_atom_site_fract_z
Si Si1 0.362201 0.015625 0.046157
Si Si2 0.467439 0.614479 0.070835
Si Si3 0.290742 0.744690 0.674181
Si Si4 0.020277 0.036279 0.621928
Si Si5 0.700732 0.340605 0.778683
Si Si6 0.292514 0.170816 0.433088
Si Si7 0.014008 0.395938 0.181305
Si Si8 0.825436 0.110171 0.785029
O O1 0.425800 0.814892 0.070280
O O2 0.410851 0.309440 0.071855
O O3 0.187875 0.097219 0.815496
O O4 0.374674 0.811406 0.187671
O O5 0.388139 0.746268 0.869720
O O6 0.646211 0.530809 0.255731
O O7 0.325607 0.003598 0.595004
O O8 0.115389 0.768290 0.514889
O O9 0.000000 0.000000 0.500000
O O10 0.002832 0.752285 0.711613
O O11 0.767389 0.105876 0.828678
O O12 0.642444 0.561360 0.595343
O O13 0.846145 0.473835 0.950370
O O14 0.308005 0.979222 0.400433
O O15 0.106112 0.211481 0.238491
O O16 0.140372 0.603489 0.280523
O O17 0.000000 0.000000 0.000000
#
# Coordination Sequence:
#
# PCOD9086358 Si02
#       8
#     2   2   2   2   2   2   2   2
#     4  11  26  46  76 102 143 186 232 290 355 418
#     4  11  26  52  71 100 142 196 232 279 359 426
#     4  10  24  46  72 100 139 185 239 290 343 424
#     4  10  20  42  66 107 136 175 230 302 345 401
#     4  10  20  35  57  94 132 173 226 279 347 407
#     4  10  19  36  57  94 130 173 229 276 340 407
#     4   9  18  31  51  86 134 168 216 270 345 412
#     4  11  17  29  56  87 131 182 212 274 343 416
#
# _framework density 25.147815000000001
#
# number of rings (size 3 to 8) (size 9 to 14) (size 15 to 20)
#    0.000    1.750    3.750    0.750    1.750    3.500 
#    9.000    1.250    0.000    0.000    0.000    0.000 
#    0.000    0.000    0.000    0.000    0.000    0.000 
#
# Total GULP energy -89129.271690 kJ/mol
# GULP energy per Si atom -5570.579481 kJ/mol
# Density = 2.509058 g / cm^3
# Si number density = 25.147815 Si / 1000 Ang^3
#
#
#
# Elastic Constant Matrix: (Units=GPa)
#
#
# Indices 1 2 3 4 5 6 
#
# 1 153.7699 51.1244 58.4019 -15.4774 -18.9552 -9.7607
# 2 51.1244 82.4473 26.8473 -8.0170 3.2179 1.9045
# 3 58.4019 26.8473 153.6734 -12.8927 -11.5283 -9.1004
# 4 -15.4774 -8.0170 -12.8927 13.8102 1.7046 -2.0117
# 5 -18.9552 3.2179 -11.5283 1.7046 54.9386 -8.0681
# 6 -9.7607 1.9045 -9.1004 -2.0117 -8.0681 32.4498
#
#
#
# Elastic Compliance Matrix: (Units=1/GPa)
#
#
# Indices 1 2 3 4 5 6 
#
# 1 0.010516 -0.005481 -0.001896 0.006980 0.003977 0.004375
# 2 -0.005481 0.016325 -0.001075 0.002249 -0.003684 -0.003685
# 3 -0.001896 -0.001075 0.008072 0.004974 0.001299 0.002388
# 4 0.006980 0.002249 0.004974 0.087288 0.001973 0.009264
# 5 0.003977 -0.003684 0.001299 0.001973 0.021049 0.007133
# 6 0.004375 -0.003685 0.002388 0.009264 0.007133 0.035366
#
#
# Mechanical properties :
#
#
# Convention : Reuss Voigt Hill
#
# Bulk Modulus (GPa) = 55.52688 73.62641 64.57665
# Shear Modulus (GPa) = 24.81094 37.14086 30.97590
#
# Velocity S-wave (km/s) = 3.14443 3.84722 3.51344
# Velocity P-wave (km/s) = 5.94234 7.00541 6.49566
#
# Compressibility (1/GPa) = 0.01800930
#
# Stress axis : x y z
#
# Youngs Moduli (GPa) = 95.09139 61.25454 123.88809
#
# Poissons Ratio (x) = 0.33574 0.23488
# Poissons Ratio (y) = 0.52121 0.13317
# Poissons Ratio (z) = 0.18029 0.06585
#
# Static dielectric constant tensor:
#      x y z
#    x 2.048920 -0.022360 0.102370 
#    y -0.022360 1.750210 0.151370 
#    z 0.102370 0.151370 1.962480 
# 
# From -- ./inp_files/536157.got.cif
#   From: 2010.05.17/outbox.cif.g08.bks.cpg/sg2_269_cif.got.tgz:536157.got - 2010.06.03 11:33:40.
