data_PCOD9086170
_publ_section_title
;
Structure prediction by ZEFSAII (Michael W. Deem and Ramdas Pophale) SiO2 
 PCOD9086170
Probable space group: P -1
;
_chemical_formula_sum "Si O2"
_cell_formula_units_Z 16
_cell_length_a 22.883953
_cell_length_b 18.921974
_cell_length_c 12.559089
_cell_angle_alpha 153.010591
_cell_angle_beta 28.519418
_cell_angle_gamma 162.202089
_cell_volume 736.260441
_symmetry_space_group_name_H-M "P -1"
_symmetry_group_IT_number 2
_symmetry_cell_setting 'triclinic'
loop_
_space_group_symop_operation_xyz
x,y,z
-x,-y,-z
loop_
_atom_site_type_symbol
_atom_site_label
_atom_site_fract_x
_atom_site_fract_y
_atom_site_fract_z
Si Si1 0.787850 0.509805 0.805541
Si Si2 0.776640 0.811444 0.137652
Si Si3 0.194283 0.262159 0.415861
Si Si4 0.794766 0.933891 0.053798
Si Si5 0.644227 0.411450 0.116916
Si Si6 0.288444 0.857854 0.676879
Si Si7 0.968477 0.220461 0.872062
Si Si8 0.606328 0.717330 0.490161
O O1 0.844621 0.415216 0.521732
O O2 0.982330 0.784257 0.908592
O O3 0.690417 0.554017 0.954215
O O4 0.652352 0.333228 0.886307
O O5 0.757970 0.888576 0.380836
O O6 0.695201 0.814382 0.167560
O O7 0.000000 0.000000 0.000000
O O8 0.046858 0.254717 0.675052
O O9 0.402869 0.496808 0.453489
O O10 0.114494 0.025006 0.279573
O O11 0.209035 0.230803 0.227061
O O12 0.713820 0.989638 0.185353
O O13 0.834005 0.552187 0.070077
O O14 0.659432 0.609420 0.321756
O O15 0.451089 0.216307 0.237662
O O16 0.500000 0.000000 0.500000
O O17 0.195456 0.816558 0.883415
#
# Coordination Sequence:
#
# PCOD9086170 Si02
#       8
#     2   2   2   2   2   2   2   2
#     4  10  19  36  56  81 107 145 180 219 277 327
#     4   9  20  35  54  79 111 141 181 223 272 327
#     4   9  17  31  51  81 106 137 178 230 270 311
#     4  10  20  36  56  82 109 147 177 221 280 325
#     4   9  16  30  52  78 105 139 178 225 267 312
#     4  11  23  35  52  82 113 145 184 224 268 322
#     4   9  18  32  50  75 112 141 173 227 275 312
#     4   9  18  29  51  82 108 135 177 229 268 315
#
# _framework density 21.731441
#
# number of rings (size 3 to 8) (size 9 to 14) (size 15 to 20)
#    0.000    2.500    2.500    0.375    7.000    0.500 
#    0.000    0.000    0.000    1.500    0.000    0.000 
#    0.000    0.000    0.000    0.000    0.000    0.000 
#
# Total GULP energy -89086.880283 kJ/mol
# GULP energy per Si atom -5567.930018 kJ/mol
# Density = 2.168198 g / cm^3
# Si number density = 21.731441 Si / 1000 Ang^3
#
#
#
# Elastic Constant Matrix: (Units=GPa)
#
#
# Indices 1 2 3 4 5 6 
#
# 1 51.6818 7.6477 26.9331 -12.8658 12.0414 -11.0398
# 2 7.6477 53.5256 29.8681 -20.9503 0.1637 10.4264
# 3 26.9331 29.8681 158.7093 -29.6687 19.8963 -6.0568
# 4 -12.8658 -20.9503 -29.6687 36.5175 -1.1093 5.4820
# 5 12.0414 0.1637 19.8963 -1.1093 25.3472 -16.3510
# 6 -11.0398 10.4264 -6.0568 5.4820 -16.3510 22.4359
#
#
#
# Elastic Compliance Matrix: (Units=1/GPa)
#
#
# Indices 1 2 3 4 5 6 
#
# 1 0.024665 -0.002263 -0.002058 0.004345 -0.004592 0.008225
# 2 -0.002263 0.038874 -0.000086 0.027509 -0.027606 -0.046043
# 3 -0.002058 -0.000086 0.009225 0.007693 -0.011625 -0.008834
# 4 0.004345 0.027509 0.007693 0.057372 -0.038388 -0.050564
# 5 -0.004592 -0.027606 -0.011625 -0.038388 0.113426 0.099475
# 6 0.008225 -0.046043 -0.008834 -0.050564 0.099475 0.152481
#
#
# Mechanical properties :
#
#
# Convention : Reuss Voigt Hill
#
# Bulk Modulus (GPa) = 15.63714 43.64606 29.64160
# Shear Modulus (GPa) = 11.73232 30.15796 20.94514
#
# Velocity S-wave (km/s) = 2.32605 3.72930 3.10791
# Velocity P-wave (km/s) = 3.79806 6.21864 5.15251
#
# Compressibility (1/GPa) = 0.06395030
#
# Stress axis : x y z
#
# Youngs Moduli (GPa) = 40.54334 25.72394 108.40651
#
# Poissons Ratio (x) = 0.05821 0.22310
# Poissons Ratio (y) = 0.09175 0.00930
# Poissons Ratio (z) = 0.08344 0.00221
#
# Static dielectric constant tensor:
#      x y z
#    x 1.866770 0.050820 0.028660 
#    y 0.050820 1.905820 -0.023690 
#    z 0.028660 -0.023690 1.917920 
# 
# From -- ./inp_files/475598.got.cif
#   From: 2010.05.17/outbox.cif.g08.bks.cpg/sg2_238_cif.got.tgz:475598.got - 2010.06.03 11:33:40.
