data_PCOD9086110
_publ_section_title
;
Structure prediction by ZEFSAII (Michael W. Deem and Ramdas Pophale) SiO2 
 PCOD9086110
Probable space group: P -1
;
_chemical_formula_sum "Si O2"
_cell_formula_units_Z 14
_cell_length_a 25.934732
_cell_length_b 11.028522
_cell_length_c 8.843745
_cell_angle_alpha 43.072550
_cell_angle_beta 31.990149
_cell_angle_gamma 28.640291
_cell_volume 641.345029
_symmetry_space_group_name_H-M "P -1"
_symmetry_group_IT_number 2
_symmetry_cell_setting 'triclinic'
loop_
_space_group_symop_operation_xyz
x,y,z
-x,-y,-z
loop_
_atom_site_type_symbol
_atom_site_label
_atom_site_fract_x
_atom_site_fract_y
_atom_site_fract_z
Si Si1 0.128640 0.733923 0.347418
Si Si2 0.564184 0.891949 0.106880
Si Si3 0.899552 0.614811 0.813365
Si Si4 0.220649 0.115713 0.530747
Si Si5 0.354234 0.599857 0.731189
Si Si6 0.029759 0.776029 0.214314
Si Si7 0.728335 0.776886 0.380488
O O1 0.086645 0.738843 0.275208
O O2 0.174324 0.508397 0.539794
O O3 0.267596 0.666829 0.036814
O O4 0.000000 0.000000 0.500000
O O5 0.430174 0.082584 0.373044
O O6 0.619740 0.618827 0.220334
O O7 0.500000 0.000000 0.000000
O O8 0.684148 0.883060 0.812507
O O9 0.874968 0.468769 0.909662
O O10 0.058418 0.374737 0.694383
O O11 0.907976 0.787940 0.541229
O O12 0.795152 0.764108 0.074783
O O13 0.267983 0.090532 0.609838
O O14 0.259752 0.861538 0.636965
O O15 0.500000 0.500000 0.500000
O O16 0.000000 0.000000 0.000000
#
# Coordination Sequence:
#
# PCOD9086110 Si02
#       7
#     2   2   2   2   2   2   2
#     4  12  24  38  65  95 122 156 206 261 304 359
#     4  10  19  36  54  90 133 156 190 256 313 363
#     4  11  24  40  65  91 122 167 203 254 309 364
#     4  11  20  36  61  91 127 157 204 251 310 363
#     4  12  20  33  57  91 122 160 192 244 314 360
#     4  11  24  43  58  87 132 165 201 248 315 369
#     4  11  20  38  61  95 125 152 205 259 301 355
#
# _framework density 21.829124
#
# number of rings (size 3 to 8) (size 9 to 14) (size 15 to 20)
#    0.000    0.857    7.143    3.000    2.000    0.000 
#    0.000    0.000    0.000    9.429    0.000   22.000 
#    0.000    0.000    0.000    0.000    0.000    0.000 
#
# Total GULP energy -78185.633966 kJ/mol
# GULP energy per Si atom -5584.688140 kJ/mol
# Density = 2.177944 g / cm^3
# Si number density = 21.829124 Si / 1000 Ang^3
#
#
#
# Elastic Constant Matrix: (Units=GPa)
#
#
# Indices 1 2 3 4 5 6 
#
# 1 55.5572 12.8676 26.4145 5.8110 -2.5931 12.2405
# 2 12.8676 145.3396 59.5344 -17.4079 1.7215 9.5115
# 3 26.4145 59.5344 146.0452 4.7092 7.7577 9.4697
# 4 5.8110 -17.4079 4.7092 60.9093 0.1954 -3.4404
# 5 -2.5931 1.7215 7.7577 0.1954 30.9284 -1.7425
# 6 12.2405 9.5115 9.4697 -3.4404 -1.7425 21.5518
#
#
#
# Elastic Compliance Matrix: (Units=1/GPa)
#
#
# Indices 1 2 3 4 5 6 
#
# 1 0.022507 -0.000248 -0.003251 -0.002623 0.002085 -0.011495
# 2 -0.000248 0.008780 -0.003523 0.002707 0.000259 -0.001733
# 3 -0.003251 -0.003523 0.009113 -0.001452 -0.002411 -0.001030
# 4 -0.002623 0.002707 -0.001452 0.017767 0.000094 0.003777
# 5 0.002085 0.000259 -0.002411 0.000094 0.033236 0.002463
# 6 -0.011495 -0.001733 -0.001030 0.003777 0.002463 0.054948
#
#
# Mechanical properties :
#
#
# Convention : Reuss Voigt Hill
#
# Bulk Modulus (GPa) = 37.94040 60.50832 49.22436
# Shear Modulus (GPa) = 29.55458 39.21961 34.38710
#
# Velocity S-wave (km/s) = 3.68354 4.24331 3.97329
# Velocity P-wave (km/s) = 5.95900 7.19630 6.60668
#
# Compressibility (1/GPa) = 0.02635713
#
# Stress axis : x y z
#
# Youngs Moduli (GPa) = 44.43146 113.89535 109.73478
#
# Poissons Ratio (x) = 0.02821 0.35669
# Poissons Ratio (y) = 0.01100 0.38659
# Poissons Ratio (z) = 0.14443 0.40125
#
# Static dielectric constant tensor:
#      x y z
#    x 1.895700 -0.045200 -0.068620 
#    y -0.045200 1.785220 -0.064860 
#    z -0.068620 -0.064860 1.755860 
# 
# From -- ./inp_files/358515.got.cif
#   From: 2010.05.17/outbox.cif.g08.bks.cpg/sg2_180_cif.got.tgz:358515.got - 2010.06.03 11:33:40.
