data_PCOD9086560
_publ_section_title
;
Structure prediction by ZEFSAII (Michael W. Deem and Ramdas Pophale) SiO2 
 PCOD9086560
Probable space group: P -1
;
_chemical_formula_sum "Si O2"
_cell_formula_units_Z 16
_cell_length_a 16.139537
_cell_length_b 10.371909
_cell_length_c 7.036232
_cell_angle_alpha 67.356336
_cell_angle_beta 79.038087
_cell_angle_gamma 129.335267
_cell_volume 667.366378
_symmetry_space_group_name_H-M "P -1"
_symmetry_group_IT_number 2
_symmetry_cell_setting 'triclinic'
loop_
_space_group_symop_operation_xyz
x,y,z
-x,-y,-z
loop_
_atom_site_type_symbol
_atom_site_label
_atom_site_fract_x
_atom_site_fract_y
_atom_site_fract_z
Si Si1 0.715583 0.556558 0.184059
Si Si2 0.571523 0.487446 0.632885
Si Si3 0.557198 0.917892 0.493938
Si Si4 0.950359 0.661843 0.057270
Si Si5 0.760908 0.959814 0.383756
Si Si6 0.593057 0.985369 0.995926
Si Si7 0.861412 0.027227 0.886642
Si Si8 0.123833 0.683030 0.487467
O O1 0.671148 0.519346 0.444711
O O2 0.573214 0.348277 0.262982
O O3 0.813500 0.553655 0.109253
O O4 0.801479 0.805366 0.968248
O O5 0.500000 0.500000 0.500000
O O6 0.662151 0.701423 0.607422
O O7 0.471651 0.246897 0.909784
O O8 0.687356 0.003520 0.470433
O O9 0.500000 0.000000 0.500000
O O10 0.598185 0.974066 0.224785
O O11 0.924803 0.467673 0.225920
O O12 0.995506 0.793657 0.164735
O O13 0.079415 0.848849 0.760186
O O14 0.773087 0.971826 0.135951
O O15 0.737003 0.201405 0.717549
O O16 0.500000 0.000000 0.000000
O O17 0.855988 0.126727 0.660180
O O18 0.000000 0.500000 0.500000
#
# Coordination Sequence:
#
# PCOD9086560 Si02
#       8
#     2   2   2   2   2   2   2   2
#     4  10  17  29  46  74  98 127 166 213 248 290
#     4  10  16  28  51  74 103 133 168 211 255 304
#     4  11  21  34  52  74 103 143 180 204 247 315
#     4   9  18  28  47  78 108 124 157 216 265 294
#     4   9  17  31  50  71 102 133 174 205 253 303
#     4  11  20  32  51  81 107 123 168 221 264 287
#     4   8  16  26  48  69 105 122 161 200 258 297
#     4  10  16  27  44  73 104 132 151 197 262 311
#
# _framework density 23.974838999999999
#
# number of rings (size 3 to 8) (size 9 to 14) (size 15 to 20)
#    0.750    1.500    3.750    2.625    0.000    0.000 
#    0.000    0.625    0.000    0.750    0.000    7.875 
#    0.000    0.000    0.000    0.000    0.000    0.000 
#
# Total GULP energy -89162.964346 kJ/mol
# GULP energy per Si atom -5572.685272 kJ/mol
# Density = 2.392027 g / cm^3
# Si number density = 23.974839 Si / 1000 Ang^3
#
#
#
# Elastic Constant Matrix: (Units=GPa)
#
#
# Indices 1 2 3 4 5 6 
#
# 1 73.7140 -1.6305 31.7332 7.6567 -22.4125 -8.7784
# 2 -1.6305 55.6613 27.1428 -4.4293 1.5835 -13.0865
# 3 31.7332 27.1428 109.0470 -16.8260 -19.4120 0.8261
# 4 7.6567 -4.4293 -16.8260 39.6657 -3.7688 3.4052
# 5 -22.4125 1.5835 -19.4120 -3.7688 46.7218 -6.5281
# 6 -8.7784 -13.0865 0.8261 3.4052 -6.5281 24.5767
#
#
#
# Elastic Compliance Matrix: (Units=1/GPa)
#
#
# Indices 1 2 3 4 5 6 
#
# 1 0.022536 0.007461 -0.008127 -0.007476 0.008766 0.015660
# 2 0.007461 0.026635 -0.009361 -0.003885 0.000983 0.017961
# 3 -0.008127 -0.009361 0.015598 0.008125 0.002308 -0.008925
# 4 -0.007476 -0.003885 0.008125 0.030542 0.001136 -0.008942
# 5 0.008766 0.000983 0.002308 0.001136 0.028148 0.010896
# 6 0.015660 0.017961 -0.008925 -0.008942 0.010896 0.060280
#
#
# Mechanical properties :
#
#
# Convention : Reuss Voigt Hill
#
# Bulk Modulus (GPa) = 22.36460 39.21259 30.78860
# Shear Modulus (GPa) = 22.86253 34.27129 28.56691
#
# Velocity S-wave (km/s) = 3.09140 3.78493 3.45561
# Velocity P-wave (km/s) = 4.70010 5.95753 5.36578
#
# Compressibility (1/GPa) = 0.04471352
#
# Stress axis : x y z
#
# Youngs Moduli (GPa) = 44.37308 37.54453 64.11255
#
# Poissons Ratio (x) = -0.28010 0.52103
# Poissons Ratio (y) = -0.33105 0.60018
# Poissons Ratio (z) = 0.36061 0.35147
#
# Static dielectric constant tensor:
#      x y z
#    x 1.962560 0.034540 0.022280 
#    y 0.034540 2.004050 -0.026480 
#    z 0.022280 -0.026480 1.944520 
# 
# From -- ./inp_files/449752.got.cif
#   From: 2010.05.17/outbox.cif.g08.bks.cpg/sg2_225_cif.got.tgz:449752.got - 2010.06.03 11:33:40.
