data_PCOD9086304
_publ_section_title
;
Structure prediction by ZEFSAII (Michael W. Deem and Ramdas Pophale) SiO2 
 PCOD9086304
Probable space group: P -1
;
_chemical_formula_sum "Si O2"
_cell_formula_units_Z 15
_cell_length_a 9.579429
_cell_length_b 10.108889
_cell_length_c 8.117518
_cell_angle_alpha 102.973271
_cell_angle_beta 57.130270
_cell_angle_gamma 93.201733
_cell_volume 641.286136
_symmetry_space_group_name_H-M "P -1"
_symmetry_group_IT_number 2
_symmetry_cell_setting 'triclinic'
loop_
_space_group_symop_operation_xyz
x,y,z
-x,-y,-z
loop_
_atom_site_type_symbol
_atom_site_label
_atom_site_fract_x
_atom_site_fract_y
_atom_site_fract_z
Si Si1 0.511227 0.764414 0.314068
Si Si2 0.068319 0.560018 0.804515
Si Si3 0.186839 0.729289 0.304134
Si Si4 0.910645 0.077973 0.847980
Si Si5 0.414403 0.539926 0.893215
Si Si6 0.855077 0.823548 0.987860
Si Si7 0.000000 0.500000 0.500000
Si Si8 0.370853 0.746987 0.742607
O O1 0.351352 0.777658 0.301036
O O2 0.580023 0.604192 0.240567
O O3 0.660969 0.836228 0.156242
O O4 0.455904 0.804387 0.544632
O O5 0.231576 0.642670 0.748837
O O6 0.088287 0.456639 0.612250
O O7 0.000000 0.500000 0.000000
O O8 0.915253 0.666892 0.871864
O O9 0.085213 0.854721 0.314514
O O10 0.107271 0.633092 0.457551
O O11 0.247128 0.623996 0.088437
O O12 0.048836 0.132264 0.896898
O O13 0.733446 0.135493 0.057052
O O14 0.913086 0.917175 0.829299
O O15 0.490140 0.652030 0.760130
O O16 0.500000 0.500000 0.000000
#
# Coordination Sequence:
#
# PCOD9086304 Si02
#       8
#     2   2   2   2   2   2   1   2
#     4  11  20  34  58  89 119 148 199 256 298 352
#     4  11  22  38  63  89 122 164 199 244 311 367
#     4  10  21  37  57  86 119 158 198 244 303 361
#     4   9  21  42  62  78 117 165 205 239 297 375
#     4   9  19  34  53  84 121 154 189 248 305 357
#     4  10  21  39  64  84 115 161 201 247 303 356
#     4  12  20  36  62  90 120 156 200 242 300 370
#     4  10  19  36  57  84 120 158 198 248 304 358
#
# _framework density 23.390495000000001
#
# number of rings (size 3 to 8) (size 9 to 14) (size 15 to 20)
#    0.000    1.867    1.333    4.400    0.000    1.067 
#    4.800    0.667    2.933    0.000    0.000    0.000 
#    0.000    0.000    0.000    0.000    0.000    0.000 
#
# Total GULP energy -83505.317214 kJ/mol
# GULP energy per Si atom -5567.021148 kJ/mol
# Density = 2.333726 g / cm^3
# Si number density = 23.390495 Si / 1000 Ang^3
#
#
#
# Elastic Constant Matrix: (Units=GPa)
#
#
# Indices 1 2 3 4 5 6 
#
# 1 77.6590 19.4684 18.3319 -29.9738 -1.4281 -11.4984
# 2 19.4684 60.9411 -9.9764 -21.4752 -3.8116 -14.9242
# 3 18.3319 -9.9764 73.7958 -25.8066 6.2141 -0.4844
# 4 -29.9738 -21.4752 -25.8066 41.6539 -0.4039 2.0846
# 5 -1.4281 -3.8116 6.2141 -0.4039 28.6921 -13.9160
# 6 -11.4984 -14.9242 -0.4844 2.0846 -13.9160 17.9976
#
#
#
# Elastic Compliance Matrix: (Units=1/GPa)
#
#
# Indices 1 2 3 4 5 6 
#
# 1 0.024862 0.011973 0.002060 0.023535 0.022301 0.040386
# 2 0.011973 0.052070 0.015396 0.041409 0.043663 0.080206
# 3 0.002060 0.015396 0.022720 0.022735 0.005435 0.016263
# 4 0.023535 0.041409 0.022735 0.073237 0.036655 0.069846
# 5 0.022301 0.043663 0.005435 0.036655 0.101738 0.125020
# 6 0.040386 0.080206 0.016263 0.069846 0.125020 0.236890
#
#
# Mechanical properties :
#
#
# Convention : Reuss Voigt Hill
#
# Bulk Modulus (GPa) = 6.30875 29.78264 18.04569
# Shear Modulus (GPa) = 9.89126 29.97350 19.93238
#
# Velocity S-wave (km/s) = 2.05862 3.58360 2.92234
# Velocity P-wave (km/s) = 2.89026 5.46657 4.37247
#
# Compressibility (1/GPa) = 0.15850995
#
# Stress axis : x y z
#
# Youngs Moduli (GPa) = 40.22135 19.20498 44.01424
#
# Poissons Ratio (x) = -0.22995 -0.09067
# Poissons Ratio (y) = -0.48158 -0.67762
# Poissons Ratio (z) = -0.08286 -0.29567
#
# Static dielectric constant tensor:
#      x y z
#    x 1.968250 -0.010140 0.186630 
#    y -0.010140 1.963710 0.153920 
#    z 0.186630 0.153920 3.005390 
# 
# From -- ./inp_files/234567.got.cif
#   From: 2010.05.17/outbox.cif.g08.bks.cpg/sg2_118_cif.got.tgz:234567.got - 2010.06.03 11:33:40.
