data_PCOD9086530
_publ_section_title
;
Structure prediction by ZEFSAII (Michael W. Deem and Ramdas Pophale) SiO2 
 PCOD9086530
Probable space group: P -1
;
_chemical_formula_sum "Si O2"
_cell_formula_units_Z 16
_cell_length_a 18.562141
_cell_length_b 14.096050
_cell_length_c 13.348301
_cell_angle_alpha 157.583831
_cell_angle_beta 146.149014
_cell_angle_gamma 37.675816
_cell_volume 737.234379
_symmetry_space_group_name_H-M "P -1"
_symmetry_group_IT_number 2
_symmetry_cell_setting 'triclinic'
loop_
_space_group_symop_operation_xyz
x,y,z
-x,-y,-z
loop_
_atom_site_type_symbol
_atom_site_label
_atom_site_fract_x
_atom_site_fract_y
_atom_site_fract_z
Si Si1 0.629572 0.151569 0.882078
Si Si2 0.109106 0.309921 0.548909
Si Si3 0.228344 0.795284 0.108373
Si Si4 0.407672 0.722106 0.444280
Si Si5 0.601228 0.642486 0.426674
Si Si6 0.033970 0.251282 0.731200
Si Si7 0.139470 0.676782 0.595877
Si Si8 0.711601 0.763119 0.114324
O O1 0.684740 0.211461 0.896719
O O2 0.567140 0.896830 0.574027
O O3 0.548167 0.397589 0.075837
O O4 0.760421 0.120164 0.071517
O O5 0.201297 0.271306 0.716886
O O6 0.963244 0.325536 0.436225
O O7 0.146688 0.066685 0.287434
O O8 0.141642 0.566553 0.788095
O O9 0.317205 0.761862 0.278468
O O10 0.549212 0.676923 0.512876
O O11 0.378651 0.974791 0.721201
O O12 0.367777 0.477652 0.215681
O O13 0.756014 0.567270 0.525888
O O14 0.183743 0.229402 0.846014
O O15 0.943204 0.282726 0.559381
O O16 0.000000 0.000000 0.500000
O O17 0.000000 0.500000 0.000000
#
# Coordination Sequence:
#
# PCOD9086530 Si02
#       8
#     2   2   2   2   2   2   2   2
#     4  10  22  35  51  82 113 151 188 228 273 318
#     4   9  19  33  54  75 112 147 181 235 272 323
#     4  10  20  33  52  83 107 150 197 229 269 301
#     4  10  19  36  59  78 114 152 192 225 253 319
#     4  10  22  36  54  79 108 164 180 224 275 311
#     4  11  23  39  67  91 109 136 173 231 284 337
#     4   9  24  38  56  81 117 140 186 218 287 342
#     4   9  19  36  57  86 109 139 183 227 276 320
#
# _framework density 21.702731
#
# number of rings (size 3 to 8) (size 9 to 14) (size 15 to 20)
#    0.750    1.500    0.000    2.250    3.500    4.000 
#    0.000    0.000    0.000    4.500    0.000    0.000 
#    0.000    0.000    0.000    0.000    0.000    0.000 
#
# Total GULP energy -89344.679646 kJ/mol
# GULP energy per Si atom -5584.042478 kJ/mol
# Density = 2.165333 g / cm^3
# Si number density = 21.702731 Si / 1000 Ang^3
#
#
#
# Elastic Constant Matrix: (Units=GPa)
#
#
# Indices 1 2 3 4 5 6 
#
# 1 119.1640 6.3711 56.3668 33.3729 -3.7671 -23.8955
# 2 6.3711 25.0887 39.6366 4.9147 0.4683 -17.2768
# 3 56.3668 39.6366 126.8738 61.7882 -4.6025 -10.4478
# 4 33.3729 4.9147 61.7882 33.2886 9.8521 -8.2576
# 5 -3.7671 0.4683 -4.6025 9.8521 13.4842 8.7377
# 6 -23.8955 -17.2768 -10.4478 -8.2576 8.7377 37.6215
#
#
#
# Elastic Compliance Matrix: (Units=1/GPa)
#
#
# Indices 1 2 3 4 5 6 
#
# 1 0.013774 0.006819 -0.001984 -0.011143 0.006261 0.007429
# 2 0.006819 0.025731 0.013334 -0.047095 0.039797 0.000270
# 3 -0.001984 0.013334 -0.004236 0.018579 -0.024802 0.013525
# 4 -0.011143 -0.047095 0.018579 -0.000922 0.024633 -0.029469
# 5 0.006261 0.039797 -0.024802 0.024633 0.040735 0.011311
# 6 0.007429 0.000270 0.013525 -0.029469 0.011311 0.026084
#
#
# Mechanical properties :
#
#
# Convention : Reuss Voigt Hill
#
# Bulk Modulus (GPa) = 13.96553 52.87506 33.42029
# Shear Modulus (GPa) = 56.37128 28.12901 42.25014
#
# Velocity S-wave (km/s) = 5.10203 3.60405 4.41700
# Velocity P-wave (km/s) = 6.41533 6.46027 6.43784
#
# Compressibility (1/GPa) = 0.07160486
#
# Stress axis : x y z
#
# Youngs Moduli (GPa) = 72.59977 38.86418 -236.05421
#
# Poissons Ratio (x) = -0.26501 -0.46841
# Poissons Ratio (y) = -0.49506 3.14744
# Poissons Ratio (z) = 0.14406 -0.51820
#
# Static dielectric constant tensor:
#      x y z
#    x 1.753210 -0.011180 -0.023180 
#    y -0.011180 1.860910 0.004940 
#    z -0.023180 0.004940 1.809880 
# 
# From -- ./inp_files/110519.got.cif
#   From: 2010.05.17/outbox.cif.g08.bks.cpg/sg2_56_cif.got.tgz:110519.got - 2010.06.03 11:33:40.
