data_PCOD9086622
_publ_section_title
;
Structure prediction by ZEFSAII (Michael W. Deem and Ramdas Pophale) SiO2 
 PCOD9086622
Probable space group: P -1
;
_chemical_formula_sum "Si O2"
_cell_formula_units_Z 16
_cell_length_a 9.141097
_cell_length_b 11.637503
_cell_length_c 9.217647
_cell_angle_alpha 62.795831
_cell_angle_beta 81.456579
_cell_angle_gamma 55.088410
_cell_volume 706.506374
_symmetry_space_group_name_H-M "P -1"
_symmetry_group_IT_number 2
_symmetry_cell_setting 'triclinic'
loop_
_space_group_symop_operation_xyz
x,y,z
-x,-y,-z
loop_
_atom_site_type_symbol
_atom_site_label
_atom_site_fract_x
_atom_site_fract_y
_atom_site_fract_z
Si Si1 0.502838 0.620314 0.239191
Si Si2 0.033909 0.664791 0.288207
Si Si3 0.782375 0.227372 0.024173
Si Si4 0.134126 0.444936 0.818801
Si Si5 0.971327 0.206971 0.301937
Si Si6 0.708684 0.867089 0.869068
Si Si7 0.699534 0.977450 0.133742
Si Si8 0.248370 0.696066 0.466615
O O1 0.422074 0.645628 0.076142
O O2 0.658916 0.646839 0.214214
O O3 0.341236 0.735591 0.307067
O O4 0.590588 0.441555 0.379842
O O5 0.100922 0.735851 0.117035
O O6 0.166105 0.618343 0.429569
O O7 0.007469 0.543764 0.280141
O O8 0.834243 0.807203 0.283330
O O9 0.847291 0.221480 0.179578
O O10 0.792582 0.069509 0.086856
O O11 0.083278 0.615386 0.766891
O O12 0.167069 0.322637 0.010190
O O13 0.907244 0.173382 0.481302
O O14 0.178981 0.105012 0.279234
O O15 0.503436 0.929579 0.828833
O O16 0.697345 0.943964 0.982241
#
# Coordination Sequence:
#
# PCOD9086622 Si02
#       8
#     2   2   2   2   2   2   2   2
#     4   9  19  37  59  79 116 152 189 228 274 350
#     4  10  21  37  61  83 110 159 194 226 273 348
#     4  11  20  35  60  88 111 149 195 236 279 329
#     4  10  19  36  59  87 114 146 190 235 292 325
#     4  11  22  35  58  88 122 143 181 247 292 331
#     4  10  20  36  58  88 111 148 186 247 281 321
#     4  10  20  37  59  83 112 149 203 227 268 344
#     4   9  21  39  54  84 118 152 190 223 290 342
#
# _framework density 22.646646
#
# number of rings (size 3 to 8) (size 9 to 14) (size 15 to 20)
#    0.000    2.000    3.750    0.750    0.000    4.000 
#    0.000    3.750    0.000    0.000    0.000    0.000 
#    0.000    0.000    0.000    0.000    0.000    0.000 
#
# Total GULP energy -89242.332388 kJ/mol
# GULP energy per Si atom -5577.645774 kJ/mol
# Density = 2.259510 g / cm^3
# Si number density = 22.646646 Si / 1000 Ang^3
#
#
#
# Elastic Constant Matrix: (Units=GPa)
#
#
# Indices 1 2 3 4 5 6 
#
# 1 137.6654 25.8205 32.6454 28.3534 -0.8094 2.2769
# 2 25.8205 50.4716 -6.3302 6.0487 3.1833 7.3510
# 3 32.6454 -6.3302 46.5940 16.2787 -4.8806 -8.3775
# 4 28.3534 6.0487 16.2787 27.7482 -12.2784 -5.6145
# 5 -0.8094 3.1833 -4.8806 -12.2784 43.5418 12.3238
# 6 2.2769 7.3510 -8.3775 -5.6145 12.3238 42.0172
#
#
#
# Elastic Compliance Matrix: (Units=1/GPa)
#
#
# Indices 1 2 3 4 5 6 
#
# 1 0.011440 -0.005386 -0.006460 -0.007872 -0.001926 -0.001452
# 2 -0.005386 0.024953 0.008754 -0.006500 -0.002041 -0.002598
# 3 -0.006460 0.008754 0.032835 -0.014811 -0.002415 0.004094
# 4 -0.007872 -0.006500 -0.014811 0.061445 0.015338 0.002322
# 5 -0.001926 -0.002041 -0.002415 0.015338 0.028964 -0.006466
# 6 -0.001452 -0.002598 0.004094 0.002322 -0.006466 0.027356
#
#
# Mechanical properties :
#
#
# Convention : Reuss Voigt Hill
#
# Bulk Modulus (GPa) = 15.86211 37.66692 26.76452
# Shear Modulus (GPa) = 23.34352 34.83445 29.08898
#
# Velocity S-wave (km/s) = 3.21405 3.92621 3.58784
# Velocity P-wave (km/s) = 4.55992 6.10099 5.38586
#
# Compressibility (1/GPa) = 0.06304330
#
# Stress axis : x y z
#
# Youngs Moduli (GPa) = 87.41172 40.07586 30.45540
#
# Poissons Ratio (x) = 0.21586 0.19673
# Poissons Ratio (y) = 0.47083 -0.26660
# Poissons Ratio (z) = 0.56466 -0.35082
#
# Static dielectric constant tensor:
#      x y z
#    x 1.876190 -0.029140 -0.048300 
#    y -0.029140 1.907410 -0.014430 
#    z -0.048300 -0.014430 1.880890 
# 
# From -- ./inp_files/177774.got.cif
#   From: 2010.05.17/outbox.cif.g08.bks.cpg/sg2_89_cif.got.tgz:177774.got - 2010.06.03 11:33:40.
