data_PCOD9086792
_publ_section_title
;
Structure prediction by ZEFSAII (Michael W. Deem and Ramdas Pophale) SiO2 
 PCOD9086792
Probable space group: P -1
;
_chemical_formula_sum "Si O2"
_cell_formula_units_Z 16
_cell_length_a 12.845157
_cell_length_b 18.965401
_cell_length_c 9.876438
_cell_angle_alpha 123.402957
_cell_angle_beta 133.695726
_cell_angle_gamma 29.358211
_cell_volume 843.795809
_symmetry_space_group_name_H-M "P -1"
_symmetry_group_IT_number 2
_symmetry_cell_setting 'triclinic'
loop_
_space_group_symop_operation_xyz
x,y,z
-x,-y,-z
loop_
_atom_site_type_symbol
_atom_site_label
_atom_site_fract_x
_atom_site_fract_y
_atom_site_fract_z
Si Si1 0.407955 0.114695 0.143266
Si Si2 0.028858 0.584706 0.083537
Si Si3 0.565965 0.555629 0.923418
Si Si4 0.911108 0.136155 0.101930
Si Si5 0.020048 0.758852 0.953310
Si Si6 0.343910 0.526761 0.505268
Si Si7 0.217041 0.789576 0.383675
Si Si8 0.891973 0.972166 0.542554
O O1 0.243126 0.156580 0.161861
O O2 0.644901 0.048638 0.344291
O O3 0.220786 0.264231 0.051553
O O4 0.500000 0.000000 0.000000
O O5 0.257464 0.491048 0.085266
O O6 0.093703 0.613201 0.301947
O O7 0.000000 0.500000 0.000000
O O8 0.386939 0.711066 0.990590
O O9 0.377115 0.575727 0.710999
O O10 0.758622 0.415331 0.047095
O O11 0.987295 0.169216 0.094974
O O12 0.031004 0.095417 0.312936
O O13 0.000000 0.000000 0.000000
O O14 0.092688 0.772200 0.172542
O O15 0.500000 0.500000 0.500000
O O16 0.495529 0.370400 0.517166
O O17 0.107819 0.849083 0.498674
O O18 0.152001 0.906281 0.371641
#
# Coordination Sequence:
#
# PCOD9086792 Si02
#       8
#     2   2   2   2   2   2   2   2
#     4  11  23  36  59  88 125 154 188 241 305 353
#     4  10  20  35  58  90 122 151 192 241 298 350
#     4   9  21  37  62  82 115 157 200 245 291 342
#     4  12  24  39  63  89 117 154 208 247 293 352
#     4  10  21  42  60  87 117 159 196 244 294 356
#     4   9  17  32  57  83 114 146 202 239 284 342
#     4  10  19  36  60  88 115 153 197 250 291 342
#     4  11  22  35  59  88 123 153 191 244 304 343
#
# _framework density 18.961933999999999
#
# number of rings (size 3 to 8) (size 9 to 14) (size 15 to 20)
#    0.000    1.750    2.500    3.375    1.750    2.500 
#    0.000    0.000    2.750    1.500    0.000    0.000 
#    0.000    0.000    0.000    0.000    0.000    0.000 
#
# Total GULP energy -89294.695359 kJ/mol
# GULP energy per Si atom -5580.918460 kJ/mol
# Density = 1.891878 g / cm^3
# Si number density = 18.961934 Si / 1000 Ang^3
#
#
#
# Elastic Constant Matrix: (Units=GPa)
#
#
# Indices 1 2 3 4 5 6 
#
# 1 85.5844 47.3057 21.9217 -7.6347 -6.0813 18.6412
# 2 47.3057 142.8669 20.8471 -0.2490 -0.9077 9.9211
# 3 21.9217 20.8471 49.3219 -11.3889 5.2777 6.5430
# 4 -7.6347 -0.2490 -11.3889 18.9444 2.6799 -0.7954
# 5 -6.0813 -0.9077 5.2777 2.6799 30.7326 -4.8862
# 6 18.6412 9.9211 6.5430 -0.7954 -4.8862 21.0177
#
#
#
# Elastic Compliance Matrix: (Units=1/GPa)
#
#
# Indices 1 2 3 4 5 6 
#
# 1 0.018453 -0.004679 -0.003773 0.004330 0.001812 -0.012397
# 2 -0.004679 0.008868 -0.002533 -0.003287 0.000164 0.000667
# 3 -0.003773 -0.002533 0.028408 0.016425 -0.008014 -0.005543
# 4 0.004330 -0.003287 0.016425 0.065323 -0.008869 -0.006991
# 5 0.001812 0.000164 -0.008014 -0.008869 0.036475 0.008954
# 6 -0.012397 0.000667 -0.005543 -0.006991 0.008954 0.061802
#
#
# Mechanical properties :
#
#
# Convention : Reuss Voigt Hill
#
# Bulk Modulus (GPa) = 29.62375 50.88023 40.25199
# Shear Modulus (GPa) = 19.79779 26.65221 23.22500
#
# Velocity S-wave (km/s) = 3.23473 3.75315 3.50354
# Velocity P-wave (km/s) = 5.44132 6.75815 6.13517
#
# Compressibility (1/GPa) = 0.03375670
#
# Stress axis : x y z
#
# Youngs Moduli (GPa) = 54.19278 112.76960 35.20097
#
# Poissons Ratio (x) = 0.52770 0.13282
# Poissons Ratio (y) = 0.25359 0.08918
# Poissons Ratio (z) = 0.20448 0.28569
#
# Static dielectric constant tensor:
#      x y z
#    x 1.646030 0.007460 -0.019060 
#    y 0.007460 1.702480 0.011330 
#    z -0.019060 0.011330 1.676060 
# 
# From -- ./inp_files/279737.got.cif
#   From: 2010.05.17/outbox.cif.g08.bks.cpg/sg2_140_cif.got.tgz:279737.got - 2010.06.03 11:33:40.
