data_PCOD9086765
_publ_section_title
;
Structure prediction by ZEFSAII (Michael W. Deem and Ramdas Pophale) SiO2 
 PCOD9086765
Probable space group: P -1
;
_chemical_formula_sum "Si O2"
_cell_formula_units_Z 13
_cell_length_a 17.935123
_cell_length_b 8.170021
_cell_length_c 10.253079
_cell_angle_alpha 78.186785
_cell_angle_beta 157.534590
_cell_angle_gamma 111.638729
_cell_volume 492.947107
_symmetry_space_group_name_H-M "P -1"
_symmetry_group_IT_number 2
_symmetry_cell_setting 'triclinic'
loop_
_space_group_symop_operation_xyz
x,y,z
-x,-y,-z
loop_
_atom_site_type_symbol
_atom_site_label
_atom_site_fract_x
_atom_site_fract_y
_atom_site_fract_z
Si Si1 0.065445 0.803516 0.410937
Si Si2 0.847139 0.095332 0.193988
Si Si3 0.201816 0.510681 0.603175
Si Si4 0.577824 0.503043 0.780891
Si Si5 0.282107 0.108636 0.245738
Si Si6 0.000000 0.000000 0.000000
Si Si7 0.800418 0.551664 0.675698
O O1 0.228906 0.890481 0.784377
O O2 0.132587 0.674655 0.456936
O O3 0.820028 0.661557 0.097389
O O4 0.987164 0.931289 0.177302
O O5 0.991096 0.308625 0.336978
O O6 0.000000 0.000000 0.500000
O O7 0.708017 0.979710 0.861807
O O8 0.284535 0.482531 0.603866
O O9 0.364886 0.561602 0.979582
O O10 0.469161 0.324932 0.535739
O O11 0.400182 0.569696 0.528804
O O12 0.244730 0.006121 0.338658
O O13 0.133410 0.235695 0.208785
O O14 0.000000 0.500000 0.000000
#
# Coordination Sequence:
#
# PCOD9086765 Si02
#       7
#     2   2   2   2   2   1   2
#     4  10  21  38  64  90 122 164 209 252 312 376
#     4   9  18  33  57  85 118 161 195 248 310 357
#     4  11  20  39  62  91 122 163 210 251 311 380
#     4  10  21  36  62  93 123 159 208 258 313 372
#     4  10  19  36  60  86 122 162 203 257 309 365
#     4  10  20  38  62  90 124 158 212 254 314 358
#     4  11  23  40  68  91 125 170 212 256 315 376
#
# _framework density 26.371998000000001
#
# number of rings (size 3 to 8) (size 9 to 14) (size 15 to 20)
#    0.000    1.846    1.538    4.615    0.000    0.000 
#    0.000    3.077   54.154    8.308    0.000    0.000 
#    0.000    0.000    0.000    0.000    0.000    0.000 
#
# Total GULP energy -72378.472993 kJ/mol
# GULP energy per Si atom -5567.574846 kJ/mol
# Density = 2.631197 g / cm^3
# Si number density = 26.371998 Si / 1000 Ang^3
#
#
#
# Elastic Constant Matrix: (Units=GPa)
#
#
# Indices 1 2 3 4 5 6 
#
# 1 130.4641 32.5887 44.3659 -1.6124 -48.2869 -17.9406
# 2 32.5887 92.8432 26.9805 4.9337 -9.8598 -13.2368
# 3 44.3659 26.9805 104.9077 -2.0235 -23.2913 -20.7736
# 4 -1.6124 4.9337 -2.0235 41.8723 -17.1219 -8.2366
# 5 -48.2869 -9.8598 -23.2913 -17.1219 41.5724 21.1010
# 6 -17.9406 -13.2368 -20.7736 -8.2366 21.1010 46.4698
#
#
#
# Elastic Compliance Matrix: (Units=1/GPa)
#
#
# Indices 1 2 3 4 5 6 
#
# 1 0.018817 -0.004598 -0.001537 0.011287 0.027113 -0.005043
# 2 -0.004598 0.013021 -0.002358 -0.003995 -0.006895 0.003302
# 3 -0.001537 -0.002358 0.012406 0.003213 0.004506 0.002804
# 4 0.011287 -0.003995 0.003213 0.036894 0.030506 -0.002657
# 5 0.027113 -0.006895 0.004506 0.030506 0.079162 -0.020021
# 6 -0.005043 0.003302 0.002804 -0.002657 -0.020021 0.030387
#
#
# Mechanical properties :
#
#
# Convention : Reuss Voigt Hill
#
# Bulk Modulus (GPa) = 36.68533 59.56502 48.12517
# Shear Modulus (GPa) = 23.06705 40.93489 32.00097
#
# Velocity S-wave (km/s) = 2.96071 3.94408 3.48723
# Velocity P-wave (km/s) = 5.06247 6.58609 5.87389
#
# Compressibility (1/GPa) = 0.02725886
#
# Stress axis : x y z
#
# Youngs Moduli (GPa) = 53.14337 76.79954 80.60437
#
# Poissons Ratio (x) = 0.35311 0.12386
# Poissons Ratio (y) = 0.24434 0.19009
# Poissons Ratio (z) = 0.08166 0.18111
#
# Static dielectric constant tensor:
#      x y z
#    x 2.748090 0.390540 -0.212900 
#    y 0.390540 2.352840 -0.224280 
#    z -0.212900 -0.224280 2.303620 
# 
# From -- ./inp_files/310705.got.cif
#   From: 2010.05.17/outbox.cif.g08.bks.cpg/sg2_156_cif.got.tgz:310705.got - 2010.06.03 11:33:40.
