data_PCOD9086695
_publ_section_title
;
Structure prediction by ZEFSAII (Michael W. Deem and Ramdas Pophale) SiO2 
 PCOD9086695
Probable space group: P -1
;
_chemical_formula_sum "Si O2"
_cell_formula_units_Z 11
_cell_length_a 11.942184
_cell_length_b 9.934922
_cell_length_c 6.932792
_cell_angle_alpha 124.538944
_cell_angle_beta 127.013046
_cell_angle_gamma 38.223813
_cell_volume 398.953468
_symmetry_space_group_name_H-M "P -1"
_symmetry_group_IT_number 2
_symmetry_cell_setting 'triclinic'
loop_
_space_group_symop_operation_xyz
x,y,z
-x,-y,-z
loop_
_atom_site_type_symbol
_atom_site_label
_atom_site_fract_x
_atom_site_fract_y
_atom_site_fract_z
Si Si1 0.288315 0.954889 0.225861
Si Si2 0.000000 0.000000 0.000000
Si Si3 0.329112 0.290547 0.180534
Si Si4 0.272929 0.840446 0.517944
Si Si5 0.614207 0.805942 0.242565
Si Si6 0.099718 0.705831 0.500465
O O1 0.231270 0.858461 0.255093
O O2 0.498711 0.761407 0.206933
O O3 0.296262 0.121966 0.476609
O O4 0.101947 0.058675 0.002538
O O5 0.101272 0.763948 0.769046
O O6 0.513637 0.265793 0.341615
O O7 0.181677 0.468244 0.329006
O O8 0.425674 0.046143 0.152055
O O9 0.263799 0.339237 0.931247
O O10 0.221640 0.731660 0.510680
O O11 0.121374 0.098345 0.623550
#
# Coordination Sequence:
#
# PCOD9086695 Si02
#       6
#     2   1   2   2   2   2
#     4   9  18  36  56  79 115 149 178 234 282 320
#     4  10  20  36  56  80 114 144 186 238 274 328
#     4  10  19  36  60  81 110 155 186 227 286 334
#     4   9  19  35  54  82 116 142 188 236 273 336
#     4   9  19  36  57  84 115 145 191 231 272 344
#     4  10  20  36  56  85 114 146 188 235 284 330
#
# _framework density 27.572139
#
# number of rings (size 3 to 8) (size 9 to 14) (size 15 to 20)
#    0.000    2.545    0.000    1.636    0.000    0.000 
#    0.000   43.636    0.000    0.000    0.000    0.000 
#    0.000    0.000    0.000    0.000    0.000    0.000 
#
# Total GULP energy -61254.492512 kJ/mol
# GULP energy per Si atom -5568.590228 kJ/mol
# Density = 2.750938 g / cm^3
# Si number density = 27.572139 Si / 1000 Ang^3
#
#
#
# Elastic Constant Matrix: (Units=GPa)
#
#
# Indices 1 2 3 4 5 6 
#
# 1 126.2641 13.7280 42.5744 -14.3705 -3.3951 -16.8665
# 2 13.7280 77.4053 34.3164 25.3935 -3.9021 -25.3299
# 3 42.5744 34.3164 148.2326 -5.3497 -27.0356 -30.0573
# 4 -14.3705 25.3935 -5.3497 38.2044 -20.1739 -3.8921
# 5 -3.3951 -3.9021 -27.0356 -20.1739 58.7620 -12.5320
# 6 -16.8665 -25.3299 -30.0573 -3.8921 -12.5320 40.8827
#
#
#
# Elastic Compliance Matrix: (Units=1/GPa)
#
#
# Indices 1 2 3 4 5 6 
#
# 1 0.009869 -0.002573 -0.000486 0.007695 0.003665 0.003976
# 2 -0.002573 0.024439 -0.005982 -0.021473 -0.007512 0.005335
# 3 -0.000486 -0.005982 0.013312 0.013481 0.012684 0.011051
# 4 0.007695 -0.021473 0.013481 0.062512 0.029857 0.014885
# 5 0.003665 -0.007512 0.012684 0.029857 0.037172 0.020420
# 6 0.003976 0.005335 0.011051 0.014885 0.020420 0.045208
#
#
# Mechanical properties :
#
#
# Convention : Reuss Voigt Hill
#
# Bulk Modulus (GPa) = 33.85650 59.23775 46.54713
# Shear Modulus (GPa) = 22.68190 44.98868 33.83529
#
# Velocity S-wave (km/s) = 2.87128 4.04378 3.50688
# Velocity P-wave (km/s) = 4.82682 6.58287 5.77202
#
# Compressibility (1/GPa) = 0.02953642
#
# Stress axis : x y z
#
# Youngs Moduli (GPa) = 101.32602 40.91846 75.12271
#
# Poissons Ratio (x) = 0.10530 0.03654
# Poissons Ratio (y) = 0.26074 0.44937
# Poissons Ratio (z) = 0.04929 0.24477
#
# Static dielectric constant tensor:
#      x y z
#    x 2.474900 0.139520 -0.061610 
#    y 0.139520 2.273850 -0.085560 
#    z -0.061610 -0.085560 2.303280 
# 
# From -- ./inp_files/151247.got.cif
#   From: 2010.05.17/outbox.cif.g08.bks.cpg/sg2_76_cif.got.tgz:151247.got - 2010.06.03 11:33:40.
