data_PCOD9086349
_publ_section_title
;
Structure prediction by ZEFSAII (Michael W. Deem and Ramdas Pophale) SiO2 
 PCOD9086349
Probable space group: P -1
;
_chemical_formula_sum "Si O2"
_cell_formula_units_Z 16
_cell_length_a 10.339816
_cell_length_b 7.631041
_cell_length_c 15.578867
_cell_angle_alpha 126.166387
_cell_angle_beta 38.028236
_cell_angle_gamma 118.396522
_cell_volume 611.203567
_symmetry_space_group_name_H-M "P -1"
_symmetry_group_IT_number 2
_symmetry_cell_setting 'triclinic'
loop_
_space_group_symop_operation_xyz
x,y,z
-x,-y,-z
loop_
_atom_site_type_symbol
_atom_site_label
_atom_site_fract_x
_atom_site_fract_y
_atom_site_fract_z
Si Si1 0.779932 0.355636 0.181089
Si Si2 0.707085 0.413121 0.673427
Si Si3 0.814495 0.846826 0.515481
Si Si4 0.154943 0.691634 0.071301
Si Si5 0.584426 0.932577 0.174677
Si Si6 0.868780 0.073668 0.384041
Si Si7 0.427645 0.213393 0.046934
Si Si8 0.362125 0.571730 0.474445
O O1 0.590401 0.494702 0.362120
O O2 0.990053 0.498970 0.122880
O O3 0.757430 0.114004 0.164329
O O4 0.780164 0.321654 0.066700
O O5 0.529356 0.247983 0.758421
O O6 0.900626 0.274715 0.493970
O O7 0.613405 0.489259 0.655894
O O8 0.733403 0.621586 0.778694
O O9 0.822815 0.588259 0.441206
O O10 0.614763 0.914337 0.694728
O O11 0.767601 0.908944 0.459360
O O12 0.000000 0.000000 0.500000
O O13 0.345497 0.665405 0.030159
O O14 0.049108 0.927462 0.208812
O O15 0.642554 0.832993 0.025216
O O16 0.718385 0.181525 0.422369
O O17 0.500000 0.000000 0.000000
#
# Coordination Sequence:
#
# PCOD9086349 Si02
#       8
#     2   2   2   2   2   2   2   2
#     4  10  21  40  68  85 123 168 207 255 310 367
#     4   9  20  39  59  89 127 159 205 256 307 369
#     4  10  19  36  57  90 126 163 201 253 308 368
#     4  11  21  39  63  94 121 162 213 256 306 369
#     4  10  20  38  61  91 120 166 210 249 310 370
#     4   9  21  37  59  91 124 159 205 255 307 365
#     4  12  20  37  63  90 119 167 206 249 311 368
#     4   9  19  41  60  84 125 164 200 251 314 356
#
# _framework density 26.177858000000001
#
# number of rings (size 3 to 8) (size 9 to 14) (size 15 to 20)
#    0.750    1.250    2.500    1.875    0.000    1.000 
#    4.500    7.500    0.000    0.000    0.000    0.000 
#    0.000    0.000    0.000    0.000    0.000    0.000 
#
# Total GULP energy -89136.698743 kJ/mol
# GULP energy per Si atom -5571.043671 kJ/mol
# Density = 2.611828 g / cm^3
# Si number density = 26.177858 Si / 1000 Ang^3
#
#
#
# Elastic Constant Matrix: (Units=GPa)
#
#
# Indices 1 2 3 4 5 6 
#
# 1 29.8198 43.7036 23.7827 13.1018 1.6787 11.0116
# 2 43.7036 185.8847 36.0101 -0.8548 -2.3621 -7.6498
# 3 23.7827 36.0101 164.1363 16.0480 -2.4200 -0.8935
# 4 13.1018 -0.8548 16.0480 38.3285 -3.6722 0.4391
# 5 1.6787 -2.3621 -2.4200 -3.6722 33.9923 -5.7270
# 6 11.0116 -7.6498 -0.8935 0.4391 -5.7270 37.8700
#
#
#
# Elastic Compliance Matrix: (Units=1/GPa)
#
#
# Indices 1 2 3 4 5 6 
#
# 1 0.109581 -0.026443 -0.007003 -0.036421 -0.018376 -0.039727
# 2 -0.026443 0.012073 0.000386 0.009504 0.005016 0.010785
# 3 -0.007003 0.000386 0.007101 -0.000480 0.001243 0.002475
# 4 -0.036421 0.009504 -0.000480 0.039659 0.008966 0.013395
# 5 -0.018376 0.005016 0.001243 0.008966 0.033647 0.011370
# 6 -0.039727 0.010785 0.002475 0.013395 0.011370 0.041759
#
#
# Mechanical properties :
#
#
# Convention : Reuss Voigt Hill
#
# Bulk Modulus (GPa) = 15.96515 65.20373 40.58444
# Shear Modulus (GPa) = 15.11404 40.46110 27.78757
#
# Velocity S-wave (km/s) = 2.40544 3.93571 3.26159
# Velocity P-wave (km/s) = 3.71844 6.75389 5.45169
#
# Compressibility (1/GPa) = 0.06263642
#
# Stress axis : x y z
#
# Youngs Moduli (GPa) = 9.12566 82.82786 140.82166
#
# Poissons Ratio (x) = 2.19022 0.98613
# Poissons Ratio (y) = 0.24131 -0.05439
# Poissons Ratio (z) = 0.06390 -0.03199
#
# Static dielectric constant tensor:
#      x y z
#    x 2.077610 0.005810 -0.027700 
#    y 0.005810 2.247380 0.028400 
#    z -0.027700 0.028400 2.085160 
# 
# From -- ./inp_files/566203.got.cif
#   From: 2010.05.17/outbox.cif.g08.bks.cpg/sg2_284_cif.got.tgz:566203.got - 2010.06.03 11:33:40.
