data_PCOD9086239
_publ_section_title
;
Structure prediction by ZEFSAII (Michael W. Deem and Ramdas Pophale) SiO2 
 PCOD9086239
Probable space group: P -1
;
_chemical_formula_sum "Si O2"
_cell_formula_units_Z 16
_cell_length_a 13.989402
_cell_length_b 8.798843
_cell_length_c 12.406225
_cell_angle_alpha 104.562914
_cell_angle_beta 41.039116
_cell_angle_gamma 128.813050
_cell_volume 704.373947
_symmetry_space_group_name_H-M "P -1"
_symmetry_group_IT_number 2
_symmetry_cell_setting 'triclinic'
loop_
_space_group_symop_operation_xyz
x,y,z
-x,-y,-z
loop_
_atom_site_type_symbol
_atom_site_label
_atom_site_fract_x
_atom_site_fract_y
_atom_site_fract_z
Si Si1 0.647280 0.021530 0.111355
Si Si2 0.659558 0.201752 0.478290
Si Si3 0.612382 0.423984 0.862346
Si Si4 0.011229 0.823603 0.491176
Si Si5 0.892502 0.115760 0.332478
Si Si6 0.276281 0.771997 0.122504
Si Si7 0.538953 0.673333 0.421894
Si Si8 0.836047 0.893100 0.028961
O O1 0.455977 0.907630 0.329459
O O2 0.565144 0.817585 0.072838
O O3 0.816652 0.061095 0.043815
O O4 0.726584 0.217000 0.002747
O O5 0.870325 0.274015 0.329667
O O6 0.654035 0.369305 0.459696
O O7 0.500000 0.000000 0.500000
O O8 0.785805 0.592298 0.659142
O O9 0.723047 0.399491 0.854682
O O10 0.500000 0.500000 0.000000
O O11 0.115917 0.891888 0.532623
O O12 0.125924 0.787583 0.307693
O O13 0.000000 0.000000 0.500000
O O14 0.087355 0.161344 0.140389
O O15 0.703644 0.892880 0.391881
O O16 0.500000 0.000000 0.000000
O O17 0.500000 0.500000 0.500000
O O18 0.634746 0.699318 0.229219
O O19 0.000000 0.000000 0.000000
#
# Coordination Sequence:
#
# PCOD9086239 Si02
#       8
#     2   2   2   2   2   2   2   2
#     4  10  20  40  63  82 117 160 193 245 306 351
#     4   9  19  36  60  84 109 146 189 231 292 360
#     4  11  23  39  59  88 122 160 208 251 293 360
#     4  12  24  38  58  89 122 161 206 246 296 363
#     4  10  19  36  57  79 113 151 188 240 291 340
#     4  10  21  39  60  86 119 158 201 249 302 361
#     4   9  19  36  58  84 111 145 193 238 289 354
#     4   9  18  34  57  82 109 145 187 232 290 353
#
# _framework density 22.715206999999999
#
# number of rings (size 3 to 8) (size 9 to 14) (size 15 to 20)
#    0.000    2.000    0.000    5.625    0.000    2.000 
#    0.000   10.625    0.000    0.000    0.000    0.000 
#    0.000    0.000    0.000    0.000    0.000    0.000 
#
# Total GULP energy -89209.830511 kJ/mol
# GULP energy per Si atom -5575.614407 kJ/mol
# Density = 2.266351 g / cm^3
# Si number density = 22.715207 Si / 1000 Ang^3
#
#
#
# Elastic Constant Matrix: (Units=GPa)
#
#
# Indices 1 2 3 4 5 6 
#
# 1 129.5889 19.0528 15.0512 -7.9866 -3.9489 -35.6761
# 2 19.0528 53.2995 10.0111 -3.0503 2.5599 -25.4551
# 3 15.0512 10.0111 58.2051 1.0572 -1.1615 -21.2242
# 4 -7.9866 -3.0503 1.0572 28.6746 -4.1916 8.0235
# 5 -3.9489 2.5599 -1.1615 -4.1916 44.5156 -1.7270
# 6 -35.6761 -25.4551 -21.2242 8.0235 -1.7270 48.4522
#
#
#
# Elastic Compliance Matrix: (Units=1/GPa)
#
#
# Indices 1 2 3 4 5 6 
#
# 1 0.009760 -0.000151 0.000075 0.000912 0.001235 0.007033
# 2 -0.000151 0.025149 0.000669 -0.001343 -0.001042 0.013579
# 3 0.000075 0.000669 0.020805 -0.003418 0.000581 0.010107
# 4 0.000912 -0.001343 -0.003418 0.037741 0.003326 -0.007663
# 5 0.001235 -0.001042 0.000581 0.003326 0.022996 0.000886
# 6 0.007033 0.013579 0.010107 -0.007663 0.000886 0.038679
#
#
# Mechanical properties :
#
#
# Convention : Reuss Voigt Hill
#
# Bulk Modulus (GPa) = 17.57512 36.59152 27.08332
# Shear Modulus (GPa) = 28.91629 37.46039 33.18834
#
# Velocity S-wave (km/s) = 3.57177 4.06536 3.82653
# Velocity P-wave (km/s) = 4.97635 6.17899 5.60999
#
# Compressibility (1/GPa) = 0.05689860
#
# Stress axis : x y z
#
# Youngs Moduli (GPa) = 102.45585 39.76346 48.06455
#
# Poissons Ratio (x) = 0.00602 -0.00359
# Poissons Ratio (y) = 0.01551 -0.03214
# Poissons Ratio (z) = -0.00765 -0.02659
#
# Static dielectric constant tensor:
#      x y z
#    x 1.953660 -0.045130 0.030160 
#    y -0.045130 1.969880 0.018420 
#    z 0.030160 0.018420 1.918580 
# 
# From -- ./inp_files/296433.got.cif
#   From: 2010.05.17/outbox.cif.g08.bks.cpg/sg2_149_cif.got.tgz:296433.got - 2010.06.03 11:33:40.
