data_PCOD9086782
_publ_section_title
;
Structure prediction by ZEFSAII (Michael W. Deem and Ramdas Pophale) SiO2 
 PCOD9086782
Probable space group: P -1
;
_chemical_formula_sum "Si O2"
_cell_formula_units_Z 14
_cell_length_a 8.654619
_cell_length_b 8.677846
_cell_length_c 13.148382
_cell_angle_alpha 135.185103
_cell_angle_beta 82.807719
_cell_angle_gamma 112.093816
_cell_volume 629.547141
_symmetry_space_group_name_H-M "P -1"
_symmetry_group_IT_number 2
_symmetry_cell_setting 'triclinic'
loop_
_space_group_symop_operation_xyz
x,y,z
-x,-y,-z
loop_
_atom_site_type_symbol
_atom_site_label
_atom_site_fract_x
_atom_site_fract_y
_atom_site_fract_z
Si Si1 0.174100 0.868871 0.765008
Si Si2 0.229237 0.006561 0.259774
Si Si3 0.169226 0.569823 0.351644
Si Si4 0.567188 0.307274 0.446582
Si Si5 0.075689 0.988864 0.629924
Si Si6 0.019611 0.424606 0.817134
Si Si7 0.303235 0.946504 0.006923
O O1 0.297489 0.742760 0.659378
O O2 0.169400 0.044698 0.758365
O O3 0.232187 0.992949 0.927360
O O4 0.986067 0.655468 0.690891
O O5 0.090369 0.730447 0.151363
O O6 0.396847 0.061219 0.337755
O O7 0.278246 0.073033 0.170189
O O8 0.124198 0.140647 0.384018
O O9 0.345864 0.617487 0.415118
O O10 0.142553 0.811527 0.489930
O O11 0.122655 0.534551 0.220408
O O12 0.500000 0.500000 0.500000
O O13 0.087891 0.223693 0.679604
O O14 0.186032 0.668632 0.911232
O O15 0.500000 0.000000 0.000000
#
# Coordination Sequence:
#
# PCOD9086782 Si02
#       7
#     2   2   2   2   2   2   2
#     4  10  20  36  61  84 117 159 193 238 290 347
#     4  10  21  36  60  85 120 153 192 244 288 335
#     4  10  19  36  60  87 120 158 187 235 296 356
#     4  11  20  34  59  91 122 146 194 242 291 346
#     4   9  19  36  58  89 117 153 192 234 300 344
#     4   9  22  37  62  84 118 160 190 241 297 345
#     4  11  21  40  61  81 115 158 205 239 289 342
#
# _framework density 22.238208
#
# number of rings (size 3 to 8) (size 9 to 14) (size 15 to 20)
#    0.857    1.143    1.429    4.286    0.000    1.143 
#    0.000    0.714    0.000    0.000    0.000    0.000 
#    0.000    0.000    0.000    0.000    0.000    0.000 
#
# Total GULP energy -77949.612340 kJ/mol
# GULP energy per Si atom -5567.829453 kJ/mol
# Density = 2.218759 g / cm^3
# Si number density = 22.238208 Si / 1000 Ang^3
#
#
#
# Elastic Constant Matrix: (Units=GPa)
#
#
# Indices 1 2 3 4 5 6 
#
# 1 99.9498 29.0900 27.2792 1.0837 20.8815 -9.0382
# 2 29.0900 69.9628 20.3820 -5.4927 7.4508 -12.4687
# 3 27.2792 20.3820 53.0743 2.9188 23.5839 -1.0743
# 4 1.0837 -5.4927 2.9188 27.1902 3.5157 3.5100
# 5 20.8815 7.4508 23.5839 3.5157 33.7769 -2.6369
# 6 -9.0382 -12.4687 -1.0743 3.5100 -2.6369 38.4399
#
#
#
# Elastic Compliance Matrix: (Units=1/GPa)
#
#
# Indices 1 2 3 4 5 6 
#
# 1 0.013120 -0.003831 -0.002987 -0.000517 -0.005013 0.001462
# 2 -0.003831 0.018637 -0.006546 0.003632 0.002827 0.004824
# 3 -0.002987 -0.006546 0.031154 -0.001758 -0.018518 -0.003065
# 4 -0.000517 0.003632 -0.001758 0.038526 -0.003479 -0.002749
# 5 -0.005013 0.002827 -0.018518 -0.003479 0.045582 0.002665
# 6 0.001462 0.004824 -0.003065 -0.002749 0.002665 0.028271
#
#
# Mechanical properties :
#
#
# Convention : Reuss Voigt Hill
#
# Bulk Modulus (GPa) = 27.63737 41.83214 34.73475
# Shear Modulus (GPa) = 23.35579 29.63045 26.49312
#
# Velocity S-wave (km/s) = 3.24428 3.65418 3.45531
# Velocity P-wave (km/s) = 5.14671 6.05441 5.61892
#
# Compressibility (1/GPa) = 0.03618290
#
# Stress axis : x y z
#
# Youngs Moduli (GPa) = 76.21724 53.65596 32.09872
#
# Poissons Ratio (x) = 0.20558 0.09587
# Poissons Ratio (y) = 0.29202 0.21012
# Poissons Ratio (z) = 0.22765 0.35124
#
# Static dielectric constant tensor:
#      x y z
#    x 1.815770 -0.005380 -0.000440 
#    y -0.005380 1.853160 -0.028440 
#    z -0.000440 -0.028440 1.961100 
# 
# From -- ./inp_files/493898.got.cif
#   From: 2010.05.17/outbox.cif.g08.bks.cpg/sg2_247_cif.got.tgz:493898.got - 2010.06.03 11:33:40.
