data_PCOD9086402
_publ_section_title
;
Structure prediction by ZEFSAII (Michael W. Deem and Ramdas Pophale) SiO2 
 PCOD9086402
Probable space group: P -1
;
_chemical_formula_sum "Si O2"
_cell_formula_units_Z 14
_cell_length_a 7.063584
_cell_length_b 17.146910
_cell_length_c 11.986932
_cell_angle_alpha 35.731661
_cell_angle_beta 55.025721
_cell_angle_gamma 67.212430
_cell_volume 685.455027
_symmetry_space_group_name_H-M "P -1"
_symmetry_group_IT_number 2
_symmetry_cell_setting 'triclinic'
loop_
_space_group_symop_operation_xyz
x,y,z
-x,-y,-z
loop_
_atom_site_type_symbol
_atom_site_label
_atom_site_fract_x
_atom_site_fract_y
_atom_site_fract_z
Si Si1 0.625237 0.920873 0.459175
Si Si2 0.953482 0.672005 0.248682
Si Si3 0.963800 0.397184 0.461144
Si Si4 0.120959 0.033818 0.133593
Si Si5 0.575653 0.982037 0.150053
Si Si6 0.558955 0.337227 0.487429
Si Si7 0.466372 0.372620 0.239105
O O1 0.619588 0.985597 0.262045
O O2 0.499056 0.766142 0.670718
O O3 0.500000 0.000000 0.500000
O O4 0.902436 0.935746 0.373665
O O5 0.023888 0.558654 0.275712
O O6 0.680375 0.621658 0.432246
O O7 0.094132 0.669593 0.320017
O O8 0.958236 0.820923 0.026423
O O9 0.761028 0.368696 0.472583
O O10 0.195801 0.345812 0.400599
O O11 0.356494 0.051330 0.107326
O O12 0.202048 0.976014 0.055062
O O13 0.499151 0.823611 0.328132
O O14 0.610646 0.398821 0.275228
O O15 0.500000 0.500000 0.000000
#
# Coordination Sequence:
#
# PCOD9086402 Si02
#       7
#     2   2   2   2   2   2   2
#     4  11  24  40  60  87 120 158 193 243 300 346
#     4   9  20  33  56  91 117 141 188 243 285 345
#     4  10  19  36  58  82 118 153 184 238 292 335
#     4  10  20  37  61  88 117 152 196 240 297 348
#     4   9  20  38  61  88 116 150 195 248 288 354
#     4   9  18  36  58  83 113 147 189 237 291 338
#     4  10  23  40  57  80 114 154 202 231 276 350
#
# _framework density 20.424388
#
# number of rings (size 3 to 8) (size 9 to 14) (size 15 to 20)
#    0.000    2.286    0.000    2.571    2.000    4.571 
#    2.571    0.000    0.000    0.000    0.000    0.000 
#    0.000    0.000    0.000    0.000    0.000    0.000 
#
# Total GULP energy -78188.390506 kJ/mol
# GULP energy per Si atom -5584.885036 kJ/mol
# Density = 2.037790 g / cm^3
# Si number density = 20.424388 Si / 1000 Ang^3
#
#
#
# Elastic Constant Matrix: (Units=GPa)
#
#
# Indices 1 2 3 4 5 6 
#
# 1 109.5722 28.2055 0.9757 5.1543 5.0580 1.3435
# 2 28.2055 111.7224 8.7237 -1.3988 1.9646 9.7190
# 3 0.9757 8.7237 41.7637 -0.0719 6.6136 -0.3035
# 4 5.1543 -1.3988 -0.0719 25.4480 -8.6148 8.3422
# 5 5.0580 1.9646 6.6136 -8.6148 20.5492 -4.6970
# 6 1.3435 9.7190 -0.3035 8.3422 -4.6970 23.5836
#
#
#
# Elastic Compliance Matrix: (Units=1/GPa)
#
#
# Indices 1 2 3 4 5 6 
#
# 1 0.010170 -0.002723 0.000955 -0.003916 -0.003927 0.001158
# 2 -0.002723 0.010277 -0.002188 0.002922 0.000463 -0.005050
# 3 0.000955 -0.002188 0.025931 -0.003743 -0.009815 0.000550
# 4 -0.003916 0.002922 -0.003743 0.052148 0.020220 -0.015449
# 5 -0.003927 0.000463 -0.009815 0.020220 0.062407 0.005183
# 6 0.001158 -0.005050 0.000550 -0.015449 0.005183 0.050921
#
#
# Mechanical properties :
#
#
# Convention : Reuss Voigt Hill
#
# Bulk Modulus (GPa) = 25.99729 37.65201 31.82465
# Shear Modulus (GPa) = 21.49725 28.92639 25.21182
#
# Velocity S-wave (km/s) = 3.24779 3.76742 3.51721
# Velocity P-wave (km/s) = 5.17884 6.11551 5.66656
#
# Compressibility (1/GPa) = 0.03846554
#
# Stress axis : x y z
#
# Youngs Moduli (GPa) = 98.32761 97.30723 38.56418
#
# Poissons Ratio (x) = 0.26495 -0.03682
# Poissons Ratio (y) = 0.26773 0.08438
# Poissons Ratio (z) = -0.09388 0.21291
#
# Static dielectric constant tensor:
#      x y z
#    x 1.750060 -0.003350 0.012050 
#    y -0.003350 1.724890 -0.014920 
#    z 0.012050 -0.014920 1.753420 
# 
# From -- ./inp_files/369287.got.cif
#   From: 2010.05.17/outbox.cif.g08.bks.cpg/sg2_185_cif.got.tgz:369287.got - 2010.06.03 11:33:40.
