data_PCOD9086155
_publ_section_title
;
Structure prediction by ZEFSAII (Michael W. Deem and Ramdas Pophale) SiO2 
 PCOD9086155
Probable space group: P -1
;
_chemical_formula_sum "Si O2"
_cell_formula_units_Z 14
_cell_length_a 8.230712
_cell_length_b 14.952108
_cell_length_c 19.056638
_cell_angle_alpha 18.590301
_cell_angle_beta 120.253110
_cell_angle_gamma 112.344076
_cell_volume 604.118727
_symmetry_space_group_name_H-M "P -1"
_symmetry_group_IT_number 2
_symmetry_cell_setting 'triclinic'
loop_
_space_group_symop_operation_xyz
x,y,z
-x,-y,-z
loop_
_atom_site_type_symbol
_atom_site_label
_atom_site_fract_x
_atom_site_fract_y
_atom_site_fract_z
Si Si1 0.289574 0.867366 0.211634
Si Si2 0.716018 0.611862 0.692673
Si Si3 0.629070 0.825044 0.225592
Si Si4 0.761552 0.203697 0.295903
Si Si5 0.894916 0.656812 0.931344
Si Si6 0.396949 0.778648 0.606099
Si Si7 0.122702 0.862996 0.021406
O O1 0.495448 0.922819 0.195331
O O2 0.326572 0.531899 0.498112
O O3 0.194861 0.894262 0.092539
O O4 0.113807 0.083450 0.061908
O O5 0.555492 0.564613 0.746601
O O6 0.670790 0.966832 0.420757
O O7 0.736607 0.463423 0.732461
O O8 0.934719 0.440490 0.901002
O O9 0.827662 0.909896 0.191741
O O10 0.500000 0.000000 0.000000
O O11 0.694073 0.319355 0.273252
O O12 0.733407 0.497093 0.027552
O O13 0.000000 0.000000 0.500000
O O14 0.789011 0.006502 0.638881
O O15 0.000000 0.500000 0.000000
O O16 0.500000 0.000000 0.500000
#
# Coordination Sequence:
#
# PCOD9086155 Si02
#       7
#     2   2   2   2   2   2   2
#     4   9  19  38  64  82 115 160 187 234 301 357
#     4  10  22  38  53  88 117 142 200 245 279 350
#     4   9  18  37  63  85 112 152 194 232 294 364
#     4   9  18  35  58  76 109 152 190 231 282 341
#     4  11  19  38  58  77 113 159 192 234 293 341
#     4  10  19  36  56  78 110 150 193 235 287 345
#     4  10  20  39  57  88 120 146 198 244 290 351
#
# _framework density 23.174251999999999
#
# number of rings (size 3 to 8) (size 9 to 14) (size 15 to 20)
#    0.000    2.286    4.286    0.429    0.000    2.286 
#   15.429    0.000    0.000    0.000    0.000    0.000 
#    0.000    0.000    0.000    0.000    0.000    0.000 
#
# Total GULP energy -78021.683155 kJ/mol
# GULP energy per Si atom -5572.977368 kJ/mol
# Density = 2.312151 g / cm^3
# Si number density = 23.174252 Si / 1000 Ang^3
#
#
#
# Elastic Constant Matrix: (Units=GPa)
#
#
# Indices 1 2 3 4 5 6 
#
# 1 133.7214 47.2960 46.4139 -8.4393 -6.1590 -55.6016
# 2 47.2960 49.3165 12.7574 -15.9629 -1.4797 -31.1577
# 3 46.4139 12.7574 86.3038 2.6852 -14.6366 -17.1856
# 4 -8.4393 -15.9629 2.6852 27.3361 -8.3687 9.9727
# 5 -6.1590 -1.4797 -14.6366 -8.3687 42.4687 2.8034
# 6 -55.6016 -31.1577 -17.1856 9.9727 2.8034 43.3996
#
#
#
# Elastic Compliance Matrix: (Units=1/GPa)
#
#
# Indices 1 2 3 4 5 6 
#
# 1 0.019312 -0.006720 -0.005767 -0.004755 -0.001601 0.018831
# 2 -0.006720 0.044672 0.000871 0.017747 0.003090 0.019529
# 3 -0.005767 0.000871 0.015164 -0.001187 0.004236 -0.000759
# 4 -0.004755 0.017747 -0.001187 0.050887 0.009954 -0.006157
# 5 -0.001601 0.003090 0.004236 0.009954 0.026988 -0.002185
# 6 0.018831 0.019529 -0.000759 -0.006157 -0.002185 0.062443
#
#
# Mechanical properties :
#
#
# Convention : Reuss Voigt Hill
#
# Bulk Modulus (GPa) = 17.88342 53.58624 35.73483
# Shear Modulus (GPa) = 19.13247 33.49917 26.31582
#
# Velocity S-wave (km/s) = 2.87643 3.80614 3.37347
# Velocity P-wave (km/s) = 4.33191 6.51836 5.53419
#
# Compressibility (1/GPa) = 0.05591773
#
# Stress axis : x y z
#
# Youngs Moduli (GPa) = 51.78007 22.38544 65.94641
#
# Poissons Ratio (x) = 0.15042 0.38029
# Poissons Ratio (y) = 0.34795 -0.05745
# Poissons Ratio (z) = 0.29860 -0.01950
#
# Static dielectric constant tensor:
#      x y z
#    x 2.073560 0.002700 0.023480 
#    y 0.002700 1.876180 -0.018140 
#    z 0.023480 -0.018140 1.909570 
# 
# From -- ./inp_files/505861.got.cif
#   From: 2010.05.17/outbox.cif.g08.bks.cpg/sg2_253_cif.got.tgz:505861.got - 2010.06.03 11:33:40.
