data_PCOD9086728
_publ_section_title
;
Structure prediction by ZEFSAII (Michael W. Deem and Ramdas Pophale) SiO2 
 PCOD9086728
Probable space group: P -1
;
_chemical_formula_sum "Si O2"
_cell_formula_units_Z 15
_cell_length_a 13.872034
_cell_length_b 8.572982
_cell_length_c 8.620738
_cell_angle_alpha 112.817906
_cell_angle_beta 92.344930
_cell_angle_gamma 44.502983
_cell_volume 616.746697
_symmetry_space_group_name_H-M "P -1"
_symmetry_group_IT_number 2
_symmetry_cell_setting 'triclinic'
loop_
_space_group_symop_operation_xyz
x,y,z
-x,-y,-z
loop_
_atom_site_type_symbol
_atom_site_label
_atom_site_fract_x
_atom_site_fract_y
_atom_site_fract_z
Si Si1 0.998403 0.919020 0.170898
Si Si2 0.714766 0.903664 0.034332
Si Si3 0.148048 0.417315 0.797727
Si Si4 0.860536 0.407011 0.656833
Si Si5 0.000000 0.500000 0.500000
Si Si6 0.557555 0.749695 0.292758
Si Si7 0.761722 0.202028 0.030403
Si Si8 0.433954 0.232466 0.349770
O O1 0.025415 0.837442 0.317951
O O2 0.052589 0.686881 0.981443
O O3 0.116636 0.907495 0.130049
O O4 0.837744 0.163435 0.182829
O O5 0.813766 0.777000 0.148328
O O6 0.732485 0.043427 0.982866
O O7 0.551367 0.105843 0.172366
O O8 0.773317 0.660413 0.856739
O O9 0.067785 0.446796 0.658185
O O10 0.300565 0.311905 0.726307
O O11 0.722687 0.489152 0.607818
O O12 0.935659 0.404087 0.520683
O O13 0.613831 0.507872 0.117914
O O14 0.522128 0.756598 0.472365
O O15 0.434310 0.027247 0.306532
#
# Coordination Sequence:
#
# PCOD9086728 Si02
#       8
#     2   2   2   2   1   2   2   2
#     4   9  20  38  60  80 123 155 189 228 295 347
#     4  10  21  36  62  85 116 149 200 234 282 337
#     4   9  18  35  57  88 111 153 192 238 279 343
#     4  11  22  38  60  92 112 152 193 242 282 341
#     4  12  20  30  62  88 116 134 198 248 276 326
#     4   9  19  37  60  82 115 156 189 232 294 336
#     4  10  19  36  60  85 114 160 188 231 289 350
#     4  10  20  39  61  83 115 153 197 239 277 340
#
# _framework density 24.321166999999999
#
# number of rings (size 3 to 8) (size 9 to 14) (size 15 to 20)
#    0.000    2.133    1.333    2.800    0.000    2.667 
#    0.000    3.333    8.800    0.000    0.000    0.000 
#    0.000    0.000    0.000    0.000    0.000    0.000 
#
# Total GULP energy -83636.911616 kJ/mol
# GULP energy per Si atom -5575.794108 kJ/mol
# Density = 2.426581 g / cm^3
# Si number density = 24.321167 Si / 1000 Ang^3
#
#
#
# Elastic Constant Matrix: (Units=GPa)
#
#
# Indices 1 2 3 4 5 6 
#
# 1 50.0049 -4.8921 9.0902 -5.4409 -10.9342 14.0576
# 2 -4.8921 76.0001 -0.2884 -10.7771 3.1052 -9.3586
# 3 9.0902 -0.2884 56.9149 2.6712 5.0201 -13.3851
# 4 -5.4409 -10.7771 2.6712 29.6175 0.2865 7.9195
# 5 -10.9342 3.1052 5.0201 0.2865 35.2244 -12.3080
# 6 14.0576 -9.3586 -13.3851 7.9195 -12.3080 18.5413
#
#
#
# Elastic Compliance Matrix: (Units=1/GPa)
#
#
# Indices 1 2 3 4 5 6 
#
# 1 0.045499 -0.001382 -0.024391 0.028736 -0.006837 -0.069614
# 2 -0.001382 0.014581 0.002499 0.002042 0.001531 0.010355
# 3 -0.024391 0.002499 0.036361 -0.023491 0.008851 0.061912
# 4 0.028736 0.002042 -0.023491 0.061663 -0.014055 -0.073382
# 5 -0.006837 0.001531 0.008851 -0.014055 0.040878 0.045484
# 6 -0.069614 0.010355 0.061912 -0.073382 0.045484 0.218173
#
#
# Mechanical properties :
#
#
# Convention : Reuss Voigt Hill
#
# Bulk Modulus (GPa) = 20.04333 21.19327 20.61830
# Shear Modulus (GPa) = 10.40945 28.61064 19.51005
#
# Velocity S-wave (km/s) = 2.07106 3.43354 2.83536
# Velocity P-wave (km/s) = 3.73872 4.94488 4.38348
#
# Compressibility (1/GPa) = 0.04989191
#
# Stress axis : x y z
#
# Youngs Moduli (GPa) = 21.97856 68.58407 27.50226
#
# Poissons Ratio (x) = 0.09478 0.67081
# Poissons Ratio (y) = 0.03037 -0.06873
# Poissons Ratio (z) = 0.53608 -0.17139
#
# Static dielectric constant tensor:
#      x y z
#    x 1.924610 -0.021320 -0.011220 
#    y -0.021320 1.985930 0.033240 
#    z -0.011220 0.033240 1.933480 
# 
# From -- ./inp_files/167941.got.cif
#   From: 2010.05.17/outbox.cif.g08.bks.cpg/sg2_84_cif.got.tgz:167941.got - 2010.06.03 11:33:40.
