data_PCOD9086447
_publ_section_title
;
Structure prediction by ZEFSAII (Michael W. Deem and Ramdas Pophale) SiO2 
 PCOD9086447
Probable space group: P -1
;
_chemical_formula_sum "Si O2"
_cell_formula_units_Z 16
_cell_length_a 11.645267
_cell_length_b 8.837473
_cell_length_c 12.065241
_cell_angle_alpha 48.830535
_cell_angle_beta 115.912032
_cell_angle_gamma 97.312459
_cell_volume 816.805929
_symmetry_space_group_name_H-M "P -1"
_symmetry_group_IT_number 2
_symmetry_cell_setting 'triclinic'
loop_
_space_group_symop_operation_xyz
x,y,z
-x,-y,-z
loop_
_atom_site_type_symbol
_atom_site_label
_atom_site_fract_x
_atom_site_fract_y
_atom_site_fract_z
Si Si1 0.971418 0.300397 0.523583
Si Si2 0.276822 0.681857 0.001577
Si Si3 0.990272 0.297602 0.266550
Si Si4 0.655428 0.794039 0.762790
Si Si5 0.927025 0.750464 0.022053
Si Si6 0.235287 0.922497 0.482744
Si Si7 0.115567 0.018153 0.889502
Si Si8 0.566606 0.256008 0.157458
O O1 0.835197 0.239721 0.529543
O O2 0.000000 0.500000 0.500000
O O3 0.969978 0.294631 0.392363
O O4 0.087828 0.121125 0.708483
O O5 0.371653 0.787095 0.917001
O O6 0.142200 0.696581 0.863882
O O7 0.237291 0.822871 0.024799
O O8 0.340930 0.438477 0.168685
O O9 0.018576 0.523394 0.151113
O O10 0.112464 0.112161 0.374127
O O11 0.543120 0.844167 0.785036
O O12 0.663419 0.973979 0.592353
O O13 0.794139 0.762412 0.896689
O O14 0.887065 0.807177 0.104602
O O15 0.995784 0.919685 0.921023
O O16 0.313347 0.803219 0.677173
O O17 0.500000 0.500000 0.000000
#
# Coordination Sequence:
#
# PCOD9086447 Si02
#       8
#     2   2   2   2   2   2   2   2
#     4  12  22  33  51  86 117 149 181 225 289 341
#     4  10  19  36  58  86 112 148 190 235 277 337
#     4  11  20  34  58  86 117 141 187 234 292 333
#     4  10  21  37  58  84 114 152 195 229 274 333
#     4  10  21  35  56  86 119 151 179 229 286 350
#     4  12  21  37  59  85 115 148 189 241 281 334
#     4  11  20  35  55  85 120 151 180 226 298 334
#     4  10  22  37  58  82 112 151 198 235 275 327
#
# _framework density 19.588495999999999
#
# number of rings (size 3 to 8) (size 9 to 14) (size 15 to 20)
#    0.000    1.250    5.000    2.250    0.000    2.000 
#    0.000    0.625    0.000    3.000    0.000   10.500 
#    0.000    0.000    0.000    0.000    0.000    0.000 
#
# Total GULP energy -89115.917205 kJ/mol
# GULP energy per Si atom -5569.744825 kJ/mol
# Density = 1.954391 g / cm^3
# Si number density = 19.588496 Si / 1000 Ang^3
#
#
#
# Elastic Constant Matrix: (Units=GPa)
#
#
# Indices 1 2 3 4 5 6 
#
# 1 82.1460 14.0173 -6.2905 -4.6082 -13.4838 -0.7691
# 2 14.0173 78.1786 11.3240 -16.9964 -8.5747 -5.2310
# 3 -6.2905 11.3240 63.3888 -4.5344 -8.3363 8.1499
# 4 -4.6082 -16.9964 -4.5344 13.6306 -1.7617 -8.4004
# 5 -13.4838 -8.5747 -8.3363 -1.7617 25.0808 -8.4589
# 6 -0.7691 -5.2310 8.1499 -8.4004 -8.4589 14.2778
#
#
#
# Elastic Compliance Matrix: (Units=1/GPa)
#
#
# Indices 1 2 3 4 5 6 
#
# 1 0.010423 -0.014209 0.003906 -0.036697 -0.012664 -0.035968
# 2 -0.014209 -0.027202 0.001777 -0.122863 -0.066635 -0.123511
# 3 0.003906 0.001777 0.017624 0.015075 0.011889 0.006715
# 4 -0.036697 -0.122863 0.015075 -0.356637 -0.214068 -0.392249
# 5 -0.012664 -0.066635 0.011889 -0.214068 -0.067527 -0.197836
# 6 -0.035968 -0.123511 0.006715 -0.392249 -0.197836 -0.328973
#
#
# Mechanical properties :
#
#
# Convention : Reuss Voigt Hill
#
# Bulk Modulus (GPa) = -61.71106 29.09054 -16.31026
# Shear Modulus (GPa) = -6.75088 24.24200 8.74556
#
# Velocity S-wave (km/s) = -1.85845 3.52172 2.11526
# Velocity P-wave (km/s) = 6.01475 5.60533 1.54232
#
# Compressibility (1/GPa) = -0.01620455
#
# Stress axis : x y z
#
# Youngs Moduli (GPa) = 95.94229 -36.76141 56.73940
#
# Poissons Ratio (x) = -0.52233 -0.22165
# Poissons Ratio (y) = 1.36320 -0.10085
# Poissons Ratio (z) = -0.37479 0.06534
#
# Static dielectric constant tensor:
#      x y z
#    x 1.740110 -0.001340 -0.042350 
#    y -0.001340 1.717230 -0.036250 
#    z -0.042350 -0.036250 1.752700 
# 
# From -- ./inp_files/175108.got.cif
#   From: 2010.05.17/outbox.cif.g08.bks.cpg/sg2_88_cif.got.tgz:175108.got - 2010.06.03 11:33:40.
