data_PCOD9086423
_publ_section_title
;
Structure prediction by ZEFSAII (Michael W. Deem and Ramdas Pophale) SiO2 
 PCOD9086423
Probable space group: P -1
;
_chemical_formula_sum "Si O2"
_cell_formula_units_Z 16
_cell_length_a 15.344585
_cell_length_b 11.461340
_cell_length_c 8.994079
_cell_angle_alpha 107.865457
_cell_angle_beta 143.900616
_cell_angle_gamma 56.016276
_cell_volume 738.035953
_symmetry_space_group_name_H-M "P -1"
_symmetry_group_IT_number 2
_symmetry_cell_setting 'triclinic'
loop_
_space_group_symop_operation_xyz
x,y,z
-x,-y,-z
loop_
_atom_site_type_symbol
_atom_site_label
_atom_site_fract_x
_atom_site_fract_y
_atom_site_fract_z
Si Si1 0.782333 0.200060 0.372586
Si Si2 0.813442 0.479714 0.175139
Si Si3 0.293439 0.816140 0.074768
Si Si4 0.528662 0.506487 0.219244
Si Si5 0.685178 0.987773 0.258630
Si Si6 0.113726 0.130377 0.948530
Si Si7 0.988885 0.819074 0.834431
Si Si8 0.093373 0.308410 0.731936
O O1 0.771664 0.209787 0.183897
O O2 0.713306 0.351320 0.425991
O O3 0.982945 0.100566 0.663667
O O4 0.669269 0.133642 0.236526
O O5 0.801141 0.622085 0.153010
O O6 0.950197 0.340534 0.207746
O O7 0.899244 0.427013 0.438820
O O8 0.624085 0.503678 0.918891
O O9 0.149188 0.834717 0.004775
O O10 0.291397 0.964394 0.129781
O O11 0.486917 0.660829 0.284768
O O12 0.500000 0.500000 0.000000
O O13 0.797304 0.941376 0.547701
O O14 0.821633 0.849892 0.289532
O O15 0.500000 0.000000 0.000000
O O16 0.110415 0.260849 0.907909
O O17 0.038348 0.173590 0.025938
#
# Coordination Sequence:
#
# PCOD9086423 Si02
#       8
#     2   2   2   2   2   2   2   2
#     4  11  20  34  60  89 112 145 200 240 283 341
#     4   9  19  38  56  82 118 151 196 241 282 341
#     4  10  19  36  58  84 118 151 191 240 281 344
#     4   9  18  32  55  83 115 145 186 240 286 330
#     4  11  21  36  58  84 112 150 198 241 283 345
#     4  12  21  35  62  87 116 153 192 241 292 343
#     4  10  22  37  58  86 116 153 194 238 294 344
#     4  10  20  35  60  83 109 155 200 237 282 345
#
# _framework density 21.679161000000001
#
# number of rings (size 3 to 8) (size 9 to 14) (size 15 to 20)
#    0.000    1.750    2.500    4.500    0.000    0.500 
#    0.000    3.125    2.750    0.000    0.000    0.000 
#    0.000    0.000    0.000    0.000    0.000    0.000 
#
# Total GULP energy -89162.680716 kJ/mol
# GULP energy per Si atom -5572.667545 kJ/mol
# Density = 2.162982 g / cm^3
# Si number density = 21.679161 Si / 1000 Ang^3
#
#
#
# Elastic Constant Matrix: (Units=GPa)
#
#
# Indices 1 2 3 4 5 6 
#
# 1 110.9219 41.1003 25.4419 -10.7228 -25.4288 10.3501
# 2 41.1003 106.7236 2.7036 -27.1030 -6.5851 9.2273
# 3 25.4419 2.7036 18.3485 -7.5413 -3.7590 0.8336
# 4 -10.7228 -27.1030 -7.5413 22.7666 -0.6039 4.3858
# 5 -25.4288 -6.5851 -3.7590 -0.6039 32.5382 0.6209
# 6 10.3501 9.2273 0.8336 4.3858 0.6209 34.8070
#
#
#
# Elastic Compliance Matrix: (Units=1/GPa)
#
#
# Indices 1 2 3 4 5 6 
#
# 1 0.020732 -0.008870 -0.029119 -0.009750 0.010902 -0.002082
# 2 -0.008870 0.019893 0.021127 0.027788 0.000177 -0.006647
# 3 -0.029119 0.021127 0.111348 0.049303 -0.004593 -0.005739
# 4 -0.009750 0.027788 0.049303 0.092244 0.005743 -0.017374
# 5 0.010902 0.000177 -0.004593 0.005743 0.038953 -0.004597
# 6 -0.002082 -0.006647 -0.005739 -0.017374 -0.004597 0.033520
#
#
# Mechanical properties :
#
#
# Convention : Reuss Voigt Hill
#
# Bulk Modulus (GPa) = 8.45675 41.60951 25.03313
# Shear Modulus (GPa) = 12.82615 29.13888 20.98251
#
# Velocity S-wave (km/s) = 2.43499 3.67017 3.11443
# Velocity P-wave (km/s) = 3.43728 6.09878 4.95026
#
# Compressibility (1/GPa) = 0.11824879
#
# Stress axis : x y z
#
# Youngs Moduli (GPa) = 48.23487 50.26848 8.98088
#
# Poissons Ratio (x) = 0.44587 0.26152
# Poissons Ratio (y) = 0.42783 -0.18974
# Poissons Ratio (z) = 1.40456 -1.06202
#
# Static dielectric constant tensor:
#      x y z
#    x 1.814020 0.030130 -0.029310 
#    y 0.030130 1.876670 -0.062870 
#    z -0.029310 -0.062870 1.804340 
# 
# From -- ./inp_files/278088.got.cif
#   From: 2010.05.17/outbox.cif.g08.bks.cpg/sg2_140_cif.got.tgz:278088.got - 2010.06.03 11:33:40.
