data_PCOD9086653
_publ_section_title
;
Structure prediction by ZEFSAII (Michael W. Deem and Ramdas Pophale) SiO2 
 PCOD9086653
Probable space group: P -1
;
_chemical_formula_sum "Si O2"
_cell_formula_units_Z 16
_cell_length_a 11.975144
_cell_length_b 11.258669
_cell_length_c 8.750581
_cell_angle_alpha 140.799651
_cell_angle_beta 120.615111
_cell_angle_gamma 76.589712
_cell_volume 612.335289
_symmetry_space_group_name_H-M "P -1"
_symmetry_group_IT_number 2
_symmetry_cell_setting 'triclinic'
loop_
_space_group_symop_operation_xyz
x,y,z
-x,-y,-z
loop_
_atom_site_type_symbol
_atom_site_label
_atom_site_fract_x
_atom_site_fract_y
_atom_site_fract_z
Si Si1 0.113256 0.025921 0.972737
Si Si2 0.669680 0.272410 0.474532
Si Si3 0.149087 0.318227 0.017293
Si Si4 0.216969 0.739346 0.122428
Si Si5 0.466016 0.793659 0.176511
Si Si6 0.591192 0.821241 0.963126
Si Si7 0.031503 0.346928 0.644649
Si Si8 0.735881 0.815302 0.492133
O O1 0.096138 0.159451 0.953855
O O2 0.092301 0.807637 0.679176
O O3 0.248379 0.139223 0.271039
O O4 0.000000 0.000000 0.000000
O O5 0.787396 0.452820 0.664219
O O6 0.707940 0.284892 0.692461
O O7 0.659011 0.050213 0.196671
O O8 0.519409 0.286154 0.347126
O O9 0.286690 0.268455 0.008175
O O10 0.044172 0.304324 0.791071
O O11 0.308860 0.697570 0.007581
O O12 0.220690 0.965727 0.336217
O O13 0.070058 0.578250 0.867421
O O14 0.501443 0.820423 0.050672
O O15 0.500000 0.000000 0.500000
O O16 0.581460 0.706831 0.235343
O O17 0.161698 0.293362 0.609418
#
# Coordination Sequence:
#
# PCOD9086653 Si02
#       8
#     2   2   2   2   2   2   2   2
#     4  10  24  41  64  86 117 160 205 260 296 349
#     4  10  22  37  59  92 126 156 198 244 292 368
#     4  11  22  41  62  86 119 159 204 249 301 357
#     4  10  21  37  61  90 124 157 196 243 297 360
#     4  10  19  36  59  90 125 159 190 241 295 360
#     4  11  21  37  59  91 126 161 196 236 305 357
#     4  10  21  41  61  88 115 160 206 248 297 348
#     4  10  20  39  58  85 124 157 197 243 300 348
#
# _framework density 26.129477999999999
#
# number of rings (size 3 to 8) (size 9 to 14) (size 15 to 20)
#    0.000    1.750    3.750    0.750    1.750    4.000 
#    0.000    2.500    0.000    9.000    0.000    0.000 
#    0.000    0.000    0.000    0.000    0.000    0.000 
#
# Total GULP energy -89578.499721 kJ/mol
# GULP energy per Si atom -5598.656233 kJ/mol
# Density = 2.607001 g / cm^3
# Si number density = 26.129478 Si / 1000 Ang^3
#
#
#
# Elastic Constant Matrix: (Units=GPa)
#
#
# Indices 1 2 3 4 5 6 
#
# 1 92.4061 20.3343 12.2744 1.9553 -6.1659 26.4585
# 2 20.3343 61.2065 36.2715 16.2897 -5.6036 15.0876
# 3 12.2744 36.2715 100.7448 6.8151 0.7860 22.7183
# 4 1.9553 16.2897 6.8151 39.0757 -3.3238 10.2087
# 5 -6.1659 -5.6036 0.7860 -3.3238 33.2468 11.9420
# 6 26.4585 15.0876 22.7183 10.2087 11.9420 43.7545
#
#
#
# Elastic Compliance Matrix: (Units=1/GPa)
#
#
# Indices 1 2 3 4 5 6 
#
# 1 0.015052 -0.003670 0.001758 0.004046 0.006672 -0.011514
# 2 -0.003670 0.024962 -0.007695 -0.008227 0.003388 -0.001398
# 3 0.001758 -0.007695 0.013767 0.002527 0.001291 -0.006500
# 4 0.004046 -0.008227 0.002527 0.031477 0.006009 -0.009906
# 5 0.006672 0.003388 0.001291 0.006009 0.038882 -0.017887
# 6 -0.011514 -0.001398 -0.006500 -0.009906 -0.017887 0.040868
#
#
# Mechanical properties :
#
#
# Convention : Reuss Voigt Hill
#
# Bulk Modulus (GPa) = 28.92864 43.56864 36.24864
# Shear Modulus (GPa) = 25.54371 35.58056 30.56213
#
# Velocity S-wave (km/s) = 3.13002 3.69413 3.42371
# Velocity P-wave (km/s) = 4.91508 5.90811 5.43433
#
# Compressibility (1/GPa) = 0.03456782
#
# Stress axis : x y z
#
# Youngs Moduli (GPa) = 66.43449 40.06139 72.63797
#
# Poissons Ratio (x) = 0.14704 -0.12772
# Poissons Ratio (y) = 0.24384 0.55891
# Poissons Ratio (z) = -0.11681 0.30825
#
# Static dielectric constant tensor:
#      x y z
#    x 2.155910 -0.043520 0.026280 
#    y -0.043520 2.044780 -0.000460 
#    z 0.026280 -0.000460 2.074480 
# 
# From -- ./inp_files/281537.got.cif
#   From: 2010.05.17/outbox.cif.g08.bks.cpg/sg2_141_cif.got.tgz:281537.got - 2010.06.03 11:33:40.
