data_PCOD9086597
_publ_section_title
;
Structure prediction by ZEFSAII (Michael W. Deem and Ramdas Pophale) SiO2 
 PCOD9086597
Probable space group: P -1
;
_chemical_formula_sum "Si O2"
_cell_formula_units_Z 14
_cell_length_a 12.135355
_cell_length_b 14.173451
_cell_length_c 7.627986
_cell_angle_alpha 100.934640
_cell_angle_beta 96.556459
_cell_angle_gamma 149.152297
_cell_volume 551.530674
_symmetry_space_group_name_H-M "P -1"
_symmetry_group_IT_number 2
_symmetry_cell_setting 'triclinic'
loop_
_space_group_symop_operation_xyz
x,y,z
-x,-y,-z
loop_
_atom_site_type_symbol
_atom_site_label
_atom_site_fract_x
_atom_site_fract_y
_atom_site_fract_z
Si Si1 0.955175 0.003670 0.718484
Si Si2 0.564843 0.935642 0.483941
Si Si3 0.553636 0.638527 0.241680
Si Si4 0.042639 0.174688 0.139413
Si Si5 0.171000 0.816183 0.067925
Si Si6 0.714190 0.307645 0.332594
Si Si7 0.307987 0.630171 0.035501
O O1 0.728097 0.834021 0.480529
O O2 0.992652 0.918333 0.731646
O O3 0.231218 0.253110 0.785160
O O4 0.899328 0.007515 0.895485
O O5 0.382704 0.730577 0.509395
O O6 0.513862 0.858406 0.254127
O O7 0.500000 0.000000 0.500000
O O8 0.826179 0.134040 0.715385
O O9 0.343239 0.414491 0.231033
O O10 0.405307 0.598460 0.079502
O O11 0.934267 0.196807 0.107612
O O12 0.476113 0.045616 0.169651
O O13 0.964666 0.572896 0.980786
O O14 0.000000 0.500000 0.500000
O O15 0.715422 0.366822 0.173243
#
# Coordination Sequence:
#
# PCOD9086597 Si02
#       7
#     2   2   2   2   2   2   2
#     4  10  20  34  60  88 119 157 198 242 291 356
#     4  10  23  42  62  91 119 156 209 249 302 369
#     4  10  21  36  58  89 119 155 203 237 297 358
#     4  10  19  36  59  85 123 158 192 248 295 343
#     4   9  22  40  59  92 124 158 210 248 301 371
#     4  10  23  41  63  90 118 158 208 247 306 367
#     4  11  22  43  65  84 129 165 192 263 305 350
#
# _framework density 25.383901000000002
#
# number of rings (size 3 to 8) (size 9 to 14) (size 15 to 20)
#    0.857    1.143    0.000    3.429    0.000    2.857 
#    5.143    0.000   12.571    0.000    0.000    0.000 
#    0.000    0.000    0.000    0.000    0.000    0.000 
#
# Total GULP energy -78038.228261 kJ/mol
# GULP energy per Si atom -5574.159161 kJ/mol
# Density = 2.532613 g / cm^3
# Si number density = 25.383901 Si / 1000 Ang^3
#
#
#
# Elastic Constant Matrix: (Units=GPa)
#
#
# Indices 1 2 3 4 5 6 
#
# 1 49.7887 25.3661 19.9922 0.3435 10.8012 -8.4834
# 2 25.3661 134.0591 53.7622 -8.4172 23.4404 1.6633
# 3 19.9922 53.7622 147.5554 -14.5218 22.3097 2.6398
# 4 0.3435 -8.4172 -14.5218 46.4313 0.2191 10.4624
# 5 10.8012 23.4404 22.3097 0.2191 38.5771 0.1124
# 6 -8.4834 1.6633 2.6398 10.4624 0.1124 28.8035
#
#
#
# Elastic Compliance Matrix: (Units=1/GPa)
#
#
# Indices 1 2 3 4 5 6 
#
# 1 0.025117 -0.003630 -0.002036 -0.003510 -0.003656 0.009083
# 2 -0.003630 0.009845 -0.002365 0.001531 -0.003601 -0.001963
# 3 -0.002036 -0.002365 0.008692 0.002832 -0.003029 -0.002276
# 4 -0.003510 0.001531 0.002832 0.025099 -0.001698 -0.010492
# 5 -0.003656 -0.003601 -0.003029 -0.001698 0.030896 -0.000095
# 6 0.009083 -0.001963 -0.002276 -0.010492 -0.000095 0.041526
#
#
# Mechanical properties :
#
#
# Convention : Reuss Voigt Hill
#
# Bulk Modulus (GPa) = 36.24162 58.84934 47.54548
# Shear Modulus (GPa) = 30.04223 38.24789 34.14506
#
# Velocity S-wave (km/s) = 3.44396 3.88593 3.67160
# Velocity P-wave (km/s) = 5.48843 6.58544 6.06180
#
# Compressibility (1/GPa) = 0.02759259
#
# Stress axis : x y z
#
# Youngs Moduli (GPa) = 39.81431 101.57698 115.04787
#
# Poissons Ratio (x) = 0.36871 0.23419
# Poissons Ratio (y) = 0.14452 0.27208
# Poissons Ratio (z) = 0.08105 0.24022
#
# Static dielectric constant tensor:
#      x y z
#    x 2.159160 0.010670 -0.023660 
#    y 0.010670 2.030910 0.009350 
#    z -0.023660 0.009350 2.029310 
# 
# From -- ./inp_files/313209.got.cif
#   From: 2010.05.17/outbox.cif.g08.bks.cpg/sg2_157_cif.got.tgz:313209.got - 2010.06.03 11:33:40.
