data_PCOD9086200
_publ_section_title
;
Structure prediction by ZEFSAII (Michael W. Deem and Ramdas Pophale) SiO2 
 PCOD9086200
Probable space group: P -1
;
_chemical_formula_sum "Si O2"
_cell_formula_units_Z 14
_cell_length_a 5.088131
_cell_length_b 11.659539
_cell_length_c 11.723729
_cell_angle_alpha 64.448148
_cell_angle_beta 102.023313
_cell_angle_gamma 74.257326
_cell_volume 559.961521
_symmetry_space_group_name_H-M "P -1"
_symmetry_group_IT_number 2
_symmetry_cell_setting 'triclinic'
loop_
_space_group_symop_operation_xyz
x,y,z
-x,-y,-z
loop_
_atom_site_type_symbol
_atom_site_label
_atom_site_fract_x
_atom_site_fract_y
_atom_site_fract_z
Si Si1 0.117977 0.323677 0.772450
Si Si2 0.527233 0.931083 0.720617
Si Si3 0.673135 0.124638 0.516126
Si Si4 0.851076 0.773764 0.418867
Si Si5 0.810495 0.160341 0.935935
Si Si6 0.699643 0.272188 0.105801
Si Si7 0.864903 0.482955 0.118035
O O1 0.105114 0.336244 0.629097
O O2 0.456474 0.217176 0.877287
O O3 0.027316 0.459887 0.786519
O O4 0.902536 0.250633 0.817142
O O5 0.350411 0.923629 0.592211
O O6 0.508640 0.800654 0.838342
O O7 0.762965 0.984233 0.662502
O O8 0.336153 0.069227 0.717248
O O9 0.355495 0.223701 0.496110
O O10 0.864866 0.211349 0.514351
O O11 0.906638 0.187058 0.059260
O O12 0.000000 0.000000 0.000000
O O13 0.870038 0.328746 0.186153
O O14 0.476764 0.410907 0.962210
O O15 0.000000 0.500000 0.000000
#
# Coordination Sequence:
#
# PCOD9086200 Si02
#       7
#     2   2   2   2   2   2   2
#     4  11  22  37  59  78 120 157 193 232 296 339
#     4   9  20  34  59  87 112 152 184 242 292 352
#     4   9  20  36  57  85 122 142 188 232 302 349
#     4  10  19  36  56  86 115 152 180 237 294 354
#     4  11  22  36  54  88 119 150 186 245 288 361
#     4  10  21  38  59  82 118 153 203 235 288 339
#     4  10  21  40  55  81 114 162 202 241 269 344
#
# _framework density 25.001715000000001
#
# number of rings (size 3 to 8) (size 9 to 14) (size 15 to 20)
#    0.857    1.143    1.429    2.571    0.000    2.286 
#    0.000    0.000    0.000    1.714    0.000    0.000 
#    0.000    0.000    0.000    0.000    0.000    0.000 
#
# Total GULP energy -78086.863997 kJ/mol
# GULP energy per Si atom -5577.633143 kJ/mol
# Density = 2.494481 g / cm^3
# Si number density = 25.001715 Si / 1000 Ang^3
#
#
#
# Elastic Constant Matrix: (Units=GPa)
#
#
# Indices 1 2 3 4 5 6 
#
# 1 106.7660 24.0944 2.8774 8.0008 -19.6220 4.3267
# 2 24.0944 169.1162 33.0763 42.5883 -13.9190 -6.2341
# 3 2.8774 33.0763 48.2210 16.7870 -10.2866 -7.2110
# 4 8.0008 42.5883 16.7870 46.8913 1.1958 -2.6980
# 5 -19.6220 -13.9190 -10.2866 1.1958 15.4774 5.6601
# 6 4.3267 -6.2341 -7.2110 -2.6980 5.6601 24.3523
#
#
#
# Elastic Compliance Matrix: (Units=1/GPa)
#
#
# Indices 1 2 3 4 5 6 
#
# 1 0.014544 0.000084 0.005240 -0.005505 0.025153 -0.007467
# 2 0.000084 0.008769 -0.001900 -0.007549 0.007661 -0.000950
# 3 0.005240 -0.001900 0.031260 -0.011004 0.026382 0.000488
# 4 -0.005505 -0.007549 -0.011004 0.034036 -0.025737 0.005540
# 5 0.025153 0.007661 0.026382 -0.025737 0.133347 -0.028540
# 6 -0.007467 -0.000950 0.000488 0.005540 -0.028540 0.049539
#
#
# Mechanical properties :
#
#
# Convention : Reuss Voigt Hill
#
# Bulk Modulus (GPa) = 16.28100 49.35550 32.81825
# Shear Modulus (GPa) = 17.53644 34.94788 26.24216
#
# Velocity S-wave (km/s) = 2.65129 3.74280 3.24329
# Velocity P-wave (km/s) = 3.98729 6.20175 5.21346
#
# Compressibility (1/GPa) = 0.06142127
#
# Stress axis : x y z
#
# Youngs Moduli (GPa) = 68.75779 114.03608 31.98959
#
# Poissons Ratio (x) = -0.00961 -0.16762
# Poissons Ratio (y) = -0.00580 0.06078
# Poissons Ratio (z) = -0.36027 0.21667
#
# Static dielectric constant tensor:
#      x y z
#    x 2.055910 -0.012810 0.078360 
#    y -0.012810 2.038450 -0.017020 
#    z 0.078360 -0.017020 2.063710 
# 
# From -- ./inp_files/361205.got.cif
#   From: 2010.05.17/outbox.cif.g08.bks.cpg/sg2_181_cif.got.tgz:361205.got - 2010.06.03 11:33:40.
