data_PCOD9086163
_publ_section_title
;
Structure prediction by ZEFSAII (Michael W. Deem and Ramdas Pophale) SiO2 
 PCOD9086163
Probable space group: P -1
;
_chemical_formula_sum "Si O2"
_cell_formula_units_Z 13
_cell_length_a 6.903389
_cell_length_b 14.464849
_cell_length_c 7.091346
_cell_angle_alpha 111.450850
_cell_angle_beta 64.453486
_cell_angle_gamma 116.645206
_cell_volume 557.851343
_symmetry_space_group_name_H-M "P -1"
_symmetry_group_IT_number 2
_symmetry_cell_setting 'triclinic'
loop_
_space_group_symop_operation_xyz
x,y,z
-x,-y,-z
loop_
_atom_site_type_symbol
_atom_site_label
_atom_site_fract_x
_atom_site_fract_y
_atom_site_fract_z
Si Si1 0.074223 0.361949 0.955959
Si Si2 0.500000 0.000000 0.500000
Si Si3 0.167296 0.865753 0.007928
Si Si4 0.671971 0.907514 0.708182
Si Si5 0.946056 0.181360 0.415284
Si Si6 0.306575 0.550447 0.749864
Si Si7 0.186720 0.404910 0.374870
O O1 0.002062 0.235862 0.889374
O O2 0.843106 0.388867 0.047675
O O3 0.158354 0.399590 0.159818
O O4 0.254467 0.438067 0.794895
O O5 0.607980 0.930674 0.541885
O O6 0.288179 0.891181 0.446805
O O7 0.424602 0.860983 0.881479
O O8 0.082402 0.859577 0.822084
O O9 0.195808 0.979402 0.164080
O O10 0.836043 0.840404 0.608264
O O11 0.989100 0.305514 0.474963
O O12 0.572884 0.611503 0.696249
O O13 0.781442 0.485271 0.451655
#
# Coordination Sequence:
#
# PCOD9086163 Si02
#       7
#     2   1   2   2   2   2   2
#     4  10  20  37  58  82 115 146 188 234 279 330
#     4  10  22  34  52  82 110 146 180 228 266 336
#     4   9  20  34  57  81 108 146 188 223 279 334
#     4  10  19  36  56  79 115 144 182 228 276 340
#     4  10  20  36  57  79 113 146 182 229 282 326
#     4  10  21  36  59  83 112 150 186 232 284 327
#     4  10  21  37  59  83 114 146 190 231 280 337
#
# _framework density 23.303701
#
# number of rings (size 3 to 8) (size 9 to 14) (size 15 to 20)
#    0.000    2.154    0.000    2.769    2.154    0.000 
#    0.000    0.000    0.000    0.000    0.000    0.000 
#    0.000    0.000    0.000    0.000    0.000    0.000 
#
# Total GULP energy -72389.869245 kJ/mol
# GULP energy per Si atom -5568.451480 kJ/mol
# Density = 2.325066 g / cm^3
# Si number density = 23.303701 Si / 1000 Ang^3
#
#
#
# Elastic Constant Matrix: (Units=GPa)
#
#
# Indices 1 2 3 4 5 6 
#
# 1 73.6922 19.8451 19.8364 5.4378 9.1395 2.1733
# 2 19.8451 69.9523 20.9768 -13.7487 13.2789 17.6593
# 3 19.8364 20.9768 41.5760 2.7772 6.6222 1.5854
# 4 5.4378 -13.7487 2.7772 21.3911 -0.7426 -7.6889
# 5 9.1395 13.2789 6.6222 -0.7426 26.7435 -5.1532
# 6 2.1733 17.6593 1.5854 -7.6889 -5.1532 24.3862
#
#
#
# Elastic Compliance Matrix: (Units=1/GPa)
#
#
# Indices 1 2 3 4 5 6 
#
# 1 0.016845 -0.003553 -0.005269 -0.006449 -0.003113 -0.001277
# 2 -0.003553 0.028186 -0.010635 0.013490 -0.013231 -0.017945
# 3 -0.005269 -0.010635 0.032472 -0.008568 -0.000574 0.003237
# 4 -0.006449 0.013490 -0.008568 0.062297 0.001540 0.011330
# 5 -0.003113 -0.013231 -0.000574 0.001540 0.049215 0.020781
# 6 -0.001277 -0.017945 0.003237 0.011330 0.020781 0.061869
#
#
# Mechanical properties :
#
#
# Convention : Reuss Voigt Hill
#
# Bulk Modulus (GPa) = 25.91430 34.05967 29.98699
# Shear Modulus (GPa) = 16.52018 22.80831 19.66425
#
# Velocity S-wave (km/s) = 2.66542 3.13188 2.90802
# Velocity P-wave (km/s) = 4.54060 5.26550 4.91643
#
# Compressibility (1/GPa) = 0.03858873
#
# Stress axis : x y z
#
# Youngs Moduli (GPa) = 59.36622 35.47888 30.79541
#
# Poissons Ratio (x) = 0.12605 0.16226
# Poissons Ratio (y) = 0.21092 0.32752
# Poissons Ratio (z) = 0.31279 0.37733
#
# Static dielectric constant tensor:
#      x y z
#    x 1.827410 0.011070 0.006710 
#    y 0.011070 1.870650 -0.011580 
#    z 0.006710 -0.011580 1.942250 
# 
# From -- ./inp_files/133229.got.cif
#   From: 2010.05.17/outbox.cif.g08.bks.cpg/sg2_67_cif.got.tgz:133229.got - 2010.06.03 11:33:40.
