data_PCOD9086812
_publ_section_title
;
Structure prediction by ZEFSAII (Michael W. Deem and Ramdas Pophale) SiO2 
 PCOD9086812
Probable space group: P -1
;
_chemical_formula_sum "Si O2"
_cell_formula_units_Z 16
_cell_length_a 23.223999
_cell_length_b 11.806691
_cell_length_c 8.078969
_cell_angle_alpha 69.036719
_cell_angle_beta 125.045088
_cell_angle_gamma 154.622912
_cell_volume 690.564050
_symmetry_space_group_name_H-M "P -1"
_symmetry_group_IT_number 2
_symmetry_cell_setting 'triclinic'
loop_
_space_group_symop_operation_xyz
x,y,z
-x,-y,-z
loop_
_atom_site_type_symbol
_atom_site_label
_atom_site_fract_x
_atom_site_fract_y
_atom_site_fract_z
Si Si1 0.287335 0.733677 0.581982
Si Si2 0.030922 0.305231 0.789480
Si Si3 0.122940 0.254972 0.706382
Si Si4 0.703566 0.333194 0.712295
Si Si5 0.240325 0.204499 0.119210
Si Si6 0.941179 0.417403 0.668511
Si Si7 0.441627 0.671375 0.435847
Si Si8 0.253718 0.974617 0.109644
O O1 0.276055 0.581870 0.715782
O O2 0.207054 0.586106 0.341881
O O3 0.168339 0.638593 0.536638
O O4 0.463329 0.083671 0.659341
O O5 0.023270 0.194133 0.690983
O O6 0.956490 0.322986 0.630157
O O7 0.223047 0.609843 0.029624
O O8 0.919979 0.081526 0.879078
O O9 0.199056 0.264483 0.929560
O O10 0.000000 0.000000 0.500000
O O11 0.717173 0.500248 0.666404
O O12 0.500000 0.000000 0.500000
O O13 0.392852 0.476449 0.355231
O O14 0.282054 0.161751 0.085794
O O15 0.839507 0.214133 0.774213
O O16 0.127876 0.750723 0.867746
O O17 0.574415 0.835951 0.708239
#
# Coordination Sequence:
#
# PCOD9086812 Si02
#       8
#     2   2   2   2   2   2   2   2
#     4  10  22  38  59  90 122 153 198 239 303 348
#     4  11  22  38  62  89 115 154 205 243 292 347
#     4  12  25  38  58  87 123 159 193 246 297 350
#     4  10  19  36  60  89 117 147 194 245 292 345
#     4  11  22  38  61  86 121 155 198 244 290 354
#     4   9  17  35  60  85 116 149 192 253 288 347
#     4  10  20  35  60  88 117 155 195 243 290 350
#     4   9  17  33  60  91 114 145 196 248 297 336
#
# _framework density 23.169467999999998
#
# number of rings (size 3 to 8) (size 9 to 14) (size 15 to 20)
#    0.000    1.750    1.250    6.000    1.750    1.000 
#    0.000    0.000    0.000    0.750    0.000    0.000 
#    0.000    0.000    0.000    0.000    0.000    0.000 
#
# Total GULP energy -89303.530104 kJ/mol
# GULP energy per Si atom -5581.470632 kJ/mol
# Density = 2.311673 g / cm^3
# Si number density = 23.169468 Si / 1000 Ang^3
#
#
#
# Elastic Constant Matrix: (Units=GPa)
#
#
# Indices 1 2 3 4 5 6 
#
# 1 152.6645 13.7342 18.3440 -9.8304 10.1576 -29.2614
# 2 13.7342 68.4785 8.8241 -2.7453 7.5377 -29.0168
# 3 18.3440 8.8241 49.8077 6.0875 8.9466 -12.3905
# 4 -9.8304 -2.7453 6.0875 25.5725 -10.5956 4.7752
# 5 10.1576 7.5377 8.9466 -10.5956 38.6227 -7.7557
# 6 -29.2614 -29.0168 -12.3905 4.7752 -7.7557 37.6800
#
#
#
# Elastic Compliance Matrix: (Units=1/GPa)
#
#
# Indices 1 2 3 4 5 6 
#
# 1 0.008042 0.001452 -0.001938 0.002524 0.000031 0.006413
# 2 0.001452 0.022035 0.000474 -0.001183 -0.001483 0.018097
# 3 -0.001938 0.000474 0.025029 -0.010843 -0.006942 0.007036
# 4 0.002524 -0.001183 -0.010843 0.049634 0.014527 -0.005816
# 5 0.000031 -0.001483 -0.006942 0.014527 0.032038 0.001352
# 6 0.006413 0.018097 0.007036 -0.005816 0.001352 0.048784
#
#
# Mechanical properties :
#
#
# Convention : Reuss Voigt Hill
#
# Bulk Modulus (GPa) = 18.15440 39.19505 28.67472
# Shear Modulus (GPa) = 24.51616 35.71161 30.11389
#
# Velocity S-wave (km/s) = 3.25641 3.93023 3.60908
# Velocity P-wave (km/s) = 4.68950 6.12772 5.45621
#
# Compressibility (1/GPa) = 0.05508306
#
# Stress axis : x y z
#
# Youngs Moduli (GPa) = 124.34509 45.38252 39.95305
#
# Poissons Ratio (x) = -0.06589 0.07742
# Poissons Ratio (y) = -0.18052 -0.01895
# Poissons Ratio (z) = 0.24096 -0.02153
#
# Static dielectric constant tensor:
#      x y z
#    x 1.953110 0.027800 -0.013840 
#    y 0.027800 1.960110 0.016490 
#    z -0.013840 0.016490 1.928730 
# 
# From -- ./inp_files/353489.got.cif
#   From: 2010.05.17/outbox.cif.g08.bks.cpg/sg2_177_cif.got.tgz:353489.got - 2010.06.03 11:33:40.
