data_PCOD9086891
_publ_section_title
;
Structure prediction by ZEFSAII (Michael W. Deem and Ramdas Pophale) SiO2 
 PCOD9086891
Probable space group: P -1
;
_chemical_formula_sum "Si O2"
_cell_formula_units_Z 16
_cell_length_a 16.439546
_cell_length_b 11.564580
_cell_length_c 16.140658
_cell_angle_alpha 144.172946
_cell_angle_beta 154.993754
_cell_angle_gamma 46.015823
_cell_volume 749.123765
_symmetry_space_group_name_H-M "P -1"
_symmetry_group_IT_number 2
_symmetry_cell_setting 'triclinic'
loop_
_space_group_symop_operation_xyz
x,y,z
-x,-y,-z
loop_
_atom_site_type_symbol
_atom_site_label
_atom_site_fract_x
_atom_site_fract_y
_atom_site_fract_z
Si Si1 0.501633 0.142021 0.473847
Si Si2 0.228234 0.101579 0.800677
Si Si3 0.377845 0.678723 0.486301
Si Si4 0.268166 0.745826 0.084440
Si Si5 0.182827 0.378607 0.395917
Si Si6 0.432359 0.933470 0.016690
Si Si7 0.918951 0.313300 0.655458
Si Si8 0.473519 0.540979 0.903218
O O1 0.600307 0.228154 0.530391
O O2 0.662367 0.178724 0.716038
O O3 0.324441 0.255837 0.404774
O O4 0.399953 0.910095 0.243444
O O5 0.447343 0.151873 0.996431
O O6 0.148398 0.307459 0.860209
O O7 0.138940 0.929203 0.552251
O O8 0.233336 0.977126 0.818022
O O9 0.500000 0.500000 0.500000
O O10 0.165380 0.620932 0.298412
O O11 0.475145 0.851920 0.738998
O O12 0.338300 0.534083 0.007921
O O13 0.036984 0.732453 0.854763
O O14 0.152226 0.563228 0.414212
O O15 0.292944 0.434533 0.617415
O O16 0.445363 0.770533 0.002861
O O17 0.500000 0.500000 0.000000
#
# Coordination Sequence:
#
# PCOD9086891 Si02
#       8
#     2   2   2   2   2   2   2   2
#     4  10  22  43  62  91 131 170 219 259 318 379
#     4   9  19  35  61  89 122 164 212 257 321 385
#     4  11  22  38  61  90 130 170 208 262 322 380
#     4  10  23  41  68  90 123 175 216 267 315 381
#     4  11  21  39  67  93 128 167 219 261 322 388
#     4  10  20  37  61  88 129 167 206 265 325 377
#     4  10  19  36  60  95 127 163 211 262 317 387
#     4  11  23  40  64  95 127 164 215 272 325 376
#
# _framework density 21.358286
#
# number of rings (size 3 to 8) (size 9 to 14) (size 15 to 20)
#    0.000    1.750    2.500    1.875    0.000    1.500 
#    2.250    1.250    5.500    0.000    0.000    0.000 
#    0.000    0.000    0.000    0.000    0.000    0.000 
#
# Total GULP energy -89139.427741 kJ/mol
# GULP energy per Si atom -5571.214234 kJ/mol
# Density = 2.130967 g / cm^3
# Si number density = 21.358286 Si / 1000 Ang^3
#
#
#
# Elastic Constant Matrix: (Units=GPa)
#
#
# Indices 1 2 3 4 5 6 
#
# 1 137.0982 52.4840 34.3766 -14.4703 -11.0814 13.4195
# 2 52.4840 129.9230 24.2106 -16.0647 -8.6451 -0.7155
# 3 34.3766 24.2106 45.3699 -8.4516 -0.2287 -9.5129
# 4 -14.4703 -16.0647 -8.4516 29.8764 -0.3507 -2.1881
# 5 -11.0814 -8.6451 -0.2287 -0.3507 14.9930 -0.0872
# 6 13.4195 -0.7155 -9.5129 -2.1881 -0.0872 43.3517
#
#
#
# Elastic Compliance Matrix: (Units=1/GPa)
#
#
# Indices 1 2 3 4 5 6 
#
# 1 0.011570 -0.002508 -0.008207 0.001625 0.006987 -0.005328
# 2 -0.002508 0.009882 -0.002595 0.003451 0.003889 0.000552
# 3 -0.008207 -0.002595 0.032505 0.004465 -0.006905 0.009842
# 4 0.001625 0.003451 0.004465 0.037604 0.004153 0.002440
# 5 0.006987 0.003889 -0.006905 0.004153 0.074077 -0.003255
# 6 -0.005328 0.000552 0.009842 0.002440 -0.003255 0.027002
#
#
# Mechanical properties :
#
#
# Convention : Reuss Voigt Hill
#
# Bulk Modulus (GPa) = 36.58100 59.39262 47.98681
# Shear Modulus (GPa) = 21.89411 31.06554 26.47982
#
# Velocity S-wave (km/s) = 3.20517 3.81792 3.52489
# Velocity P-wave (km/s) = 5.55536 6.87776 6.25162
#
# Compressibility (1/GPa) = 0.02733660
#
# Stress axis : x y z
#
# Youngs Moduli (GPa) = 86.43208 101.19406 30.76472
#
# Poissons Ratio (x) = 0.25378 0.25249
# Poissons Ratio (y) = 0.21676 0.07983
# Poissons Ratio (z) = 0.70937 0.26259
#
# Static dielectric constant tensor:
#      x y z
#    x 1.910350 0.013240 0.151160 
#    y 0.013240 1.887300 -0.071650 
#    z 0.151160 -0.071650 1.982220 
# 
# From -- ./inp_files/532737.got.cif
#   From: 2010.05.17/outbox.cif.g08.bks.cpg/sg2_267_cif.got.tgz:532737.got - 2010.06.03 11:33:40.
