data_PCOD9086496
_publ_section_title
;
Structure prediction by ZEFSAII (Michael W. Deem and Ramdas Pophale) SiO2 
 PCOD9086496
Probable space group: P -1
;
_chemical_formula_sum "Si O2"
_cell_formula_units_Z 16
_cell_length_a 8.227822
_cell_length_b 29.984039
_cell_length_c 15.038935
_cell_angle_alpha 20.289451
_cell_angle_beta 34.865701
_cell_angle_gamma 35.366012
_cell_volume 715.483631
_symmetry_space_group_name_H-M "P -1"
_symmetry_group_IT_number 2
_symmetry_cell_setting 'triclinic'
loop_
_space_group_symop_operation_xyz
x,y,z
-x,-y,-z
loop_
_atom_site_type_symbol
_atom_site_label
_atom_site_fract_x
_atom_site_fract_y
_atom_site_fract_z
Si Si1 0.388930 0.208026 0.021609
Si Si2 0.842786 0.495995 0.864449
Si Si3 0.701812 0.770419 0.476453
Si Si4 0.834046 0.505692 0.469538
Si Si5 0.846489 0.947611 0.948296
Si Si6 0.910740 0.213053 0.363777
Si Si7 0.349691 0.945860 0.460905
Si Si8 0.714986 0.227922 0.021326
O O1 0.069946 0.203632 0.214353
O O2 0.472483 0.077030 0.171118
O O3 0.366536 0.346723 0.723910
O O4 0.567594 0.207682 0.032354
O O5 0.873244 0.617552 0.685827
O O6 0.978045 0.508155 0.682174
O O7 0.500000 0.500000 0.000000
O O8 0.973455 0.348614 0.120265
O O9 0.897317 0.861403 0.175773
O O10 0.434407 0.765650 0.537962
O O11 0.532059 0.847049 0.491885
O O12 0.685439 0.381178 0.767873
O O13 0.000000 0.500000 0.500000
O O14 0.948962 0.847022 0.008822
O O15 0.500000 0.000000 0.000000
O O16 0.992307 0.072796 0.639078
O O17 0.386370 0.858288 0.696962
O O18 0.000000 0.000000 0.500000
#
# Coordination Sequence:
#
# PCOD9086496 Si02
#       8
#     2   2   2   2   2   2   2   2
#     4  11  23  42  62  95 131 168 208 261 333 376
#     4   9  19  35  58  89 122 158 199 262 318 361
#     4  10  19  36  59  89 123 161 209 270 302 362
#     4  11  24  41  68  96 124 161 222 268 304 378
#     4  10  19  36  58  90 120 163 212 252 311 372
#     4   9  18  34  60  85 118 160 210 249 302 377
#     4  12  22  39  64  96 126 163 224 267 301 375
#     4  12  24  40  66  91 132 171 206 264 327 380
#
# _framework density 22.362497999999999
#
# number of rings (size 3 to 8) (size 9 to 14) (size 15 to 20)
#    0.000    1.500    3.750    2.250    3.500    0.000 
#    0.000    0.625    0.000    3.000    0.000    0.000 
#    0.000    0.000    0.000    0.000    0.000    0.000 
#
# Total GULP energy -89222.468396 kJ/mol
# GULP energy per Si atom -5576.404275 kJ/mol
# Density = 2.231160 g / cm^3
# Si number density = 22.362498 Si / 1000 Ang^3
#
#
#
# Elastic Constant Matrix: (Units=GPa)
#
#
# Indices 1 2 3 4 5 6 
#
# 1 66.4479 17.4927 59.1268 -24.6155 -2.9110 21.2792
# 2 17.4927 98.0995 65.0524 -27.6328 -2.9003 29.7767
# 3 59.1268 65.0524 164.0694 -53.2473 3.3189 13.1112
# 4 -24.6155 -27.6328 -53.2473 45.6690 3.1316 -13.5902
# 5 -2.9110 -2.9003 3.3189 3.1316 29.3988 -1.4878
# 6 21.2792 29.7767 13.1112 -13.5902 -1.4878 24.3199
#
#
#
# Elastic Compliance Matrix: (Units=1/GPa)
#
#
# Indices 1 2 3 4 5 6 
#
# 1 0.048867 0.025602 -0.025064 -0.006970 0.007697 -0.064015
# 2 0.025602 0.035335 -0.020989 -0.006930 0.006201 -0.057842
# 3 -0.025064 -0.020989 0.025673 0.016955 -0.007089 0.042828
# 4 -0.006970 -0.006930 0.016955 0.042768 -0.006378 0.028952
# 5 0.007697 0.006201 -0.007089 -0.006378 0.036269 -0.011851
# 6 -0.064015 -0.057842 0.042828 0.028952 -0.011851 0.160315
#
#
# Mechanical properties :
#
#
# Convention : Reuss Voigt Hill
#
# Bulk Modulus (GPa) = 14.49829 67.99561 41.24695
# Shear Modulus (GPa) = 12.10305 32.34053 22.22179
#
# Velocity S-wave (km/s) = 2.32894 3.80701 3.15573
# Velocity P-wave (km/s) = 3.70531 7.05667 5.63586
#
# Compressibility (1/GPa) = 0.06897367
#
# Stress axis : x y z
#
# Youngs Moduli (GPa) = 20.46368 28.30059 38.95195
#
# Poissons Ratio (x) = -0.72454 0.97628
# Poissons Ratio (y) = -0.52390 0.81754
# Poissons Ratio (z) = 0.51289 0.59399
#
# Static dielectric constant tensor:
#      x y z
#    x 1.722600 0.292500 -0.246920 
#    y 0.292500 0.984990 0.614520 
#    z -0.246920 0.614520 1.421320 
# 
# From -- ./inp_files/392699.got.cif
#   From: 2010.05.17/outbox.cif.g08.bks.cpg/sg2_197_cif.got.tgz:392699.got - 2010.06.03 11:33:40.
