data_PCOD9086417
_publ_section_title
;
Structure prediction by ZEFSAII (Michael W. Deem and Ramdas Pophale) SiO2 
 PCOD9086417
Probable space group: P -1
;
_chemical_formula_sum "Si O2"
_cell_formula_units_Z 12
_cell_length_a 10.312171
_cell_length_b 9.427816
_cell_length_c 9.135670
_cell_angle_alpha 85.154385
_cell_angle_beta 55.449139
_cell_angle_gamma 125.482285
_cell_volume 468.872974
_symmetry_space_group_name_H-M "P -1"
_symmetry_group_IT_number 2
_symmetry_cell_setting 'triclinic'
loop_
_space_group_symop_operation_xyz
x,y,z
-x,-y,-z
loop_
_atom_site_type_symbol
_atom_site_label
_atom_site_fract_x
_atom_site_fract_y
_atom_site_fract_z
Si Si1 0.578481 0.759624 0.802839
Si Si2 0.835069 0.589700 0.240193
Si Si3 0.574867 0.061618 0.615101
Si Si4 0.698888 0.036064 0.945617
Si Si5 0.954438 0.681400 0.829931
Si Si6 0.273060 0.184372 0.599335
O O1 0.701072 0.753135 0.595539
O O2 0.532116 0.877627 0.734702
O O3 0.718845 0.909852 0.843865
O O4 0.322102 0.511859 0.031989
O O5 0.554339 0.347670 0.454658
O O6 0.816055 0.748378 0.249686
O O7 0.932013 0.610904 0.017195
O O8 0.044377 0.707813 0.215185
O O9 0.421052 0.065860 0.808795
O O10 0.866732 0.281377 0.395282
O O11 0.500000 0.000000 0.500000
O O12 0.500000 0.000000 0.000000
O O13 0.086756 0.924855 0.739674
#
# Coordination Sequence:
#
# PCOD9086417 Si02
#       6
#     2   2   2   2   2   2
#     4   9  21  37  57  84 124 147 189 245 293 343
#     4  10  19  37  62  85 115 152 197 248 277 343
#     4  10  19  36  58  84 111 157 202 230 284 342
#     4  10  21  39  57  88 122 152 189 240 295 345
#     4  10  19  37  57  85 118 150 195 243 285 345
#     4   9  20  37  61  88 110 154 200 238 292 337
#
# _framework density 25.593288999999999
#
# number of rings (size 3 to 8) (size 9 to 14) (size 15 to 20)
#    0.000    2.333    1.667    0.500    0.000    2.000 
#    9.000    5.833    0.000    0.000    0.000    0.000 
#    0.000    0.000    0.000    0.000    0.000    0.000 
#
# Total GULP energy -67026.782938 kJ/mol
# GULP energy per Si atom -5585.565245 kJ/mol
# Density = 2.553504 g / cm^3
# Si number density = 25.593289 Si / 1000 Ang^3
#
#
#
# Elastic Constant Matrix: (Units=GPa)
#
#
# Indices 1 2 3 4 5 6 
#
# 1 50.0614 22.6018 28.5500 -14.4259 -11.0429 5.6784
# 2 22.6018 147.8500 58.4501 -11.0182 2.0687 6.1835
# 3 28.5500 58.4501 139.3517 -13.0911 -8.5575 -5.6122
# 4 -14.4259 -11.0182 -13.0911 58.6461 2.7803 4.3509
# 5 -11.0429 2.0687 -8.5575 2.7803 30.9295 -3.1786
# 6 5.6784 6.1835 -5.6122 4.3509 -3.1786 34.5034
#
#
#
# Elastic Compliance Matrix: (Units=1/GPa)
#
#
# Indices 1 2 3 4 5 6 
#
# 1 0.026881 -0.002111 -0.003833 0.005338 0.007723 -0.004631
# 2 -0.002111 0.008574 -0.003343 0.000616 -0.002517 -0.002043
# 3 -0.003833 -0.003343 0.009617 0.000274 0.001792 0.002925
# 4 0.005338 0.000616 0.000274 0.018792 -0.000090 -0.003322
# 5 0.007723 -0.002517 0.001792 -0.000090 0.036049 0.002804
# 6 -0.004631 -0.002043 0.002925 -0.003322 0.002804 0.031264
#
#
# Mechanical properties :
#
#
# Convention : Reuss Voigt Hill
#
# Bulk Modulus (GPa) = 37.73634 61.82962 49.78298
# Shear Modulus (GPa) = 31.52898 39.99321 35.76109
#
# Velocity S-wave (km/s) = 3.51368 3.95732 3.74208
# Velocity P-wave (km/s) = 5.58909 6.71502 6.17776
#
# Compressibility (1/GPa) = 0.02649966
#
# Stress axis : x y z
#
# Youngs Moduli (GPa) = 37.20080 116.62536 103.98118
#
# Poissons Ratio (x) = 0.24616 0.39855
# Poissons Ratio (y) = 0.07852 0.34761
# Poissons Ratio (z) = 0.14259 0.38988
#
# Static dielectric constant tensor:
#      x y z
#    x 2.187630 -0.005620 -0.039610 
#    y -0.005620 2.041710 0.051370 
#    z -0.039610 0.051370 2.040250 
# 
# From -- ./inp_files/27776.got.cif
#   From: 2010.05.17/outbox.cif.g08.bks.cpg/sg2_14_cif.got.tgz:27776.got - 2010.06.03 11:33:40.
