data_PCOD9086248
_publ_section_title
;
Structure prediction by ZEFSAII (Michael W. Deem and Ramdas Pophale) SiO2 
 PCOD9086248
Probable space group: P -1
;
_chemical_formula_sum "Si O2"
_cell_formula_units_Z 15
_cell_length_a 20.055295
_cell_length_b 17.072114
_cell_length_c 7.368065
_cell_angle_alpha 57.624685
_cell_angle_beta 128.712431
_cell_angle_gamma 161.606887
_cell_volume 603.641091
_symmetry_space_group_name_H-M "P -1"
_symmetry_group_IT_number 2
_symmetry_cell_setting 'triclinic'
loop_
_space_group_symop_operation_xyz
x,y,z
-x,-y,-z
loop_
_atom_site_type_symbol
_atom_site_label
_atom_site_fract_x
_atom_site_fract_y
_atom_site_fract_z
Si Si1 0.545184 0.140822 0.291931
Si Si2 0.740305 0.222530 0.240772
Si Si3 0.627598 0.510456 0.343374
Si Si4 0.142296 0.981797 0.491117
Si Si5 0.000000 0.000000 0.000000
Si Si6 0.066271 0.697606 0.812198
Si Si7 0.431532 0.752675 0.436274
Si Si8 0.499768 0.573610 0.176039
O O1 0.748808 0.316721 0.277387
O O2 0.601188 0.276608 0.364413
O O3 0.500000 0.000000 0.500000
O O4 0.302009 0.921074 0.052125
O O5 0.939321 0.393066 0.227700
O O6 0.656331 0.043186 0.420648
O O7 0.500000 0.000000 0.000000
O O8 0.551878 0.333426 0.505396
O O9 0.609660 0.581741 0.349721
O O10 0.495846 0.393093 0.071215
O O11 0.903149 0.781117 0.424649
O O12 0.355000 0.217601 0.698275
O O13 0.102929 0.832461 0.604713
O O14 0.143968 0.046531 0.233920
O O15 0.775347 0.714468 0.893518
O O16 0.818509 0.456738 0.793262
#
# Coordination Sequence:
#
# PCOD9086248 Si02
#       8
#     2   2   2   2   1   2   2   2
#     4   9  19  36  58  83 112 148 190 233 293 350
#     4   9  20  36  56  85 113 147 190 236 289 349
#     4   9  20  34  57  83 108 150 199 238 286 339
#     4  10  20  36  57  80 116 153 197 231 295 338
#     4  10  22  34  52  86 110 156 188 230 292 332
#     4  10  21  37  60  84 115 155 189 246 290 339
#     4  10  20  37  59  82 116 150 194 240 289 346
#     4  10  19  36  57  80 116 153 188 243 282 353
#
# _framework density 24.849202999999999
#
# number of rings (size 3 to 8) (size 9 to 14) (size 15 to 20)
#    0.000    2.400    0.000    1.600    1.867    5.333 
#    0.000    4.000    0.000    0.000    0.000    0.000 
#    0.000    0.000    0.000    0.000    0.000    0.000 
#
# Total GULP energy -83529.698625 kJ/mol
# GULP energy per Si atom -5568.646575 kJ/mol
# Density = 2.479264 g / cm^3
# Si number density = 24.849203 Si / 1000 Ang^3
#
#
#
# Elastic Constant Matrix: (Units=GPa)
#
#
# Indices 1 2 3 4 5 6 
#
# 1 92.6282 14.7414 19.5610 4.9615 9.6453 -9.5175
# 2 14.7414 69.6274 16.2857 12.2697 1.4375 -5.7202
# 3 19.5610 16.2857 111.0820 14.3573 5.8498 -9.1066
# 4 4.9615 12.2697 14.3573 35.2333 -8.7916 -3.1147
# 5 9.6453 1.4375 5.8498 -8.7916 39.3290 3.9285
# 6 -9.5175 -5.7202 -9.1066 -3.1147 3.9285 27.9241
#
#
#
# Elastic Compliance Matrix: (Units=1/GPa)
#
#
# Indices 1 2 3 4 5 6 
#
# 1 0.012122 -0.001702 -0.001261 -0.001105 -0.003342 0.003718
# 2 -0.001702 0.016072 -0.001177 -0.005033 -0.001315 0.001952
# 3 -0.001261 -0.001177 0.010236 -0.003933 -0.002304 0.002553
# 4 -0.001105 -0.005033 -0.003933 0.034045 0.008662 -0.000112
# 5 -0.003342 -0.001315 -0.002304 0.008662 0.029101 -0.005288
# 6 0.003718 0.001952 0.002553 -0.000112 -0.005288 0.039042
#
#
# Mechanical properties :
#
#
# Convention : Reuss Voigt Hill
#
# Bulk Modulus (GPa) = 33.16769 41.61263 37.39016
# Shear Modulus (GPa) = 31.45645 35.34727 33.40186
#
# Velocity S-wave (km/s) = 3.56180 3.77566 3.67029
# Velocity P-wave (km/s) = 5.50380 5.98246 5.74812
#
# Compressibility (1/GPa) = 0.03014982
#
# Stress axis : x y z
#
# Youngs Moduli (GPa) = 82.49205 62.21884 97.69480
#
# Poissons Ratio (x) = 0.10591 0.12324
# Poissons Ratio (y) = 0.14042 0.11496
# Poissons Ratio (z) = 0.10406 0.07322
#
# Static dielectric constant tensor:
#      x y z
#    x 1.949370 0.009120 -0.039480 
#    y 0.009120 1.848040 -0.135970 
#    z -0.039480 -0.135970 2.035310 
# 
# From -- ./inp_files/134311.got.cif
#   From: 2010.05.17/outbox.cif.g08.bks.cpg/sg2_68_cif.got.tgz:134311.got - 2010.06.03 11:33:40.
