data_PCOD9086948
_publ_section_title
;
Structure prediction by ZEFSAII (Michael W. Deem and Ramdas Pophale) SiO2 
 PCOD9086948
Probable space group: P -1
;
_chemical_formula_sum "Si O2"
_cell_formula_units_Z 14
_cell_length_a 8.696353
_cell_length_b 8.609004
_cell_length_c 16.813157
_cell_angle_alpha 58.582425
_cell_angle_beta 42.374362
_cell_angle_gamma 87.482184
_cell_volume 582.868536
_symmetry_space_group_name_H-M "P -1"
_symmetry_group_IT_number 2
_symmetry_cell_setting 'triclinic'
loop_
_space_group_symop_operation_xyz
x,y,z
-x,-y,-z
loop_
_atom_site_type_symbol
_atom_site_label
_atom_site_fract_x
_atom_site_fract_y
_atom_site_fract_z
Si Si1 0.580505 0.908772 0.236091
Si Si2 0.742373 0.954207 0.324389
Si Si3 0.522538 0.168480 0.878742
Si Si4 0.470020 0.665803 0.019092
Si Si5 0.094996 0.748228 0.661754
Si Si6 0.140479 0.991659 0.352105
Si Si7 0.156240 0.376319 0.547274
O O1 0.805840 0.025917 0.189151
O O2 0.652955 0.940855 0.105887
O O3 0.404292 0.638598 0.386533
O O4 0.366810 0.977346 0.315229
O O5 0.405523 0.828800 0.499007
O O6 0.805312 0.772927 0.367051
O O7 0.881879 0.149872 0.286033
O O8 0.854217 0.333808 0.684010
O O9 0.446969 0.301827 0.929155
O O10 0.500000 0.000000 0.000000
O O11 0.673086 0.893184 0.831305
O O12 0.500000 0.500000 0.000000
O O13 0.128680 0.522779 0.184791
O O14 0.970198 0.858346 0.626390
O O15 0.874355 0.743560 0.493565
#
# Coordination Sequence:
#
# PCOD9086948 Si02
#       7
#     2   2   2   2   2   2   2
#     4  11  21  35  60  94 122 149 206 254 297 349
#     4  10  21  39  57  88 125 163 198 243 298 370
#     4  11  20  37  64  87 119 155 202 253 302 346
#     4  10  19  36  61  85 117 158 198 245 302 353
#     4   9  20  37  62  82 120 170 197 236 311 357
#     4   9  18  35  59  88 115 152 204 254 287 348
#     4  10  20  36  62  86 124 155 197 248 302 354
#
# _framework density 24.019138000000002
#
# number of rings (size 3 to 8) (size 9 to 14) (size 15 to 20)
#    0.000    2.000    2.857    3.000    0.000    0.571 
#    0.000    8.571    3.143    0.000    0.000    0.000 
#    0.000    0.000    0.000    0.000    0.000    0.000 
#
# Total GULP energy -78042.467430 kJ/mol
# GULP energy per Si atom -5574.461959 kJ/mol
# Density = 2.396447 g / cm^3
# Si number density = 24.019138 Si / 1000 Ang^3
#
#
#
# Elastic Constant Matrix: (Units=GPa)
#
#
# Indices 1 2 3 4 5 6 
#
# 1 131.2172 30.1231 21.2262 3.1068 17.1719 4.9655
# 2 30.1231 79.0449 34.4223 12.1745 12.6038 4.6953
# 3 21.2262 34.4223 52.1608 5.2762 2.6780 14.4077
# 4 3.1068 12.1745 5.2762 43.3889 10.1014 1.6576
# 5 17.1719 12.6038 2.6780 10.1014 42.4295 4.5154
# 6 4.9655 4.6953 14.4077 1.6576 4.5154 36.8227
#
#
#
# Elastic Compliance Matrix: (Units=1/GPa)
#
#
# Indices 1 2 3 4 5 6 
#
# 1 0.008825 -0.002052 -0.002252 0.000921 -0.003070 0.000288
# 2 -0.002052 0.019849 -0.012667 -0.003106 -0.003880 0.003318
# 3 -0.002252 -0.012667 0.031282 -0.000606 0.003992 -0.010783
# 4 0.000921 -0.003106 -0.000606 0.025185 -0.005412 0.000039
# 5 -0.003070 -0.003880 0.003992 -0.005412 0.027401 -0.003770
# 6 0.000288 0.003318 -0.010783 0.000039 -0.003770 0.031375
#
#
# Mechanical properties :
#
#
# Convention : Reuss Voigt Hill
#
# Bulk Modulus (GPa) = 38.44056 48.21845 43.32950
# Shear Modulus (GPa) = 26.80504 36.30496 31.55500
#
# Velocity S-wave (km/s) = 3.34426 3.89202 3.62849
# Velocity P-wave (km/s) = 5.56336 6.34946 5.96937
#
# Compressibility (1/GPa) = 0.02601419
#
# Stress axis : x y z
#
# Youngs Moduli (GPa) = 113.30912 50.38003 31.96705
#
# Poissons Ratio (x) = 0.10337 0.07200
# Poissons Ratio (y) = 0.23250 0.40493
# Poissons Ratio (z) = 0.25522 0.63816
#
# Static dielectric constant tensor:
#      x y z
#    x 1.971560 -0.011610 0.036280 
#    y -0.011610 2.093390 0.010080 
#    z 0.036280 0.010080 2.022000 
# 
# From -- ./inp_files/214013.got.cif
#   From: 2010.05.17/outbox.cif.g08.bks.cpg/sg2_108_cif.got.tgz:214013.got - 2010.06.03 11:33:40.
