data_PCOD9086954
_publ_section_title
;
Structure prediction by ZEFSAII (Michael W. Deem and Ramdas Pophale) SiO2 
 PCOD9086954
Probable space group: P -1
;
_chemical_formula_sum "Si O2"
_cell_formula_units_Z 16
_cell_length_a 9.030362
_cell_length_b 17.918707
_cell_length_c 8.525572
_cell_angle_alpha 44.608669
_cell_angle_beta 48.374379
_cell_angle_gamma 62.094285
_cell_volume 724.147165
_symmetry_space_group_name_H-M "P -1"
_symmetry_group_IT_number 2
_symmetry_cell_setting 'triclinic'
loop_
_space_group_symop_operation_xyz
x,y,z
-x,-y,-z
loop_
_atom_site_type_symbol
_atom_site_label
_atom_site_fract_x
_atom_site_fract_y
_atom_site_fract_z
Si Si1 0.044632 0.223162 0.829617
Si Si2 0.970375 0.877072 0.670301
Si Si3 0.345382 0.855616 0.245414
Si Si4 0.627437 0.729860 0.056700
Si Si5 0.868756 0.578217 0.326114
Si Si6 0.405467 0.076922 0.721327
Si Si7 0.309967 0.564109 0.092334
Si Si8 0.612218 0.224451 0.134364
O O1 0.126020 0.339019 0.651655
O O2 0.208365 0.149169 0.747600
O O3 0.997430 0.175630 0.105750
O O4 0.828862 0.221354 0.905686
O O5 0.125575 0.841863 0.484504
O O6 0.755359 0.838380 0.826632
O O7 0.000000 0.000000 0.500000
O O8 0.476562 0.889963 0.252878
O O9 0.438531 0.749634 0.269821
O O10 0.354598 0.953188 0.968495
O O11 0.550532 0.728109 0.938269
O O12 0.758890 0.636042 0.174629
O O13 0.750682 0.477618 0.628118
O O14 0.099124 0.554218 0.165371
O O15 0.539418 0.113623 0.425907
O O16 0.500000 0.500000 0.000000
O O17 0.364472 0.688198 0.875656
#
# Coordination Sequence:
#
# PCOD9086954 Si02
#       8
#     2   2   2   2   2   2   2   2
#     4  10  19  36  61  85 122 155 203 254 292 354
#     4  11  19  37  61  86 113 165 218 248 287 350
#     4  11  21  35  63  88 114 170 214 246 294 357
#     4  11  25  40  57  93 132 158 198 256 309 358
#     4   9  20  39  62  89 118 152 197 248 299 368
#     4  11  20  36  61  89 116 163 217 246 286 361
#     4  10  21  40  69  92 110 155 207 246 303 376
#     4  11  25  39  59  91 129 159 193 261 319 347
#
# _framework density 22.094957000000001
#
# number of rings (size 3 to 8) (size 9 to 14) (size 15 to 20)
#    0.000    1.500    5.000    1.500    0.000    2.000 
#    0.000    1.875    0.000    0.000    0.000    0.000 
#    0.000    0.000    0.000    0.000    0.000    0.000 
#
# Total GULP energy -89349.036024 kJ/mol
# GULP energy per Si atom -5584.314752 kJ/mol
# Density = 2.204467 g / cm^3
# Si number density = 22.094957 Si / 1000 Ang^3
#
#
#
# Elastic Constant Matrix: (Units=GPa)
#
#
# Indices 1 2 3 4 5 6 
#
# 1 86.2504 10.0377 19.0759 2.8074 2.6534 -24.6303
# 2 10.0377 59.2476 0.7760 9.7524 -13.4282 -31.2926
# 3 19.0759 0.7760 73.2738 -3.1496 -4.6757 -3.0672
# 4 2.8074 9.7524 -3.1496 34.2636 -10.4248 -8.2832
# 5 2.6534 -13.4282 -4.6757 -10.4248 20.0781 4.2443
# 6 -24.6303 -31.2926 -3.0672 -8.2832 4.2443 29.7591
#
#
#
# Elastic Compliance Matrix: (Units=1/GPa)
#
#
# Indices 1 2 3 4 5 6 
#
# 1 0.018905 0.010461 -0.003959 0.001124 -0.001499 0.026766
# 2 0.010461 0.052359 0.001169 0.006783 0.024267 0.062263
# 3 -0.003959 0.001169 0.015211 0.003294 0.006666 -0.000514
# 4 0.001124 0.006783 0.003294 0.037826 0.021439 0.015873
# 5 -0.001499 0.024267 0.006666 0.021439 0.074629 0.020288
# 6 0.026766 0.062263 -0.000514 0.015873 0.020288 0.122698
#
#
# Mechanical properties :
#
#
# Convention : Reuss Voigt Hill
#
# Bulk Modulus (GPa) = 9.82164 30.95012 20.38588
# Shear Modulus (GPa) = 14.69605 29.41232 22.05418
#
# Velocity S-wave (km/s) = 2.58181 3.65249 3.16279
# Velocity P-wave (km/s) = 3.65274 5.64143 4.75228
#
# Compressibility (1/GPa) = 0.10181595
#
# Stress axis : x y z
#
# Youngs Moduli (GPa) = 52.89516 19.09876 65.74067
#
# Poissons Ratio (x) = -0.19979 0.26030
# Poissons Ratio (y) = -0.55333 -0.07682
# Poissons Ratio (z) = 0.20944 -0.02232
#
# Static dielectric constant tensor:
#      x y z
#    x 1.949370 -0.161920 0.177830 
#    y -0.161920 2.119630 -0.356870 
#    z 0.177830 -0.356870 2.253790 
# 
# From -- ./inp_files/201777.got.cif
#   From: 2010.05.17/outbox.cif.g08.bks.cpg/sg2_101_cif.got.tgz:201777.got - 2010.06.03 11:33:40.
