data_PCOD9086561
_publ_section_title
;
Structure prediction by ZEFSAII (Michael W. Deem and Ramdas Pophale) SiO2 
 PCOD9086561
Probable space group: P -1
;
_chemical_formula_sum "Si O2"
_cell_formula_units_Z 13
_cell_length_a 6.485113
_cell_length_b 14.390197
_cell_length_c 15.745918
_cell_angle_alpha 26.243441
_cell_angle_beta 125.707738
_cell_angle_gamma 116.556323
_cell_volume 515.527102
_symmetry_space_group_name_H-M "P -1"
_symmetry_group_IT_number 2
_symmetry_cell_setting 'triclinic'
loop_
_space_group_symop_operation_xyz
x,y,z
-x,-y,-z
loop_
_atom_site_type_symbol
_atom_site_label
_atom_site_fract_x
_atom_site_fract_y
_atom_site_fract_z
Si Si1 0.865909 0.342212 0.836206
Si Si2 0.000000 0.000000 0.000000
Si Si3 0.777691 0.463308 0.140375
Si Si4 0.239337 0.933547 0.410146
Si Si5 0.167209 0.165419 0.370026
Si Si6 0.909515 0.691830 0.441603
Si Si7 0.646648 0.706840 0.185134
O O1 0.785418 0.583611 0.577664
O O2 0.645428 0.314392 0.871420
O O3 0.140913 0.344051 0.945634
O O4 0.875196 0.180794 0.892738
O O5 0.724035 0.915243 0.993658
O O6 0.767474 0.273045 0.361285
O O7 0.007581 0.383384 0.193299
O O8 0.500000 0.500000 0.000000
O O9 0.533226 0.897939 0.476556
O O10 0.021567 0.902524 0.315998
O O11 0.182501 0.132109 0.299285
O O12 0.000000 0.000000 0.500000
O O13 0.732053 0.719317 0.293856
O O14 0.163288 0.507630 0.628604
#
# Coordination Sequence:
#
# PCOD9086561 Si02
#       7
#     2   1   2   2   2   2   2
#     4  10  20  38  59  79 117 152 187 236 282 338
#     4  10  22  38  52  84 116 150 182 232 288 336
#     4  10  21  37  57  83 114 154 193 230 287 339
#     4   9  18  36  57  82 114 143 191 241 282 333
#     4   9  18  35  56  78 111 149 186 239 279 330
#     4   9  19  34  59  87 105 145 192 236 278 340
#     4  10  19  36  59  83 115 145 190 230 289 345
#
# _framework density 25.216908
#
# number of rings (size 3 to 8) (size 9 to 14) (size 15 to 20)
#    0.000    2.462    0.000    1.846    0.000    0.615 
#   11.077    0.000    0.000    0.000    0.000    0.000 
#    0.000    0.000    0.000    0.000    0.000    0.000 
#
# Total GULP energy -72441.302386 kJ/mol
# GULP energy per Si atom -5572.407876 kJ/mol
# Density = 2.515951 g / cm^3
# Si number density = 25.216908 Si / 1000 Ang^3
#
#
#
# Elastic Constant Matrix: (Units=GPa)
#
#
# Indices 1 2 3 4 5 6 
#
# 1 121.0185 25.6462 16.3337 -10.1811 24.5020 31.9507
# 2 25.6462 149.4811 26.6705 -17.6772 20.2808 20.8899
# 3 16.3337 26.6705 58.2014 -3.9734 15.4389 3.2316
# 4 -10.1811 -17.6772 -3.9734 35.0284 -1.6787 -4.2413
# 5 24.5020 20.2808 15.4389 -1.6787 30.3364 -3.0785
# 6 31.9507 20.8899 3.2316 -4.2413 -3.0785 39.4020
#
#
#
# Elastic Compliance Matrix: (Units=1/GPa)
#
#
# Indices 1 2 3 4 5 6 
#
# 1 0.014548 0.001635 -0.000197 0.002735 -0.013956 -0.013444
# 2 0.001635 0.008983 -0.002239 0.003710 -0.006592 -0.006020
# 3 -0.000197 -0.002239 0.020738 0.000616 -0.008964 -0.000988
# 4 0.002735 0.003710 0.000616 0.030981 -0.003406 -0.001166
# 5 -0.013956 -0.006592 -0.008964 -0.003406 0.054993 0.019477
# 6 -0.013444 -0.006020 -0.000988 -0.001166 0.019477 0.040950
#
#
# Mechanical properties :
#
#
# Convention : Reuss Voigt Hill
#
# Bulk Modulus (GPa) = 23.43732 51.77797 37.60765
# Shear Modulus (GPa) = 26.73549 38.29007 32.51278
#
# Velocity S-wave (km/s) = 3.25964 3.90093 3.59461
# Velocity P-wave (km/s) = 4.84576 6.39275 5.67224
#
# Compressibility (1/GPa) = 0.04266700
#
# Stress axis : x y z
#
# Youngs Moduli (GPa) = 68.73648 111.31830 48.22096
#
# Poissons Ratio (x) = -0.18197 0.00949
# Poissons Ratio (y) = -0.11236 0.10797
# Poissons Ratio (z) = 0.01352 0.24926
#
# Static dielectric constant tensor:
#      x y z
#    x 2.003210 -0.031170 -0.085340 
#    y -0.031170 2.016760 -0.019730 
#    z -0.085340 -0.019730 2.069070 
# 
# From -- ./inp_files/24822.got.cif
#   From: 2010.05.17/outbox.cif.g08.bks.cpg/sg2_13_cif.got.tgz:24822.got - 2010.06.03 11:33:40.
