data_PCOD9086379
_publ_section_title
;
Structure prediction by ZEFSAII (Michael W. Deem and Ramdas Pophale) SiO2 
 PCOD9086379
Probable space group: P -1
;
_chemical_formula_sum "Si O2"
_cell_formula_units_Z 14
_cell_length_a 9.930460
_cell_length_b 16.534139
_cell_length_c 8.080897
_cell_angle_alpha 33.577636
_cell_angle_beta 63.089600
_cell_angle_gamma 65.071995
_cell_volume 651.698255
_symmetry_space_group_name_H-M "P -1"
_symmetry_group_IT_number 2
_symmetry_cell_setting 'triclinic'
loop_
_space_group_symop_operation_xyz
x,y,z
-x,-y,-z
loop_
_atom_site_type_symbol
_atom_site_label
_atom_site_fract_x
_atom_site_fract_y
_atom_site_fract_z
Si Si1 0.665278 0.423471 0.494104
Si Si2 0.086081 0.871917 0.565579
Si Si3 0.356105 0.865453 0.200897
Si Si4 0.672860 0.323417 0.016128
Si Si5 0.416273 0.160687 0.570171
Si Si6 0.910881 0.609259 0.118961
Si Si7 0.803411 0.602142 0.566893
O O1 0.500000 0.500000 0.500000
O O2 0.656946 0.297090 0.581514
O O3 0.782528 0.543618 0.192626
O O4 0.723025 0.343137 0.767501
O O5 0.196220 0.921978 0.277128
O O6 0.201304 0.778840 0.783198
O O7 0.000000 0.000000 0.500000
O O8 0.971611 0.756564 0.764690
O O9 0.485093 0.847904 0.299817
O O10 0.395654 0.990439 0.836134
O O11 0.516450 0.249103 0.240220
O O12 0.676137 0.484945 0.819709
O O13 0.262884 0.258426 0.531772
O O14 0.845609 0.641701 0.286651
O O15 0.051323 0.486619 0.279098
#
# Coordination Sequence:
#
# PCOD9086379 Si02
#       7
#     2   2   2   2   2   2   2
#     4  11  23  39  56  82 118 148 180 234 287 330
#     4  10  20  38  61  84 112 149 189 232 274 325
#     4  10  22  35  55  85 113 147 192 227 274 340
#     4   9  20  35  58  84 109 145 191 225 274 342
#     4  10  19  36  58  80 110 147 190 236 273 322
#     4   9  19  33  54  80 110 144 186 228 275 332
#     4   9  16  32  56  81 104 141 189 233 271 320
#
# _framework density 21.482336
#
# number of rings (size 3 to 8) (size 9 to 14) (size 15 to 20)
#    0.000    2.286    0.000    3.857    0.000    5.714 
#    0.000    2.857    0.000    0.000    0.000    0.000 
#    0.000    0.000    0.000    0.000    0.000    0.000 
#
# Total GULP energy -78191.747703 kJ/mol
# GULP energy per Si atom -5585.124836 kJ/mol
# Density = 2.143344 g / cm^3
# Si number density = 21.482336 Si / 1000 Ang^3
#
#
#
# Elastic Constant Matrix: (Units=GPa)
#
#
# Indices 1 2 3 4 5 6 
#
# 1 53.1791 12.4417 14.7552 -8.8362 -31.6154 -0.6137
# 2 12.4417 66.6095 -3.2547 -18.1505 -10.2451 -16.7938
# 3 14.7552 -3.2547 64.9873 -1.8971 -16.3624 -10.6807
# 4 -8.8362 -18.1505 -1.8971 24.3306 2.7609 -4.5629
# 5 -31.6154 -10.2451 -16.3624 2.7609 21.9747 5.8104
# 6 -0.6137 -16.7938 -10.6807 -4.5629 5.8104 24.9066
#
#
#
# Elastic Compliance Matrix: (Units=1/GPa)
#
#
# Indices 1 2 3 4 5 6 
#
# 1 0.279489 0.022662 0.044598 0.060598 0.452314 -0.053127
# 2 0.022662 0.034330 0.013707 0.034078 0.048024 0.024624
# 3 0.044598 0.013707 0.029857 0.019829 0.088685 0.006088
# 4 0.060598 0.034078 0.019829 0.083266 0.100842 0.024703
# 5 0.452314 0.048024 0.088685 0.100842 0.794580 -0.085336
# 6 -0.053127 0.024624 0.006088 0.024703 -0.085336 0.082488
#
#
# Mechanical properties :
#
#
# Convention : Reuss Voigt Hill
#
# Bulk Modulus (GPa) = 1.97780 25.85113 13.91447
# Shear Modulus (GPa) = 3.81501 24.96462 14.38982
#
# Velocity S-wave (km/s) = 1.33407 3.41266 2.59094
# Velocity P-wave (km/s) = 1.81539 5.25244 3.92961
#
# Compressibility (1/GPa) = 0.50561115
#
# Stress axis : x y z
#
# Youngs Moduli (GPa) = 3.57796 29.12876 33.49345
#
# Poissons Ratio (x) = -0.66013 -1.49375
# Poissons Ratio (y) = -0.08109 -0.45910
# Poissons Ratio (z) = -0.15957 -0.39927
#
# Static dielectric constant tensor:
#      x y z
#    x 1.807900 0.013820 -0.034750 
#    y 0.013820 1.768230 0.008160 
#    z -0.034750 0.008160 1.834250 
# 
# From -- ./inp_files/167445.got.cif
#   From: 2010.05.17/outbox.cif.g08.bks.cpg/sg2_84_cif.got.tgz:167445.got - 2010.06.03 11:33:40.
