data_PCOD9086826
_publ_section_title
;
Structure prediction by ZEFSAII (Michael W. Deem and Ramdas Pophale) SiO2 
 PCOD9086826
Probable space group: P -1
;
_chemical_formula_sum "Si O2"
_cell_formula_units_Z 16
_cell_length_a 9.528115
_cell_length_b 12.172725
_cell_length_c 8.690661
_cell_angle_alpha 48.546858
_cell_angle_beta 80.094688
_cell_angle_gamma 59.988688
_cell_volume 634.222239
_symmetry_space_group_name_H-M "P -1"
_symmetry_group_IT_number 2
_symmetry_cell_setting 'triclinic'
loop_
_space_group_symop_operation_xyz
x,y,z
-x,-y,-z
loop_
_atom_site_type_symbol
_atom_site_label
_atom_site_fract_x
_atom_site_fract_y
_atom_site_fract_z
Si Si1 0.318658 0.785247 0.110058
Si Si2 0.952112 0.016548 0.240116
Si Si3 0.083043 0.634099 0.980651
Si Si4 0.202864 0.542425 0.499704
Si Si5 0.223628 0.112908 0.389392
Si Si6 0.160374 0.332583 0.466083
Si Si7 0.657298 0.168717 0.606406
Si Si8 0.615264 0.502024 0.177035
O O1 0.274525 0.643551 0.302585
O O2 0.397952 0.815166 0.220187
O O3 0.448823 0.689227 0.035564
O O4 0.156742 0.955685 0.918074
O O5 0.933679 0.199780 0.092056
O O6 0.865013 0.980012 0.430815
O O7 0.148772 0.886427 0.345117
O O8 0.259463 0.541234 0.945634
O O9 0.923532 0.713590 0.824204
O O10 0.082213 0.508569 0.221232
O O11 0.239256 0.373490 0.556962
O O12 0.286834 0.497133 0.691201
O O13 0.003227 0.666889 0.446889
O O14 0.274526 0.180327 0.466807
O O15 0.338683 0.980276 0.358742
O O16 0.581864 0.346946 0.361005
#
# Coordination Sequence:
#
# PCOD9086826 Si02
#       8
#     2   2   2   2   2   2   2   2
#     4  11  23  39  63  96 125 167 207 257 307 374
#     4  11  20  38  62  95 125 154 215 267 304 350
#     4  11  20  39  62  98 121 164 210 257 308 365
#     4  10  21  39  58  93 126 161 210 251 310 359
#     4  11  20  37  61  92 127 157 201 266 317 348
#     4  11  22  37  64  94 130 159 207 262 303 375
#     4  10  19  36  60  89 123 159 203 264 304 348
#     4  11  21  40  66  89 130 162 212 254 305 376
#
# _framework density 25.227748999999999
#
# number of rings (size 3 to 8) (size 9 to 14) (size 15 to 20)
#    0.000    1.250    5.000    3.750    0.000    0.500 
#    2.250    0.000    0.000    8.250    0.000    0.000 
#    0.000    0.000    0.000    0.000    0.000    0.000 
#
# Total GULP energy -89522.218609 kJ/mol
# GULP energy per Si atom -5595.138663 kJ/mol
# Density = 2.517033 g / cm^3
# Si number density = 25.227749 Si / 1000 Ang^3
#
#
#
# Elastic Constant Matrix: (Units=GPa)
#
#
# Indices 1 2 3 4 5 6 
#
# 1 49.5484 22.9419 15.2994 -4.3291 18.5681 0.3872
# 2 22.9419 159.7720 5.7605 -7.3378 5.4677 2.3248
# 3 15.2994 5.7605 44.7777 -7.5419 3.8591 -11.5168
# 4 -4.3291 -7.3378 -7.5419 32.1276 3.2466 1.9385
# 5 18.5681 5.4677 3.8591 3.2466 22.8674 0.7479
# 6 0.3872 2.3248 -11.5168 1.9385 0.7479 43.8150
#
#
#
# Elastic Compliance Matrix: (Units=1/GPa)
#
#
# Indices 1 2 3 4 5 6 
#
# 1 0.035011 -0.003546 -0.009008 0.004621 -0.026644 -0.002239
# 2 -0.003546 0.006772 0.000350 0.001062 0.001060 -0.000301
# 3 -0.009008 0.000350 0.027876 0.004816 0.001608 0.007148
# 4 0.004621 0.001062 0.004816 0.034108 -0.009656 -0.000175
# 5 -0.026644 0.001060 0.001608 -0.009656 0.066214 -0.000101
# 6 -0.002239 -0.000301 0.007148 -0.000175 -0.000101 0.024747
#
#
# Mechanical properties :
#
#
# Convention : Reuss Voigt Hill
#
# Bulk Modulus (GPa) = 22.09757 38.01130 30.05443
# Shear Modulus (GPa) = 21.34742 33.76841 27.55791
#
# Velocity S-wave (km/s) = 2.91209 3.66258 3.30868
# Velocity P-wave (km/s) = 4.48166 5.74334 5.15127
#
# Compressibility (1/GPa) = 0.04525385
#
# Stress axis : x y z
#
# Youngs Moduli (GPa) = 28.56214 147.65918 35.87296
#
# Poissons Ratio (x) = 0.52360 0.32313
# Poissons Ratio (y) = 0.10128 -0.01257
# Poissons Ratio (z) = 0.25727 -0.05175
#
# Static dielectric constant tensor:
#      x y z
#    x 2.052320 0.002410 0.047100 
#    y 0.002410 2.103850 0.028780 
#    z 0.047100 0.028780 1.952670 
# 
# From -- ./inp_files/261601.got.cif
#   From: 2010.05.17/outbox.cif.g08.bks.cpg/sg2_131_cif.got.tgz:261601.got - 2010.06.03 11:33:40.
