data_PCOD9086776
_publ_section_title
;
Structure prediction by ZEFSAII (Michael W. Deem and Ramdas Pophale) SiO2 
 PCOD9086776
Probable space group: P -1
;
_chemical_formula_sum "Si O2"
_cell_formula_units_Z 14
_cell_length_a 12.275938
_cell_length_b 19.509150
_cell_length_c 9.128107
_cell_angle_alpha 38.241210
_cell_angle_beta 49.053224
_cell_angle_gamma 26.522969
_cell_volume 595.308911
_symmetry_space_group_name_H-M "P -1"
_symmetry_group_IT_number 2
_symmetry_cell_setting 'triclinic'
loop_
_space_group_symop_operation_xyz
x,y,z
-x,-y,-z
loop_
_atom_site_type_symbol
_atom_site_label
_atom_site_fract_x
_atom_site_fract_y
_atom_site_fract_z
Si Si1 0.997668 0.871613 0.183129
Si Si2 0.711317 0.380167 0.390963
Si Si3 0.233687 0.358639 0.749513
Si Si4 0.602775 0.039917 0.751351
Si Si5 0.520560 0.031991 0.266533
Si Si6 0.658944 0.486091 0.690401
Si Si7 0.877118 0.390094 0.969865
O O1 0.047984 0.788868 0.439283
O O2 0.213987 0.706992 0.153247
O O3 0.758039 0.964241 0.168048
O O4 0.000000 0.000000 0.000000
O O5 0.500000 0.500000 0.500000
O O6 0.619766 0.348517 0.403295
O O7 0.745034 0.466851 0.114989
O O8 0.464125 0.220266 0.661695
O O9 0.187556 0.517264 0.533278
O O10 0.011139 0.424339 0.772355
O O11 0.314916 0.240361 0.021295
O O12 0.490910 0.075740 0.634637
O O13 0.897573 0.841152 0.830632
O O14 0.500000 0.000000 0.000000
O O15 0.500000 0.000000 0.500000
O O16 0.708547 0.469223 0.846323
#
# Coordination Sequence:
#
# PCOD9086776 Si02
#       7
#     2   2   2   2   2   2   2
#     4  11  22  40  59  79 115 163 199 240 297 354
#     4  10  23  40  56  84 124 158 199 248 291 353
#     4  10  20  37  61  93 122 148 195 257 301 348
#     4   8  17  34  58  87 115 145 192 247 292 347
#     4  10  19  36  60  87 116 153 196 238 291 357
#     4  11  22  39  60  86 120 159 199 248 301 354
#     4  10  19  38  63  88 117 158 199 242 300 361
#
# _framework density 23.517202000000001
#
# number of rings (size 3 to 8) (size 9 to 14) (size 15 to 20)
#    0.000    2.286    0.000    6.000    0.000    0.000 
#    0.000   22.143    0.000    0.000    0.000    0.000 
#    0.000    0.000    0.000    0.000    0.000    0.000 
#
# Total GULP energy -77962.910686 kJ/mol
# GULP energy per Si atom -5568.779335 kJ/mol
# Density = 2.346368 g / cm^3
# Si number density = 23.517202 Si / 1000 Ang^3
#
#
#
# Elastic Constant Matrix: (Units=GPa)
#
#
# Indices 1 2 3 4 5 6 
#
# 1 100.9163 11.5352 29.1763 -12.3947 23.3682 -22.1566
# 2 11.5352 49.0357 17.3205 10.0130 -1.0482 -8.0102
# 3 29.1763 17.3205 94.9202 11.0265 25.5992 14.0387
# 4 -12.3947 10.0130 11.0265 25.6694 2.0003 0.4450
# 5 23.3682 -1.0482 25.5992 2.0003 53.1339 -1.6337
# 6 -22.1566 -8.0102 14.0387 0.4450 -1.6337 37.0711
#
#
#
# Elastic Compliance Matrix: (Units=1/GPa)
#
#
# Indices 1 2 3 4 5 6 
#
# 1 0.017436 -0.002262 -0.007008 0.012445 -0.004428 0.012242
# 2 -0.002262 0.025801 -0.005089 -0.009434 0.004509 0.006462
# 3 -0.007008 -0.005089 0.017954 -0.008453 -0.005726 -0.012238
# 4 0.012445 -0.009434 -0.008453 0.052400 -0.003319 0.007825
# 5 -0.004428 0.004509 -0.005726 -0.003319 0.023789 0.001584
# 6 0.012242 0.006462 -0.012238 0.007825 0.001584 0.040299
#
#
# Mechanical properties :
#
#
# Convention : Reuss Voigt Hill
#
# Bulk Modulus (GPa) = 30.79508 40.10405 35.44957
# Shear Modulus (GPa) = 23.01790 35.63089 29.32439
#
# Velocity S-wave (km/s) = 3.13192 3.89665 3.53503
# Velocity P-wave (km/s) = 5.11876 6.11026 5.63635
#
# Compressibility (1/GPa) = 0.03247272
#
# Stress axis : x y z
#
# Youngs Moduli (GPa) = 57.35389 38.75761 55.69695
#
# Poissons Ratio (x) = 0.08768 0.39035
# Poissons Ratio (y) = 0.12975 0.28342
# Poissons Ratio (z) = 0.40196 0.19723
#
# Static dielectric constant tensor:
#      x y z
#    x 1.949240 0.018750 -0.048330 
#    y 0.018750 2.100620 -0.061680 
#    z -0.048330 -0.061680 1.934790 
# 
# From -- ./inp_files/282687.got.cif
#   From: 2010.05.17/outbox.cif.g08.bks.cpg/sg2_142_cif.got.tgz:282687.got - 2010.06.03 11:33:40.
