data_PCOD9086493
_publ_section_title
;
Structure prediction by ZEFSAII (Michael W. Deem and Ramdas Pophale) SiO2 
 PCOD9086493
Probable space group: P -1
;
_chemical_formula_sum "Si O2"
_cell_formula_units_Z 14
_cell_length_a 8.090455
_cell_length_b 9.171376
_cell_length_c 12.665596
_cell_angle_alpha 46.462212
_cell_angle_beta 82.498787
_cell_angle_gamma 90.916872
_cell_volume 668.069764
_symmetry_space_group_name_H-M "P -1"
_symmetry_group_IT_number 2
_symmetry_cell_setting 'triclinic'
loop_
_space_group_symop_operation_xyz
x,y,z
-x,-y,-z
loop_
_atom_site_type_symbol
_atom_site_label
_atom_site_fract_x
_atom_site_fract_y
_atom_site_fract_z
Si Si1 0.638504 0.966492 0.420876
Si Si2 0.456810 0.847916 0.865203
Si Si3 0.698846 0.580120 0.723556
Si Si4 0.928397 0.844671 0.928970
Si Si5 0.340506 0.477992 0.927706
Si Si6 0.762468 0.137337 0.942754
Si Si7 0.996615 0.152382 0.324010
O O1 0.694922 0.749378 0.548741
O O2 0.500000 0.000000 0.500000
O O3 0.554213 0.986101 0.305002
O O4 0.794508 0.147454 0.335938
O O5 0.330491 0.650209 0.929679
O O6 0.617595 0.732977 0.917731
O O7 0.405354 0.926914 0.941939
O O8 0.508848 0.547299 0.807988
O O9 0.741687 0.362372 0.793252
O O10 0.852645 0.671096 0.743204
O O11 0.968488 0.900837 0.775050
O O12 0.813288 0.994472 0.918670
O O13 0.835506 0.611595 0.064399
O O14 0.094597 0.861831 0.978917
O O15 0.000000 0.000000 0.500000
#
# Coordination Sequence:
#
# PCOD9086493 Si02
#       7
#     2   2   2   2   2   2   2
#     4  11  21  36  60  88 122 153 192 250 298 348
#     4  10  19  36  58  90 116 153 198 247 297 345
#     4  10  22  39  58  95 119 153 203 243 301 347
#     4  11  22  39  62  87 122 159 199 241 300 349
#     4  10  21  35  62  89 118 152 201 256 285 349
#     4  10  23  38  60  88 120 162 198 241 294 359
#     4  10  22  38  61  90 118 154 195 249 297 348
#
# _framework density 20.955895000000002
#
# number of rings (size 3 to 8) (size 9 to 14) (size 15 to 20)
#    0.000    1.714    2.857    2.571    4.000    3.429 
#    0.000    2.857    0.000    1.714    0.000    0.000 
#    0.000    0.000    0.000    0.000    0.000    0.000 
#
# Total GULP energy -77941.950437 kJ/mol
# GULP energy per Si atom -5567.282174 kJ/mol
# Density = 2.090820 g / cm^3
# Si number density = 20.955895 Si / 1000 Ang^3
#
#
#
# Elastic Constant Matrix: (Units=GPa)
#
#
# Indices 1 2 3 4 5 6 
#
# 1 62.2367 14.0157 24.8556 13.8092 -19.9023 -4.5705
# 2 14.0157 108.8331 42.2305 16.1531 -9.4646 -13.5849
# 3 24.8556 42.2305 122.5346 0.9922 9.8675 -5.0539
# 4 13.8092 16.1531 0.9922 21.1026 -3.8970 2.4563
# 5 -19.9023 -9.4646 9.8675 -3.8970 45.5523 0.1654
# 6 -4.5705 -13.5849 -5.0539 2.4563 0.1654 36.0064
#
#
#
# Elastic Compliance Matrix: (Units=1/GPa)
#
#
# Indices 1 2 3 4 5 6 
#
# 1 0.026511 0.003841 -0.007347 -0.018232 0.012395 0.004970
# 2 0.003841 0.013875 -0.005596 -0.012682 0.004667 0.005781
# 3 -0.007347 -0.005596 0.011950 0.007580 -0.006306 -0.001855
# 4 -0.018232 -0.012682 0.007580 0.068747 -0.006323 -0.010696
# 5 0.012395 0.004667 -0.006306 -0.006323 0.029153 0.002747
# 6 0.004970 0.005781 -0.001855 -0.010696 0.002747 0.031041
#
#
# Mechanical properties :
#
#
# Convention : Reuss Voigt Hill
#
# Bulk Modulus (GPa) = 29.29788 50.64532 39.97160
# Shear Modulus (GPa) = 23.71282 34.69912 29.20597
#
# Velocity S-wave (km/s) = 3.36751 4.07359 3.73726
# Velocity P-wave (km/s) = 5.39734 6.80775 6.14316
#
# Compressibility (1/GPa) = 0.03413216
#
# Stress axis : x y z
#
# Youngs Moduli (GPa) = 37.72049 72.07367 83.68449
#
# Poissons Ratio (x) = -0.27684 0.61482
# Poissons Ratio (y) = -0.14488 0.46827
# Poissons Ratio (z) = 0.27713 0.40330
#
# Static dielectric constant tensor:
#      x y z
#    x 1.871150 0.038300 0.034130 
#    y 0.038300 1.741530 -0.013920 
#    z 0.034130 -0.013920 1.823170 
# 
# From -- ./inp_files/239374.got.cif
#   From: 2010.05.17/outbox.cif.g08.bks.cpg/sg2_120_cif.got.tgz:239374.got - 2010.06.03 11:33:40.
