data_PCOD9086606
_publ_section_title
;
Structure prediction by ZEFSAII (Michael W. Deem and Ramdas Pophale) SiO2 
 PCOD9086606
Probable space group: P -1
;
_chemical_formula_sum "Si O2"
_cell_formula_units_Z 14
_cell_length_a 8.163724
_cell_length_b 15.923099
_cell_length_c 5.122127
_cell_angle_alpha 113.591147
_cell_angle_beta 91.307236
_cell_angle_gamma 73.857134
_cell_volume 583.161490
_symmetry_space_group_name_H-M "P -1"
_symmetry_group_IT_number 2
_symmetry_cell_setting 'triclinic'
loop_
_space_group_symop_operation_xyz
x,y,z
-x,-y,-z
loop_
_atom_site_type_symbol
_atom_site_label
_atom_site_fract_x
_atom_site_fract_y
_atom_site_fract_z
Si Si1 0.677329 0.349130 0.904735
Si Si2 0.640090 0.733212 0.294158
Si Si3 0.828645 0.642162 0.701261
Si Si4 0.944628 0.150852 0.655805
Si Si5 0.771540 0.440702 0.496101
Si Si6 0.787922 0.003007 0.228682
Si Si7 0.308219 0.080705 0.385694
O O1 0.516222 0.309956 0.806209
O O2 0.832102 0.254467 0.861600
O O3 0.725780 0.395810 0.703247
O O4 0.654607 0.423301 0.233990
O O5 0.757503 0.672886 0.450228
O O6 0.585938 0.843387 0.525672
O O7 0.743645 0.722939 0.012050
O O8 0.770837 0.549755 0.667816
O O9 0.033028 0.611822 0.653558
O O10 0.028375 0.079127 0.809605
O O11 0.110048 0.150132 0.489850
O O12 0.830425 0.100160 0.416976
O O13 0.673406 0.977804 0.420159
O O14 0.702567 0.987355 0.938038
#
# Coordination Sequence:
#
# PCOD9086606 Si02
#       7
#     2   2   2   2   2   2   2
#     4  12  26  39  62  97 130 161 200 258 311 371
#     4  12  25  40  62  94 132 166 196 248 326 365
#     4  11  24  45  67  89 122 163 212 257 297 375
#     4   9  21  36  62  86 122 152 215 249 297 356
#     4  11  25  44  67  93 116 163 218 255 300 354
#     4   9  20  34  63  88 111 160 211 253 295 345
#     4  10  19  36  59  86 116 159 209 243 299 363
#
# _framework density 24.007075
#
# number of rings (size 3 to 8) (size 9 to 14) (size 15 to 20)
#    0.857    0.571    0.000    5.571    4.000    5.714 
#    0.000    1.429    0.000    0.000    0.000    0.000 
#    0.000    0.000    0.000    0.000    0.000    0.000 
#
# Total GULP energy -78372.076127 kJ/mol
# GULP energy per Si atom -5598.005438 kJ/mol
# Density = 2.395243 g / cm^3
# Si number density = 24.007075 Si / 1000 Ang^3
#
#
#
# Elastic Constant Matrix: (Units=GPa)
#
#
# Indices 1 2 3 4 5 6 
#
# 1 -107.1057 -56.4153 -210.1675 100.0121 -140.8221 74.4846
# 2 -56.4153 37.0093 -64.6955 46.6745 -47.2227 37.2438
# 3 -210.1675 -64.6955 -131.3324 107.4700 -149.7155 72.1065
# 4 100.0121 46.6745 107.4700 -4.2572 76.3609 -21.2953
# 5 -140.8221 -47.2227 -149.7155 76.3609 -81.1826 48.9548
# 6 74.4846 37.2438 72.1065 -21.2953 48.9548 7.2904
#
#
#
# Elastic Compliance Matrix: (Units=1/GPa)
#
#
# Indices 1 2 3 4 5 6 
#
# 1 0.009445 -0.003216 -0.001877 0.003708 -0.007549 0.000023
# 2 -0.003216 0.018600 -0.002835 -0.001453 -0.004855 -0.005764
# 3 -0.001877 -0.002835 0.008935 0.002568 -0.007452 0.002828
# 4 0.003708 -0.001453 0.002568 0.022450 0.003299 -0.012430
# 5 -0.007549 -0.004855 -0.007452 0.003299 0.026176 0.009500
# 6 0.000023 -0.005764 0.002828 -0.012430 0.009500 0.038300
#
#
# Mechanical properties :
#
#
# Convention : Reuss Voigt Hill
#
# Bulk Modulus (GPa) = 47.34067 -95.99836 -24.32884
# Shear Modulus (GPa) = 34.05915 -6.97325 13.54295
#
# Velocity S-wave (km/s) = 3.77067 -1.70616 2.37770
# Velocity P-wave (km/s) = 6.22250 6.62990 1.61804
#
# Compressibility (1/GPa) = 0.02112349
#
# Stress axis : x y z
#
# Youngs Moduli (GPa) = 105.87914 53.76277 111.92111
#
# Poissons Ratio (x) = 0.17291 0.21008
# Poissons Ratio (y) = 0.34052 0.31730
# Poissons Ratio (z) = 0.19874 0.15242
#
# Static dielectric constant tensor:
#      x y z
#    x 1.985700 -0.026280 -0.023170 
#    y -0.026280 1.868790 0.012900 
#    z -0.023170 0.012900 1.847850 
# 
# From -- ./inp_files/45718.got.cif
#   From: 2010.05.17/outbox.cif.g08.bks.cpg/sg2_23_cif.got.tgz:45718.got - 2010.06.03 11:33:40.
