data_PCOD9086120
_publ_section_title
;
Structure prediction by ZEFSAII (Michael W. Deem and Ramdas Pophale) SiO2 
 PCOD9086120
Probable space group: P -1
;
_chemical_formula_sum "Si O2"
_cell_formula_units_Z 16
_cell_length_a 15.323116
_cell_length_b 17.216370
_cell_length_c 11.464861
_cell_angle_alpha 62.085314
_cell_angle_beta 27.570345
_cell_angle_gamma 44.304182
_cell_volume 838.612425
_symmetry_space_group_name_H-M "P -1"
_symmetry_group_IT_number 2
_symmetry_cell_setting 'triclinic'
loop_
_space_group_symop_operation_xyz
x,y,z
-x,-y,-z
loop_
_atom_site_type_symbol
_atom_site_label
_atom_site_fract_x
_atom_site_fract_y
_atom_site_fract_z
Si Si1 0.149247 0.593937 0.226225
Si Si2 0.510157 0.790201 0.820499
Si Si3 0.868575 0.944300 0.833456
Si Si4 0.875963 0.617603 0.916168
Si Si5 0.668625 0.509139 0.162595
Si Si6 0.948249 0.311849 0.159010
Si Si7 0.398617 0.412646 0.283475
Si Si8 0.590554 0.158286 0.844905
O O1 0.238368 0.510225 0.293986
O O2 0.820491 0.720640 0.520238
O O3 0.231216 0.510910 0.072703
O O4 0.333160 0.619134 0.987879
O O5 0.517656 0.713419 0.767888
O O6 0.427210 0.781567 0.053979
O O7 0.289510 0.944366 0.959320
O O8 0.896843 0.833293 0.908390
O O9 0.170067 0.882345 0.490579
O O10 0.689693 0.030044 0.868324
O O11 0.891958 0.663395 0.985754
O O12 0.180011 0.492517 0.591772
O O13 0.715370 0.580455 0.132908
O O14 0.699686 0.738257 0.950303
O O15 0.855999 0.369602 0.097861
O O16 0.346155 0.595933 0.489200
#
# Coordination Sequence:
#
# PCOD9086120 Si02
#       8
#     2   2   2   2   2   2   2   2
#     4  11  21  34  57  88 114 148 189 234 289 344
#     4  10  19  36  55  80 121 145 178 229 292 338
#     4   9  20  39  56  84 119 159 184 229 290 342
#     4  12  20  37  62  90 112 147 192 243 294 332
#     4  11  23  39  59  82 118 155 191 244 281 327
#     4  11  24  39  58  84 115 157 200 230 276 346
#     4  11  21  32  59  91 115 140 185 241 296 340
#     4   9  19  35  60  88 116 152 180 240 295 335
#
# _framework density 19.079135000000001
#
# number of rings (size 3 to 8) (size 9 to 14) (size 15 to 20)
#    0.750    0.750    5.000    1.500    0.000    0.500 
#    2.250    0.625    0.000    0.750    0.000    0.000 
#    0.000    0.000    0.000    0.000    0.000    0.000 
#
# Total GULP energy -89196.023929 kJ/mol
# GULP energy per Si atom -5574.751496 kJ/mol
# Density = 1.903571 g / cm^3
# Si number density = 19.079135 Si / 1000 Ang^3
#
#
#
# Elastic Constant Matrix: (Units=GPa)
#
#
# Indices 1 2 3 4 5 6 
#
# 1 32.3088 30.5747 6.8813 15.2188 -6.4363 14.8206
# 2 30.5747 79.4662 17.8964 23.2552 -13.8718 2.3546
# 3 6.8813 17.8964 59.5569 11.9248 -8.0869 13.4237
# 4 15.2188 23.2552 11.9248 23.0587 3.6072 -0.1335
# 5 -6.4363 -13.8718 -8.0869 3.6072 16.7876 -5.7973
# 6 14.8206 2.3546 13.4237 -0.1335 -5.7973 25.1972
#
#
#
# Elastic Compliance Matrix: (Units=1/GPa)
#
#
# Indices 1 2 3 4 5 6 
#
# 1 0.139304 -0.025916 0.035150 -0.090324 0.037200 -0.090160
# 2 -0.025916 0.032399 -0.004448 -0.017126 0.025396 0.020338
# 3 0.035150 -0.004448 0.032280 -0.039121 0.022542 -0.032477
# 4 -0.090324 -0.017126 -0.039121 0.153432 -0.080624 0.057832
# 5 0.037200 0.025396 0.022542 -0.080624 0.119851 -0.009114
# 6 -0.090160 0.020338 -0.032477 0.057832 -0.009114 0.106328
#
#
# Mechanical properties :
#
#
# Convention : Reuss Voigt Hill
#
# Bulk Modulus (GPa) = 4.68261 31.33741 18.01001
# Shear Modulus (GPa) = 7.74944 20.74067 14.24506
#
# Velocity S-wave (km/s) = 2.01756 3.30068 2.73542
# Velocity P-wave (km/s) = 2.80839 5.56656 4.40872
#
# Compressibility (1/GPa) = 0.21355603
#
# Stress axis : x y z
#
# Youngs Moduli (GPa) = 7.17852 30.86501 30.97902
#
# Poissons Ratio (x) = 0.79989 -1.08891
# Poissons Ratio (y) = 0.18604 0.13779
# Poissons Ratio (z) = -0.25232 0.13728
#
# Static dielectric constant tensor:
#      x y z
#    x 1.665720 -0.005120 0.004420 
#    y -0.005120 1.687940 0.002200 
#    z 0.004420 0.002200 1.665040 
# 
# From -- ./inp_files/454716.got.cif
#   From: 2010.05.17/outbox.cif.g08.bks.cpg/sg2_228_cif.got.tgz:454716.got - 2010.06.03 11:33:40.
