data_PCOD9086862
_publ_section_title
;
Structure prediction by ZEFSAII (Michael W. Deem and Ramdas Pophale) SiO2 
 PCOD9086862
Probable space group: P -1
;
_chemical_formula_sum "Si O2"
_cell_formula_units_Z 15
_cell_length_a 11.192488
_cell_length_b 18.917252
_cell_length_c 8.115472
_cell_angle_alpha 47.172685
_cell_angle_beta 107.757850
_cell_angle_gamma 144.238233
_cell_volume 602.352781
_symmetry_space_group_name_H-M "P -1"
_symmetry_group_IT_number 2
_symmetry_cell_setting 'triclinic'
loop_
_space_group_symop_operation_xyz
x,y,z
-x,-y,-z
loop_
_atom_site_type_symbol
_atom_site_label
_atom_site_fract_x
_atom_site_fract_y
_atom_site_fract_z
Si Si1 0.422006 0.149209 0.616651
Si Si2 0.500000 0.500000 0.000000
Si Si3 0.968749 0.199147 0.792355
Si Si4 0.906242 0.259270 0.187028
Si Si5 0.742928 0.829655 0.763260
Si Si6 0.156945 0.505760 0.579054
Si Si7 0.358084 0.877835 0.404662
Si Si8 0.081273 0.175169 0.557659
O O1 0.422192 0.201968 0.356976
O O2 0.548671 0.282714 0.615081
O O3 0.600343 0.175512 0.626697
O O4 0.143522 0.931946 0.892057
O O5 0.600463 0.634340 0.988881
O O6 0.660584 0.676856 0.660927
O O7 0.728437 0.080641 0.779044
O O8 0.098525 0.382834 0.619267
O O9 0.107199 0.224772 0.678383
O O10 0.852376 0.283780 0.290848
O O11 0.012054 0.226573 0.341212
O O12 0.631249 0.066665 0.299738
O O13 0.079564 0.415070 0.871437
O O14 0.000000 0.000000 0.500000
O O15 0.852242 0.948511 0.790012
O O16 0.000000 0.500000 0.500000
#
# Coordination Sequence:
#
# PCOD9086862 Si02
#       8
#     2   1   2   2   2   2   2   2
#     4  12  22  39  64  90 127 174 205 254 321 370
#     4  10  22  42  64  90 118 142 214 274 316 362
#     4  11  23  40  59  95 140 163 206 250 308 388
#     4  10  20  36  60  90 128 166 215 251 299 376
#     4  10  22  42  68  90 113 159 215 271 318 361
#     4  12  23  36  56  93 137 177 202 244 306 373
#     4  10  19  36  60  91 128 172 203 251 300 371
#     4  10  21  41  67  91 120 167 208 266 314 370
#
# _framework density 24.902349999999998
#
# number of rings (size 3 to 8) (size 9 to 14) (size 15 to 20)
#    0.000    1.333    4.000    2.000    0.000    2.667 
#    2.400    2.667    0.000   14.400    0.000    0.000 
#    0.000    0.000    0.000    0.000    0.000    0.000 
#
# Total GULP energy -83530.337253 kJ/mol
# GULP energy per Si atom -5568.689150 kJ/mol
# Density = 2.484567 g / cm^3
# Si number density = 24.902350 Si / 1000 Ang^3
#
#
#
# Elastic Constant Matrix: (Units=GPa)
#
#
# Indices 1 2 3 4 5 6 
#
# 1 59.2276 17.6842 14.2369 8.0759 0.2278 -17.2041
# 2 17.6842 92.9696 39.4676 -19.0344 12.1772 -39.1281
# 3 14.2369 39.4676 59.9822 -7.8007 19.5838 -19.7062
# 4 8.0759 -19.0344 -7.8007 43.5050 -12.8437 4.6813
# 5 0.2278 12.1772 19.5838 -12.8437 24.8139 6.9513
# 6 -17.2041 -39.1281 -19.7062 4.6813 6.9513 49.5519
#
#
#
# Elastic Compliance Matrix: (Units=1/GPa)
#
#
# Indices 1 2 3 4 5 6 
#
# 1 0.020426 -0.001358 -0.001529 -0.006372 -0.003432 0.006495
# 2 -0.001358 0.021904 -0.005991 0.004864 -0.007711 0.015064
# 3 -0.001529 -0.005991 0.035238 -0.007102 -0.032448 0.013975
# 4 -0.006372 0.004864 -0.007102 0.032329 0.022068 -0.007346
# 5 -0.003432 -0.007711 -0.032448 0.022068 0.090960 -0.035030
# 6 0.006495 0.015064 0.013975 -0.007346 -0.035030 0.045497
#
#
# Mechanical properties :
#
#
# Convention : Reuss Voigt Hill
#
# Bulk Modulus (GPa) = 16.71896 39.43966 28.07931
# Shear Modulus (GPa) = 17.60283 32.96022 25.28153
#
# Velocity S-wave (km/s) = 2.66160 3.64205 3.18972
# Velocity P-wave (km/s) = 4.02167 5.79294 4.98658
#
# Compressibility (1/GPa) = 0.05981232
#
# Stress axis : x y z
#
# Youngs Moduli (GPa) = 48.95828 45.65474 28.37842
#
# Poissons Ratio (x) = 0.06198 0.04339
# Poissons Ratio (y) = 0.06647 0.17001
# Poissons Ratio (z) = 0.07486 0.27351
#
# Static dielectric constant tensor:
#      x y z
#    x 1.288560 0.111050 0.242850 
#    y 0.111050 2.100100 -0.077560 
#    z 0.242850 -0.077560 1.923950 
# 
# From -- ./inp_files/277484.got.cif
#   From: 2010.05.17/outbox.cif.g08.bks.cpg/sg2_139_cif.got.tgz:277484.got - 2010.06.03 11:33:40.
