data_PCOD9086247
_publ_section_title
;
Structure prediction by ZEFSAII (Michael W. Deem and Ramdas Pophale) SiO2 
 PCOD9086247
Probable space group: P -1
;
_chemical_formula_sum "Si O2"
_cell_formula_units_Z 12
_cell_length_a 14.642068
_cell_length_b 9.100965
_cell_length_c 9.120335
_cell_angle_alpha 64.962111
_cell_angle_beta 124.042266
_cell_angle_gamma 143.320206
_cell_volume 600.750279
_symmetry_space_group_name_H-M "P -1"
_symmetry_group_IT_number 2
_symmetry_cell_setting 'triclinic'
loop_
_space_group_symop_operation_xyz
x,y,z
-x,-y,-z
loop_
_atom_site_type_symbol
_atom_site_label
_atom_site_fract_x
_atom_site_fract_y
_atom_site_fract_z
Si Si1 0.026033 0.434967 0.702397
Si Si2 0.349918 0.952266 0.926519
Si Si3 0.369687 0.335045 0.822362
Si Si4 0.822536 0.308702 0.834600
Si Si5 0.217160 0.384479 0.447043
Si Si6 0.962197 0.875475 0.317401
O O1 0.186237 0.695439 0.811826
O O2 0.055129 0.279236 0.755187
O O3 0.000000 0.500000 0.500000
O O4 0.867453 0.276232 0.734596
O O5 0.382525 0.175492 0.823755
O O6 0.312915 0.915682 0.083189
O O7 0.500000 0.000000 0.000000
O O8 0.368235 0.475389 0.638461
O O9 0.185127 0.154316 0.805573
O O10 0.500000 0.500000 0.000000
O O11 0.764764 0.427729 0.697780
O O12 0.000000 0.500000 0.000000
O O13 0.075039 0.249911 0.504306
O O14 0.138307 0.160754 0.365419
#
# Coordination Sequence:
#
# PCOD9086247 Si02
#       6
#     2   2   2   2   2   2
#     4  11  18  35  62  90 111 150 196 240 290 345
#     4  11  24  40  57  85 121 158 193 246 295 343
#     4  10  19  36  57  80 114 159 191 232 293 351
#     4  10  21  37  60  89 121 150 198 246 287 346
#     4   9  18  36  58  85 117 151 192 240 289 340
#     4   9  17  31  61  84 114 145 193 233 295 334
#
# _framework density 19.975021999999999
#
# number of rings (size 3 to 8) (size 9 to 14) (size 15 to 20)
#    1.000    1.000    1.667    4.000    0.000    0.000 
#    0.000   13.333    0.000    0.000    0.000    0.000 
#    0.000    0.000    0.000    0.000    0.000    0.000 
#
# Total GULP energy -66854.397176 kJ/mol
# GULP energy per Si atom -5571.199765 kJ/mol
# Density = 1.992956 g / cm^3
# Si number density = 19.975022 Si / 1000 Ang^3
#
#
#
# Elastic Constant Matrix: (Units=GPa)
#
#
# Indices 1 2 3 4 5 6 
#
# 1 105.4289 14.7524 31.7818 1.4560 1.6450 -15.5539
# 2 14.7524 30.2197 23.6452 12.1539 4.8386 -17.4828
# 3 31.7818 23.6452 100.5556 4.9902 17.9830 -3.6393
# 4 1.4560 12.1539 4.9902 36.4025 -3.2647 -4.0152
# 5 1.6450 4.8386 17.9830 -3.2647 35.4490 -4.1229
# 6 -15.5539 -17.4828 -3.6393 -4.0152 -4.1229 38.2930
#
#
#
# Elastic Compliance Matrix: (Units=1/GPa)
#
#
# Indices 1 2 3 4 5 6 
#
# 1 0.011267 -0.001097 -0.003566 0.001032 0.002003 0.004061
# 2 -0.001097 0.066819 -0.013385 -0.017536 -0.000770 0.026867
# 3 -0.003566 -0.013385 0.015042 0.001248 -0.006300 -0.006677
# 4 0.001032 -0.017536 0.001248 0.033114 0.004352 -0.003528
# 5 0.002003 -0.000770 -0.006300 0.004352 0.032260 0.003793
# 6 0.004061 0.026867 -0.006677 -0.003528 0.003793 0.039434
#
#
# Mechanical properties :
#
#
# Convention : Reuss Voigt Hill
#
# Bulk Modulus (GPa) = 17.53383 41.84034 29.68709
# Shear Modulus (GPa) = 19.75956 33.09722 26.42839
#
# Velocity S-wave (km/s) = 3.14859 4.07496 3.64135
# Velocity P-wave (km/s) = 4.69202 6.56751 5.70733
#
# Compressibility (1/GPa) = 0.05703259
#
# Stress axis : x y z
#
# Youngs Moduli (GPa) = 88.75507 14.96585 66.47945
#
# Poissons Ratio (x) = 0.01642 0.23704
# Poissons Ratio (y) = 0.09735 0.88984
# Poissons Ratio (z) = 0.31646 0.20032
#
# Static dielectric constant tensor:
#      x y z
#    x 1.726870 -0.007270 0.004440 
#    y -0.007270 1.726300 -0.020650 
#    z 0.004440 -0.020650 1.727860 
# 
# From -- ./inp_files/159821.got.cif
#   From: 2010.05.17/outbox.cif.g08.bks.cpg/sg2_80_cif.got.tgz:159821.got - 2010.06.03 11:33:40.
