data_PCOD9086236
_publ_section_title
;
Structure prediction by ZEFSAII (Michael W. Deem and Ramdas Pophale) SiO2 
 PCOD9086236
Probable space group: P -1
;
_chemical_formula_sum "Si O2"
_cell_formula_units_Z 10
_cell_length_a 23.895620
_cell_length_b 11.967514
_cell_length_c 4.960282
_cell_angle_alpha 88.371108
_cell_angle_beta 77.425248
_cell_angle_gamma 157.875972
_cell_volume 406.602338
_symmetry_space_group_name_H-M "P -1"
_symmetry_group_IT_number 2
_symmetry_cell_setting 'triclinic'
loop_
_space_group_symop_operation_xyz
x,y,z
-x,-y,-z
loop_
_atom_site_type_symbol
_atom_site_label
_atom_site_fract_x
_atom_site_fract_y
_atom_site_fract_z
Si Si1 0.347701 0.102045 0.870897
Si Si2 0.176226 0.199078 0.831259
Si Si3 0.392254 0.420505 0.934386
Si Si4 0.812540 0.434034 0.996116
Si Si5 0.770760 0.490927 0.525873
O O1 0.270290 0.078240 0.050666
O O2 0.417870 0.244919 0.479275
O O3 0.532810 0.425424 0.852504
O O4 0.221801 0.755918 0.043406
O O5 0.291015 0.335166 0.904091
O O6 0.296800 0.516658 0.519835
O O7 0.042360 0.881020 0.782649
O O8 0.006971 0.940671 0.210757
O O9 0.735205 0.379960 0.865846
O O10 0.715893 0.288972 0.391547
#
# Coordination Sequence:
#
# PCOD9086236 Si02
#       5
#     2   2   2   2   2
#     4  10  22  39  54  79 113 138 181 220 271 308
#     4   9  21  35  61  77 109 141 185 209 272 315
#     4  10  22  38  57  77 108 149 173 221 268 323
#     4  10  19  36  57  79 111 139 175 229 257 313
#     4   9  20  34  58  81 110 136 177 225 264 312
#
# _framework density 24.594055999999998
#
# number of rings (size 3 to 8) (size 9 to 14) (size 15 to 20)
#    1.200    1.200    0.000    1.800    2.800    0.800 
#    0.000    7.000    0.000    0.000    0.000    0.000 
#    0.000    0.000    0.000    0.000    0.000    0.000 
#
# Total GULP energy -55842.877408 kJ/mol
# GULP energy per Si atom -5584.287741 kJ/mol
# Density = 2.453808 g / cm^3
# Si number density = 24.594056 Si / 1000 Ang^3
#
#
#
# Elastic Constant Matrix: (Units=GPa)
#
#
# Indices 1 2 3 4 5 6 
#
# 1 177.0466 72.8257 1.7135 -7.4523 48.6668 -19.3457
# 2 72.8257 114.7449 30.3849 9.4164 25.1595 -32.4264
# 3 1.7135 30.3849 58.2023 13.0651 16.0958 6.2936
# 4 -7.4523 9.4164 13.0651 36.0009 4.0690 15.2240
# 5 48.6668 25.1595 16.0958 4.0690 35.9783 -2.5072
# 6 -19.3457 -32.4264 6.2936 15.2240 -2.5072 55.4406
#
#
#
# Elastic Compliance Matrix: (Units=1/GPa)
#
#
# Indices 1 2 3 4 5 6 
#
# 1 0.013417 -0.008260 0.007654 0.005418 -0.016637 -0.003258
# 2 -0.008260 0.020403 -0.010794 -0.009003 0.003652 0.012914
# 3 0.007654 -0.010794 0.027916 -0.000869 -0.015704 -0.007283
# 4 0.005418 -0.009003 -0.000869 0.038172 -0.005939 -0.014027
# 5 -0.016637 0.003652 -0.015704 -0.005939 0.055599 0.002259
# 6 -0.003258 0.012914 -0.007283 -0.014027 0.002259 0.029234
#
#
# Mechanical properties :
#
#
# Convention : Reuss Voigt Hill
#
# Bulk Modulus (GPa) = 25.68241 62.20467 43.94354
# Shear Modulus (GPa) = 22.67375 41.82192 32.24784
#
# Velocity S-wave (km/s) = 3.03961 4.12817 3.62498
# Velocity P-wave (km/s) = 4.77327 6.93324 5.95206
#
# Compressibility (1/GPa) = 0.03893716
#
# Stress axis : x y z
#
# Youngs Moduli (GPa) = 74.53346 49.01258 35.82116
#
# Poissons Ratio (x) = 0.40483 -0.27417
# Poissons Ratio (y) = 0.61563 0.38664
# Poissons Ratio (z) = -0.57048 0.52903
#
# Static dielectric constant tensor:
#      x y z
#    x 2.007990 -0.023020 -0.055360 
#    y -0.023020 1.945820 -0.032060 
#    z -0.055360 -0.032060 1.977600 
# 
# From -- ./inp_files/491.got.cif
#   From: 2010.05.17/outbox.cif.g08.bks.cpg/sg2_1_cif.got.tgz:491.got - 2010.06.03 11:33:40.
