data_PCOD9086231
_publ_section_title
;
Structure prediction by ZEFSAII (Michael W. Deem and Ramdas Pophale) SiO2 
 PCOD9086231
Probable space group: P -1
;
_chemical_formula_sum "Si O2"
_cell_formula_units_Z 14
_cell_length_a 15.464401
_cell_length_b 5.007067
_cell_length_c 25.608230
_cell_angle_alpha 95.333680
_cell_angle_beta 20.473872
_cell_angle_gamma 96.722333
_cell_volume 688.006186
_symmetry_space_group_name_H-M "P -1"
_symmetry_group_IT_number 2
_symmetry_cell_setting 'triclinic'
loop_
_space_group_symop_operation_xyz
x,y,z
-x,-y,-z
loop_
_atom_site_type_symbol
_atom_site_label
_atom_site_fract_x
_atom_site_fract_y
_atom_site_fract_z
Si Si1 0.450079 0.608685 0.673941
Si Si2 0.369299 0.642680 0.332849
Si Si3 0.395831 0.032846 0.883472
Si Si4 0.930653 0.489136 0.907255
Si Si5 0.408140 0.907483 0.463508
Si Si6 0.128581 0.186437 0.385374
Si Si7 0.730133 0.733495 0.365995
O O1 0.476426 0.515957 0.716399
O O2 0.616522 0.403410 0.544468
O O3 0.172711 0.567049 0.807334
O O4 0.539579 0.912442 0.613942
O O5 0.527578 0.883655 0.217930
O O6 0.271119 0.442784 0.337861
O O7 0.112108 0.723134 0.506074
O O8 0.656333 0.978029 0.763124
O O9 0.247346 0.273763 0.992615
O O10 0.218769 0.763471 0.985358
O O11 0.036380 0.406065 0.789959
O O12 0.646797 0.914189 0.367624
O O13 0.228929 0.067413 0.604402
O O14 0.000000 0.000000 0.500000
O O15 0.500000 0.500000 0.500000
#
# Coordination Sequence:
#
# PCOD9086231 Si02
#       7
#     2   2   2   2   2   2   2
#     4  11  23  35  55  88 118 155 186 229 286 340
#     4  10  22  40  61  80 117 152 197 239 274 329
#     4  11  22  38  54  86 117 154 189 232 278 340
#     4  11  22  34  55  86 124 146 187 226 290 348
#     4  10  20  34  53  82 114 144 201 226 271 331
#     4   9  20  41  61  79 107 150 208 240 269 325
#     4  10  19  36  57  78 115 161 188 236 265 337
#
# _framework density 20.348655999999998
#
# number of rings (size 3 to 8) (size 9 to 14) (size 15 to 20)
#    0.000    1.714    4.286    1.714    6.000    1.143 
#    0.000    0.000    0.000    0.000    0.000    6.000 
#    0.000    0.000    0.000    0.000    0.000    0.000 
#
# Total GULP energy -78024.480394 kJ/mol
# GULP energy per Si atom -5573.177171 kJ/mol
# Density = 2.030234 g / cm^3
# Si number density = 20.348656 Si / 1000 Ang^3
#
#
#
# Elastic Constant Matrix: (Units=GPa)
#
#
# Indices 1 2 3 4 5 6 
#
# 1 11.8809 11.1383 23.7238 -5.6861 13.6271 -2.4092
# 2 11.1383 119.2290 44.1202 14.4459 -2.7899 -7.2792
# 3 23.7238 44.1202 121.6392 34.6996 3.2794 3.7726
# 4 -5.6861 14.4459 34.6996 43.1872 4.9057 4.5002
# 5 13.6271 -2.7899 3.2794 4.9057 8.1105 0.0841
# 6 -2.4092 -7.2792 3.7726 4.5002 0.0841 24.9688
#
#
#
# Elastic Compliance Matrix: (Units=1/GPa)
#
#
# Indices 1 2 3 4 5 6 
#
# 1 -0.037855 0.004234 0.010484 -0.023330 0.074931 -0.000050
# 2 0.004234 0.009791 -0.004697 0.000937 -0.002453 0.003812
# 3 0.010484 -0.004697 0.008979 -0.001640 -0.021855 -0.001345
# 4 -0.023330 0.000937 -0.001640 0.018309 0.029163 -0.005128
# 5 0.074931 -0.002453 -0.021855 0.029163 -0.012294 0.004602
# 6 -0.000050 0.003812 -0.001345 -0.005128 0.004602 0.042268
#
#
# Mechanical properties :
#
#
# Convention : Reuss Voigt Hill
#
# Bulk Modulus (GPa) = 1044.26724 45.63486 544.95105
# Shear Modulus (GPa) = 527.64330 26.83776 277.24053
#
# Velocity S-wave (km/s) = 16.12030 3.63560 11.68507
# Velocity P-wave (km/s) = 29.33917 6.33235 21.22364
#
# Compressibility (1/GPa) = 0.00095761
#
# Stress axis : x y z
#
# Youngs Moduli (GPa) = -26.41692 102.12960 111.37526
#
# Poissons Ratio (x) = -0.43240 -1.16765
# Poissons Ratio (y) = 0.11184 0.52310
# Poissons Ratio (z) = 0.27695 0.47967
#
# Static dielectric constant tensor:
#      x y z
#    x 1.752240 0.023420 0.031520 
#    y 0.023420 1.808240 0.036530 
#    z 0.031520 0.036530 1.779810 
# 
# From -- ./inp_files/618945.got.cif
#   From: 2010.05.17/outbox.cif.g08.bks.cpg/sg2_310_cif.got.tgz:618945.got - 2010.06.03 11:33:40.
