data_PCOD9086703
_publ_section_title
;
Structure prediction by ZEFSAII (Michael W. Deem and Ramdas Pophale) SiO2 
 PCOD9086703
Probable space group: P -1
;
_chemical_formula_sum "Si O2"
_cell_formula_units_Z 14
_cell_length_a 7.563152
_cell_length_b 13.766810
_cell_length_c 7.961672
_cell_angle_alpha 121.848390
_cell_angle_beta 55.718212
_cell_angle_gamma 90.298559
_cell_volume 529.093615
_symmetry_space_group_name_H-M "P -1"
_symmetry_group_IT_number 2
_symmetry_cell_setting 'triclinic'
loop_
_space_group_symop_operation_xyz
x,y,z
-x,-y,-z
loop_
_atom_site_type_symbol
_atom_site_label
_atom_site_fract_x
_atom_site_fract_y
_atom_site_fract_z
Si Si1 0.691744 0.869650 0.415928
Si Si2 0.996792 0.894355 0.027532
Si Si3 0.881246 0.932798 0.671855
Si Si4 0.432028 0.724962 0.513075
Si Si5 0.944005 0.391715 0.850171
Si Si6 0.714078 0.728910 0.701071
Si Si7 0.402520 0.702780 0.138336
O O1 0.736588 0.960412 0.602795
O O2 0.459699 0.851575 0.555465
O O3 0.892680 0.733646 0.244716
O O4 0.756394 0.895462 0.221626
O O5 0.122242 0.934789 0.149909
O O6 0.164526 0.761051 0.739653
O O7 0.000000 0.000000 0.000000
O O8 0.748696 0.860052 0.781523
O O9 0.154011 0.829045 0.413967
O O10 0.567791 0.701437 0.597625
O O11 0.495286 0.657139 0.236678
O O12 0.029103 0.371351 0.591050
O O13 0.688978 0.391559 0.990633
O O14 0.000000 0.500000 0.000000
O O15 0.593990 0.718568 0.928700
#
# Coordination Sequence:
#
# PCOD9086703 Si02
#       7
#     2   2   2   2   2   2   2
#     4   9  22  37  56  81 116 149 189 241 284 335
#     4  12  22  33  55  85 118 156 194 230 275 334
#     4   9  20  37  51  81 115 155 196 228 275 336
#     4  10  21  36  55  84 116 151 193 236 276 334
#     4   9  20  41  64  86 110 145 191 238 291 349
#     4   9  21  38  59  84 117 149 188 240 285 337
#     4  10  19  36  60  82 115 153 185 235 288 337
#
# _framework density 26.460346999999999
#
# number of rings (size 3 to 8) (size 9 to 14) (size 15 to 20)
#    0.000    2.857    1.429    2.143    2.000    4.571 
#    0.000    2.857    0.000    6.857    0.000    0.000 
#    0.000    0.000    0.000    0.000    0.000    0.000 
#
# Total GULP energy -78032.149852 kJ/mol
# GULP energy per Si atom -5573.724989 kJ/mol
# Density = 2.640012 g / cm^3
# Si number density = 26.460347 Si / 1000 Ang^3
#
#
#
# Elastic Constant Matrix: (Units=GPa)
#
#
# Indices 1 2 3 4 5 6 
#
# 1 73.2306 16.2858 7.9895 -2.6494 19.1922 19.2581
# 2 16.2858 77.3576 47.9938 -4.0584 3.4487 15.5812
# 3 7.9895 47.9938 112.9246 -32.9133 2.7628 13.9313
# 4 -2.6494 -4.0584 -32.9133 44.7238 16.8158 -1.6926
# 5 19.1922 3.4487 2.7628 16.8158 39.3010 3.0362
# 6 19.2581 15.5812 13.9313 -1.6926 3.0362 36.5780
#
#
#
# Elastic Compliance Matrix: (Units=1/GPa)
#
#
# Indices 1 2 3 4 5 6 
#
# 1 0.020035 -0.003935 0.004058 0.008187 -0.012532 -0.008999
# 2 -0.003935 0.020188 -0.010254 -0.007745 0.004444 -0.003349
# 3 0.004058 -0.010254 0.018184 0.015926 -0.008926 -0.003216
# 4 0.008187 -0.007745 0.015926 0.042080 -0.022189 -0.003288
# 5 -0.012532 0.004444 -0.008926 -0.022189 0.041012 0.003674
# 6 -0.008999 -0.003349 -0.003216 -0.003288 0.003674 0.034271
#
#
# Mechanical properties :
#
#
# Convention : Reuss Voigt Hill
#
# Bulk Modulus (GPa) = 26.21698 45.33899 35.77798
# Shear Modulus (GPa) = 23.95250 36.87014 30.41132
#
# Velocity S-wave (km/s) = 3.01196 3.73689 3.39384
# Velocity P-wave (km/s) = 4.69312 5.98256 5.37663
#
# Compressibility (1/GPa) = 0.03814322
#
# Stress axis : x y z
#
# Youngs Moduli (GPa) = 49.91334 49.53554 54.99488
#
# Poissons Ratio (x) = 0.19491 -0.22316
# Poissons Ratio (y) = 0.19639 0.56394
# Poissons Ratio (z) = -0.20254 0.50796
#
# Static dielectric constant tensor:
#      x y z
#    x 1.823090 0.143560 -0.395580 
#    y 0.143560 1.993850 0.238360 
#    z -0.395580 0.238360 1.734270 
# 
# From -- ./inp_files/215684.got.cif
#   From: 2010.05.17/outbox.cif.g08.bks.cpg/sg2_108_cif.got.tgz:215684.got - 2010.06.03 11:33:40.
