data_PCOD9086843
_publ_section_title
;
Structure prediction by ZEFSAII (Michael W. Deem and Ramdas Pophale) SiO2 
 PCOD9086843
Probable space group: P -1
;
_chemical_formula_sum "Si O2"
_cell_formula_units_Z 14
_cell_length_a 13.088207
_cell_length_b 8.832255
_cell_length_c 7.540138
_cell_angle_alpha 100.674874
_cell_angle_beta 53.688018
_cell_angle_gamma 111.201728
_cell_volume 654.335064
_symmetry_space_group_name_H-M "P -1"
_symmetry_group_IT_number 2
_symmetry_cell_setting 'triclinic'
loop_
_space_group_symop_operation_xyz
x,y,z
-x,-y,-z
loop_
_atom_site_type_symbol
_atom_site_label
_atom_site_fract_x
_atom_site_fract_y
_atom_site_fract_z
Si Si1 0.951767 0.305853 0.981194
Si Si2 0.161702 0.149562 0.878447
Si Si3 0.543286 0.689108 0.454441
Si Si4 0.867470 0.906152 0.721902
Si Si5 0.919085 0.592956 0.488923
Si Si6 0.287917 0.723279 0.533429
Si Si7 0.298104 0.041813 0.403765
O O1 0.980858 0.300043 0.740903
O O2 0.804587 0.245577 0.204905
O O3 0.000000 0.500000 0.000000
O O4 0.055665 0.241034 0.969484
O O5 0.127164 0.044090 0.068213
O O6 0.312617 0.267026 0.778576
O O7 0.180138 0.057600 0.660702
O O8 0.500000 0.500000 0.500000
O O9 0.429274 0.724935 0.464520
O O10 0.577445 0.810229 0.616628
O O11 0.864233 0.718241 0.679359
O O12 0.744957 0.930658 0.742955
O O13 0.000000 0.000000 0.500000
O O14 0.795956 0.452938 0.496322
O O15 0.000000 0.500000 0.500000
O O16 0.308302 0.865987 0.399033
#
# Coordination Sequence:
#
# PCOD9086843 Si02
#       7
#     2   2   2   2   2   2   2
#     4  10  19  36  60  90 121 161 208 257 310 367
#     4  10  23  40  65  93 126 168 210 254 322 370
#     4  10  21  42  66  90 124 169 213 255 316 376
#     4  12  23  39  64  95 130 163 210 262 314 373
#     4  11  22  37  57  94 131 159 211 264 313 370
#     4  11  22  40  65  89 125 172 206 258 318 372
#     4  10  23  41  64  89 131 160 214 254 317 370
#
# _framework density 21.395766999999999
#
# number of rings (size 3 to 8) (size 9 to 14) (size 15 to 20)
#    0.857    0.571    1.429    6.429    2.000    1.143 
#    0.000    5.000    0.000    0.000    0.000    0.000 
#    0.000    0.000    0.000    0.000    0.000    0.000 
#
# Total GULP energy -78175.441815 kJ/mol
# GULP energy per Si atom -5583.960130 kJ/mol
# Density = 2.134707 g / cm^3
# Si number density = 21.395767 Si / 1000 Ang^3
#
#
#
# Elastic Constant Matrix: (Units=GPa)
#
#
# Indices 1 2 3 4 5 6 
#
# 1 173.6979 45.1617 36.4324 -13.1115 -8.9765 -24.5215
# 2 45.1617 98.7129 9.3432 -3.3877 -9.9203 -13.9764
# 3 36.4324 9.3432 60.2138 -8.0947 0.8149 -9.1622
# 4 -13.1115 -3.3877 -8.0947 37.0833 1.6115 3.1286
# 5 -8.9765 -9.9203 0.8149 1.6115 39.4605 -8.6565
# 6 -24.5215 -13.9764 -9.1622 3.1286 -8.6565 44.2521
#
#
#
# Elastic Compliance Matrix: (Units=1/GPa)
#
#
# Indices 1 2 3 4 5 6 
#
# 1 0.007830 -0.002574 -0.003718 0.001389 0.001815 0.003013
# 2 -0.002574 0.012032 0.000082 -0.000182 0.003106 0.003011
# 3 -0.003718 0.000082 0.019485 0.002854 -0.000992 0.001604
# 4 0.001389 -0.000182 0.002854 0.028190 -0.001140 -0.000913
# 5 0.001815 0.003106 -0.000992 -0.001140 0.028222 0.007383
# 6 0.003013 0.003011 0.001604 -0.000913 0.007383 0.027060
#
#
# Mechanical properties :
#
#
# Convention : Reuss Voigt Hill
#
# Bulk Modulus (GPa) = 37.13466 57.16657 47.15061
# Shear Modulus (GPa) = 34.67046 40.27166 37.47106
#
# Velocity S-wave (km/s) = 4.02983 4.34317 4.18943
# Velocity P-wave (km/s) = 6.24872 7.20607 6.74440
#
# Compressibility (1/GPa) = 0.02692902
#
# Stress axis : x y z
#
# Youngs Moduli (GPa) = 127.71285 83.10903 51.32062
#
# Poissons Ratio (x) = 0.21390 0.19079
# Poissons Ratio (y) = 0.32870 -0.00420
# Poissons Ratio (z) = 0.47479 -0.00681
#
# Static dielectric constant tensor:
#      x y z
#    x 1.752780 0.041500 0.016250 
#    y 0.041500 1.870370 -0.002770 
#    z 0.016250 -0.002770 1.819630 
# 
# From -- ./inp_files/234575.got.cif
#   From: 2010.05.17/outbox.cif.g08.bks.cpg/sg2_118_cif.got.tgz:234575.got - 2010.06.03 11:33:40.
