data_PCOD9086134
_publ_section_title
;
Structure prediction by ZEFSAII (Michael W. Deem and Ramdas Pophale) SiO2 
 PCOD9086134
Probable space group: P -1
;
_chemical_formula_sum "Si O2"
_cell_formula_units_Z 16
_cell_length_a 11.535289
_cell_length_b 12.056863
_cell_length_c 7.786096
_cell_angle_alpha 99.507409
_cell_angle_beta 85.550436
_cell_angle_gamma 48.432554
_cell_volume 772.925056
_symmetry_space_group_name_H-M "P -1"
_symmetry_group_IT_number 2
_symmetry_cell_setting 'triclinic'
loop_
_space_group_symop_operation_xyz
x,y,z
-x,-y,-z
loop_
_atom_site_type_symbol
_atom_site_label
_atom_site_fract_x
_atom_site_fract_y
_atom_site_fract_z
Si Si1 0.293868 0.637200 0.256613
Si Si2 0.516238 0.937723 0.786871
Si Si3 0.514740 0.718406 0.925259
Si Si4 0.694892 0.945909 0.475410
Si Si5 0.323125 0.574576 0.603106
Si Si6 0.037423 0.080504 0.640913
Si Si7 0.818035 0.127181 0.114296
Si Si8 0.483078 0.291381 0.706790
O O1 0.400855 0.458932 0.151106
O O2 0.228268 0.652260 0.458574
O O3 0.402523 0.676554 0.257550
O O4 0.129651 0.772769 0.212228
O O5 0.549299 0.784841 0.789697
O O6 0.361018 0.058374 0.709256
O O7 0.651994 0.896153 0.631223
O O8 0.500000 0.000000 0.000000
O O9 0.321170 0.835214 0.973828
O O10 0.569739 0.720679 0.106873
O O11 0.582620 0.129438 0.563949
O O12 0.874758 0.871787 0.440805
O O13 0.500000 0.500000 0.500000
O O14 0.248918 0.705880 0.785868
O O15 0.346769 0.436229 0.642216
O O16 0.167844 0.949067 0.727821
O O17 0.000000 0.000000 0.500000
O O18 0.000000 0.000000 0.000000
#
# Coordination Sequence:
#
# PCOD9086134 Si02
#       8
#     2   2   2   2   2   2   2   2
#     4  11  22  36  62  94 136 174 207 263 345 414
#     4  11  24  45  68  93 123 180 236 281 319 390
#     4  12  23  40  62  94 131 175 228 270 327 406
#     4  11  23  42  69  98 130 171 229 280 330 396
#     4  10  19  36  55  86 133 176 211 255 331 414
#     4  12  22  39  63 100 138 167 205 272 349 404
#     4  12  24  35  58  98 139 168 213 276 335 400
#     4  11  20  35  65  94 131 166 214 275 329 400
#
# _framework density 20.700583000000002
#
# number of rings (size 3 to 8) (size 9 to 14) (size 15 to 20)
#    0.000    0.750    7.500    2.625    1.750    0.000 
#    0.000    0.625    0.000    0.750    0.000    0.000 
#    0.000    0.000    0.000    0.000    0.000    0.000 
#
# Total GULP energy -89195.945251 kJ/mol
# GULP energy per Si atom -5574.746578 kJ/mol
# Density = 2.065347 g / cm^3
# Si number density = 20.700583 Si / 1000 Ang^3
#
#
#
# Elastic Constant Matrix: (Units=GPa)
#
#
# Indices 1 2 3 4 5 6 
#
# 1 81.7130 20.8258 27.4049 -0.2379 -13.1872 0.7084
# 2 20.8258 108.0057 26.3335 -4.4223 -8.3112 2.6710
# 3 27.4049 26.3335 111.9385 -14.2075 -0.4057 6.4910
# 4 -0.2379 -4.4223 -14.2075 46.5625 1.8287 -4.4063
# 5 -13.1872 -8.3112 -0.4057 1.8287 32.2285 -3.7354
# 6 0.7084 2.6710 6.4910 -4.4063 -3.7354 22.2058
#
#
#
# Elastic Compliance Matrix: (Units=1/GPa)
#
#
# Indices 1 2 3 4 5 6 
#
# 1 0.014729 -0.001642 -0.003439 -0.001219 0.005799 0.001466
# 2 -0.001642 0.010212 -0.001946 0.000271 0.001895 -0.000235
# 3 -0.003439 -0.001946 0.010746 0.002919 -0.002240 -0.002595
# 4 -0.001219 0.000271 0.002919 0.022764 -0.001283 0.003454
# 5 0.005799 0.001895 -0.002240 -0.001283 0.034608 0.005809
# 6 0.001466 -0.000235 -0.002595 0.003454 0.005809 0.047436
#
#
# Mechanical properties :
#
#
# Convention : Reuss Voigt Hill
#
# Bulk Modulus (GPa) = 46.21962 50.08727 48.15345
# Shear Modulus (GPa) = 30.91022 35.33889 33.12456
#
# Velocity S-wave (km/s) = 3.86839 4.13624 4.00456
# Velocity P-wave (km/s) = 6.50606 6.86002 6.68538
#
# Compressibility (1/GPa) = 0.02163583
#
# Stress axis : x y z
#
# Youngs Moduli (GPa) = 67.89223 97.92004 93.05918
#
# Poissons Ratio (x) = 0.16075 0.31999
# Poissons Ratio (y) = 0.11145 0.18106
# Poissons Ratio (z) = 0.23345 0.19052
#
# Static dielectric constant tensor:
#      x y z
#    x 1.790250 0.033630 0.017320 
#    y 0.033630 1.769420 -0.046910 
#    z 0.017320 -0.046910 1.859090 
# 
# From -- ./inp_files/258506.got.cif
#   From: 2010.05.17/outbox.cif.g08.bks.cpg/sg2_130_cif.got.tgz:258506.got - 2010.06.03 11:33:40.
