data_PCOD9086635
_publ_section_title
;
Structure prediction by ZEFSAII (Michael W. Deem and Ramdas Pophale) SiO2 
 PCOD9086635
Probable space group: P -1
;
_chemical_formula_sum "Si O2"
_cell_formula_units_Z 16
_cell_length_a 14.524853
_cell_length_b 8.771516
_cell_length_c 13.083408
_cell_angle_alpha 129.465498
_cell_angle_beta 143.450772
_cell_angle_gamma 62.781155
_cell_volume 761.184414
_symmetry_space_group_name_H-M "P -1"
_symmetry_group_IT_number 2
_symmetry_cell_setting 'triclinic'
loop_
_space_group_symop_operation_xyz
x,y,z
-x,-y,-z
loop_
_atom_site_type_symbol
_atom_site_label
_atom_site_fract_x
_atom_site_fract_y
_atom_site_fract_z
Si Si1 0.916245 0.358517 0.522084
Si Si2 0.468665 0.278074 0.503659
Si Si3 0.609610 0.729695 0.785721
Si Si4 0.637232 0.088673 0.235122
Si Si5 0.206834 0.260846 0.849174
Si Si6 0.871578 0.686478 0.480917
Si Si7 0.599088 0.886552 0.409965
Si Si8 0.363818 0.574864 0.976888
O O1 0.741859 0.276422 0.360783
O O2 0.921143 0.585790 0.586511
O O3 0.986229 0.246433 0.439562
O O4 0.965868 0.683857 0.300215
O O5 0.552722 0.498808 0.658785
O O6 0.352492 0.246258 0.289420
O O7 0.396027 0.235675 0.531699
O O8 0.587596 0.112825 0.525273
O O9 0.459150 0.845626 0.726648
O O10 0.744279 0.788151 0.013607
O O11 0.753664 0.919661 0.265922
O O12 0.500000 0.000000 0.000000
O O13 0.321577 0.446898 0.986499
O O14 0.748644 0.839527 0.459253
O O15 0.781045 0.497005 0.256533
O O16 0.438533 0.792576 0.170479
O O17 0.500000 0.500000 0.000000
#
# Coordination Sequence:
#
# PCOD9086635 Si02
#       8
#     2   2   2   2   2   2   2   2
#     4  10  20  36  55  92 121 149 185 230 318 353
#     4  10  21  34  57  86 115 159 206 244 278 332
#     4  10  21  37  56  86 119 153 201 243 286 343
#     4  10  22  34  60  87 118 148 186 240 295 358
#     4  10  20  36  54  87 120 153 183 245 302 349
#     4   9  20  34  60  85 120 153 183 243 303 355
#     4  10  19  36  59  88 116 153 202 245 284 339
#     4   9  18  29  56  84 116 141 191 242 292 340
#
# _framework density 21.019871999999999
#
# number of rings (size 3 to 8) (size 9 to 14) (size 15 to 20)
#    0.000    2.250    1.250    1.125   10.500    1.000 
#    0.000    0.000    0.000    7.500    6.500    0.000 
#    0.000    0.000    0.000    0.000    0.000    0.000 
#
# Total GULP energy -89140.195255 kJ/mol
# GULP energy per Si atom -5571.262203 kJ/mol
# Density = 2.097203 g / cm^3
# Si number density = 21.019872 Si / 1000 Ang^3
#
#
#
# Elastic Constant Matrix: (Units=GPa)
#
#
# Indices 1 2 3 4 5 6 
#
# 1 64.4342 -11.7078 26.2370 -9.8437 -6.0866 10.1272
# 2 -11.7078 55.8905 10.5808 -2.4830 -10.9874 -4.0317
# 3 26.2370 10.5808 53.4228 -12.1342 -5.8064 2.8310
# 4 -9.8437 -2.4830 -12.1342 37.2448 2.9137 -8.5858
# 5 -6.0866 -10.9874 -5.8064 2.9137 29.1401 -2.1753
# 6 10.1272 -4.0317 2.8310 -8.5858 -2.1753 30.9405
#
#
#
# Elastic Compliance Matrix: (Units=1/GPa)
#
#
# Indices 1 2 3 4 5 6 
#
# 1 0.023166 0.007774 -0.011833 0.001298 0.004925 -0.004780
# 2 0.007774 0.022818 -0.007261 0.000977 0.008831 0.001985
# 3 -0.011833 -0.007261 0.027134 0.005710 -0.000223 0.002013
# 4 0.001298 0.000977 0.005710 0.030955 -0.000742 0.007718
# 5 0.004925 0.008831 -0.000223 -0.000742 0.038861 0.002085
# 6 -0.004780 0.001985 0.002013 0.007718 0.002085 0.036247
#
#
# Mechanical properties :
#
#
# Convention : Reuss Voigt Hill
#
# Bulk Modulus (GPa) = 19.81066 24.88527 22.34797
# Shear Modulus (GPa) = 22.86796 29.37425 26.12111
#
# Velocity S-wave (km/s) = 3.30194 3.74231 3.52900
# Velocity P-wave (km/s) = 4.89717 5.52610 5.22111
#
# Compressibility (1/GPa) = 0.05047786
#
# Stress axis : x y z
#
# Youngs Moduli (GPa) = 43.16760 43.82538 36.85392
#
# Poissons Ratio (x) = -0.34070 0.43610
# Poissons Ratio (y) = -0.33558 0.26758
# Poissons Ratio (z) = 0.51081 0.31820
#
# Static dielectric constant tensor:
#      x y z
#    x 1.680070 -0.007440 -0.126250 
#    y -0.007440 1.823590 -0.058670 
#    z -0.126250 -0.058670 1.716670 
# 
# From -- ./inp_files/527853.got.cif
#   From: 2010.05.17/outbox.cif.g08.bks.cpg/sg2_264_cif.got.tgz:527853.got - 2010.06.03 11:33:40.
