data_PCOD9086227
_publ_section_title
;
Structure prediction by ZEFSAII (Michael W. Deem and Ramdas Pophale) SiO2 
 PCOD9086227
Probable space group: P -1
;
_chemical_formula_sum "Si O2"
_cell_formula_units_Z 16
_cell_length_a 8.261327
_cell_length_b 16.494071
_cell_length_c 7.574186
_cell_angle_alpha 97.659682
_cell_angle_beta 129.644329
_cell_angle_gamma 57.851842
_cell_volume 638.327897
_symmetry_space_group_name_H-M "P -1"
_symmetry_group_IT_number 2
_symmetry_cell_setting 'triclinic'
loop_
_space_group_symop_operation_xyz
x,y,z
-x,-y,-z
loop_
_atom_site_type_symbol
_atom_site_label
_atom_site_fract_x
_atom_site_fract_y
_atom_site_fract_z
Si Si1 0.280644 0.627938 0.524300
Si Si2 0.719204 0.880208 0.128297
Si Si3 0.135306 0.575207 0.092363
Si Si4 0.347469 0.621742 0.952822
Si Si5 0.481495 0.766256 0.011346
Si Si6 0.893660 0.915322 0.593621
Si Si7 0.587903 0.692607 0.657409
Si Si8 0.397028 0.134078 0.348730
O O1 0.099508 0.610191 0.281144
O O2 0.576211 0.528070 0.729608
O O3 0.195351 0.665442 0.674028
O O4 0.354064 0.684677 0.460180
O O5 0.920519 0.877637 0.399446
O O6 0.636485 0.815593 0.153128
O O7 0.750293 0.848930 0.935795
O O8 0.500000 0.000000 0.000000
O O9 0.169927 0.643304 0.001710
O O10 0.881567 0.589518 0.839517
O O11 0.507438 0.670566 0.096356
O O12 0.500000 0.500000 0.000000
O O13 0.534273 0.731453 0.833260
O O14 0.180817 0.860804 0.851449
O O15 0.742269 0.885261 0.602527
O O16 0.694797 0.036730 0.496645
O O17 0.590630 0.773329 0.570193
#
# Coordination Sequence:
#
# PCOD9086227 Si02
#       8
#     2   2   2   2   2   2   2   2
#     4   9  20  36  56  80 105 145 181 216 276 323
#     4   9  20  37  56  80 108 142 181 224 272 318
#     4  10  19  36  57  77 110 143 178 225 269 322
#     4   9  19  36  56  81 111 140 179 227 269 321
#     4  10  21  36  58  83 108 147 187 219 275 331
#     4  10  20  39  57  76 113 144 178 231 270 320
#     4  10  20  34  54  82 109 139 182 225 268 323
#     4   9  20  36  55  81 108 141 183 224 271 322
#
# _framework density 25.065487000000001
#
# number of rings (size 3 to 8) (size 9 to 14) (size 15 to 20)
#    0.000    2.500    0.000    1.125    0.000    9.500 
#    0.000   11.875    0.000   13.500    0.000    0.000 
#    0.000    0.000    0.000    0.000    0.000    0.000 
#
# Total GULP energy -89179.863626 kJ/mol
# GULP energy per Si atom -5573.741477 kJ/mol
# Density = 2.500844 g / cm^3
# Si number density = 25.065487 Si / 1000 Ang^3
#
#
#
# Elastic Constant Matrix: (Units=GPa)
#
#
# Indices 1 2 3 4 5 6 
#
# 1 43.3725 10.0963 2.1226 -2.3477 -17.3878 -1.3909
# 2 10.0963 91.5158 32.8528 -21.7188 4.8013 4.2280
# 3 2.1226 32.8528 64.7187 -9.9514 -0.5403 -8.2873
# 4 -2.3477 -21.7188 -9.9514 49.2128 -8.8849 -0.3367
# 5 -17.3878 4.8013 -0.5403 -8.8849 27.9166 -6.2215
# 6 -1.3909 4.2280 -8.2873 -0.3367 -6.2215 38.1613
#
#
#
# Elastic Compliance Matrix: (Units=1/GPa)
#
#
# Indices 1 2 3 4 5 6 
#
# 1 0.035081 -0.005748 0.003580 0.004588 0.025919 0.006959
# 2 -0.005748 0.015891 -0.007916 0.003979 -0.006241 -0.004672
# 3 0.003580 -0.007916 0.020534 0.001967 0.006057 0.006472
# 4 0.004588 0.003979 0.001967 0.024604 0.010506 0.002083
# 5 0.025919 -0.006241 0.006057 0.010506 0.059333 0.012717
# 6 0.006959 -0.004672 0.006472 0.002083 0.012717 0.030473
#
#
# Mechanical properties :
#
#
# Convention : Reuss Voigt Hill
#
# Bulk Modulus (GPa) = 19.47879 32.19448 25.83664
# Shear Modulus (GPa) = 22.40169 33.36050 27.88109
#
# Velocity S-wave (km/s) = 2.99277 3.65215 3.33878
# Velocity P-wave (km/s) = 4.44187 5.53682 5.01929
#
# Compressibility (1/GPa) = 0.05133789
#
# Stress axis : x y z
#
# Youngs Moduli (GPa) = 28.50525 62.92976 48.69868
#
# Poissons Ratio (x) = 0.36172 -0.17435
# Poissons Ratio (y) = 0.16385 0.38552
# Poissons Ratio (z) = -0.10206 0.49818
#
# Static dielectric constant tensor:
#      x y z
#    x 2.001380 0.030170 0.023910 
#    y 0.030170 2.183030 -0.087540 
#    z 0.023910 -0.087540 2.004550 
# 
# From -- ./inp_files/215195.got.cif
#   From: 2010.05.17/outbox.cif.g08.bks.cpg/sg2_108_cif.got.tgz:215195.got - 2010.06.03 11:33:40.
