data_PCOD9086630
_publ_section_title
;
Structure prediction by ZEFSAII (Michael W. Deem and Ramdas Pophale) SiO2 
 PCOD9086630
Probable space group: P -1
;
_chemical_formula_sum "Si O2"
_cell_formula_units_Z 16
_cell_length_a 16.057056
_cell_length_b 11.156018
_cell_length_c 7.885161
_cell_angle_alpha 110.249614
_cell_angle_beta 119.746171
_cell_angle_gamma 117.610363
_cell_volume 720.325510
_symmetry_space_group_name_H-M "P -1"
_symmetry_group_IT_number 2
_symmetry_cell_setting 'triclinic'
loop_
_space_group_symop_operation_xyz
x,y,z
-x,-y,-z
loop_
_atom_site_type_symbol
_atom_site_label
_atom_site_fract_x
_atom_site_fract_y
_atom_site_fract_z
Si Si1 0.497360 0.173561 0.915264
Si Si2 0.040640 0.441354 0.750016
Si Si3 0.849726 0.474321 0.484421
Si Si4 0.375796 0.826006 0.432159
Si Si5 0.470526 0.528969 0.797559
Si Si6 0.870117 0.764938 0.798797
Si Si7 0.081740 0.211057 0.750271
Si Si8 0.411424 0.602237 0.230824
O O1 0.504932 0.247921 0.772557
O O2 0.399831 0.944837 0.672537
O O3 0.667167 0.301578 0.198713
O O4 0.455023 0.251764 0.027394
O O5 0.082992 0.468126 0.608271
O O6 0.990303 0.249359 0.670848
O O7 0.913736 0.418806 0.622552
O O8 0.201006 0.648374 0.102455
O O9 0.910516 0.666283 0.725436
O O10 0.410324 0.709981 0.427615
O O11 0.500000 0.000000 0.500000
O O12 0.290937 0.363022 0.507362
O O13 0.526256 0.473118 0.704507
O O14 0.500000 0.500000 0.000000
O O15 0.859813 0.750675 0.982998
O O16 0.000000 0.000000 0.000000
O O17 0.236391 0.399502 0.894584
O O18 0.000000 0.000000 0.500000
#
# Coordination Sequence:
#
# PCOD9086630 Si02
#       8
#     2   2   2   2   2   2   2   2
#     4   9  16  33  58  89 119 152 195 248 299 355
#     4  10  20  36  61  86 117 163 198 251 302 357
#     4  10  19  36  59  87 120 150 208 244 296 366
#     4   9  15  29  53  87 109 151 191 238 292 358
#     4   9  20  36  61  86 122 155 199 257 301 360
#     4  11  25  39  62  91 120 165 211 253 308 370
#     4  11  23  41  61  84 130 164 201 262 310 355
#     4   9  18  35  59  84 119 159 202 243 308 357
#
# _framework density 22.21218
#
# number of rings (size 3 to 8) (size 9 to 14) (size 15 to 20)
#    0.000    2.250    3.750    0.750    3.500    4.000 
#    2.250    0.000    0.000    6.000    0.000    0.000 
#    0.000    0.000    0.000    0.000    0.000    0.000 
#
# Total GULP energy -89300.796500 kJ/mol
# GULP energy per Si atom -5581.299781 kJ/mol
# Density = 2.216162 g / cm^3
# Si number density = 22.212180 Si / 1000 Ang^3
#
#
#
# Elastic Constant Matrix: (Units=GPa)
#
#
# Indices 1 2 3 4 5 6 
#
# 1 125.4347 58.3190 56.8799 10.3617 -6.4357 -65.6470
# 2 58.3190 82.6385 52.5862 3.6219 -10.2919 -36.6174
# 3 56.8799 52.5862 105.2142 7.4716 -21.7024 -36.5383
# 4 10.3617 3.6219 7.4716 42.6412 -17.3823 -9.9234
# 5 -6.4357 -10.2919 -21.7024 -17.3823 30.2228 1.6675
# 6 -65.6470 -36.6174 -36.5383 -9.9234 1.6675 56.8852
#
#
#
# Elastic Compliance Matrix: (Units=1/GPa)
#
#
# Indices 1 2 3 4 5 6 
#
# 1 0.022426 -0.004911 -0.002101 0.000649 0.000783 0.021459
# 2 -0.004911 0.021940 -0.006073 0.002979 0.003504 0.004971
# 3 -0.002101 -0.006073 0.017856 0.004256 0.012450 0.005512
# 4 0.000649 0.002979 0.004256 0.034302 0.023347 0.010700
# 5 0.000783 0.003504 0.012450 0.023347 0.056066 0.013586
# 6 0.021459 0.004971 0.005512 0.010700 0.013586 0.050553
#
#
# Mechanical properties :
#
#
# Convention : Reuss Voigt Hill
#
# Bulk Modulus (GPa) = 27.73878 72.09530 49.91704
# Shear Modulus (GPa) = 20.71850 35.65001 28.18425
#
# Velocity S-wave (km/s) = 3.05742 4.01056 3.56598
# Velocity P-wave (km/s) = 4.99789 7.34671 6.28304
#
# Compressibility (1/GPa) = 0.03605062
#
# Stress axis : x y z
#
# Youngs Moduli (GPa) = 44.59117 45.57896 56.00440
#
# Poissons Ratio (x) = 0.22386 0.11768
# Poissons Ratio (y) = 0.21901 0.34011
# Poissons Ratio (z) = 0.09370 0.27680
#
# Static dielectric constant tensor:
#      x y z
#    x 1.870110 -0.043750 -0.012560 
#    y -0.043750 1.838450 0.007790 
#    z -0.012560 0.007790 1.790150 
# 
# From -- ./inp_files/333553.got.cif
#   From: 2010.05.17/outbox.cif.g08.bks.cpg/sg2_167_cif.got.tgz:333553.got - 2010.06.03 11:33:40.
