data_PCOD9086666
_publ_section_title
;
Structure prediction by ZEFSAII (Michael W. Deem and Ramdas Pophale) SiO2 
 PCOD9086666
Probable space group: P -1
;
_chemical_formula_sum "Si O2"
_cell_formula_units_Z 14
_cell_length_a 11.729336
_cell_length_b 14.779640
_cell_length_c 7.093500
_cell_angle_alpha 46.942387
_cell_angle_beta 83.886258
_cell_angle_gamma 49.452787
_cell_volume 542.284994
_symmetry_space_group_name_H-M "P -1"
_symmetry_group_IT_number 2
_symmetry_cell_setting 'triclinic'
loop_
_space_group_symop_operation_xyz
x,y,z
-x,-y,-z
loop_
_atom_site_type_symbol
_atom_site_label
_atom_site_fract_x
_atom_site_fract_y
_atom_site_fract_z
Si Si1 0.244710 0.051380 0.151742
Si Si2 0.719774 0.778172 0.821284
Si Si3 0.921876 0.389247 0.154727
Si Si4 0.161766 0.963710 0.669403
Si Si5 0.543235 0.545936 0.214681
Si Si6 0.404857 0.402847 0.295743
Si Si7 0.922744 0.179045 0.883787
O O1 0.212280 0.988657 0.429443
O O2 0.447510 0.833002 0.354372
O O3 0.246537 0.189876 0.026107
O O4 0.073614 0.158542 0.898724
O O5 0.876653 0.713758 0.756357
O O6 0.500000 0.000000 0.500000
O O7 0.786055 0.581782 0.046601
O O8 0.805722 0.474715 0.854688
O O9 0.997173 0.187300 0.468490
O O10 0.369088 0.777175 0.993772
O O11 0.102024 0.871174 0.836445
O O12 0.475575 0.462118 0.312203
O O13 0.724981 0.390871 0.533209
O O14 0.583062 0.559106 0.977587
O O15 0.000000 0.000000 0.000000
#
# Coordination Sequence:
#
# PCOD9086666 Si02
#       7
#     2   2   2   2   2   2   2
#     4  10  21  37  61  89 120 159 200 251 299 359
#     4  10  20  38  60  90 115 153 212 257 295 346
#     4  10  21  35  62  90 118 155 202 258 294 351
#     4  10  23  37  57  88 124 163 198 241 302 367
#     4  10  22  35  58  89 131 161 194 242 298 372
#     4  10  19  36  59  92 120 159 200 240 303 362
#     4  12  22  37  56  91 126 161 198 245 303 358
#
# _framework density 25.816682
#
# number of rings (size 3 to 8) (size 9 to 14) (size 15 to 20)
#    0.000    1.714    2.857    1.714    8.000    0.000 
#    0.000    0.000    0.000    4.286    3.714    0.000 
#    0.000    0.000    0.000    0.000    0.000    0.000 
#
# Total GULP energy -78129.619626 kJ/mol
# GULP energy per Si atom -5580.687116 kJ/mol
# Density = 2.575792 g / cm^3
# Si number density = 25.816682 Si / 1000 Ang^3
#
#
#
# Elastic Constant Matrix: (Units=GPa)
#
#
# Indices 1 2 3 4 5 6 
#
# 1 103.3466 19.1892 53.3649 -17.6636 34.5177 29.5056
# 2 19.1892 55.5520 51.5802 -31.3356 22.5344 12.9168
# 3 53.3649 51.5802 180.9048 -48.7817 49.5525 25.6732
# 4 -17.6636 -31.3356 -48.7817 59.1092 -6.3197 -6.6605
# 5 34.5177 22.5344 49.5525 -6.3197 48.4064 5.3862
# 6 29.5056 12.9168 25.6732 -6.6605 5.3862 49.2380
#
#
#
# Elastic Compliance Matrix: (Units=1/GPa)
#
#
# Indices 1 2 3 4 5 6 
#
# 1 0.016196 0.003875 -0.000302 0.004435 -0.011496 -0.008707
# 2 0.003875 0.034548 -0.002007 0.015563 -0.014014 -0.006700
# 3 -0.000302 -0.002007 0.010728 0.006428 -0.008651 -0.003070
# 4 0.004435 0.015563 0.006428 0.029929 -0.012561 -0.004669
# 5 -0.011496 -0.014014 -0.008651 -0.012561 0.041614 0.008825
# 6 -0.008707 -0.006700 -0.003070 -0.004669 0.008825 0.027289
#
#
# Mechanical properties :
#
#
# Convention : Reuss Voigt Hill
#
# Bulk Modulus (GPa) = 15.47900 65.34132 40.41016
# Shear Modulus (GPa) = 27.97867 45.72866 36.85367
#
# Velocity S-wave (km/s) = 3.29560 4.21323 3.78234
# Velocity P-wave (km/s) = 4.52659 7.00236 5.89589
#
# Compressibility (1/GPa) = 0.06460366
#
# Stress axis : x y z
#
# Youngs Moduli (GPa) = 61.74281 28.94542 93.21328
#
# Poissons Ratio (x) = -0.11218 0.02817
# Poissons Ratio (y) = -0.23928 0.18712
# Poissons Ratio (z) = 0.01866 0.05811
#
# Static dielectric constant tensor:
#      x y z
#    x 2.158700 -0.092890 0.043460 
#    y -0.092890 2.209900 0.027830 
#    z 0.043460 0.027830 2.005110 
# 
# From -- ./inp_files/236767.got.cif
#   From: 2010.05.17/outbox.cif.g08.bks.cpg/sg2_119_cif.got.tgz:236767.got - 2010.06.03 11:33:40.
