data_PCOD9086600
_publ_section_title
;
Structure prediction by ZEFSAII (Michael W. Deem and Ramdas Pophale) SiO2 
 PCOD9086600
Probable space group: P -1
;
_chemical_formula_sum "Si O2"
_cell_formula_units_Z 16
_cell_length_a 9.934116
_cell_length_b 11.507902
_cell_length_c 12.131961
_cell_angle_alpha 47.360277
_cell_angle_beta 73.295793
_cell_angle_gamma 57.548490
_cell_volume 854.464644
_symmetry_space_group_name_H-M "P -1"
_symmetry_group_IT_number 2
_symmetry_cell_setting 'triclinic'
loop_
_space_group_symop_operation_xyz
x,y,z
-x,-y,-z
loop_
_atom_site_type_symbol
_atom_site_label
_atom_site_fract_x
_atom_site_fract_y
_atom_site_fract_z
Si Si1 0.948434 0.368121 0.031369
Si Si2 0.732996 0.949899 0.925581
Si Si3 0.635507 0.510939 0.315308
Si Si4 0.517021 0.179846 0.013083
Si Si5 0.471082 0.751899 0.379823
Si Si6 0.138475 0.826142 0.635405
Si Si7 0.535437 0.150057 0.446653
Si Si8 0.588419 0.614959 0.877989
O O1 0.916358 0.236736 0.203529
O O2 0.093198 0.224776 0.012936
O O3 0.777234 0.500475 0.932618
O O4 0.000000 0.500000 0.000000
O O5 0.680383 0.041896 0.999526
O O6 0.685590 0.112903 0.742210
O O7 0.609331 0.883022 0.956398
O O8 0.546926 0.624915 0.155267
O O9 0.614032 0.657250 0.318481
O O10 0.550119 0.404494 0.454680
O O11 0.804949 0.349036 0.344400
O O12 0.498211 0.217098 0.123404
O O13 0.500779 0.844007 0.418557
O O14 0.286680 0.867202 0.591643
O O15 0.000000 0.000000 0.500000
O O16 0.433202 0.323163 0.282835
O O17 0.500000 0.000000 0.500000
O O18 0.500000 0.500000 0.000000
#
# Coordination Sequence:
#
# PCOD9086600 Si02
#       8
#     2   2   2   2   2   2   2   2
#     4  12  22  37  61  92 116 152 203 248 290 340
#     4  10  20  35  60  90 111 142 201 253 282 336
#     4   9  16  33  55  84 108 143 190 246 279 332
#     4  10  19  36  59  86 114 151 191 242 296 341
#     4   9  18  33  57  82 110 144 195 236 284 338
#     4  11  22  37  60  89 118 147 200 252 288 335
#     4  11  23  38  57  86 119 161 191 231 299 364
#     4  12  22  39  59  84 126 158 189 237 300 363
#
# _framework density 18.725173999999999
#
# number of rings (size 3 to 8) (size 9 to 14) (size 15 to 20)
#    0.000    1.500    3.750    3.000    1.750    0.000 
#    0.000    0.625    2.750    0.750    0.000    0.000 
#    0.000    0.000    0.000    0.000    0.000    0.000 
#
# Total GULP energy -89091.735889 kJ/mol
# GULP energy per Si atom -5568.233493 kJ/mol
# Density = 1.868256 g / cm^3
# Si number density = 18.725174 Si / 1000 Ang^3
#
#
#
# Elastic Constant Matrix: (Units=GPa)
#
#
# Indices 1 2 3 4 5 6 
#
# 1 85.2253 30.2929 21.9102 -11.4623 10.5521 -6.5970
# 2 30.2929 136.7321 7.6564 5.7363 15.4899 -12.4844
# 3 21.9102 7.6564 65.9463 -10.6877 4.5274 -8.6011
# 4 -11.4623 5.7363 -10.6877 34.4238 2.3587 2.5825
# 5 10.5521 15.4899 4.5274 2.3587 30.6393 -8.5768
# 6 -6.5970 -12.4844 -8.6011 2.5825 -8.5768 30.1512
#
#
#
# Elastic Compliance Matrix: (Units=1/GPa)
#
#
# Indices 1 2 3 4 5 6 
#
# 1 0.014705 -0.002881 -0.003628 0.004522 -0.003533 -0.000403
# 2 -0.002881 0.008550 0.000066 -0.002376 -0.002478 0.002428
# 3 -0.003628 0.000066 0.017537 0.003991 -0.000644 0.003711
# 4 0.004522 -0.002376 0.003991 0.032698 -0.004267 -0.002870
# 5 -0.003533 -0.002478 -0.000644 -0.004267 0.038113 0.009225
# 6 -0.000403 0.002428 0.003711 -0.002870 0.009225 0.038012
#
#
# Mechanical properties :
#
#
# Convention : Reuss Voigt Hill
#
# Bulk Modulus (GPa) = 35.83506 45.29142 40.56324
# Shear Modulus (GPa) = 29.10320 34.24581 31.67451
#
# Velocity S-wave (km/s) = 3.94665 4.28116 4.11730
# Velocity P-wave (km/s) = 6.32036 6.97694 6.65675
#
# Compressibility (1/GPa) = 0.02790563
#
# Stress axis : x y z
#
# Youngs Moduli (GPa) = 68.00493 116.95694 57.02334
#
# Poissons Ratio (x) = 0.33695 0.20689
# Poissons Ratio (y) = 0.19592 -0.00377
# Poissons Ratio (z) = 0.24674 -0.00774
#
# Static dielectric constant tensor:
#      x y z
#    x 1.641090 0.010870 -0.032120 
#    y 0.010870 1.767350 0.016170 
#    z -0.032120 0.016170 1.688290 
# 
# From -- ./inp_files/258919.got.cif
#   From: 2010.05.17/outbox.cif.g08.bks.cpg/sg2_130_cif.got.tgz:258919.got - 2010.06.03 11:33:40.
