data_PCOD9086618
_publ_section_title
;
Structure prediction by ZEFSAII (Michael W. Deem and Ramdas Pophale) SiO2 
 PCOD9086618
Probable space group: P -1
;
_chemical_formula_sum "Si O2"
_cell_formula_units_Z 16
_cell_length_a 19.515226
_cell_length_b 8.484132
_cell_length_c 10.286752
_cell_angle_alpha 133.714920
_cell_angle_beta 46.722076
_cell_angle_gamma 137.459761
_cell_volume 776.223833
_symmetry_space_group_name_H-M "P -1"
_symmetry_group_IT_number 2
_symmetry_cell_setting 'triclinic'
loop_
_space_group_symop_operation_xyz
x,y,z
-x,-y,-z
loop_
_atom_site_type_symbol
_atom_site_label
_atom_site_fract_x
_atom_site_fract_y
_atom_site_fract_z
Si Si1 0.383626 0.494158 0.303443
Si Si2 0.121612 0.567883 0.016500
Si Si3 0.716349 0.202187 0.286519
Si Si4 0.850746 0.928742 0.622114
Si Si5 0.950922 0.719490 0.579312
Si Si6 0.098408 0.764884 0.765036
Si Si7 0.381551 0.375195 0.943135
Si Si8 0.180397 0.314334 0.012697
O O1 0.368064 0.713297 0.511255
O O2 0.275617 0.238532 0.338286
O O3 0.496141 0.508897 0.200924
O O4 0.381494 0.500314 0.152026
O O5 0.193977 0.598593 0.815510
O O6 0.178066 0.515098 0.034972
O O7 0.995259 0.351839 0.067807
O O8 0.126295 0.832734 0.183266
O O9 0.788702 0.201058 0.310993
O O10 0.659721 0.919986 0.143176
O O11 0.888236 0.764786 0.565523
O O12 0.927181 0.052215 0.468702
O O13 0.943858 0.452103 0.411365
O O14 0.893123 0.721234 0.786435
O O15 0.125191 0.044533 0.858231
O O16 0.297581 0.384377 0.957086
#
# Coordination Sequence:
#
# PCOD9086618 Si02
#       8
#     2   2   2   2   2   2   2   2
#     4  11  20  38  64  85 106 146 199 241 284 320
#     4  11  23  36  55  89 123 153 183 228 287 349
#     4  11  20  37  60  86 111 146 195 238 279 331
#     4  10  19  36  59  87 112 143 192 238 277 334
#     4  10  20  37  59  87 114 149 189 237 286 334
#     4  10  21  36  58  84 114 153 190 229 280 337
#     4  10  22  39  62  83 111 146 196 244 276 332
#     4  11  22  40  55  83 125 155 183 229 288 342
#
# _framework density 20.612613
#
# number of rings (size 3 to 8) (size 9 to 14) (size 15 to 20)
#    0.000    1.500    3.750    1.875    1.750    2.000 
#    2.250    1.250    0.000    0.000    0.000    0.000 
#    0.000    0.000    0.000    0.000    0.000    0.000 
#
# Total GULP energy -89422.825911 kJ/mol
# GULP energy per Si atom -5588.926619 kJ/mol
# Density = 2.056570 g / cm^3
# Si number density = 20.612613 Si / 1000 Ang^3
#
#
#
# Elastic Constant Matrix: (Units=GPa)
#
#
# Indices 1 2 3 4 5 6 
#
# 1 69.3546 20.3241 29.7110 -8.6588 -14.4576 10.4051
# 2 20.3241 49.3315 16.7077 -9.7514 -9.8599 20.7951
# 3 29.7110 16.7077 102.1846 -7.2999 -12.7496 -0.5888
# 4 -8.6588 -9.7514 -7.2999 36.8880 10.1751 -9.9632
# 5 -14.4576 -9.8599 -12.7496 10.1751 26.4805 -12.1746
# 6 10.4051 20.7951 -0.5888 -9.9632 -12.1746 22.1448
#
#
#
# Elastic Compliance Matrix: (Units=1/GPa)
#
#
# Indices 1 2 3 4 5 6 
#
# 1 0.018977 -0.004735 -0.003964 0.000473 0.006025 -0.001050
# 2 -0.004735 0.039499 -0.006514 -0.000246 -0.009475 -0.040360
# 3 -0.003964 -0.006514 0.013062 0.001461 0.007050 0.012860
# 4 0.000473 -0.000246 0.001461 0.032190 -0.006448 0.010985
# 5 0.006025 -0.009475 0.007050 -0.006448 0.060140 0.036417
# 6 -0.001050 -0.040360 0.012860 0.010985 0.036417 0.108856
#
#
# Mechanical properties :
#
#
# Convention : Reuss Voigt Hill
#
# Bulk Modulus (GPa) = 24.32429 39.37293 31.84861
# Shear Modulus (GPa) = 15.78013 27.37785 21.57899
#
# Velocity S-wave (km/s) = 2.76987 3.64841 3.23907
# Velocity P-wave (km/s) = 4.69637 6.07377 5.42893
#
# Compressibility (1/GPa) = 0.04111118
#
# Stress axis : x y z
#
# Youngs Moduli (GPa) = 52.69531 25.31731 76.55798
#
# Poissons Ratio (x) = 0.11989 0.30348
# Poissons Ratio (y) = 0.24954 0.49868
# Poissons Ratio (z) = 0.20889 0.16491
#
# Static dielectric constant tensor:
#      x y z
#    x 1.727000 0.025060 0.002760 
#    y 0.025060 1.737250 0.011450 
#    z 0.002760 0.011450 1.752750 
# 
# From -- ./inp_files/282670.got.cif
#   From: 2010.05.17/outbox.cif.g08.bks.cpg/sg2_142_cif.got.tgz:282670.got - 2010.06.03 11:33:40.
