data_PCOD9086453
_publ_section_title
;
Structure prediction by ZEFSAII (Michael W. Deem and Ramdas Pophale) SiO2 
 PCOD9086453
Probable space group: P -1
;
_chemical_formula_sum "Si O2"
_cell_formula_units_Z 16
_cell_length_a 10.621911
_cell_length_b 8.828959
_cell_length_c 22.588642
_cell_angle_alpha 141.088640
_cell_angle_beta 30.537543
_cell_angle_gamma 138.693224
_cell_volume 653.940314
_symmetry_space_group_name_H-M "P -1"
_symmetry_group_IT_number 2
_symmetry_cell_setting 'triclinic'
loop_
_space_group_symop_operation_xyz
x,y,z
-x,-y,-z
loop_
_atom_site_type_symbol
_atom_site_label
_atom_site_fract_x
_atom_site_fract_y
_atom_site_fract_z
Si Si1 0.636009 0.239726 0.095108
Si Si2 0.902050 0.481506 0.838705
Si Si3 0.684817 0.821264 0.633808
Si Si4 0.801977 0.742220 0.429570
Si Si5 0.373611 0.132972 0.907656
Si Si6 0.998374 0.236665 0.844930
Si Si7 0.431468 0.992909 0.594989
Si Si8 0.724804 0.525507 0.638349
O O1 0.813445 0.505828 0.127299
O O2 0.348368 0.276382 0.227385
O O3 0.660102 0.028482 0.067623
O O4 0.744780 0.193490 0.973749
O O5 0.635390 0.351074 0.875074
O O6 0.118955 0.486502 0.703557
O O7 0.951539 0.303702 0.817025
O O8 0.856228 0.732145 0.962665
O O9 0.752724 0.731911 0.515904
O O10 0.616223 0.603573 0.644010
O O11 0.456893 0.962538 0.771712
O O12 0.948231 0.021284 0.609198
O O13 0.551730 0.792935 0.516253
O O14 0.143451 0.016998 0.725280
O O15 0.592956 0.256485 0.635370
O O16 0.500000 0.000000 0.500000
O O17 0.000000 0.500000 0.500000
#
# Coordination Sequence:
#
# PCOD9086453 Si02
#       8
#     2   2   2   2   2   2   2   2
#     4   9  21  38  57  84 114 150 199 232 285 355
#     4  10  20  37  57  86 120 149 191 245 295 338
#     4   9  19  36  60  85 111 148 196 239 285 341
#     4  10  19  36  58  86 115 149 193 239 287 345
#     4   9  20  38  59  82 114 154 191 243 292 341
#     4  10  21  38  58  84 116 155 195 236 288 354
#     4  11  21  36  58  81 118 156 184 235 300 340
#     4  10  19  37  60  87 110 146 199 243 279 341
#
# _framework density 24.467064000000001
#
# number of rings (size 3 to 8) (size 9 to 14) (size 15 to 20)
#    0.000    2.250    2.500    0.000    0.000    4.000 
#    6.750    3.125    0.000    0.000    0.000    0.000 
#    0.000    0.000    0.000    0.000    0.000    0.000 
#
# Total GULP energy -89409.965205 kJ/mol
# GULP energy per Si atom -5588.122825 kJ/mol
# Density = 2.441138 g / cm^3
# Si number density = 24.467064 Si / 1000 Ang^3
#
#
#
# Elastic Constant Matrix: (Units=GPa)
#
#
# Indices 1 2 3 4 5 6 
#
# 1 52.0644 -1.3258 59.0981 -0.1911 1.4603 7.7361
# 2 -1.3258 64.0329 30.4540 0.0182 -5.7049 13.2362
# 3 59.0981 30.4540 261.3876 -9.2832 -7.5473 -14.2313
# 4 -0.1911 0.0182 -9.2832 37.1264 -10.5506 4.0154
# 5 1.4603 -5.7049 -7.5473 -10.5506 44.3420 -4.7385
# 6 7.7361 13.2362 -14.2313 4.0154 -4.7385 21.2241
#
#
#
# Elastic Compliance Matrix: (Units=1/GPa)
#
#
# Indices 1 2 3 4 5 6 
#
# 1 0.037303 0.012029 -0.011641 -0.000938 -0.005076 -0.029860
# 2 0.012029 0.024072 -0.006849 0.000714 -0.000894 -0.024324
# 3 -0.011641 -0.006849 0.008159 0.001200 0.002711 0.014363
# 4 -0.000938 0.000714 0.001200 0.029582 0.007010 -0.003330
# 5 -0.005076 -0.000894 0.002711 0.007010 0.025656 0.008628
# 6 -0.029860 -0.024324 0.014363 -0.003330 0.008628 0.085357
#
#
# Mechanical properties :
#
#
# Convention : Reuss Voigt Hill
#
# Bulk Modulus (GPa) = 17.66431 61.54859 39.60645
# Shear Modulus (GPa) = 20.66798 39.82240 30.24519
#
# Velocity S-wave (km/s) = 2.90957 4.03872 3.51972
# Velocity P-wave (km/s) = 4.30381 6.85264 5.72195
#
# Compressibility (1/GPa) = 0.05661132
#
# Stress axis : x y z
#
# Youngs Moduli (GPa) = 26.80758 41.54276 122.56953
#
# Poissons Ratio (x) = -0.49973 1.42684
# Poissons Ratio (y) = -0.32248 0.83949
# Poissons Ratio (z) = 0.31207 0.28453
#
# Static dielectric constant tensor:
#      x y z
#    x 1.980240 0.158590 -0.024770 
#    y 0.158590 2.050430 0.024120 
#    z -0.024770 0.024120 1.986700 
# 
# From -- ./inp_files/180223.got.cif
#   From: 2010.05.17/outbox.cif.g08.bks.cpg/sg2_91_cif.got.tgz:180223.got - 2010.06.03 11:33:40.
