data_PCOD9086265
_publ_section_title
;
Structure prediction by ZEFSAII (Michael W. Deem and Ramdas Pophale) SiO2 
 PCOD9086265
Probable space group: P -1
;
_chemical_formula_sum "Si O2"
_cell_formula_units_Z 13
_cell_length_a 12.741665
_cell_length_b 13.163661
_cell_length_c 14.540491
_cell_angle_alpha 29.053498
_cell_angle_beta 35.543787
_cell_angle_gamma 31.123478
_cell_volume 591.075458
_symmetry_space_group_name_H-M "P -1"
_symmetry_group_IT_number 2
_symmetry_cell_setting 'triclinic'
loop_
_space_group_symop_operation_xyz
x,y,z
-x,-y,-z
loop_
_atom_site_type_symbol
_atom_site_label
_atom_site_fract_x
_atom_site_fract_y
_atom_site_fract_z
Si Si1 0.500000 0.000000 0.500000
Si Si2 0.705395 0.098899 0.710271
Si Si3 0.017030 0.286344 0.334737
Si Si4 0.281050 0.014597 0.826929
Si Si5 0.831062 0.374994 0.772587
Si Si6 0.732010 0.822674 0.087789
Si Si7 0.132220 0.197878 0.533801
O O1 0.572149 0.957993 0.371307
O O2 0.700445 0.052766 0.341009
O O3 0.811990 0.259653 0.495497
O O4 0.458780 0.212028 0.782020
O O5 0.819175 0.887364 0.720327
O O6 0.755643 0.987970 0.864485
O O7 0.943646 0.563658 0.148481
O O8 0.098340 0.217109 0.435845
O O9 0.318585 0.062800 0.865997
O O10 0.040028 0.221063 0.808208
O O11 0.304600 0.749065 0.017649
O O12 0.741360 0.661248 0.632043
O O13 0.920547 0.323924 0.644734
#
# Coordination Sequence:
#
# PCOD9086265 Si02
#       7
#     1   2   2   2   2   2   2
#     4  10  22  34  54  84 122 142 190 244 276 348
#     4  10  24  38  60  91 118 149 206 251 289 347
#     4  11  21  40  63  86 118 160 194 245 300 347
#     4  10  19  36  57  82 114 152 187 235 289 344
#     4   9  19  34  57  82 111 150 191 223 284 365
#     4  11  21  40  63  86 118 159 195 248 295 350
#     4  10  19  36  57  83 114 152 187 234 291 347
#
# _framework density 21.993808000000001
#
# number of rings (size 3 to 8) (size 9 to 14) (size 15 to 20)
#    0.000    1.846    1.538    2.769    0.000    0.615 
#    0.000    0.000    6.769    0.000    0.000    0.000 
#    0.000    0.000    0.000    0.000    0.000    0.000 
#
# Total GULP energy -72435.548703 kJ/mol
# GULP energy per Si atom -5571.965285 kJ/mol
# Density = 2.194375 g / cm^3
# Si number density = 21.993808 Si / 1000 Ang^3
#
#
#
# Elastic Constant Matrix: (Units=GPa)
#
#
# Indices 1 2 3 4 5 6 
#
# 1 69.1278 14.3428 21.3024 -0.4198 35.1539 16.4740
# 2 14.3428 50.5109 37.6300 2.5549 16.2150 10.9887
# 3 21.3024 37.6300 71.7246 5.6682 25.2803 13.6431
# 4 -0.4198 2.5549 5.6682 25.4758 10.6134 6.0270
# 5 35.1539 16.2150 25.2803 10.6134 43.0341 12.8849
# 6 16.4740 10.9887 13.6431 6.0270 12.8849 29.7987
#
#
#
# Elastic Compliance Matrix: (Units=1/GPa)
#
#
# Indices 1 2 3 4 5 6 
#
# 1 0.028740 0.000588 0.000380 0.012496 -0.024551 -0.008191
# 2 0.000588 0.033321 -0.015961 0.002511 -0.002915 -0.004552
# 3 0.000380 -0.015961 0.025717 0.000072 -0.008720 -0.002342
# 4 0.012496 0.002511 0.000072 0.049995 -0.020842 -0.008967
# 5 -0.024551 -0.002915 -0.008720 -0.020842 0.054921 -0.000892
# 6 -0.008191 -0.004552 -0.002342 -0.008967 -0.000892 0.043037
#
#
# Mechanical properties :
#
#
# Convention : Reuss Voigt Hill
#
# Bulk Modulus (GPa) = 17.30414 37.54597 27.42506
# Shear Modulus (GPa) = 17.54493 27.53426 22.53960
#
# Velocity S-wave (km/s) = 2.82746 3.54207 3.20475
# Velocity P-wave (km/s) = 4.30630 5.81692 5.11765
#
# Compressibility (1/GPa) = 0.05778965
#
# Stress axis : x y z
#
# Youngs Moduli (GPa) = 34.79460 30.01115 38.88510
#
# Poissons Ratio (x) = -0.01763 -0.01477
# Poissons Ratio (y) = -0.02044 0.62066
# Poissons Ratio (z) = -0.01321 0.47902
#
# Static dielectric constant tensor:
#      x y z
#    x 1.357450 0.794300 -0.277190 
#    y 0.794300 0.368130 0.439780 
#    z -0.277190 0.439780 1.637870 
# 
# From -- ./inp_files/172523.got.cif
#   From: 2010.05.17/outbox.cif.g08.bks.cpg/sg2_87_cif.got.tgz:172523.got - 2010.06.03 11:33:40.
