data_PCOD9086702
_publ_section_title
;
Structure prediction by ZEFSAII (Michael W. Deem and Ramdas Pophale) SiO2 
 PCOD9086702
Probable space group: P -1
;
_chemical_formula_sum "Si O2"
_cell_formula_units_Z 16
_cell_length_a 10.696121
_cell_length_b 12.233734
_cell_length_c 11.723650
_cell_angle_alpha 129.780782
_cell_angle_beta 142.953139
_cell_angle_gamma 62.573003
_cell_volume 706.106100
_symmetry_space_group_name_H-M "P -1"
_symmetry_group_IT_number 2
_symmetry_cell_setting 'triclinic'
loop_
_space_group_symop_operation_xyz
x,y,z
-x,-y,-z
loop_
_atom_site_type_symbol
_atom_site_label
_atom_site_fract_x
_atom_site_fract_y
_atom_site_fract_z
Si Si1 0.761057 0.255311 0.457724
Si Si2 0.364909 0.372936 0.248286
Si Si3 0.758884 0.228954 0.899989
Si Si4 0.056077 0.126049 0.411279
Si Si5 0.158067 0.109614 0.072974
Si Si6 0.613895 0.084920 0.462123
Si Si7 0.844382 0.545936 0.070778
Si Si8 0.401002 0.337369 0.839824
O O1 0.548219 0.292142 0.269948
O O2 0.696879 0.193650 0.494468
O O3 0.887368 0.155906 0.403755
O O4 0.922109 0.394279 0.688384
O O5 0.500000 0.500000 0.500000
O O6 0.217441 0.438312 0.094073
O O7 0.234687 0.250644 0.146681
O O8 0.662889 0.138192 0.661671
O O9 0.590674 0.246684 0.887273
O O10 0.969303 0.162866 0.044035
O O11 0.805909 0.387139 0.985537
O O12 0.195004 0.274452 0.574273
O O13 0.244792 0.043115 0.541190
O O14 0.938692 0.020482 0.163554
O O15 0.364325 0.068104 0.257182
O O16 0.698612 0.650161 0.100207
O O17 0.500000 0.500000 0.000000
#
# Coordination Sequence:
#
# PCOD9086702 Si02
#       8
#     2   2   2   2   2   2   2   2
#     4  10  21  35  56  87 118 147 183 229 282 340
#     4  11  22  35  57  91 121 147 184 227 278 343
#     4  10  20  38  57  80 114 150 193 235 276 328
#     4  10  21  38  59  81 113 150 190 231 280 337
#     4  10  22  36  57  88 118 148 184 232 283 336
#     4  10  21  35  56  85 115 148 183 228 283 338
#     4  10  19  36  60  82 113 153 186 229 284 330
#     4   9  21  40  61  81 107 148 194 238 279 327
#
# _framework density 22.659483000000002
#
# number of rings (size 3 to 8) (size 9 to 14) (size 15 to 20)
#    0.000    2.000    0.000    4.125    0.000    8.500 
#    0.000    5.000    0.000   13.500    0.000    0.000 
#    0.000    0.000    0.000    0.000    0.000    0.000 
#
# Total GULP energy -89339.998104 kJ/mol
# GULP energy per Si atom -5583.749881 kJ/mol
# Density = 2.260791 g / cm^3
# Si number density = 22.659483 Si / 1000 Ang^3
#
#
#
# Elastic Constant Matrix: (Units=GPa)
#
#
# Indices 1 2 3 4 5 6 
#
# 1 88.7909 43.8593 39.3553 -2.6908 20.3630 -37.0964
# 2 43.8593 100.6513 38.4025 -14.2025 4.5655 -30.0397
# 3 39.3553 38.4025 120.1073 3.5471 20.3591 -4.4163
# 4 -2.6908 -14.2025 3.5471 45.6616 -5.7160 11.3118
# 5 20.3630 4.5655 20.3591 -5.7160 35.0920 -1.6926
# 6 -37.0964 -30.0397 -4.4163 11.3118 -1.6926 54.8304
#
#
#
# Elastic Compliance Matrix: (Units=1/GPa)
#
#
# Indices 1 2 3 4 5 6 
#
# 1 0.023176 -0.004920 -0.003560 -0.004540 -0.010841 0.013300
# 2 -0.004920 0.015149 -0.003897 0.004262 0.004027 0.003902
# 3 -0.003560 -0.003897 0.011450 -0.002056 -0.004566 -0.003338
# 4 -0.004540 0.004262 -0.002056 0.025483 0.007137 -0.005939
# 5 -0.010841 0.004027 -0.004566 0.007137 0.037795 -0.005802
# 6 0.013300 0.003902 -0.003338 -0.005939 -0.005802 0.030151
#
#
# Mechanical properties :
#
#
# Convention : Reuss Voigt Hill
#
# Bulk Modulus (GPa) = 39.96555 61.42041 50.69298
# Shear Modulus (GPa) = 28.36087 39.64563 34.00325
#
# Velocity S-wave (km/s) = 3.54165 4.18739 3.87798
# Velocity P-wave (km/s) = 5.86516 7.10941 6.51705
#
# Compressibility (1/GPa) = 0.02502155
#
# Stress axis : x y z
#
# Youngs Moduli (GPa) = 43.14817 66.00929 87.33404
#
# Poissons Ratio (x) = 0.32478 0.31092
# Poissons Ratio (y) = 0.21230 0.34031
# Poissons Ratio (z) = 0.15361 0.25721
#
# Static dielectric constant tensor:
#      x y z
#    x 1.841110 -0.021020 0.031590 
#    y -0.021020 1.896530 0.057490 
#    z 0.031590 0.057490 1.852470 
# 
# From -- ./inp_files/423669.got.cif
#   From: 2010.05.17/outbox.cif.g08.bks.cpg/sg2_212_cif.got.tgz:423669.got - 2010.06.03 11:33:40.
