data_PCOD9086999
_publ_section_title
;
Structure prediction by ZEFSAII (Michael W. Deem and Ramdas Pophale) SiO2 
 PCOD9086999
Probable space group: P -1
;
_chemical_formula_sum "Si O2"
_cell_formula_units_Z 16
_cell_length_a 8.327740
_cell_length_b 8.786723
_cell_length_c 14.205933
_cell_angle_alpha 72.908912
_cell_angle_beta 52.963824
_cell_angle_gamma 97.630520
_cell_volume 724.820137
_symmetry_space_group_name_H-M "P -1"
_symmetry_group_IT_number 2
_symmetry_cell_setting 'triclinic'
loop_
_space_group_symop_operation_xyz
x,y,z
-x,-y,-z
loop_
_atom_site_type_symbol
_atom_site_label
_atom_site_fract_x
_atom_site_fract_y
_atom_site_fract_z
Si Si1 0.239223 0.623471 0.940513
Si Si2 0.495516 0.404526 0.399358
Si Si3 0.223472 0.630480 0.169089
Si Si4 0.119693 0.716581 0.678469
Si Si5 0.387958 0.353476 0.851200
Si Si6 0.105586 0.194519 0.700242
Si Si7 0.842588 0.948161 0.477666
Si Si8 0.084367 0.866850 0.865291
O O1 0.387032 0.526595 0.870539
O O2 0.264525 0.813036 0.861798
O O3 0.254503 0.630496 0.046017
O O4 0.000000 0.500000 0.000000
O O5 0.716158 0.376917 0.345813
O O6 0.545673 0.579697 0.291081
O O7 0.328559 0.352705 0.556646
O O8 0.358168 0.237690 0.411110
O O9 0.439186 0.698929 0.144515
O O10 0.084642 0.425539 0.278490
O O11 0.073256 0.735852 0.219885
O O12 0.048450 0.767446 0.794852
O O13 0.231035 0.896980 0.550473
O O14 0.859092 0.790631 0.019080
O O15 0.027761 0.077609 0.654578
O O16 0.147610 0.067530 0.782633
O O17 0.000000 0.000000 0.500000
#
# Coordination Sequence:
#
# PCOD9086999 Si02
#       8
#     2   2   2   2   2   2   2   2
#     4  10  19  36  61  88 114 159 209 252 293 359
#     4  10  21  39  65  92 123 158 212 254 307 365
#     4  12  23  38  61  94 133 161 201 261 311 369
#     4  11  19  36  66  89 122 163 209 258 300 362
#     4  11  21  36  65  95 117 162 214 254 307 360
#     4   9  25  40  61  92 130 162 201 256 319 365
#     4   9  20  40  61  89 122 163 205 250 306 368
#     4  10  20  41  64  87 122 162 213 257 300 367
#
# _framework density 22.074442000000001
#
# number of rings (size 3 to 8) (size 9 to 14) (size 15 to 20)
#    0.750    1.000    3.750    2.250    0.000    2.000 
#    0.000    0.000    0.000    0.000    0.000    0.000 
#    0.000    0.000    0.000    0.000    0.000    0.000 
#
# Total GULP energy -89264.994309 kJ/mol
# GULP energy per Si atom -5579.062144 kJ/mol
# Density = 2.202420 g / cm^3
# Si number density = 22.074442 Si / 1000 Ang^3
#
#
#
# Elastic Constant Matrix: (Units=GPa)
#
#
# Indices 1 2 3 4 5 6 
#
# 1 73.3935 20.6742 19.6663 -4.3976 11.5088 -13.0933
# 2 20.6742 75.0887 26.4519 -4.6364 10.1165 -18.3870
# 3 19.6663 26.4519 107.2447 -7.1703 20.9556 -17.1340
# 4 -4.3976 -4.6364 -7.1703 31.0451 -8.2063 0.4322
# 5 11.5088 10.1165 20.9556 -8.2063 28.1249 -0.4690
# 6 -13.0933 -18.3870 -17.1340 0.4322 -0.4690 31.8754
#
#
#
# Elastic Compliance Matrix: (Units=1/GPa)
#
#
# Indices 1 2 3 4 5 6 
#
# 1 0.016137 -0.002325 -0.000572 0.000377 -0.005150 0.004899
# 2 -0.002325 0.017025 -0.001787 0.000770 -0.003485 0.007843
# 3 -0.000572 -0.001787 0.012313 0.000274 -0.008130 0.005229
# 4 0.000377 0.000770 0.000274 0.034968 0.009574 0.000413
# 5 -0.005150 -0.003485 -0.008130 0.009574 0.047636 -0.007925
# 6 0.004899 0.007843 0.005229 0.000413 -0.007925 0.040598
#
#
# Mechanical properties :
#
#
# Convention : Reuss Voigt Hill
#
# Bulk Modulus (GPa) = 27.69520 43.25686 35.47603
# Shear Modulus (GPa) = 26.30473 30.80470 28.55471
#
# Velocity S-wave (km/s) = 3.45575 3.73968 3.60052
# Velocity P-wave (km/s) = 5.33821 6.18752 5.77849
#
# Compressibility (1/GPa) = 0.03610734
#
# Stress axis : x y z
#
# Youngs Moduli (GPa) = 61.96776 58.73697 81.21824
#
# Poissons Ratio (x) = 0.13656 0.04642
# Poissons Ratio (y) = 0.14407 0.14516
# Poissons Ratio (z) = 0.03542 0.10498
#
# Static dielectric constant tensor:
#      x y z
#    x 1.763540 0.009870 0.010010 
#    y 0.009870 1.850670 -0.016690 
#    z 0.010010 -0.016690 1.912880 
# 
# From -- ./inp_files/492709.got.cif
#   From: 2010.05.17/outbox.cif.g08.bks.cpg/sg2_247_cif.got.tgz:492709.got - 2010.06.03 11:33:40.
