data_PCOD9086157
_publ_section_title
;
Structure prediction by ZEFSAII (Michael W. Deem and Ramdas Pophale) SiO2 
 PCOD9086157
Probable space group: P -1
;
_chemical_formula_sum "Si O2"
_cell_formula_units_Z 14
_cell_length_a 7.922208
_cell_length_b 13.238852
_cell_length_c 7.226684
_cell_angle_alpha 71.961995
_cell_angle_beta 121.788775
_cell_angle_gamma 80.951710
_cell_volume 562.396601
_symmetry_space_group_name_H-M "P -1"
_symmetry_group_IT_number 2
_symmetry_cell_setting 'triclinic'
loop_
_space_group_symop_operation_xyz
x,y,z
-x,-y,-z
loop_
_atom_site_type_symbol
_atom_site_label
_atom_site_fract_x
_atom_site_fract_y
_atom_site_fract_z
Si Si1 0.261354 0.654692 0.789071
Si Si2 0.750576 0.573766 0.046813
Si Si3 0.755459 0.965850 0.204194
Si Si4 0.851965 0.768916 0.108987
Si Si5 0.161665 0.817016 0.971494
Si Si6 0.422180 0.712510 0.503703
Si Si7 0.402542 0.922501 0.594224
O O1 0.522081 0.604645 0.006201
O O2 0.271408 0.666112 0.565085
O O3 0.160210 0.563775 0.837770
O O4 0.166874 0.767749 0.797308
O O5 0.891853 0.634748 0.188897
O O6 0.661366 0.635191 0.760626
O O7 0.770755 0.993149 0.413004
O O8 0.827534 0.057947 0.090549
O O9 0.500000 0.000000 0.000000
O O10 0.865018 0.836394 0.263943
O O11 0.594856 0.828785 0.877099
O O12 0.972387 0.808312 0.993643
O O13 0.374081 0.726137 0.253734
O O14 0.345393 0.843228 0.463059
O O15 0.500000 0.000000 0.500000
#
# Coordination Sequence:
#
# PCOD9086157 Si02
#       7
#     2   2   2   2   2   2   2
#     4   9  18  38  61  75 110 149 192 225 266 319
#     4   8  18  39  58  76 110 149 189 232 256 322
#     4  10  19  36  56  78 111 147 181 223 269 324
#     4  10  21  35  54  85 115 142 180 228 285 319
#     4  12  21  34  59  84 116 144 173 234 286 321
#     4   9  18  35  56  82 105 143 194 214 267 332
#     4  10  19  37  58  79 108 148 189 223 265 335
#
# _framework density 24.893466
#
# number of rings (size 3 to 8) (size 9 to 14) (size 15 to 20)
#    0.857    1.429    1.429    3.000    0.000    1.143 
#    2.571    2.143    0.000    0.000    0.000    0.000 
#    0.000    0.000    0.000    0.000    0.000    0.000 
#
# Total GULP energy -78132.668641 kJ/mol
# GULP energy per Si atom -5580.904903 kJ/mol
# Density = 2.483681 g / cm^3
# Si number density = 24.893466 Si / 1000 Ang^3
#
#
#
# Elastic Constant Matrix: (Units=GPa)
#
#
# Indices 1 2 3 4 5 6 
#
# 1 69.8082 29.2781 -1.7549 12.8161 -2.8683 23.0063
# 2 29.2781 136.1426 15.0006 4.6121 -3.1494 53.3109
# 3 -1.7549 15.0006 75.6681 17.7122 -16.9829 12.8980
# 4 12.8161 4.6121 17.7122 25.8947 -1.7392 -2.6000
# 5 -2.8683 -3.1494 -16.9829 -1.7392 32.2865 0.9752
# 6 23.0063 53.3109 12.8980 -2.6000 0.9752 40.3200
#
#
#
# Elastic Compliance Matrix: (Units=1/GPa)
#
#
# Indices 1 2 3 4 5 6 
#
# 1 0.026053 0.004274 0.011579 -0.023622 0.008333 -0.025946
# 2 0.004274 0.017165 0.005123 -0.011114 0.004984 -0.027611
# 3 0.011579 0.005123 0.025726 -0.025644 0.014392 -0.023612
# 4 -0.023622 -0.011114 -0.025644 0.073049 -0.013988 0.041426
# 5 0.008333 0.004984 0.014392 -0.013988 0.039554 -0.017808
# 6 -0.025946 -0.027611 -0.023612 0.041426 -0.017808 0.086768
#
#
# Mechanical properties :
#
#
# Convention : Reuss Voigt Hill
#
# Bulk Modulus (GPa) = 9.01734 40.74072 24.87903
# Shear Modulus (GPa) = 18.98762 35.63990 27.31376
#
# Velocity S-wave (km/s) = 2.76480 3.78788 3.31603
# Velocity P-wave (km/s) = 3.71785 5.96090 4.96763
#
# Compressibility (1/GPa) = 0.11089746
#
# Stress axis : x y z
#
# Youngs Moduli (GPa) = 38.38278 58.25741 38.87073
#
# Poissons Ratio (x) = -0.24901 -0.45009
# Poissons Ratio (y) = -0.16406 -0.19913
# Poissons Ratio (z) = -0.44444 -0.29845
#
# Static dielectric constant tensor:
#      x y z
#    x 1.947150 -0.021100 0.051290 
#    y -0.021100 2.011540 0.006370 
#    z 0.051290 0.006370 2.098780 
# 
# From -- ./inp_files/178183.got.cif
#   From: 2010.05.17/outbox.cif.g08.bks.cpg/sg2_90_cif.got.tgz:178183.got - 2010.06.03 11:33:40.
