data_PCOD9086903
_publ_section_title
;
Structure prediction by ZEFSAII (Michael W. Deem and Ramdas Pophale) SiO2 
 PCOD9086903
Probable space group: P -1
;
_chemical_formula_sum "Si O2"
_cell_formula_units_Z 16
_cell_length_a 20.679041
_cell_length_b 9.002160
_cell_length_c 6.821641
_cell_angle_alpha 65.024833
_cell_angle_beta 123.658660
_cell_angle_gamma 146.057844
_cell_volume 588.248593
_symmetry_space_group_name_H-M "P -1"
_symmetry_group_IT_number 2
_symmetry_cell_setting 'triclinic'
loop_
_space_group_symop_operation_xyz
x,y,z
-x,-y,-z
loop_
_atom_site_type_symbol
_atom_site_label
_atom_site_fract_x
_atom_site_fract_y
_atom_site_fract_z
Si Si1 0.656382 0.171958 0.356433
Si Si2 0.797868 0.000764 0.101800
Si Si3 0.466219 0.454059 0.199431
Si Si4 0.996287 0.560783 0.232507
Si Si5 0.734537 0.942293 0.486879
Si Si6 0.857824 0.726306 0.364967
Si Si7 0.605436 0.332090 0.823111
Si Si8 0.873549 0.681593 0.992509
O O1 0.761491 0.459049 0.480455
O O2 0.709052 0.087082 0.420723
O O3 0.520681 0.920065 0.371310
O O4 0.627113 0.224512 0.079251
O O5 0.937042 0.311843 0.147552
O O6 0.766725 0.976435 0.292905
O O7 0.802909 0.814499 0.183619
O O8 0.674154 0.861349 0.854154
O O9 0.595895 0.621170 0.440060
O O10 0.438387 0.590481 0.154202
O O11 0.500000 0.500000 0.000000
O O12 0.000000 0.500000 0.500000
O O13 0.897564 0.541733 0.027993
O O14 0.136341 0.876546 0.276301
O O15 0.874405 0.647243 0.244039
O O16 0.000000 0.000000 0.500000
O O17 0.740475 0.556317 0.811182
O O18 0.000000 0.000000 0.000000
#
# Coordination Sequence:
#
# PCOD9086903 Si02
#       8
#     2   2   2   2   2   2   2   2
#     4   9  16  28  52  80 111 142 187 240 286 327
#     4  10  16  27  46  78 108 135 176 239 284 322
#     4   9  16  26  46  76 109 137 178 241 294 324
#     4  10  19  34  54  80 110 149 195 235 283 338
#     4   9  17  28  45  75 110 139 175 229 293 335
#     4  11  19  31  54  87 114 144 194 248 287 328
#     4   9  16  31  50  77 110 147 193 231 275 343
#     4  11  23  39  58  81 118 164 193 225 287 363
#
# _framework density 27.199383999999998
#
# number of rings (size 3 to 8) (size 9 to 14) (size 15 to 20)
#    0.000    2.250    2.500    5.250    0.000    1.000 
#    0.000    0.625    0.000    3.750    0.000    0.000 
#    0.000    0.000    0.000    0.000    0.000    0.000 
#
# Total GULP energy -89247.511334 kJ/mol
# GULP energy per Si atom -5577.969458 kJ/mol
# Density = 2.713748 g / cm^3
# Si number density = 27.199384 Si / 1000 Ang^3
#
#
#
# Elastic Constant Matrix: (Units=GPa)
#
#
# Indices 1 2 3 4 5 6 
#
# 1 124.5680 41.8959 39.2748 -6.3264 21.4421 1.5929
# 2 41.8959 186.9251 37.5943 54.9357 4.1507 28.5886
# 3 39.2748 37.5943 112.7878 37.1391 16.6817 4.1624
# 4 -6.3264 54.9357 37.1391 70.4117 8.8825 12.8521
# 5 21.4421 4.1507 16.6817 8.8825 38.3039 12.3937
# 6 1.5929 28.5886 4.1624 12.8521 12.3937 45.9965
#
#
#
# Elastic Compliance Matrix: (Units=1/GPa)
#
#
# Indices 1 2 3 4 5 6 
#
# 1 0.012328 -0.004209 -0.004272 0.007077 -0.007032 0.002493
# 2 -0.004209 0.008964 0.000401 -0.007297 0.004393 -0.004607
# 3 -0.004272 0.000401 0.012940 -0.007520 -0.001985 0.001364
# 4 0.007077 -0.007297 -0.007520 0.025310 -0.005571 -0.000600
# 5 -0.007032 0.004393 -0.001985 -0.005571 0.035020 -0.010187
# 6 0.002493 -0.004607 0.001364 -0.000600 -0.010187 0.027307
#
#
# Mechanical properties :
#
#
# Convention : Reuss Voigt Hill
#
# Bulk Modulus (GPa) = 55.33724 73.53458 64.43591
# Shear Modulus (GPa) = 34.70929 51.31015 43.00972
#
# Velocity S-wave (km/s) = 3.57614 4.34803 3.98084
# Velocity P-wave (km/s) = 6.11890 7.23196 6.69859
#
# Compressibility (1/GPa) = 0.01807101
#
# Stress axis : x y z
#
# Youngs Moduli (GPa) = 81.11345 111.55803 77.28069
#
# Poissons Ratio (x) = 0.46955 0.33017
# Poissons Ratio (y) = 0.34141 -0.03097
# Poissons Ratio (z) = 0.34654 -0.04470
#
# Static dielectric constant tensor:
#      x y z
#    x 2.139250 0.140030 -0.029140 
#    y 0.140030 2.454550 0.057660 
#    z -0.029140 0.057660 2.226350 
# 
# From -- ./inp_files/463931.got.cif
#   From: 2010.05.17/outbox.cif.g08.bks.cpg/sg2_232_cif.got.tgz:463931.got - 2010.06.03 11:33:40.
