data_PCOD9086548
_publ_section_title
;
Structure prediction by ZEFSAII (Michael W. Deem and Ramdas Pophale) SiO2 
 PCOD9086548
Probable space group: P -1
;
_chemical_formula_sum "Si O2"
_cell_formula_units_Z 16
_cell_length_a 8.397388
_cell_length_b 8.143284
_cell_length_c 19.530770
_cell_angle_alpha 50.190287
_cell_angle_beta 40.855486
_cell_angle_gamma 46.334361
_cell_volume 612.021279
_symmetry_space_group_name_H-M "P -1"
_symmetry_group_IT_number 2
_symmetry_cell_setting 'triclinic'
loop_
_space_group_symop_operation_xyz
x,y,z
-x,-y,-z
loop_
_atom_site_type_symbol
_atom_site_label
_atom_site_fract_x
_atom_site_fract_y
_atom_site_fract_z
Si Si1 0.913129 0.946646 0.840533
Si Si2 0.211390 0.891440 0.518969
Si Si3 0.794116 0.788895 0.455160
Si Si4 0.434670 0.309082 0.971098
Si Si5 0.437262 0.940121 0.718861
Si Si6 0.335951 0.528920 0.321046
Si Si7 0.580835 0.712692 0.866331
Si Si8 0.838751 0.401512 0.267282
O O1 0.129482 0.988738 0.804669
O O2 0.045499 0.837214 0.753604
O O3 0.640763 0.177519 0.879044
O O4 0.826484 0.736609 0.948150
O O5 0.236620 0.667831 0.615099
O O6 0.083677 0.108468 0.553708
O O7 0.487227 0.880663 0.398948
O O8 0.000000 0.000000 0.500000
O O9 0.731759 0.576524 0.558734
O O10 0.038913 0.700533 0.346231
O O11 0.500000 0.000000 0.500000
O O12 0.433337 0.560582 0.921733
O O13 0.523492 0.191730 0.049609
O O14 0.568651 0.689769 0.703690
O O15 0.551136 0.905362 0.767496
O O16 0.591733 0.569594 0.255330
O O17 0.897235 0.551233 0.818710
#
# Coordination Sequence:
#
# PCOD9086548 Si02
#       8
#     2   2   2   2   2   2   2   2
#     4   9  20  38  63  88 113 159 216 261 312 387
#     4  11  21  37  56  85 128 169 199 251 311 369
#     4  10  19  36  59  81 114 167 217 252 292 359
#     4   9  20  40  62  86 115 160 208 261 339 369
#     4  10  21  36  58  92 123 157 216 256 304 383
#     4   9  20  36  56  86 116 160 216 256 303 358
#     4  10  20  37  60  89 125 159 198 270 324 374
#     4  10  19  38  60  85 128 168 206 261 306 379
#
# _framework density 26.142880999999999
#
# number of rings (size 3 to 8) (size 9 to 14) (size 15 to 20)
#    0.000    2.250    2.500    0.000    0.000    2.000 
#    2.250    0.625    0.000    0.000    0.000    0.000 
#    0.000    0.000    0.000    0.000    0.000    0.000 
#
# Total GULP energy -89096.349231 kJ/mol
# GULP energy per Si atom -5568.521827 kJ/mol
# Density = 2.608338 g / cm^3
# Si number density = 26.142881 Si / 1000 Ang^3
#
#
#
# Elastic Constant Matrix: (Units=GPa)
#
#
# Indices 1 2 3 4 5 6 
#
# 1 95.8764 11.4588 41.0310 13.6395 -7.1969 -15.2759
# 2 11.4588 68.4063 4.9386 10.4582 -3.0034 -0.9986
# 3 41.0310 4.9386 139.8105 11.3187 3.9686 -8.8367
# 4 13.6395 10.4582 11.3187 20.3760 -3.9077 -7.7187
# 5 -7.1969 -3.0034 3.9686 -3.9077 51.9795 0.7653
# 6 -15.2759 -0.9986 -8.8367 -7.7187 0.7653 31.6749
#
#
#
# Elastic Compliance Matrix: (Units=1/GPa)
#
#
# Indices 1 2 3 4 5 6 
#
# 1 0.013459 -0.001177 -0.003306 -0.004599 0.001638 0.004371
# 2 -0.001177 0.016048 0.000325 -0.008365 0.000140 -0.002013
# 3 -0.003306 0.000325 0.008383 -0.002821 -0.001293 0.000098
# 4 -0.004599 -0.008365 -0.002821 0.063291 0.003676 0.012066
# 5 0.001638 0.000140 -0.001293 0.003676 0.019836 0.000850
# 6 0.004371 -0.002013 0.000098 0.012066 0.000850 0.036563
#
#
# Mechanical properties :
#
#
# Convention : Reuss Voigt Hill
#
# Bulk Modulus (GPa) = 33.81558 46.55001 40.18280
# Shear Modulus (GPa) = 28.44877 37.25042 32.84959
#
# Velocity S-wave (km/s) = 3.30237 3.77885 3.54862
# Velocity P-wave (km/s) = 5.24441 6.07324 5.67398
#
# Compressibility (1/GPa) = 0.02957216
#
# Stress axis : x y z
#
# Youngs Moduli (GPa) = 74.29756 62.31353 119.29412
#
# Poissons Ratio (x) = 0.07335 0.39443
# Poissons Ratio (y) = 0.08746 -0.03872
# Poissons Ratio (z) = 0.24565 -0.02022
#
# Static dielectric constant tensor:
#      x y z
#    x 2.217260 -0.077740 -0.028190 
#    y -0.077740 2.297790 -0.037500 
#    z -0.028190 -0.037500 2.180570 
# 
# From -- ./inp_files/587286.got.cif
#   From: 2010.05.17/outbox.cif.g08.bks.cpg/sg2_294_cif.got.tgz:587286.got - 2010.06.03 11:33:40.
