data_PCOD9086648
_publ_section_title
;
Structure prediction by ZEFSAII (Michael W. Deem and Ramdas Pophale) SiO2 
 PCOD9086648
Probable space group: P -1
;
_chemical_formula_sum "Si O2"
_cell_formula_units_Z 16
_cell_length_a 14.757317
_cell_length_b 14.288882
_cell_length_c 7.840232
_cell_angle_alpha 126.106932
_cell_angle_beta 116.369949
_cell_angle_gamma 28.416093
_cell_volume 623.685176
_symmetry_space_group_name_H-M "P -1"
_symmetry_group_IT_number 2
_symmetry_cell_setting 'triclinic'
loop_
_space_group_symop_operation_xyz
x,y,z
-x,-y,-z
loop_
_atom_site_type_symbol
_atom_site_label
_atom_site_fract_x
_atom_site_fract_y
_atom_site_fract_z
Si Si1 0.061068 0.681530 0.286034
Si Si2 0.855218 0.505240 0.366817
Si Si3 0.890858 0.661379 0.314936
Si Si4 0.346539 0.834824 0.580188
Si Si5 0.394692 0.481803 0.812173
Si Si6 0.921180 0.127120 0.248478
Si Si7 0.510800 0.901704 0.747394
Si Si8 0.253002 0.686500 0.262619
O O1 0.039582 0.783564 0.546650
O O2 0.224762 0.590404 0.222868
O O3 0.051042 0.558797 0.207602
O O4 0.855042 0.907604 0.265601
O O5 0.887362 0.532651 0.238853
O O6 0.760829 0.471404 0.239079
O O7 0.052234 0.328497 0.449697
O O8 0.692955 0.731737 0.589123
O O9 0.682545 0.893297 0.309378
O O10 0.401769 0.767764 0.351574
O O11 0.320870 0.724529 0.484374
O O12 0.506022 0.776469 0.692050
O O13 0.302055 0.641542 0.746284
O O14 0.390158 0.543309 0.059028
O O15 0.044112 0.930892 0.275010
O O16 0.000000 0.000000 0.000000
O O17 0.500000 0.000000 0.000000
#
# Coordination Sequence:
#
# PCOD9086648 Si02
#       8
#     2   2   2   2   2   2   2   2
#     4  10  19  38  57  84 124 160 203 260 312 369
#     4  10  21  41  65  94 124 167 220 257 317 384
#     4  10  21  41  66  88 122 174 209 258 323 377
#     4   9  19  36  61  84 122 165 201 247 321 373
#     4  10  19  36  59  89 124 155 212 260 300 388
#     4   9  17  31  55  80 114 158 198 243 298 370
#     4  10  22  41  64  95 131 162 209 275 320 374
#     4  10  20  36  60  89 121 165 204 254 319 374
#
# _framework density 25.653969
#
# number of rings (size 3 to 8) (size 9 to 14) (size 15 to 20)
#    0.000    2.250    1.250    2.250    0.000    0.500 
#   11.250    3.750    0.000    3.000    0.000    0.000 
#    0.000    0.000    0.000    0.000    0.000    0.000 
#
# Total GULP energy -89118.795658 kJ/mol
# GULP energy per Si atom -5569.924729 kJ/mol
# Density = 2.559558 g / cm^3
# Si number density = 25.653969 Si / 1000 Ang^3
#
#
#
# Elastic Constant Matrix: (Units=GPa)
#
#
# Indices 1 2 3 4 5 6 
#
# 1 143.6437 37.0573 30.5941 -10.2246 -20.2509 5.4741
# 2 37.0573 132.6025 17.4712 -16.8182 -8.3591 6.6024
# 3 30.5941 17.4712 106.5508 2.9489 6.2183 0.0616
# 4 -10.2246 -16.8182 2.9489 28.5415 -7.8703 -7.6979
# 5 -20.2509 -8.3591 6.2183 -7.8703 40.6448 -6.1495
# 6 5.4741 6.6024 0.0616 -7.6979 -6.1495 37.4275
#
#
#
# Elastic Compliance Matrix: (Units=1/GPa)
#
#
# Indices 1 2 3 4 5 6 
#
# 1 0.008974 -0.001242 -0.002829 0.004540 0.005644 0.000772
# 2 -0.001242 0.008958 -0.001422 0.005751 0.002587 0.000212
# 3 -0.002829 -0.001422 0.010809 -0.004436 -0.004363 -0.000982
# 4 0.004540 0.005751 -0.004436 0.047464 0.014909 0.010541
# 5 0.005644 0.002587 -0.004363 0.014909 0.032583 0.007145
# 6 0.000772 0.000212 -0.000982 0.010541 0.007145 0.029912
#
#
# Mechanical properties :
#
#
# Convention : Reuss Voigt Hill
#
# Bulk Modulus (GPa) = 56.32440 61.44915 58.88678
# Shear Modulus (GPa) = 32.13302 41.16773 36.65037
#
# Velocity S-wave (km/s) = 3.54299 4.01026 3.78384
# Velocity P-wave (km/s) = 6.22415 6.74151 6.48799
#
# Compressibility (1/GPa) = 0.01775429
#
# Stress axis : x y z
#
# Youngs Moduli (GPa) = 111.43282 111.63525 92.51911
#
# Poissons Ratio (x) = 0.13865 0.26170
# Poissons Ratio (y) = 0.13840 0.13160
# Poissons Ratio (z) = 0.31520 0.15879
#
# Static dielectric constant tensor:
#      x y z
#    x 2.162200 0.058830 0.062540 
#    y 0.058830 2.088440 0.005190 
#    z 0.062540 0.005190 2.048190 
# 
# From -- ./inp_files/313992.got.cif
#   From: 2010.05.17/outbox.cif.g08.bks.cpg/sg2_157_cif.got.tgz:313992.got - 2010.06.03 11:33:40.
