data_PCOD9086768
_publ_section_title
;
Structure prediction by ZEFSAII (Michael W. Deem and Ramdas Pophale) SiO2 
 PCOD9086768
Probable space group: P -1
;
_chemical_formula_sum "Si O2"
_cell_formula_units_Z 16
_cell_length_a 8.057008
_cell_length_b 13.849523
_cell_length_c 7.775044
_cell_angle_alpha 109.846407
_cell_angle_beta 52.034164
_cell_angle_gamma 112.400284
_cell_volume 625.769069
_symmetry_space_group_name_H-M "P -1"
_symmetry_group_IT_number 2
_symmetry_cell_setting 'triclinic'
loop_
_space_group_symop_operation_xyz
x,y,z
-x,-y,-z
loop_
_atom_site_type_symbol
_atom_site_label
_atom_site_fract_x
_atom_site_fract_y
_atom_site_fract_z
Si Si1 0.459014 0.697138 0.328231
Si Si2 0.522120 0.914429 0.251490
Si Si3 0.011175 0.618705 0.398382
Si Si4 0.529142 0.250484 0.102417
Si Si5 0.309879 0.395427 0.096901
Si Si6 0.304442 0.563608 0.673548
Si Si7 0.876814 0.829954 0.502538
Si Si8 0.857311 0.989107 0.331487
O O1 0.480882 0.819867 0.361283
O O2 0.685661 0.662931 0.124689
O O3 0.359510 0.643154 0.529606
O O4 0.264340 0.646570 0.288973
O O5 0.769828 0.971331 0.179214
O O6 0.359891 0.989200 0.426698
O O7 0.451735 0.851137 0.080884
O O8 0.912703 0.522380 0.277815
O O9 0.961984 0.724663 0.411660
O O10 0.883659 0.589533 0.647140
O O11 0.700715 0.355244 0.119148
O O12 0.380481 0.204728 0.331302
O O13 0.379757 0.305902 0.112927
O O14 0.500000 0.500000 0.000000
O O15 0.500000 0.500000 0.500000
O O16 0.924912 0.892845 0.330530
O O17 0.968104 0.907568 0.652009
#
# Coordination Sequence:
#
# PCOD9086768 Si02
#       8
#     2   2   2   2   2   2   2   2
#     4  11  22  39  66  89 130 167 211 263 311 384
#     4  10  22  39  64  93 120 160 214 258 320 375
#     4  11  22  39  66  94 129 172 210 257 316 385
#     4  10  22  38  60  91 127 160 206 261 307 384
#     4  10  19  36  60  86 124 162 207 253 302 371
#     4  12  21  37  64  92 126 174 205 246 329 373
#     4  10  20  39  65  90 124 157 213 258 316 375
#     4  10  21  40  67  89 117 168 205 265 325 371
#
# _framework density 25.568538
#
# number of rings (size 3 to 8) (size 9 to 14) (size 15 to 20)
#    0.000    1.500    5.000    1.125    0.000    1.000 
#    0.000    2.500   27.500    0.000    0.000    0.000 
#    0.000    0.000    0.000    0.000    0.000    0.000 
#
# Total GULP energy -89168.980908 kJ/mol
# GULP energy per Si atom -5573.061307 kJ/mol
# Density = 2.551034 g / cm^3
# Si number density = 25.568538 Si / 1000 Ang^3
#
#
#
# Elastic Constant Matrix: (Units=GPa)
#
#
# Indices 1 2 3 4 5 6 
#
# 1 82.4928 31.3492 24.3078 22.9891 8.3904 27.1652
# 2 31.3492 123.7451 23.2031 27.6053 0.4403 25.2340
# 3 24.3078 23.2031 83.5373 28.9826 1.0944 15.0366
# 4 22.9891 27.6053 28.9826 47.1820 10.9275 7.3907
# 5 8.3904 0.4403 1.0944 10.9275 35.4906 7.9250
# 6 27.1652 25.2340 15.0366 7.3907 7.9250 57.8350
#
#
#
# Elastic Compliance Matrix: (Units=1/GPa)
#
#
# Indices 1 2 3 4 5 6 
#
# 1 0.016654 -0.001579 -0.001565 -0.005071 -0.000981 -0.005944
# 2 -0.001579 0.010378 0.000043 -0.005406 0.002684 -0.003475
# 3 -0.001565 0.000043 0.016181 -0.009567 0.003428 -0.002738
# 4 -0.005071 -0.005406 -0.009567 0.034353 -0.009954 0.004202
# 5 -0.000981 0.002684 0.003428 -0.009954 0.032399 -0.004769
# 6 -0.005944 -0.003475 -0.002738 0.004202 -0.004769 0.022427
#
#
# Mechanical properties :
#
#
# Convention : Reuss Voigt Hill
#
# Bulk Modulus (GPa) = 27.01912 49.72173 38.37042
# Shear Modulus (GPa) = 33.12767 42.16253 37.64510
#
# Velocity S-wave (km/s) = 3.60341 4.06519 3.84125
# Velocity P-wave (km/s) = 5.28233 6.44384 5.89178
#
# Compressibility (1/GPa) = 0.03701083
#
# Stress axis : x y z
#
# Youngs Moduli (GPa) = 60.04619 96.35691 61.79937
#
# Poissons Ratio (x) = 0.15211 0.09674
# Poissons Ratio (y) = 0.09479 -0.00264
# Poissons Ratio (z) = 0.09399 -0.00412
#
# Static dielectric constant tensor:
#      x y z
#    x 2.095960 0.061880 0.036880 
#    y 0.061880 2.031790 0.004430 
#    z 0.036880 0.004430 2.325690 
# 
# From -- ./inp_files/203604.got.cif
#   From: 2010.05.17/outbox.cif.g08.bks.cpg/sg2_102_cif.got.tgz:203604.got - 2010.06.03 11:33:40.
