data_PCOD9086845
_publ_section_title
;
Structure prediction by ZEFSAII (Michael W. Deem and Ramdas Pophale) SiO2 
 PCOD9086845
Probable space group: P -1
;
_chemical_formula_sum "Si O2"
_cell_formula_units_Z 15
_cell_length_a 7.647012
_cell_length_b 17.298795
_cell_length_c 20.505028
_cell_angle_alpha 17.970259
_cell_angle_beta 132.284700
_cell_angle_gamma 125.791920
_cell_volume 600.778401
_symmetry_space_group_name_H-M "P -1"
_symmetry_group_IT_number 2
_symmetry_cell_setting 'triclinic'
loop_
_space_group_symop_operation_xyz
x,y,z
-x,-y,-z
loop_
_atom_site_type_symbol
_atom_site_label
_atom_site_fract_x
_atom_site_fract_y
_atom_site_fract_z
Si Si1 0.000000 0.500000 0.000000
Si Si2 0.827945 0.851771 0.008461
Si Si3 0.465382 0.739461 0.905565
Si Si4 0.101520 0.311208 0.506938
Si Si5 0.193531 0.619707 0.492657
Si Si6 0.470080 0.093336 0.991564
Si Si7 0.648546 0.836652 0.567755
Si Si8 0.226442 0.772920 0.612433
O O1 0.224907 0.632185 0.931117
O O2 0.860177 0.577441 0.830610
O O3 0.600895 0.756914 0.994374
O O4 0.810526 0.115977 0.755538
O O5 0.772547 0.898705 0.033204
O O6 0.069203 0.620691 0.242926
O O7 0.420910 0.005868 0.641404
O O8 0.667597 0.511001 0.104493
O O9 0.903098 0.317718 0.508959
O O10 0.025391 0.207392 0.503113
O O11 0.334945 0.115735 0.751038
O O12 0.447503 0.402186 0.733842
O O13 0.000000 0.500000 0.500000
O O14 0.500000 0.000000 0.000000
O O15 0.415096 0.807475 0.574525
O O16 0.768126 0.009559 0.508886
#
# Coordination Sequence:
#
# PCOD9086845 Si02
#       8
#     1   2   2   2   2   2   2   2
#     4  10  22  34  58  88 128 164 198 260 300 374
#     4  10  25  42  69  94 131 173 216 272 325 390
#     4  10  20  40  60  89 123 165 212 252 319 371
#     4  10  22  43  65  93 135 168 217 271 326 384
#     4  11  23  45  67  96 128 173 214 267 331 388
#     4  11  24  44  65 101 130 168 220 270 329 394
#     4  10  19  36  60  90 123 167 207 253 311 377
#     4   9  20  36  61  88 122 161 211 260 308 373
#
# _framework density 24.967607000000001
#
# number of rings (size 3 to 8) (size 9 to 14) (size 15 to 20)
#    0.000    1.867    1.333    1.600    1.867    4.800 
#    0.000    0.000    0.000    0.000    0.000    0.000 
#    0.000    0.000    0.000    0.000    0.000    0.000 
#
# Total GULP energy -83520.747611 kJ/mol
# GULP energy per Si atom -5568.049841 kJ/mol
# Density = 2.491078 g / cm^3
# Si number density = 24.967607 Si / 1000 Ang^3
#
#
#
# Elastic Constant Matrix: (Units=GPa)
#
#
# Indices 1 2 3 4 5 6 
#
# 1 73.2152 -1.0051 -48.1058 16.7930 7.9429 12.9719
# 2 -1.0051 92.8250 48.9937 5.5817 3.2510 -8.2440
# 3 -48.1058 48.9937 414.3932 -22.3590 -24.7766 -49.5271
# 4 16.7930 5.5817 -22.3590 59.2706 5.9054 16.4352
# 5 7.9429 3.2510 -24.7766 5.9054 45.7151 10.0487
# 6 12.9719 -8.2440 -49.5271 16.4352 10.0487 44.9182
#
#
#
# Elastic Compliance Matrix: (Units=1/GPa)
#
#
# Indices 1 2 3 4 5 6 
#
# 1 0.015772 -0.000496 0.001454 -0.003324 -0.001142 -0.001571
# 2 -0.000496 0.011860 -0.001448 -0.001847 -0.001694 0.001778
# 3 0.001454 -0.001448 0.003115 0.000112 0.000977 0.002490
# 4 -0.003324 -0.001847 0.000112 0.019852 -0.000381 -0.006434
# 5 -0.001142 -0.001694 0.000977 -0.000381 0.023664 -0.004059
# 6 -0.001571 0.001778 0.002490 -0.006434 -0.004059 0.029050
#
#
# Mechanical properties :
#
#
# Convention : Reuss Voigt Hill
#
# Bulk Modulus (GPa) = 33.59518 64.46655 49.03087
# Shear Modulus (GPa) = 43.77666 68.68414 56.23040
#
# Velocity S-wave (km/s) = 4.19183 5.25062 4.75081
# Velocity P-wave (km/s) = 6.07563 7.91422 7.05507
#
# Compressibility (1/GPa) = 0.02976617
#
# Stress axis : x y z
#
# Youngs Moduli (GPa) = 63.40504 84.31472 321.00464
#
# Poissons Ratio (x) = 0.04185 -0.46681
# Poissons Ratio (y) = 0.03147 0.46492
# Poissons Ratio (z) = -0.09220 0.12212
#
# Static dielectric constant tensor:
#      x y z
#    x 2.009750 0.030180 0.080180 
#    y 0.030180 2.012260 -0.068960 
#    z 0.080180 -0.068960 2.299580 
# 
# From -- ./inp_files/590920.got.cif
#   From: 2010.05.17/outbox.cif.g08.bks.cpg/sg2_296_cif.got.tgz:590920.got - 2010.06.03 11:33:40.
