data_PCOD9086057
_publ_section_title
;
Structure prediction by ZEFSAII (Michael W. Deem and Ramdas Pophale) SiO2 
 PCOD9086057
Probable space group: P -1
;
_chemical_formula_sum "Si O2"
_cell_formula_units_Z 16
_cell_length_a 7.031366
_cell_length_b 16.492122
_cell_length_c 9.507064
_cell_angle_alpha 107.161519
_cell_angle_beta 62.896263
_cell_angle_gamma 60.799216
_cell_volume 639.208707
_symmetry_space_group_name_H-M "P -1"
_symmetry_group_IT_number 2
_symmetry_cell_setting 'triclinic'
loop_
_space_group_symop_operation_xyz
x,y,z
-x,-y,-z
loop_
_atom_site_type_symbol
_atom_site_label
_atom_site_fract_x
_atom_site_fract_y
_atom_site_fract_z
Si Si1 0.271629 0.542480 0.374111
Si Si2 0.252925 0.127787 0.792385
Si Si3 0.160581 0.107426 0.356343
Si Si4 0.940653 0.248167 0.243894
Si Si5 0.575550 0.186143 0.630955
Si Si6 0.349083 0.778666 0.072361
Si Si7 0.612859 0.676040 0.646938
Si Si8 0.459261 0.631675 0.189608
O O1 0.210316 0.627515 0.564931
O O2 0.936322 0.618875 0.453451
O O3 0.506566 0.525692 0.183071
O O4 0.354608 0.430321 0.363396
O O5 0.381445 0.159294 0.654948
O O6 0.005155 0.138174 0.808333
O O7 0.538288 0.998355 0.707852
O O8 0.062615 0.227583 0.035644
O O9 0.203015 0.137299 0.205676
O O10 0.911393 0.241078 0.589859
O O11 0.926900 0.094410 0.408873
O O12 0.681516 0.248070 0.316640
O O13 0.623177 0.169207 0.776910
O O14 0.399127 0.329075 0.750156
O O15 0.500439 0.647625 0.022613
O O16 0.525775 0.751718 0.857659
#
# Coordination Sequence:
#
# PCOD9086057 Si02
#       8
#     2   2   2   2   2   2   2   2
#     4  10  19  36  52  72  96 129 160 201 249 286
#     4  11  17  30  56  69  99 135 161 192 240 286
#     4   8  18  32  49  74  98 132 163 193 237 286
#     4  10  20  34  49  74 103 124 159 208 239 281
#     4   8  18  33  47  71 100 129 158 201 235 278
#     4   8  19  33  46  77  98 123 164 200 237 286
#     4  10  20  32  56  73  92 128 167 196 245 297
#     4   7  18  34  48  69 103 123 155 209 235 275
#
# _framework density 25.030947999999999
#
# number of rings (size 3 to 8) (size 9 to 14) (size 15 to 20)
#    1.500    1.250    0.000    1.875    0.000    3.500 
#    0.000    2.500    0.000   10.500    0.000    0.000 
#    0.000    0.000    0.000    0.000    0.000    0.000 
#
# Total GULP energy -89143.979280 kJ/mol
# GULP energy per Si atom -5571.498705 kJ/mol
# Density = 2.497398 g / cm^3
# Si number density = 25.030948 Si / 1000 Ang^3
#
#
#
# Elastic Constant Matrix: (Units=GPa)
#
#
# Indices 1 2 3 4 5 6 
#
# 1 70.2853 30.4162 9.3866 -15.2446 -18.4529 0.7454
# 2 30.4162 47.9742 6.3423 -7.8702 0.0380 6.7138
# 3 9.3866 6.3423 34.1633 -11.4373 -2.5967 -3.0012
# 4 -15.2446 -7.8702 -11.4373 18.6853 1.1286 2.0051
# 5 -18.4529 0.0380 -2.5967 1.1286 36.8961 -5.1442
# 6 0.7454 6.7138 -3.0012 2.0051 -5.1442 25.5355
#
#
#
# Elastic Compliance Matrix: (Units=1/GPa)
#
#
# Indices 1 2 3 4 5 6 
#
# 1 0.028255 -0.016340 0.002235 0.016078 0.014567 0.005406
# 2 -0.016340 0.033200 -0.003224 0.000424 -0.009933 -0.010665
# 3 0.002235 -0.003224 0.037518 0.022766 0.003642 0.004138
# 4 0.016078 0.000424 0.022766 0.080647 0.006775 -0.002873
# 5 0.014567 -0.009933 0.003642 0.006775 0.035742 0.009283
# 6 0.005406 -0.010665 0.004138 -0.002873 0.009283 0.044389
#
#
# Mechanical properties :
#
#
# Convention : Reuss Voigt Hill
#
# Bulk Modulus (GPa) = 15.54858 27.19034 21.36946
# Shear Modulus (GPa) = 15.83040 23.30856 19.56948
#
# Velocity S-wave (km/s) = 2.51755 3.05485 2.79912
# Velocity P-wave (km/s) = 3.83092 4.83002 4.35919
#
# Compressibility (1/GPa) = 0.06431455
#
# Stress axis : x y z
#
# Youngs Moduli (GPa) = 35.39233 30.12015 26.65419
#
# Poissons Ratio (x) = 0.49216 -0.05957
# Poissons Ratio (y) = 0.57830 0.08593
# Poissons Ratio (z) = -0.07910 0.09711
#
# Static dielectric constant tensor:
#      x y z
#    x 2.009670 0.031810 0.024280 
#    y 0.031810 2.043670 0.003880 
#    z 0.024280 0.003880 2.029990 
# 
# From -- ./inp_files/369015.got.cif
#   From: 2010.05.17/outbox.cif.g08.bks.cpg/sg2_185_cif.got.tgz:369015.got - 2010.06.03 11:33:40.
