data_PCOD9086284
_publ_section_title
;
Structure prediction by ZEFSAII (Michael W. Deem and Ramdas Pophale) SiO2 
 PCOD9086284
Probable space group: P -1
;
_chemical_formula_sum "Si O2"
_cell_formula_units_Z 16
_cell_length_a 9.044191
_cell_length_b 11.586355
_cell_length_c 17.740380
_cell_angle_alpha 61.351887
_cell_angle_beta 129.580456
_cell_angle_gamma 78.069055
_cell_volume 821.191199
_symmetry_space_group_name_H-M "P -1"
_symmetry_group_IT_number 2
_symmetry_cell_setting 'triclinic'
loop_
_space_group_symop_operation_xyz
x,y,z
-x,-y,-z
loop_
_atom_site_type_symbol
_atom_site_label
_atom_site_fract_x
_atom_site_fract_y
_atom_site_fract_z
Si Si1 0.661548 0.258817 0.447217
Si Si2 0.138774 0.094146 0.461370
Si Si3 0.840755 0.568529 0.308953
Si Si4 0.940736 0.383659 0.098064
Si Si5 0.501196 0.511125 0.174531
Si Si6 0.568801 0.824499 0.805782
Si Si7 0.792350 0.672029 0.639209
Si Si8 0.826853 0.794679 0.353047
O O1 0.485008 0.415067 0.269156
O O2 0.429287 0.328857 0.411103
O O3 0.910659 0.233903 0.559155
O O4 0.809814 0.043443 0.539839
O O5 0.324529 0.132438 0.498175
O O6 0.807960 0.312916 0.296230
O O7 0.261544 0.967055 0.617568
O O8 0.551727 0.628299 0.189187
O O9 0.795975 0.726849 0.288474
O O10 0.976465 0.506951 0.289031
O O11 0.062692 0.364408 0.496329
O O12 0.190622 0.271307 0.150719
O O13 0.080787 0.329057 0.242321
O O14 0.752184 0.361773 0.009861
O O15 0.697060 0.625797 0.943470
O O16 0.475531 0.980520 0.788185
#
# Coordination Sequence:
#
# PCOD9086284 Si02
#       8
#     2   2   2   2   2   2   2   2
#     4  11  18  30  58  85 111 144 187 233 281 330
#     4  11  19  34  58  84 117 141 194 231 280 328
#     4   9  21  38  58  81 112 146 201 237 269 317
#     4  11  22  32  56  90 124 141 177 230 304 336
#     4  10  19  36  57  83 113 155 188 226 272 354
#     4  11  19  37  58  87 112 153 185 231 276 349
#     4  11  22  34  54  89 124 142 172 248 289 326
#     4  10  20  38  61  81 104 157 200 231 263 336
#
# _framework density 19.483891
#
# number of rings (size 3 to 8) (size 9 to 14) (size 15 to 20)
#    0.000    1.500    6.250    2.250    0.000    2.500 
#    0.000    1.250    0.000    0.000    0.000    0.000 
#    0.000    0.000    0.000    0.000    0.000    0.000 
#
# Total GULP energy -89134.822782 kJ/mol
# GULP energy per Si atom -5570.926424 kJ/mol
# Density = 1.943954 g / cm^3
# Si number density = 19.483891 Si / 1000 Ang^3
#
#
#
# Elastic Constant Matrix: (Units=GPa)
#
#
# Indices 1 2 3 4 5 6 
#
# 1 90.3423 38.7093 -1.7921 -1.8260 6.3768 -5.7023
# 2 38.7093 157.6512 19.5098 10.3938 8.4316 -3.2785
# 3 -1.7921 19.5098 34.7753 6.0022 9.5098 1.1020
# 4 -1.8260 10.3938 6.0022 21.0791 1.5729 -1.6080
# 5 6.3768 8.4316 9.5098 1.5729 15.3355 -0.6568
# 6 -5.7023 -3.2785 1.1020 -1.6080 -0.6568 19.7105
#
#
#
# Elastic Compliance Matrix: (Units=1/GPa)
#
#
# Indices 1 2 3 4 5 6 
#
# 1 0.013324 -0.003517 0.003796 0.002495 -0.006086 0.003058
# 2 -0.003517 0.007921 -0.004106 -0.003018 -0.000025 0.000283
# 3 0.003796 -0.004106 0.038837 -0.007241 -0.022795 -0.003106
# 4 0.002495 -0.003018 -0.007241 0.051573 0.000030 0.004833
# 5 -0.006086 -0.000025 -0.022795 0.000030 0.081981 0.002244
# 6 0.003058 0.000283 -0.003106 0.004833 0.002244 0.052309
#
#
# Mechanical properties :
#
#
# Convention : Reuss Voigt Hill
#
# Bulk Modulus (GPa) = 19.07341 43.95809 31.51575
# Shear Modulus (GPa) = 18.44506 26.31448 22.37977
#
# Velocity S-wave (km/s) = 3.08016 3.67901 3.39282
# Velocity P-wave (km/s) = 4.73924 6.37628 5.61771
#
# Compressibility (1/GPa) = 0.05242900
#
# Stress axis : x y z
#
# Youngs Moduli (GPa) = 75.05134 126.24736 25.74836
#
# Poissons Ratio (x) = 0.44399 -0.09775
# Poissons Ratio (y) = 0.26394 0.10574
# Poissons Ratio (z) = -0.28493 0.51843
#
# Static dielectric constant tensor:
#      x y z
#    x 1.750550 0.007950 0.006970 
#    y 0.007950 1.707480 0.019820 
#    z 0.006970 0.019820 1.738410 
# 
# From -- ./inp_files/462135.got.cif
#   From: 2010.05.17/outbox.cif.g08.bks.cpg/sg2_232_cif.got.tgz:462135.got - 2010.06.03 11:33:40.
