data_PCOD9086672
_publ_section_title
;
Structure prediction by ZEFSAII (Michael W. Deem and Ramdas Pophale) SiO2 
 PCOD9086672
Probable space group: P -1
;
_chemical_formula_sum "Si O2"
_cell_formula_units_Z 14
_cell_length_a 12.902499
_cell_length_b 12.140429
_cell_length_c 16.262445
_cell_angle_alpha 35.914764
_cell_angle_beta 143.370208
_cell_angle_gamma 115.682388
_cell_volume 700.351852
_symmetry_space_group_name_H-M "P -1"
_symmetry_group_IT_number 2
_symmetry_cell_setting 'triclinic'
loop_
_space_group_symop_operation_xyz
x,y,z
-x,-y,-z
loop_
_atom_site_type_symbol
_atom_site_label
_atom_site_fract_x
_atom_site_fract_y
_atom_site_fract_z
Si Si1 0.848703 0.830658 0.007741
Si Si2 0.687555 0.349707 0.641290
Si Si3 0.828795 0.959760 0.381095
Si Si4 0.464476 0.827478 0.782017
Si Si5 0.260130 0.668925 0.637848
Si Si6 0.543118 0.627435 0.213259
Si Si7 0.906138 0.653498 0.469562
O O1 0.635820 0.851890 0.832349
O O2 0.752682 0.090640 0.821814
O O3 0.064199 0.722359 0.152419
O O4 0.948436 0.633799 0.263315
O O5 0.500000 0.500000 0.500000
O O6 0.571730 0.519001 0.385485
O O7 0.679321 0.994752 0.341695
O O8 0.911547 0.725941 0.523320
O O9 0.688923 0.164188 0.099548
O O10 0.000000 0.000000 0.500000
O O11 0.304361 0.834456 0.610474
O O12 0.607187 0.570437 0.075429
O O13 0.353436 0.587134 0.656102
O O14 0.014642 0.751123 0.430772
O O15 0.677609 0.734012 0.239078
#
# Coordination Sequence:
#
# PCOD9086672 Si02
#       7
#     2   2   2   2   2   2   2
#     4   9  21  38  63  89 113 165 211 246 309 356
#     4  10  22  44  62  87 122 165 215 261 298 356
#     4  11  21  36  59  94 134 161 198 248 319 373
#     4   9  18  33  59  85 120 166 193 245 309 373
#     4   9  17  34  55  85 124 152 195 246 310 369
#     4  10  22  36  58  90 123 161 208 254 306 367
#     4  10  19  36  59  93 124 160 200 254 307 372
#
# _framework density 19.989951000000001
#
# number of rings (size 3 to 8) (size 9 to 14) (size 15 to 20)
#    0.000    2.286    1.429    0.857    6.000    1.143 
#   10.286    0.714    0.000    1.714    0.000    0.000 
#    0.000    0.000    0.000    0.000    0.000    0.000 
#
# Total GULP energy -77947.100437 kJ/mol
# GULP energy per Si atom -5567.650031 kJ/mol
# Density = 1.994445 g / cm^3
# Si number density = 19.989951 Si / 1000 Ang^3
#
#
#
# Elastic Constant Matrix: (Units=GPa)
#
#
# Indices 1 2 3 4 5 6 
#
# 1 122.8681 42.5622 35.1180 0.3378 18.4223 -10.5776
# 2 42.5622 67.0899 36.1032 10.8905 -0.2449 1.3639
# 3 35.1180 36.1032 77.0796 11.8535 11.3077 3.4970
# 4 0.3378 10.8905 11.8535 31.0702 -5.1276 7.4710
# 5 18.4223 -0.2449 11.3077 -5.1276 17.1208 0.2105
# 6 -10.5776 1.3639 3.4970 7.4710 0.2105 33.8392
#
#
#
# Elastic Compliance Matrix: (Units=1/GPa)
#
#
# Indices 1 2 3 4 5 6 
#
# 1 0.013968 -0.008862 -0.000062 -0.000766 -0.015407 0.004995
# 2 -0.008862 0.026526 -0.010342 -0.002002 0.016175 -0.002429
# 3 -0.000062 -0.010342 0.021353 -0.007188 -0.016335 -0.000121
# 4 -0.000766 -0.002002 -0.007188 0.040620 0.017812 -0.008495
# 5 -0.015407 0.016175 -0.016335 0.017812 0.091443 -0.008281
# 6 0.004995 -0.002429 -0.000121 -0.008495 -0.008281 0.033150
#
#
# Mechanical properties :
#
#
# Convention : Reuss Voigt Hill
#
# Bulk Modulus (GPa) = 42.88850 54.95604 48.92227
# Shear Modulus (GPa) = 18.29065 26.62299 22.45682
#
# Velocity S-wave (km/s) = 3.02817 3.65337 3.35536
# Velocity P-wave (km/s) = 5.80758 6.73407 6.28791
#
# Compressibility (1/GPa) = 0.02331628
#
# Stress axis : x y z
#
# Youngs Moduli (GPa) = 71.59002 37.69885 46.83174
#
# Poissons Ratio (x) = 0.33408 0.00291
# Poissons Ratio (y) = 0.63441 0.48433
# Poissons Ratio (z) = 0.00444 0.38987
#
# Static dielectric constant tensor:
#      x y z
#    x 1.753520 0.007590 0.079460 
#    y 0.007590 1.734130 -0.012360 
#    z 0.079460 -0.012360 1.770250 
# 
# From -- ./inp_files/416163.got.cif
#   From: 2010.05.17/outbox.cif.g08.bks.cpg/sg2_209_cif.got.tgz:416163.got - 2010.06.03 11:33:40.
