data_PCOD9086755
_publ_section_title
;
Structure prediction by ZEFSAII (Michael W. Deem and Ramdas Pophale) SiO2 
 PCOD9086755
Probable space group: P -1
;
_chemical_formula_sum "Si O2"
_cell_formula_units_Z 16
_cell_length_a 10.884999
_cell_length_b 19.531850
_cell_length_c 20.676010
_cell_angle_alpha 22.301969
_cell_angle_beta 148.665374
_cell_angle_gamma 148.918961
_cell_volume 817.257067
_symmetry_space_group_name_H-M "P -1"
_symmetry_group_IT_number 2
_symmetry_cell_setting 'triclinic'
loop_
_space_group_symop_operation_xyz
x,y,z
-x,-y,-z
loop_
_atom_site_type_symbol
_atom_site_label
_atom_site_fract_x
_atom_site_fract_y
_atom_site_fract_z
Si Si1 0.413946 0.054057 0.482691
Si Si2 0.784046 0.165389 0.208899
Si Si3 0.399829 0.331688 0.908787
Si Si4 0.102230 0.631980 0.730088
Si Si5 0.775086 0.543330 0.398263
Si Si6 0.128336 0.581877 0.632147
Si Si7 0.235873 0.262448 0.427859
Si Si8 0.867046 0.651476 0.898590
O O1 0.655898 0.226438 0.465648
O O2 0.208174 0.159237 0.290507
O O3 0.500000 0.000000 0.500000
O O4 0.295253 0.847682 0.643319
O O5 0.013379 0.253374 0.285166
O O6 0.870402 0.285801 0.076229
O O7 0.778688 0.953045 0.378836
O O8 0.518246 0.165171 0.116927
O O9 0.287105 0.306359 0.808116
O O10 0.206851 0.396595 0.809674
O O11 0.654953 0.511935 0.878589
O O12 0.118154 0.594836 0.693646
O O13 0.835367 0.642220 0.624036
O O14 0.149263 0.468403 0.938369
O O15 0.511486 0.373628 0.429428
O O16 0.000000 0.500000 0.500000
O O17 0.877892 0.581466 0.483718
#
# Coordination Sequence:
#
# PCOD9086755 Si02
#       8
#     2   2   2   2   2   2   2   2
#     4   9  20  37  57  88 124 154 196 249 294 355
#     4  11  21  36  60  95 119 148 200 261 304 336
#     4  10  19  36  60  86 117 152 196 245 297 346
#     4  11  21  38  63  94 116 158 198 251 309 341
#     4  10  21  40  61  81 119 165 199 234 298 367
#     4   9  22  38  61  84 123 165 198 235 297 367
#     4  11  22  36  63  88 121 157 199 251 303 355
#     4  11  19  34  60  91 122 144 193 256 305 345
#
# _framework density 19.577684000000001
#
# number of rings (size 3 to 8) (size 9 to 14) (size 15 to 20)
#    0.000    1.750    3.750    1.125    0.000    5.000 
#    0.000    2.500    8.250    1.500    0.000    0.000 
#    0.000    0.000    0.000    0.000    0.000    0.000 
#
# Total GULP energy -89074.143364 kJ/mol
# GULP energy per Si atom -5567.133960 kJ/mol
# Density = 1.953312 g / cm^3
# Si number density = 19.577684 Si / 1000 Ang^3
#
#
#
# Elastic Constant Matrix: (Units=GPa)
#
#
# Indices 1 2 3 4 5 6 
#
# 1 97.8277 23.8737 47.6827 7.4801 -2.6515 -2.3900
# 2 23.8737 49.4743 36.8147 20.9505 -8.2379 2.1300
# 3 47.6827 36.8147 112.4822 12.0642 -4.5950 -12.4657
# 4 7.4801 20.9505 12.0642 27.0531 0.8214 -1.2970
# 5 -2.6515 -8.2379 -4.5950 0.8214 39.1680 0.0717
# 6 -2.3900 2.1300 -12.4657 -1.2970 0.0717 27.1758
#
#
#
# Elastic Compliance Matrix: (Units=1/GPa)
#
#
# Indices 1 2 3 4 5 6 
#
# 1 0.013231 -0.003333 -0.004718 0.001005 -0.000379 -0.000690
# 2 -0.003333 0.043801 -0.010575 -0.029016 0.008373 -0.009984
# 3 -0.004718 -0.010575 0.014777 0.003284 -0.000892 0.007352
# 4 0.001005 -0.029016 0.003284 0.058221 -0.006882 0.006666
# 5 -0.000379 0.008373 -0.000892 -0.006882 0.027309 -0.001499
# 6 -0.000690 -0.009984 0.007352 0.006666 -0.001499 0.041214
#
#
# Mechanical properties :
#
#
# Convention : Reuss Voigt Hill
#
# Bulk Modulus (GPa) = 28.93718 52.94738 40.94228
# Shear Modulus (GPa) = 20.21644 28.77361 24.49503
#
# Velocity S-wave (km/s) = 3.21694 3.83784 3.54103
# Velocity P-wave (km/s) = 5.34893 6.83683 6.13813
#
# Compressibility (1/GPa) = 0.03455762
#
# Stress axis : x y z
#
# Youngs Moduli (GPa) = 75.58065 22.83052 67.67062
#
# Poissons Ratio (x) = 0.07609 0.31925
# Poissons Ratio (y) = 0.25191 0.71564
# Poissons Ratio (z) = 0.35656 0.24144
#
# Static dielectric constant tensor:
#      x y z
#    x 1.759740 0.006990 0.000650 
#    y 0.006990 1.693390 -0.003560 
#    z 0.000650 -0.003560 1.736190 
# 
# From -- ./inp_files/437926.got.cif
#   From: 2010.05.17/outbox.cif.g08.bks.cpg/sg2_219_cif.got.tgz:437926.got - 2010.06.03 11:33:40.
