data_PCOD9086271
_publ_section_title
;
Structure prediction by ZEFSAII (Michael W. Deem and Ramdas Pophale) SiO2 
 PCOD9086271
Probable space group: P -1
;
_chemical_formula_sum "Si O2"
_cell_formula_units_Z 16
_cell_length_a 14.395056
_cell_length_b 8.354271
_cell_length_c 14.573411
_cell_angle_alpha 101.177319
_cell_angle_beta 37.316817
_cell_angle_gamma 129.272274
_cell_volume 618.164958
_symmetry_space_group_name_H-M "P -1"
_symmetry_group_IT_number 2
_symmetry_cell_setting 'triclinic'
loop_
_space_group_symop_operation_xyz
x,y,z
-x,-y,-z
loop_
_atom_site_type_symbol
_atom_site_label
_atom_site_fract_x
_atom_site_fract_y
_atom_site_fract_z
Si Si1 0.119889 0.629111 0.270321
Si Si2 0.899300 0.710343 0.857944
Si Si3 0.738936 0.824795 0.507407
Si Si4 0.467711 0.352381 0.773203
Si Si5 0.356600 0.904849 0.311357
Si Si6 0.796293 0.092804 0.936081
Si Si7 0.740947 0.466826 0.253512
Si Si8 0.781700 0.130811 0.213623
O O1 0.264208 0.776518 0.268737
O O2 0.173997 0.824291 0.181417
O O3 0.206993 0.538701 0.139318
O O4 0.820074 0.344262 0.503822
O O5 0.140886 0.852625 0.742941
O O6 0.000228 0.922796 0.725508
O O7 0.719867 0.653537 0.062829
O O8 0.721978 0.657155 0.569651
O O9 0.497866 0.629122 0.603476
O O10 0.703861 0.959894 0.608197
O O11 0.375978 0.147759 0.744149
O O12 0.420016 0.221047 0.893395
O O13 0.661877 0.132515 0.098816
O O14 0.080450 0.311306 0.779746
O O15 0.671042 0.219509 0.305979
O O16 0.949839 0.639010 0.027441
#
# Coordination Sequence:
#
# PCOD9086271 Si02
#       8
#     2   2   2   2   2   2   2   2
#     4  10  22  43  67  91 112 150 212 255 290 350
#     4  11  22  39  60  86 120 162 202 240 297 352
#     4  11  23  39  60  89 123 164 195 241 302 354
#     4  11  24  38  56  87 133 159 194 237 295 370
#     4  10  22  43  68  88 115 153 203 259 298 337
#     4  11  22  40  64  90 119 161 196 247 300 352
#     4  10  20  38  61  87 124 153 202 251 287 350
#     4  10  19  36  57  82 119 160 191 245 290 340
#
# _framework density 25.883058999999999
#
# number of rings (size 3 to 8) (size 9 to 14) (size 15 to 20)
#    0.000    1.500    2.500    3.750    1.750    2.000 
#    4.500    2.500    0.000    4.500    0.000    0.000 
#    0.000    0.000    0.000    0.000    0.000    0.000 
#
# Total GULP energy -89526.005614 kJ/mol
# GULP energy per Si atom -5595.375351 kJ/mol
# Density = 2.582415 g / cm^3
# Si number density = 25.883059 Si / 1000 Ang^3
#
#
#
# Elastic Constant Matrix: (Units=GPa)
#
#
# Indices 1 2 3 4 5 6 
#
# 1 108.0819 43.2112 23.6778 -15.0323 49.0477 -7.0487
# 2 43.2112 111.2582 20.5767 6.8893 11.9972 0.6487
# 3 23.6778 20.5767 82.4574 -11.9879 15.7838 -19.4743
# 4 -15.0323 6.8893 -11.9879 37.1155 -19.0186 8.4331
# 5 49.0477 11.9972 15.7838 -19.0186 50.8820 -19.1052
# 6 -7.0487 0.6487 -19.4743 8.4331 -19.1052 34.4505
#
#
#
# Elastic Compliance Matrix: (Units=1/GPa)
#
#
# Indices 1 2 3 4 5 6 
#
# 1 0.021365 -0.005298 -0.002844 -0.000519 -0.022146 -0.009291
# 2 -0.005298 0.011651 -0.002468 -0.004290 0.001140 -0.001016
# 3 -0.002844 -0.002468 0.015671 0.004030 0.003439 0.009244
# 4 -0.000519 -0.004290 0.004030 0.035769 0.014133 0.001334
# 5 -0.022146 0.001140 0.003439 0.014133 0.053891 0.023818
# 6 -0.009291 -0.001016 0.009244 0.001334 0.023818 0.045253
#
#
# Mechanical properties :
#
#
# Convention : Reuss Voigt Hill
#
# Bulk Modulus (GPa) = 36.40611 52.96986 44.68798
# Shear Modulus (GPa) = 23.36726 38.77840 31.07283
#
# Velocity S-wave (km/s) = 3.00793 3.87488 3.46859
# Velocity P-wave (km/s) = 5.11465 6.36624 5.77446
#
# Compressibility (1/GPa) = 0.02746792
#
# Stress axis : x y z
#
# Youngs Moduli (GPa) = 46.80533 85.83147 63.81374
#
# Poissons Ratio (x) = 0.45470 0.18146
# Poissons Ratio (y) = 0.24796 0.15750
# Poissons Ratio (z) = 0.13309 0.21184
#
# Static dielectric constant tensor:
#      x y z
#    x 2.050250 -0.067210 -0.010290 
#    y -0.067210 2.054070 0.010190 
#    z -0.010290 0.010190 2.051770 
# 
# From -- ./inp_files/529889.got.cif
#   From: 2010.05.17/outbox.cif.g08.bks.cpg/sg2_265_cif.got.tgz:529889.got - 2010.06.03 11:33:40.
