data_PCOD9086523
_publ_section_title
;
Structure prediction by ZEFSAII (Michael W. Deem and Ramdas Pophale) SiO2 
 PCOD9086523
Probable space group: P -1
;
_chemical_formula_sum "Si O2"
_cell_formula_units_Z 16
_cell_length_a 8.376788
_cell_length_b 9.841388
_cell_length_c 11.483367
_cell_angle_alpha 126.859125
_cell_angle_beta 87.042871
_cell_angle_gamma 79.409772
_cell_volume 728.616417
_symmetry_space_group_name_H-M "P -1"
_symmetry_group_IT_number 2
_symmetry_cell_setting 'triclinic'
loop_
_space_group_symop_operation_xyz
x,y,z
-x,-y,-z
loop_
_atom_site_type_symbol
_atom_site_label
_atom_site_fract_x
_atom_site_fract_y
_atom_site_fract_z
Si Si1 0.580801 0.652565 0.609372
Si Si2 0.467110 0.979856 0.658463
Si Si3 0.849489 0.813246 0.125283
Si Si4 0.898486 0.500181 0.385639
Si Si5 0.992205 0.281066 0.703497
Si Si6 0.673201 0.843256 0.897530
Si Si7 0.734940 0.076351 0.571832
Si Si8 0.993488 0.903985 0.830194
O O1 0.500000 0.500000 0.500000
O O2 0.463249 0.846276 0.693229
O O3 0.722726 0.628253 0.493292
O O4 0.640846 0.670339 0.747607
O O5 0.409068 0.887897 0.501688
O O6 0.321019 0.150953 0.778188
O O7 0.638181 0.028043 0.660470
O O8 0.977373 0.687046 0.144885
O O9 0.782169 0.792214 0.986342
O O10 0.930241 0.981827 0.203737
O O11 0.000000 0.500000 0.500000
O O12 0.975919 0.571680 0.308654
O O13 0.897490 0.297422 0.268787
O O14 0.818491 0.233949 0.667356
O O15 0.126048 0.098921 0.563685
O O16 0.801297 0.899260 0.831221
O O17 0.500000 0.000000 0.000000
O O18 0.000000 0.000000 0.000000
#
# Coordination Sequence:
#
# PCOD9086523 Si02
#       8
#     2   2   2   2   2   2   2   2
#     4  12  25  38  64  99 136 168 216 280 335 379
#     4  10  19  36  58  96 135 172 218 272 319 395
#     4  10  22  40  68  96 129 179 230 259 326 406
#     4  12  25  41  66 100 137 168 221 283 330 382
#     4  10  22  37  63  96 133 175 223 274 331 388
#     4  11  23  42  65  96 134 173 224 269 326 395
#     4   9  20  34  59  93 138 172 219 266 337 389
#     4  10  24  44  68  95 130 179 220 264 332 408
#
# _framework density 21.959427999999999
#
# number of rings (size 3 to 8) (size 9 to 14) (size 15 to 20)
#    0.000    1.500    3.750    0.750   10.500    0.000 
#    0.000    2.500    0.000    0.750    0.000    0.000 
#    0.000    0.000    0.000    0.000    0.000    0.000 
#
# Total GULP energy -89111.095973 kJ/mol
# GULP energy per Si atom -5569.443498 kJ/mol
# Density = 2.190945 g / cm^3
# Si number density = 21.959428 Si / 1000 Ang^3
#
#
#
# Elastic Constant Matrix: (Units=GPa)
#
#
# Indices 1 2 3 4 5 6 
#
# 1 106.0069 24.6340 29.2796 -10.7144 10.2325 21.7201
# 2 24.6340 111.9400 35.8376 -23.1563 26.7699 12.8238
# 3 29.2796 35.8376 108.5181 -3.1071 25.2513 7.1817
# 4 -10.7144 -23.1563 -3.1071 31.3410 -7.7585 4.2241
# 5 10.2325 26.7699 25.2513 -7.7585 38.1908 -0.3190
# 6 21.7201 12.8238 7.1817 4.2241 -0.3190 32.2171
#
#
#
# Elastic Compliance Matrix: (Units=1/GPa)
#
#
# Indices 1 2 3 4 5 6 
#
# 1 0.012440 0.000366 -0.002540 0.005210 -0.000924 -0.008658
# 2 0.000366 0.013857 -0.002511 0.009434 -0.006289 -0.006502
# 3 -0.002540 -0.002511 0.012048 -0.003103 -0.006152 0.000372
# 4 0.005210 0.009434 -0.003103 0.042631 0.002602 -0.012140
# 5 -0.000924 -0.006289 -0.006152 0.002602 0.035474 0.004508
# 6 -0.008658 -0.006502 0.000372 -0.012140 0.004508 0.041018
#
#
# Mechanical properties :
#
#
# Convention : Reuss Voigt Hill
#
# Bulk Modulus (GPa) = 34.51339 56.21859 45.36599
# Shear Modulus (GPa) = 28.32921 36.13069 32.22995
#
# Velocity S-wave (km/s) = 3.59565 4.06068 3.83522
# Velocity P-wave (km/s) = 5.74363 6.90233 6.34947
#
# Compressibility (1/GPa) = 0.02897426
#
# Stress axis : x y z
#
# Youngs Moduli (GPa) = 80.38833 72.16516 83.00230
#
# Poissons Ratio (x) = -0.02644 0.21084
# Poissons Ratio (y) = -0.02945 0.20845
# Poissons Ratio (z) = 0.20420 0.18123
#
# Static dielectric constant tensor:
#      x y z
#    x 1.853960 -0.033880 0.008540 
#    y -0.033880 1.900760 -0.055850 
#    z 0.008540 -0.055850 1.864730 
# 
# From -- ./inp_files/383536.got.cif
#   From: 2010.05.17/outbox.cif.g08.bks.cpg/sg2_192_cif.got.tgz:383536.got - 2010.06.03 11:33:40.
