data_PCOD9086138
_publ_section_title
;
Structure prediction by ZEFSAII (Michael W. Deem and Ramdas Pophale) SiO2 
 PCOD9086138
Probable space group: P -1
;
_chemical_formula_sum "Si O2"
_cell_formula_units_Z 16
_cell_length_a 19.096129
_cell_length_b 8.195503
_cell_length_c 8.871675
_cell_angle_alpha 120.101968
_cell_angle_beta 138.466447
_cell_angle_gamma 45.625582
_cell_volume 657.335259
_symmetry_space_group_name_H-M "P -1"
_symmetry_group_IT_number 2
_symmetry_cell_setting 'triclinic'
loop_
_space_group_symop_operation_xyz
x,y,z
-x,-y,-z
loop_
_atom_site_type_symbol
_atom_site_label
_atom_site_fract_x
_atom_site_fract_y
_atom_site_fract_z
Si Si1 0.493644 0.538719 0.688066
Si Si2 0.244587 0.863631 0.581861
Si Si3 0.028454 0.844043 0.658234
Si Si4 0.055516 0.227625 0.951096
Si Si5 0.543236 0.796969 0.319287
Si Si6 0.283673 0.563406 0.795403
Si Si7 0.125916 0.686909 0.068802
Si Si8 0.292252 0.155634 0.159460
O O1 0.500000 0.500000 0.500000
O O2 0.376564 0.790257 0.676461
O O3 0.465446 0.374730 0.661471
O O4 0.631441 0.463681 0.937197
O O5 0.278759 0.730157 0.734802
O O6 0.191866 0.765947 0.326726
O O7 0.112112 0.107360 0.526160
O O8 0.139419 0.649866 0.641172
O O9 0.104079 0.762914 0.899747
O O10 0.007036 0.092451 0.714760
O O11 0.195193 0.106240 0.051560
O O12 0.000000 0.500000 0.000000
O O13 0.016418 0.206661 0.045801
O O14 0.631355 0.675786 0.262493
O O15 0.618153 0.876411 0.571933
O O16 0.397405 0.989137 0.131051
O O17 0.210357 0.413800 0.090631
#
# Coordination Sequence:
#
# PCOD9086138 Si02
#       8
#     2   2   2   2   2   2   2   2
#     4  11  22  37  62  91 123 149 204 266 311 358
#     4  10  19  36  55  89 123 157 197 248 305 360
#     4  11  22  36  63  94 122 159 205 263 304 344
#     4   9  19  33  57  90 115 157 204 245 295 365
#     4  10  21  37  61  85 121 167 204 247 304 368
#     4  11  22  37  59  91 124 158 206 256 307 366
#     4  10  19  37  62  90 123 155 210 258 294 351
#     4  10  19  37  61  87 122 166 206 242 299 376
#
# _framework density 24.340699000000001
#
# number of rings (size 3 to 8) (size 9 to 14) (size 15 to 20)
#    0.000    1.750    2.500    4.875    0.000    1.000 
#    0.000    0.625    0.000    0.750    6.500    0.000 
#    0.000    0.000    0.000    0.000    0.000    0.000 
#
# Total GULP energy -89134.711786 kJ/mol
# GULP energy per Si atom -5570.919487 kJ/mol
# Density = 2.428530 g / cm^3
# Si number density = 24.340699 Si / 1000 Ang^3
#
#
#
# Elastic Constant Matrix: (Units=GPa)
#
#
# Indices 1 2 3 4 5 6 
#
# 1 98.4851 47.1447 25.4846 -27.4652 -1.8307 -55.2184
# 2 47.1447 90.1779 14.5423 -22.2193 3.6381 -52.3381
# 3 25.4846 14.5423 85.3712 -34.3758 -10.4454 -9.3767
# 4 -27.4652 -22.2193 -34.3758 32.7353 -5.8906 13.6229
# 5 -1.8307 3.6381 -10.4454 -5.8906 33.4188 -2.8778
# 6 -55.2184 -52.3381 -9.3767 13.6229 -2.8778 53.7600
#
#
#
# Elastic Compliance Matrix: (Units=1/GPa)
#
#
# Indices 1 2 3 4 5 6 
#
# 1 0.032968 0.010282 0.003294 0.023538 0.009222 0.038976
# 2 0.010282 0.031057 0.004316 0.019863 0.005201 0.036794
# 3 0.003294 0.004316 0.025554 0.033215 0.013929 0.004371
# 4 0.023538 0.019863 0.033215 0.092310 0.028141 0.027422
# 5 0.009222 0.005201 0.013929 0.028141 0.040208 0.011986
# 6 0.038976 0.036794 0.004371 0.027422 0.011986 0.088911
#
#
# Mechanical properties :
#
#
# Convention : Reuss Voigt Hill
#
# Bulk Modulus (GPa) = 7.97686 49.81971 28.89829
# Shear Modulus (GPa) = 15.77230 36.44033 26.10631
#
# Velocity S-wave (km/s) = 2.54831 3.87343 3.27851
# Velocity P-wave (km/s) = 3.45583 6.36527 5.12150
#
# Compressibility (1/GPa) = 0.12536254
#
# Stress axis : x y z
#
# Youngs Moduli (GPa) = 30.33250 32.19893 39.13307
#
# Poissons Ratio (x) = -0.33106 -0.12891
# Poissons Ratio (y) = -0.31187 -0.16890
# Poissons Ratio (z) = -0.09992 -0.13897
#
# Static dielectric constant tensor:
#      x y z
#    x 1.990240 -0.065570 0.012530 
#    y -0.065570 2.120380 0.046960 
#    z 0.012530 0.046960 1.947250 
# 
# From -- ./inp_files/329339.got.cif
#   From: 2010.05.17/outbox.cif.g08.bks.cpg/sg2_165_cif.got.tgz:329339.got - 2010.06.03 11:33:40.
