data_PCOD9086771
_publ_section_title
;
Structure prediction by ZEFSAII (Michael W. Deem and Ramdas Pophale) SiO2 
 PCOD9086771
Probable space group: P -1
;
_chemical_formula_sum "Si O2"
_cell_formula_units_Z 15
_cell_length_a 9.563042
_cell_length_b 20.443438
_cell_length_c 8.568200
_cell_angle_alpha 120.297591
_cell_angle_beta 30.739474
_cell_angle_gamma 124.789547
_cell_volume 702.761023
_symmetry_space_group_name_H-M "P -1"
_symmetry_group_IT_number 2
_symmetry_cell_setting 'triclinic'
loop_
_space_group_symop_operation_xyz
x,y,z
-x,-y,-z
loop_
_atom_site_type_symbol
_atom_site_label
_atom_site_fract_x
_atom_site_fract_y
_atom_site_fract_z
Si Si1 0.000000 0.500000 0.000000
Si Si2 0.062170 0.827038 0.798696
Si Si3 0.658876 0.893510 0.433099
Si Si4 0.908648 0.078705 0.423795
Si Si5 0.124738 0.569880 0.590835
Si Si6 0.470474 0.084805 0.079896
Si Si7 0.657222 0.548349 0.573571
Si Si8 0.706679 0.645402 0.966349
O O1 0.333419 0.530225 0.802907
O O2 0.089013 0.418575 0.754727
O O3 0.401849 0.843975 0.509871
O O4 0.003785 0.869727 0.751416
O O5 0.884170 0.735093 0.867140
O O6 0.947895 0.871784 0.099698
O O7 0.554125 0.872622 0.684825
O O8 0.719004 0.987667 0.457810
O O9 0.179331 0.070940 0.248173
O O10 0.732711 0.119784 0.754210
O O11 0.220782 0.530127 0.603803
O O12 0.000000 0.500000 0.500000
O O13 0.875300 0.609538 0.890302
O O14 0.396166 0.631675 0.322387
O O15 0.500000 0.000000 0.000000
O O16 0.679061 0.593901 0.771461
#
# Coordination Sequence:
#
# PCOD9086771 Si02
#       8
#     1   2   2   2   2   2   2   2
#     4  10  20  32  60  88 114 144 186 242 282 330
#     4  12  24  37  60  90 127 159 194 263 309 353
#     4  11  21  38  60  89 120 156 212 258 297 349
#     4  11  21  38  62  89 116 163 211 249 303 367
#     4  10  19  36  63  87 106 150 193 247 274 352
#     4  10  20  37  62  85 112 157 205 258 300 360
#     4  10  19  36  60  87 113 147 197 233 285 346
#     4  11  22  37  60  87 122 151 194 238 315 350
#
# _framework density 21.344382
#
# number of rings (size 3 to 8) (size 9 to 14) (size 15 to 20)
#    0.000    1.333    0.000   10.400    0.000    0.000 
#    0.000    0.000   29.333    0.000    0.000    0.000 
#    0.000    0.000    0.000    0.000    0.000    0.000 
#
# Total GULP energy -83524.144059 kJ/mol
# GULP energy per Si atom -5568.276271 kJ/mol
# Density = 2.129580 g / cm^3
# Si number density = 21.344382 Si / 1000 Ang^3
#
#
#
# Elastic Constant Matrix: (Units=GPa)
#
#
# Indices 1 2 3 4 5 6 
#
# 1 103.2332 36.5121 23.0844 -7.4992 -20.8702 19.3606
# 2 36.5121 67.2606 -8.5229 -14.0756 -13.3792 -15.9279
# 3 23.0844 -8.5229 100.4427 -1.4231 -18.0285 -14.2582
# 4 -7.4992 -14.0756 -1.4231 21.3412 10.8647 8.8077
# 5 -20.8702 -13.3792 -18.0285 10.8647 36.4202 -10.3686
# 6 19.3606 -15.9279 -14.2582 8.8077 -10.3686 -30.8066
#
#
#
# Elastic Compliance Matrix: (Units=1/GPa)
#
#
# Indices 1 2 3 4 5 6 
#
# 1 0.011590 -0.004591 -0.000892 -0.005421 0.007808 0.005892
# 2 -0.004591 0.018346 0.001325 0.014906 -0.001976 -0.008057
# 3 -0.000892 0.001325 0.009902 0.002430 0.002455 -0.005960
# 4 -0.005421 0.014906 0.002430 0.057401 -0.011282 0.007970
# 5 0.007808 -0.001976 0.002455 -0.011282 0.033065 -0.009562
# 6 0.005892 -0.008057 -0.005960 0.007970 -0.009562 -0.016337
#
#
# Mechanical properties :
#
#
# Convention : Reuss Voigt Hill
#
# Bulk Modulus (GPa) = 31.72396 41.45374 36.58885
# Shear Modulus (GPa) = 37.65347 20.04847 28.85097
#
# Velocity S-wave (km/s) = 4.20467 3.06810 3.68052
# Velocity P-wave (km/s) = 6.20222 5.65814 5.93641
#
# Compressibility (1/GPa) = 0.03152192
#
# Stress axis : x y z
#
# Youngs Moduli (GPa) = 86.28441 54.50820 100.98538
#
# Poissons Ratio (x) = 0.25022 0.09009
# Poissons Ratio (y) = 0.39609 -0.13377
# Poissons Ratio (z) = 0.07697 -0.07220
#
# Static dielectric constant tensor:
#      x y z
#    x 1.748730 0.046770 -0.031330 
#    y 0.046770 1.717440 0.078730 
#    z -0.031330 0.078730 1.704150 
# 
# From -- ./inp_files/222280.got.cif
#   From: 2010.05.17/outbox.cif.g08.bks.cpg/sg2_112_cif.got.tgz:222280.got - 2010.06.03 11:33:40.
