data_PCOD9086844
_publ_section_title
;
Structure prediction by ZEFSAII (Michael W. Deem and Ramdas Pophale) SiO2 
 PCOD9086844
Probable space group: P -1
;
_chemical_formula_sum "Si O2"
_cell_formula_units_Z 15
_cell_length_a 20.264417
_cell_length_b 7.030540
_cell_length_c 14.923332
_cell_angle_alpha 70.592809
_cell_angle_beta 153.479927
_cell_angle_gamma 89.992014
_cell_volume 633.855248
_symmetry_space_group_name_H-M "P -1"
_symmetry_group_IT_number 2
_symmetry_cell_setting 'triclinic'
loop_
_space_group_symop_operation_xyz
x,y,z
-x,-y,-z
loop_
_atom_site_type_symbol
_atom_site_label
_atom_site_fract_x
_atom_site_fract_y
_atom_site_fract_z
Si Si1 0.500000 0.500000 0.000000
Si Si2 0.085069 0.194029 0.160802
Si Si3 0.973579 0.602968 0.596996
Si Si4 0.536122 0.009856 0.266132
Si Si5 0.310740 0.382804 0.644283
Si Si6 0.876702 0.005776 0.958147
Si Si7 0.129759 0.654684 0.616238
Si Si8 0.374724 0.064146 0.249957
O O1 0.565274 0.591774 0.143588
O O2 0.755838 0.270965 0.305766
O O3 0.434010 0.192960 0.737001
O O4 0.167701 0.027894 0.191971
O O5 0.901990 0.218762 0.959603
O O6 0.000000 0.500000 0.000000
O O7 0.767082 0.745863 0.379161
O O8 0.991388 0.376971 0.594690
O O9 0.994561 0.766566 0.526488
O O10 0.172858 0.403440 0.936046
O O11 0.734414 0.967555 0.520176
O O12 0.506909 0.955232 0.338268
O O13 0.340003 0.330132 0.949812
O O14 0.102152 0.694985 0.306574
O O15 0.713057 0.072571 0.816915
O O16 0.500000 0.000000 0.500000
#
# Coordination Sequence:
#
# PCOD9086844 Si02
#       8
#     1   2   2   2   2   2   2   2
#     4  10  20  34  58  84 116 152 206 244 300 368
#     4  11  21  37  60  90 122 162 207 251 300 368
#     4   8  18  34  56  80 115 160 198 240 310 366
#     4  11  21  35  62  89 123 153 212 259 297 370
#     4  10  20  37  59  87 116 158 199 257 306 365
#     4  10  21  38  62  83 125 165 197 248 317 361
#     4   9  18  36  57  83 112 157 200 248 304 361
#     4  10  19  36  60  90 121 163 207 254 311 368
#
# _framework density 23.664707
#
# number of rings (size 3 to 8) (size 9 to 14) (size 15 to 20)
#    0.000    2.133    2.667    0.800    0.000    2.133 
#    0.000    2.000    2.933   28.000    0.000    0.000 
#    0.000    0.000    0.000    0.000    0.000    0.000 
#
# Total GULP energy -83553.841269 kJ/mol
# GULP energy per Si atom -5570.256085 kJ/mol
# Density = 2.361084 g / cm^3
# Si number density = 23.664707 Si / 1000 Ang^3
#
#
#
# Elastic Constant Matrix: (Units=GPa)
#
#
# Indices 1 2 3 4 5 6 
#
# 1 106.1581 31.5229 7.1745 18.3972 -9.9820 -9.5669
# 2 31.5229 90.9457 26.5345 22.6795 -4.6491 1.1834
# 3 7.1745 26.5345 82.6283 25.3330 -19.7758 -15.7743
# 4 18.3972 22.6795 25.3330 34.0884 -2.5186 -4.5771
# 5 -9.9820 -4.6491 -19.7758 -2.5186 34.9613 13.1881
# 6 -9.5669 1.1834 -15.7743 -4.5771 13.1881 40.2217
#
#
#
# Elastic Compliance Matrix: (Units=1/GPa)
#
#
# Indices 1 2 3 4 5 6 
#
# 1 0.011754 -0.003384 0.003108 -0.005838 0.003357 0.002349
# 2 -0.003384 0.014623 -0.003192 -0.005957 -0.000072 -0.003142
# 3 0.003108 -0.003192 0.019854 -0.013076 0.009199 0.004115
# 4 -0.005838 -0.005957 -0.013076 0.045806 -0.006995 0.001165
# 5 0.003357 -0.000072 0.009199 -0.006995 0.037531 -0.008694
# 6 0.002349 -0.003142 0.004115 0.001165 -0.008694 0.030110
#
#
# Mechanical properties :
#
#
# Convention : Reuss Voigt Hill
#
# Bulk Modulus (GPa) = 25.44935 45.57734 35.51334
# Shear Modulus (GPa) = 27.82223 36.15429 31.98826
#
# Velocity S-wave (km/s) = 3.43255 3.91291 3.68057
# Velocity P-wave (km/s) = 5.14658 6.30206 5.75340
#
# Compressibility (1/GPa) = 0.03929374
#
# Stress axis : x y z
#
# Youngs Moduli (GPa) = 85.07859 68.38714 50.36813
#
# Poissons Ratio (x) = 0.23141 -0.15655
# Poissons Ratio (y) = 0.28789 0.16080
# Poissons Ratio (z) = -0.26443 0.21832
#
# Static dielectric constant tensor:
#      x y z
#    x 2.036860 0.082950 -0.027560 
#    y 0.082950 1.922400 -0.085610 
#    z -0.027560 -0.085610 1.905550 
# 
# From -- ./inp_files/276321.got.cif
#   From: 2010.05.17/outbox.cif.g08.bks.cpg/sg2_139_cif.got.tgz:276321.got - 2010.06.03 11:33:40.
