data_PCOD9086551
_publ_section_title
;
Structure prediction by ZEFSAII (Michael W. Deem and Ramdas Pophale) SiO2 
 PCOD9086551
Probable space group: P -1
;
_chemical_formula_sum "Si O2"
_cell_formula_units_Z 16
_cell_length_a 5.240148
_cell_length_b 15.777331
_cell_length_c 10.650814
_cell_angle_alpha 127.180218
_cell_angle_beta 115.944669
_cell_angle_gamma 53.455684
_cell_volume 559.481142
_symmetry_space_group_name_H-M "P -1"
_symmetry_group_IT_number 2
_symmetry_cell_setting 'triclinic'
loop_
_space_group_symop_operation_xyz
x,y,z
-x,-y,-z
loop_
_atom_site_type_symbol
_atom_site_label
_atom_site_fract_x
_atom_site_fract_y
_atom_site_fract_z
Si Si1 0.861072 0.376287 0.033308
Si Si2 0.066982 0.982240 0.794576
Si Si3 0.154032 0.295046 0.342570
Si Si4 0.186149 0.612707 0.241095
Si Si5 0.379972 0.151826 0.027177
Si Si6 0.832793 0.520671 0.642285
Si Si7 0.548713 0.201617 0.791414
Si Si8 0.661329 0.176907 0.517639
O O1 0.234797 0.269749 0.013327
O O2 0.869548 0.457407 0.221965
O O3 0.776800 0.440893 0.938603
O O4 0.674422 0.298234 0.933996
O O5 0.703817 0.088767 0.819758
O O6 0.265559 0.903316 0.886165
O O7 0.100847 0.898083 0.608363
O O8 0.275440 0.053110 0.873227
O O9 0.143589 0.213050 0.154712
O O10 0.350647 0.355979 0.364290
O O11 0.323289 0.202831 0.408440
O O12 0.897498 0.413641 0.463834
O O13 0.256731 0.518468 0.281662
O O14 0.371227 0.690463 0.363630
O O15 0.819332 0.720038 0.255651
O O16 0.712603 0.136363 0.634885
#
# Coordination Sequence:
#
# PCOD9086551 Si02
#       8
#     2   2   2   2   2   2   2   2
#     4   9  20  37  57  81 112 141 182 226 268 322
#     4   9  17  33  61  81 104 147 182 220 279 315
#     4   9  18  35  61  81 107 143 184 223 270 323
#     4  11  22  35  54  82 116 144 180 222 268 324
#     4   8  16  34  61  83 104 143 184 223 272 323
#     4  10  19  36  59  82 107 147 181 222 274 321
#     4  10  20  36  55  82 112 145 182 222 268 324
#     4  10  20  36  55  82 113 143 180 226 267 324
#
# _framework density 28.597925
#
# number of rings (size 3 to 8) (size 9 to 14) (size 15 to 20)
#    0.000    2.500    1.250    0.750    0.000    1.500 
#    2.250    0.625   22.000    0.000    0.000    0.000 
#    0.000    0.000    0.000    0.000    0.000    0.000 
#
# Total GULP energy -89365.531097 kJ/mol
# GULP energy per Si atom -5585.345694 kJ/mol
# Density = 2.853284 g / cm^3
# Si number density = 28.597925 Si / 1000 Ang^3
#
#
#
# Elastic Constant Matrix: (Units=GPa)
#
#
# Indices 1 2 3 4 5 6 
#
# 1 51.0381 17.4825 13.8773 -0.7516 -14.7985 7.8801
# 2 17.4825 154.8848 32.4054 -7.3587 -17.5036 7.3143
# 3 13.8773 32.4054 150.7425 -9.1000 -8.5297 -3.4113
# 4 -0.7516 -7.3587 -9.1000 63.6257 -4.4490 -15.5631
# 5 -14.7985 -17.5036 -8.5297 -4.4490 18.8670 -1.4516
# 6 7.8801 7.3143 -3.4113 -15.5631 -1.4516 46.5887
#
#
#
# Elastic Compliance Matrix: (Units=1/GPa)
#
#
# Indices 1 2 3 4 5 6 
#
# 1 0.026318 -0.000277 -0.001302 0.000560 0.019645 -0.003704
# 2 -0.000277 0.007541 -0.001189 0.000977 0.006418 -0.000698
# 3 -0.001302 -0.001189 0.007211 0.001337 0.001561 0.001430
# 4 0.000560 0.000977 0.001337 0.017976 0.006656 0.006062
# 5 0.019645 0.006418 0.001561 0.006656 0.076671 0.000396
# 6 -0.003704 -0.000698 0.001430 0.006062 0.000396 0.024343
#
#
# Mechanical properties :
#
#
# Convention : Reuss Voigt Hill
#
# Bulk Modulus (GPa) = 28.14164 53.79953 40.97058
# Shear Modulus (GPa) = 28.17852 45.34296 36.76074
#
# Velocity S-wave (km/s) = 3.14241 3.98620 3.58918
# Velocity P-wave (km/s) = 4.79876 6.32768 5.61550
#
# Compressibility (1/GPa) = 0.03553453
#
# Stress axis : x y z
#
# Youngs Moduli (GPa) = 37.99670 132.60545 138.68155
#
# Poissons Ratio (x) = 0.03669 0.18053
# Poissons Ratio (y) = 0.01051 0.16494
# Poissons Ratio (z) = 0.04946 0.15771
#
# Static dielectric constant tensor:
#      x y z
#    x 2.317200 -0.123760 -0.100540 
#    y -0.123760 2.266090 -0.071150 
#    z -0.100540 -0.071150 2.242520 
# 
# From -- ./inp_files/345762.got.cif
#   From: 2010.05.17/outbox.cif.g08.bks.cpg/sg2_173_cif.got.tgz:345762.got - 2010.06.03 11:33:40.
