data_PCOD9086861
_publ_section_title
;
Structure prediction by ZEFSAII (Michael W. Deem and Ramdas Pophale) SiO2 
 PCOD9086861
Probable space group: P -1
;
_chemical_formula_sum "Si O2"
_cell_formula_units_Z 16
_cell_length_a 13.129321
_cell_length_b 16.404654
_cell_length_c 8.462672
_cell_angle_alpha 119.006508
_cell_angle_beta 70.932754
_cell_angle_gamma 56.476115
_cell_volume 769.331705
_symmetry_space_group_name_H-M "P -1"
_symmetry_group_IT_number 2
_symmetry_cell_setting 'triclinic'
loop_
_space_group_symop_operation_xyz
x,y,z
-x,-y,-z
loop_
_atom_site_type_symbol
_atom_site_label
_atom_site_fract_x
_atom_site_fract_y
_atom_site_fract_z
Si Si1 0.525165 0.259471 0.309106
Si Si2 0.906001 0.322547 0.184854
Si Si3 0.162289 0.827868 0.378292
Si Si4 0.527075 0.268783 0.694724
Si Si5 0.657321 0.962101 0.823742
Si Si6 0.352719 0.026625 0.538701
Si Si7 0.700308 0.306836 0.133706
Si Si8 0.894829 0.323846 0.567854
O O1 0.295138 0.465659 0.563000
O O2 0.526897 0.263970 0.501084
O O3 0.698151 0.203584 0.100890
O O4 0.575697 0.120862 0.084794
O O5 0.885664 0.238006 0.026573
O O6 0.891608 0.317777 0.374728
O O7 0.125027 0.203134 0.904496
O O8 0.278610 0.812587 0.419647
O O9 0.085479 0.792998 0.473022
O O10 0.333080 0.665689 0.010233
O O11 0.000000 0.000000 0.500000
O O12 0.554427 0.143482 0.624600
O O13 0.313767 0.472488 0.064769
O O14 0.665165 0.956719 0.625445
O O15 0.896603 0.773225 0.584957
O O16 0.500000 0.000000 0.000000
O O17 0.500000 0.000000 0.500000
O O18 0.500000 0.500000 0.500000
#
# Coordination Sequence:
#
# PCOD9086861 Si02
#       8
#     2   2   2   2   2   2   2   2
#     4  11  23  42  67  97 131 170 214 267 325 385
#     4  11  23  42  67  97 131 170 214 267 325 385
#     4  12  24  40  65  97 134 174 214 264 323 387
#     4  12  24  42  67  99 133 173 216 266 324 387
#     4  12  26  46  67  94 128 169 219 271 322 384
#     4  12  26  46  67  94 128 169 219 271 322 384
#     4  10  19  36  60  91 126 162 201 254 312 375
#     4  12  24  42  67  99 133 173 216 266 324 387
#
# _framework density 20.797273000000001
#
# number of rings (size 3 to 8) (size 9 to 14) (size 15 to 20)
#    0.000    0.500    0.000   11.625    0.000    1.000 
#    0.000    8.750    0.000    0.000    0.000    0.000 
#    0.000    0.000    0.000    0.000    0.000    0.000 
#
# Total GULP energy -89548.280045 kJ/mol
# GULP energy per Si atom -5596.767503 kJ/mol
# Density = 2.074994 g / cm^3
# Si number density = 20.797273 Si / 1000 Ang^3
#
#
#
# Elastic Constant Matrix: (Units=GPa)
#
#
# Indices 1 2 3 4 5 6 
#
# 1 105.1026 8.4364 3.6210 -7.3839 -7.8850 -8.6960
# 2 8.4364 108.8267 12.8221 -23.9864 2.7919 -21.1169
# 3 3.6210 12.8221 85.4132 -3.2414 -0.6852 -9.4989
# 4 -7.3839 -23.9864 -3.2414 47.4489 -7.8365 3.0054
# 5 -7.8850 2.7919 -0.6852 -7.8365 41.7950 -9.9901
# 6 -8.6960 -21.1169 -9.4989 3.0054 -9.9901 38.6035
#
#
#
# Elastic Compliance Matrix: (Units=1/GPa)
#
#
# Indices 1 2 3 4 5 6 
#
# 1 0.010109 0.000149 -0.000023 0.001950 0.002972 0.002971
# 2 0.000149 0.011721 -0.000835 0.005794 0.001814 0.006258
# 3 -0.000023 -0.000835 0.012163 0.000393 0.000983 0.002755
# 4 0.001950 0.005794 0.000393 0.025032 0.005437 0.003164
# 5 0.002972 0.001814 0.000983 0.005437 0.027453 0.008585
# 6 0.002971 0.006258 0.002755 0.003164 0.008585 0.032650
#
#
# Mechanical properties :
#
#
# Convention : Reuss Voigt Hill
#
# Bulk Modulus (GPa) = 30.69892 38.78906 34.74399
# Shear Modulus (GPa) = 38.05024 43.86701 40.95862
#
# Velocity S-wave (km/s) = 4.28200 4.59766 4.44263
# Velocity P-wave (km/s) = 6.26422 6.84662 6.56188
#
# Compressibility (1/GPa) = 0.03257444
#
# Stress axis : x y z
#
# Youngs Moduli (GPa) = 98.92092 85.31959 82.21448
#
# Poissons Ratio (x) = -0.01270 0.00187
# Poissons Ratio (y) = -0.01473 0.06869
# Poissons Ratio (z) = 0.00225 0.07128
#
# Static dielectric constant tensor:
#      x y z
#    x 1.707440 -0.005560 0.021520 
#    y -0.005560 1.732010 0.021200 
#    z 0.021520 0.021200 1.830070 
# 
# From -- ./inp_files/274060.got.cif
#   From: 2010.05.17/outbox.cif.g08.bks.cpg/sg2_138_cif.got.tgz:274060.got - 2010.06.03 11:33:40.
