data_PCOD9086473
_publ_section_title
;
Structure prediction by ZEFSAII (Michael W. Deem and Ramdas Pophale) SiO2 
 PCOD9086473
Probable space group: P -1
;
_chemical_formula_sum "Si O2"
_cell_formula_units_Z 14
_cell_length_a 23.350877
_cell_length_b 24.197659
_cell_length_c 13.330298
_cell_angle_alpha 25.339849
_cell_angle_beta 27.529718
_cell_angle_gamma 12.096236
_cell_volume 675.136227
_symmetry_space_group_name_H-M "P -1"
_symmetry_group_IT_number 2
_symmetry_cell_setting 'triclinic'
loop_
_space_group_symop_operation_xyz
x,y,z
-x,-y,-z
loop_
_atom_site_type_symbol
_atom_site_label
_atom_site_fract_x
_atom_site_fract_y
_atom_site_fract_z
Si Si1 0.776755 0.156486 0.499361
Si Si2 0.288890 0.484017 0.820118
Si Si3 0.552924 0.221852 0.558130
Si Si4 0.472385 0.181058 0.234347
Si Si5 0.954506 0.404388 0.181512
Si Si6 0.790039 0.199037 0.089877
Si Si7 0.923128 0.259256 0.974506
O O1 0.567326 0.308677 0.661602
O O2 0.594480 0.289079 0.468863
O O3 0.869691 0.212809 0.229137
O O4 0.041066 0.818448 0.651513
O O5 0.226229 0.449787 0.877587
O O6 0.328213 0.358233 0.062836
O O7 0.234319 0.490008 0.613593
O O8 0.720729 0.124035 0.366327
O O9 0.743366 0.924759 0.776802
O O10 0.289149 0.424818 0.202819
O O11 0.500000 0.000000 0.500000
O O12 0.772960 0.965624 0.124212
O O13 0.000000 0.500000 0.000000
O O14 0.500000 0.500000 0.000000
O O15 0.880286 0.213463 0.015102
O O16 0.000000 0.000000 0.000000
#
# Coordination Sequence:
#
# PCOD9086473 Si02
#       7
#     2   2   2   2   2   2   2
#     4   9  19  37  65  93 118 147 204 272 325 370
#     4  10  21  38  61  91 124 164 207 263 322 365
#     4   9  19  35  56  86 124 151 188 268 314 358
#     4  12  26  44  61  88 137 178 217 256 296 392
#     4  10  19  36  58  87 121 160 206 254 313 372
#     4  11  22  41  65  94 126 159 212 269 324 383
#     4  11  24  43  67  93 126 169 213 269 333 365
#
# _framework density 20.736556
#
# number of rings (size 3 to 8) (size 9 to 14) (size 15 to 20)
#    0.000    1.714    0.000    4.286    0.000    8.000 
#    7.714    0.000    0.000    0.000    0.000    0.000 
#    0.000    0.000    0.000    0.000    0.000    0.000 
#
# Total GULP energy -77986.615622 kJ/mol
# GULP energy per Si atom -5570.472544 kJ/mol
# Density = 2.068936 g / cm^3
# Si number density = 20.736556 Si / 1000 Ang^3
#
#
#
# Elastic Constant Matrix: (Units=GPa)
#
#
# Indices 1 2 3 4 5 6 
#
# 1 96.4297 21.2725 47.0650 -1.4435 -13.8585 4.8997
# 2 21.2725 134.3678 42.8505 6.6134 -11.2311 -5.6442
# 3 47.0650 42.8505 103.4799 -4.3900 -8.6041 -3.0961
# 4 -1.4435 6.6134 -4.3900 29.0460 3.8365 -0.5179
# 5 -13.8585 -11.2311 -8.6041 3.8365 33.0933 6.2257
# 6 4.8997 -5.6442 -3.0961 -0.5179 6.2257 33.1460
#
#
#
# Elastic Compliance Matrix: (Units=1/GPa)
#
#
# Indices 1 2 3 4 5 6 
#
# 1 0.014335 0.000057 -0.006264 -0.001000 0.005204 -0.003687
# 2 0.000057 0.008961 -0.003645 -0.002882 0.002321 0.000696
# 3 -0.006264 -0.003645 0.014124 0.002799 -0.000857 0.001829
# 4 -0.001000 -0.002882 0.002799 0.036162 -0.005134 0.001448
# 5 0.005204 0.002321 -0.000857 -0.005134 0.034890 -0.007088
# 6 -0.003687 0.000696 0.001829 0.001448 -0.007088 0.032358
#
#
# Mechanical properties :
#
#
# Convention : Reuss Voigt Hill
#
# Bulk Modulus (GPa) = 56.44316 61.85039 59.14677
# Shear Modulus (GPa) = 30.04111 33.92969 31.98540
#
# Velocity S-wave (km/s) = 3.81031 4.04942 3.93168
# Velocity P-wave (km/s) = 6.82907 7.19411 7.01397
#
# Compressibility (1/GPa) = 0.01771694
#
# Stress axis : x y z
#
# Youngs Moduli (GPa) = 69.75929 111.59822 70.79986
#
# Poissons Ratio (x) = -0.00640 0.44347
# Poissons Ratio (y) = -0.00400 0.25808
# Poissons Ratio (z) = 0.43695 0.40680
#
# Static dielectric constant tensor:
#      x y z
#    x 1.824570 -0.028220 0.156710 
#    y -0.028220 1.900690 -0.341300 
#    z 0.156710 -0.341300 2.553430 
# 
# From -- ./inp_files/544560.got.cif
#   From: 2010.05.17/outbox.cif.g08.bks.cpg/sg2_273_cif.got.tgz:544560.got - 2010.06.03 11:33:40.
