data_PCOD9086517
_publ_section_title
;
Structure prediction by ZEFSAII (Michael W. Deem and Ramdas Pophale) SiO2 
 PCOD9086517
Probable space group: P -1
;
_chemical_formula_sum "Si O2"
_cell_formula_units_Z 16
_cell_length_a 11.858325
_cell_length_b 16.545025
_cell_length_c 9.253171
_cell_angle_alpha 37.527202
_cell_angle_beta 125.225932
_cell_angle_gamma 127.437124
_cell_volume 861.072359
_symmetry_space_group_name_H-M "P -1"
_symmetry_group_IT_number 2
_symmetry_cell_setting 'triclinic'
loop_
_space_group_symop_operation_xyz
x,y,z
-x,-y,-z
loop_
_atom_site_type_symbol
_atom_site_label
_atom_site_fract_x
_atom_site_fract_y
_atom_site_fract_z
Si Si1 0.185907 0.117471 0.864729
Si Si2 0.849860 0.179307 0.824847
Si Si3 0.162872 0.446858 0.045019
Si Si4 0.405699 0.371055 0.517960
Si Si5 0.879344 0.579690 0.280346
Si Si6 0.150438 0.697152 0.877562
Si Si7 0.691347 0.352077 0.652222
Si Si8 0.144570 0.897306 0.368140
O O1 0.313742 0.249759 0.726683
O O2 0.030054 0.141985 0.701516
O O3 0.179968 0.985480 0.943843
O O4 0.197910 0.054538 0.122694
O O5 0.750803 0.248443 0.745728
O O6 0.819574 0.188189 0.619283
O O7 0.019853 0.261547 0.857202
O O8 0.292035 0.413552 0.272167
O O9 0.008595 0.333156 0.127478
O O10 0.184791 0.450417 0.884479
O O11 0.143247 0.587267 0.899609
O O12 0.500000 0.500000 0.500000
O O13 0.520674 0.321580 0.578991
O O14 0.764222 0.507565 0.420515
O O15 0.000000 0.500000 0.500000
O O16 0.198109 0.848766 0.624206
O O17 0.250202 0.664738 0.121223
#
# Coordination Sequence:
#
# PCOD9086517 Si02
#       8
#     2   2   2   2   2   2   2   2
#     4   9  21  38  64  87 119 166 192 253 314 344
#     4   9  19  37  61  89 118 157 202 246 299 358
#     4  11  22  35  62  91 123 157 203 253 292 361
#     4  12  25  41  58  91 130 157 203 247 304 367
#     4  10  19  36  58  94 118 151 202 251 299 340
#     4  11  19  34  62  94 111 156 214 249 288 347
#     4  11  23  36  62  91 128 163 191 252 305 356
#     4   9  19  37  65  86 117 151 211 248 297 347
#
# _framework density 18.581479000000002
#
# number of rings (size 3 to 8) (size 9 to 14) (size 15 to 20)
#    0.750    1.000    5.000    1.500    3.500    1.000 
#    0.000    3.125    0.000    0.000    0.000    0.000 
#    0.000    0.000    0.000    0.000    0.000    0.000 
#
# Total GULP energy -89113.673957 kJ/mol
# GULP energy per Si atom -5569.604622 kJ/mol
# Density = 1.853919 g / cm^3
# Si number density = 18.581479 Si / 1000 Ang^3
#
#
#
# Elastic Constant Matrix: (Units=GPa)
#
#
# Indices 1 2 3 4 5 6 
#
# 1 70.2947 14.7532 26.8812 -5.5564 -9.5764 9.7071
# 2 14.7532 55.9249 37.1498 -12.0009 -4.1062 7.4284
# 3 26.8812 37.1498 127.8456 4.8677 -21.7467 16.5446
# 4 -5.5564 -12.0009 4.8677 32.8870 7.9536 -1.6994
# 5 -9.5764 -4.1062 -21.7467 7.9536 22.8903 -2.9002
# 6 9.7071 7.4284 16.5446 -1.6994 -2.9002 31.7524
#
#
#
# Elastic Compliance Matrix: (Units=1/GPa)
#
#
# Indices 1 2 3 4 5 6 
#
# 1 0.016435 -0.002218 -0.001758 0.001090 0.004028 -0.003163
# 2 -0.002218 0.026936 -0.009394 0.013144 -0.009703 -0.000912
# 3 -0.001758 -0.009394 0.014115 -0.009338 0.013744 -0.003864
# 4 0.001090 0.013144 -0.009338 0.041785 -0.020343 0.001835
# 5 0.004028 -0.009703 0.013744 -0.020343 0.063579 -0.001404
# 6 -0.003163 -0.000912 -0.003864 0.001835 -0.001404 0.034657
#
#
# Mechanical properties :
#
#
# Convention : Reuss Voigt Hill
#
# Bulk Modulus (GPa) = 32.52458 45.73707 39.13082
# Shear Modulus (GPa) = 21.32242 29.19133 25.25688
#
# Velocity S-wave (km/s) = 3.39117 3.96787 3.69080
# Velocity P-wave (km/s) = 5.73368 6.75720 6.26637
#
# Compressibility (1/GPa) = 0.03074598
#
# Stress axis : x y z
#
# Youngs Moduli (GPa) = 60.84422 37.12563 70.84840
#
# Poissons Ratio (x) = 0.08234 0.12457
# Poissons Ratio (y) = 0.13495 0.66553
# Poissons Ratio (z) = 0.10698 0.34875
#
# Static dielectric constant tensor:
#      x y z
#    x 1.653990 -0.030970 -0.017620 
#    y -0.030970 1.662500 -0.033330 
#    z -0.017620 -0.033330 1.672270 
# 
# From -- ./inp_files/277368.got.cif
#   From: 2010.05.17/outbox.cif.g08.bks.cpg/sg2_139_cif.got.tgz:277368.got - 2010.06.03 11:33:40.
