data_PCOD9086031
_publ_section_title
;
Structure prediction by ZEFSAII (Michael W. Deem and Ramdas Pophale) SiO2 
 PCOD9086031
Probable space group: P -1
;
_chemical_formula_sum "Si O2"
_cell_formula_units_Z 14
_cell_length_a 5.291382
_cell_length_b 10.356392
_cell_length_c 15.289188
_cell_angle_alpha 73.954324
_cell_angle_beta 65.318004
_cell_angle_gamma 57.140375
_cell_volume 638.126214
_symmetry_space_group_name_H-M "P -1"
_symmetry_group_IT_number 2
_symmetry_cell_setting 'triclinic'
loop_
_space_group_symop_operation_xyz
x,y,z
-x,-y,-z
loop_
_atom_site_type_symbol
_atom_site_label
_atom_site_fract_x
_atom_site_fract_y
_atom_site_fract_z
Si Si1 0.133999 0.097171 0.512651
Si Si2 0.448013 0.149397 0.925964
Si Si3 0.425192 0.510579 0.264629
Si Si4 0.368735 0.812468 0.281455
Si Si5 0.250341 0.360420 0.596760
Si Si6 0.718428 0.345515 0.401031
Si Si7 0.283444 0.634372 0.073869
O O1 0.940104 0.148208 0.622843
O O2 0.032424 0.234736 0.431502
O O3 0.500000 0.000000 0.500000
O O4 0.000000 0.000000 0.500000
O O5 0.643628 0.086396 0.817283
O O6 0.575903 0.250577 0.942352
O O7 0.075675 0.259865 0.930922
O O8 0.500000 0.000000 0.000000
O O9 0.496458 0.649741 0.243979
O O10 0.699068 0.352695 0.297091
O O11 0.306499 0.537249 0.177473
O O12 0.124627 0.553005 0.363292
O O13 0.625689 0.780105 0.326401
O O14 0.448932 0.312188 0.488332
O O15 0.344492 0.484419 0.597396
O O16 0.500000 0.500000 0.000000
#
# Coordination Sequence:
#
# PCOD9086031 Si02
#       7
#     2   2   2   2   2   2   2
#     4  11  26  41  57  86 136 173 203 257 318 385
#     4  11  23  45  73  98 133 178 234 276 336 422
#     4  10  19  35  68  86 122 157 217 266 320 387
#     4   9  21  39  63  91 117 173 217 258 322 389
#     4   9  16  33  59  89 112 150 206 267 294 367
#     4   9  20  33  56  89 116 158 211 249 310 373
#     4  11  24  44  69 103 136 172 218 296 354 386
#
# _framework density 21.939233000000002
#
# number of rings (size 3 to 8) (size 9 to 14) (size 15 to 20)
#    0.000    2.000    1.429    2.143    6.000    0.000 
#    2.571    0.000    0.000    0.000    0.000    0.000 
#    0.000    0.000    0.000    0.000    0.000    0.000 
#
# Total GULP energy -77937.996113 kJ/mol
# GULP energy per Si atom -5566.999722 kJ/mol
# Density = 2.188930 g / cm^3
# Si number density = 21.939233 Si / 1000 Ang^3
#
#
#
# Elastic Constant Matrix: (Units=GPa)
#
#
# Indices 1 2 3 4 5 6 
#
# 1 140.7289 49.1668 49.2086 -3.1613 11.8070 -22.2209
# 2 49.1668 86.3305 74.1853 -13.3133 14.2301 -24.7892
# 3 49.2086 74.1853 110.1146 -29.8531 19.4186 -23.4489
# 4 -3.1613 -13.3133 -29.8531 38.9725 -5.3200 6.9809
# 5 11.8070 14.2301 19.4186 -5.3200 24.4100 -4.7114
# 6 -22.2209 -24.7892 -23.4489 6.9809 -4.7114 48.6669
#
#
#
# Elastic Compliance Matrix: (Units=1/GPa)
#
#
# Indices 1 2 3 4 5 6 
#
# 1 0.009266 -0.003134 -0.002078 -0.002404 -0.001165 0.001865
# 2 -0.003134 0.031461 -0.020013 -0.006011 -0.001112 0.005706
# 3 -0.002078 -0.020013 0.028460 0.013861 -0.006965 -0.000093
# 4 -0.002404 -0.006011 0.013861 0.034550 0.000713 -0.002368
# 5 -0.001165 -0.001112 -0.006965 0.000713 0.047890 0.000079
# 6 0.001865 0.005706 -0.000093 -0.002368 0.000079 0.024608
#
#
# Mechanical properties :
#
#
# Convention : Reuss Voigt Hill
#
# Bulk Modulus (GPa) = 53.37760 75.81061 64.59410
# Shear Modulus (GPa) = 21.46552 33.38411 27.42481
#
# Velocity S-wave (km/s) = 3.13134 3.90508 3.53942
# Velocity P-wave (km/s) = 6.12016 7.41368 6.79776
#
# Compressibility (1/GPa) = 0.01873445
#
# Stress axis : x y z
#
# Youngs Moduli (GPa) = 107.92306 31.78541 35.13740
#
# Poissons Ratio (x) = 0.09963 0.07303
# Poissons Ratio (y) = 0.33827 0.70322
# Poissons Ratio (z) = 0.22430 0.63613
#
# Static dielectric constant tensor:
#      x y z
#    x 1.881000 -0.033670 0.051050 
#    y -0.033670 1.894020 -0.057990 
#    z 0.051050 -0.057990 1.944020 
# 
# From -- ./inp_files/99656.got.cif
#   From: 2010.05.17/outbox.cif.g08.bks.cpg/sg2_50_cif.got.tgz:99656.got - 2010.06.03 11:33:40.
