data_PCOD9086022
_publ_section_title
;
Structure prediction by ZEFSAII (Michael W. Deem and Ramdas Pophale) SiO2 
 PCOD9086022
Probable space group: P -1
;
_chemical_formula_sum "Si O2"
_cell_formula_units_Z 12
_cell_length_a 10.374747
_cell_length_b 11.984271
_cell_length_c 15.258711
_cell_angle_alpha 41.278106
_cell_angle_beta 23.496476
_cell_angle_gamma 52.898486
_cell_volume 471.590064
_symmetry_space_group_name_H-M "P -1"
_symmetry_group_IT_number 2
_symmetry_cell_setting 'triclinic'
loop_
_space_group_symop_operation_xyz
x,y,z
-x,-y,-z
loop_
_atom_site_type_symbol
_atom_site_label
_atom_site_fract_x
_atom_site_fract_y
_atom_site_fract_z
Si Si1 0.830994 0.073646 0.814569
Si Si2 0.658975 0.048461 0.665832
Si Si3 0.204642 0.811356 0.689724
Si Si4 0.364661 0.516106 0.851789
Si Si5 0.795939 0.537475 0.718592
Si Si6 0.192919 0.543255 0.620911
O O1 0.064783 0.254346 0.517265
O O2 0.049625 0.938439 0.766590
O O3 0.500000 0.000000 0.000000
O O4 0.665642 0.085316 0.004783
O O5 0.625969 0.074569 0.568116
O O6 0.722194 0.243701 0.552923
O O7 0.000000 0.000000 0.500000
O O8 0.443322 0.705808 0.642720
O O9 0.868736 0.648033 0.963412
O O10 0.637528 0.455329 0.773005
O O11 0.118199 0.539901 0.069885
O O12 0.091426 0.488495 0.616141
O O13 0.500000 0.500000 0.000000
O O14 0.500000 0.500000 0.500000
#
# Coordination Sequence:
#
# PCOD9086022 Si02
#       6
#     2   2   2   2   2   2
#     4  12  22  39  72  97 130 180 229 271 338 404
#     4  11  21  37  65  97 127 172 227 268 321 407
#     4  10  21  41  67  95 133 179 227 264 338 401
#     4   9  21  39  65  94 141 175 216 281 337 392
#     4  10  22  42  65 103 135 173 223 284 335 391
#     4  10  19  35  67  97 129 171 227 268 332 403
#
# _framework density 25.445827999999999
#
# number of rings (size 3 to 8) (size 9 to 14) (size 15 to 20)
#    0.000    1.667    3.333    1.000    0.000    0.667 
#    0.000    1.667    0.000    0.000    0.000    1.167 
#    0.000    0.000    0.000    0.000    0.000    0.000 
#
# Total GULP energy -67157.896573 kJ/mol
# GULP energy per Si atom -5596.491381 kJ/mol
# Density = 2.538791 g / cm^3
# Si number density = 25.445828 Si / 1000 Ang^3
#
#
#
# Elastic Constant Matrix: (Units=GPa)
#
#
# Indices 1 2 3 4 5 6 
#
# 1 154.0335 58.0763 37.9203 8.2183 6.1495 -37.7069
# 2 58.0763 135.1992 40.9227 6.9891 9.0781 -39.2550
# 3 37.9203 40.9227 118.4214 1.5230 36.8098 -14.2671
# 4 8.2183 6.9891 1.5230 33.9594 -3.3400 -0.7602
# 5 6.1495 9.0781 36.8098 -3.3400 52.1453 -2.6569
# 6 -37.7069 -39.2550 -14.2671 -0.7602 -2.6569 40.8164
#
#
#
# Elastic Compliance Matrix: (Units=1/GPa)
#
#
# Indices 1 2 3 4 5 6 
#
# 1 0.009120 -0.001471 -0.001841 -0.001610 0.000702 0.006383
# 2 -0.001471 0.011370 -0.002476 -0.001651 0.000279 0.008698
# 3 -0.001841 -0.002476 0.012390 -0.000408 -0.008139 -0.000288
# 4 -0.001610 -0.001651 -0.000408 0.030393 0.002585 -0.002483
# 5 0.000702 0.000279 -0.008139 0.002585 0.024944 -0.000256
# 6 0.006383 0.008698 -0.000288 -0.002483 -0.000256 0.038598
#
#
# Mechanical properties :
#
#
# Convention : Reuss Voigt Hill
#
# Bulk Modulus (GPa) = 46.93723 75.72141 61.32932
# Shear Modulus (GPa) = 34.36639 43.43320 38.89979
#
# Velocity S-wave (km/s) = 3.67900 4.13593 3.91414
# Velocity P-wave (km/s) = 6.04423 7.25468 6.67694
#
# Compressibility (1/GPa) = 0.02130505
#
# Stress axis : x y z
#
# Youngs Moduli (GPa) = 109.64560 87.95228 80.71268
#
# Poissons Ratio (x) = 0.12940 0.14855
# Poissons Ratio (y) = 0.16132 0.19981
# Poissons Ratio (z) = 0.20181 0.21773
#
# Static dielectric constant tensor:
#      x y z
#    x 2.059570 0.015990 -0.056900 
#    y 0.015990 2.015650 0.063880 
#    z -0.056900 0.063880 2.082990 
# 
# From -- ./inp_files/567845.got.cif
#   From: 2010.05.17/outbox.cif.g08.bks.cpg/sg2_284_cif.got.tgz:567845.got - 2010.06.03 11:33:40.
