data_PCOD9086807
_publ_section_title
;
Structure prediction by ZEFSAII (Michael W. Deem and Ramdas Pophale) SiO2 
 PCOD9086807
Probable space group: P -1
;
_chemical_formula_sum "Si O2"
_cell_formula_units_Z 16
_cell_length_a 9.348796
_cell_length_b 14.092437
_cell_length_c 8.095415
_cell_angle_alpha 52.863349
_cell_angle_beta 104.137335
_cell_angle_gamma 113.495853
_cell_volume 779.746384
_symmetry_space_group_name_H-M "P -1"
_symmetry_group_IT_number 2
_symmetry_cell_setting 'triclinic'
loop_
_space_group_symop_operation_xyz
x,y,z
-x,-y,-z
loop_
_atom_site_type_symbol
_atom_site_label
_atom_site_fract_x
_atom_site_fract_y
_atom_site_fract_z
Si Si1 0.607465 0.962452 0.201398
Si Si2 0.058982 0.355421 0.194732
Si Si3 0.095592 0.935213 0.985228
Si Si4 0.920175 0.483236 0.268520
Si Si5 0.181120 0.694680 0.300325
Si Si6 0.114637 0.125538 0.317490
Si Si7 0.462916 0.128999 0.391686
Si Si8 0.292852 0.765181 0.911462
O O1 0.518747 0.857461 0.417950
O O2 0.686406 0.089816 0.194440
O O3 0.500000 0.000000 0.000000
O O4 0.756609 0.951344 0.161098
O O5 0.043767 0.418507 0.297913
O O6 0.877401 0.296639 0.148702
O O7 0.130165 0.243644 0.316932
O O8 0.137184 0.460979 0.968101
O O9 0.162548 0.830335 0.192363
O O10 0.978784 0.862049 0.885572
O O11 0.000000 0.000000 0.000000
O O12 0.797050 0.379983 0.453419
O O13 0.015201 0.602114 0.280959
O O14 0.293199 0.710239 0.154856
O O15 0.282058 0.115225 0.329434
O O16 0.000000 0.000000 0.500000
O O17 0.574865 0.229117 0.191957
O O18 0.500000 0.000000 0.500000
#
# Coordination Sequence:
#
# PCOD9086807 Si02
#       8
#     2   2   2   2   2   2   2   2
#     4  10  20  36  49  76 119 152 192 224 276 357
#     4  10  19  36  60  89 107 151 199 241 288 334
#     4  11  23  35  54  91 120 152 185 239 294 340
#     4   9  18  33  62  85 110 148 194 248 285 333
#     4   9  18  37  54  86 118 146 190 242 286 341
#     4  12  21  38  58  84 125 146 192 246 281 354
#     4  10  21  35  55  77 111 167 186 224 295 348
#     4   9  18  35  51  80 112 142 195 227 281 343
#
# _framework density 20.519492
#
# number of rings (size 3 to 8) (size 9 to 14) (size 15 to 20)
#    0.000    2.000    5.000    0.750    5.250    2.000 
#    0.000    0.000    0.000    7.500    0.000    0.000 
#    0.000    0.000    0.000    0.000    0.000    0.000 
#
# Total GULP energy -89112.245280 kJ/mol
# GULP energy per Si atom -5569.515330 kJ/mol
# Density = 2.047279 g / cm^3
# Si number density = 20.519492 Si / 1000 Ang^3
#
#
#
# Elastic Constant Matrix: (Units=GPa)
#
#
# Indices 1 2 3 4 5 6 
#
# 1 140.4926 16.7430 59.6039 0.3164 -25.2681 -9.0372
# 2 16.7430 56.7983 8.7005 -12.8535 -2.3196 -15.5954
# 3 59.6039 8.7005 133.0412 -8.2304 -41.9162 -2.5715
# 4 0.3164 -12.8535 -8.2304 27.2333 -2.1454 2.6220
# 5 -25.2681 -2.3196 -41.9162 -2.1454 42.4693 4.1396
# 6 -9.0372 -15.5954 -2.5715 2.6220 4.1396 28.0254
#
#
#
# Elastic Compliance Matrix: (Units=1/GPa)
#
#
# Indices 1 2 3 4 5 6 
#
# 1 0.009309 -0.002256 -0.003643 -0.002285 0.001568 0.001394
# 2 -0.002256 0.023700 0.000144 0.010096 -0.000528 0.011607
# 3 -0.003643 0.000144 0.012881 0.005064 0.011005 -0.002012
# 4 -0.002285 0.010096 0.005064 0.043510 0.006355 0.000337
# 5 0.001568 -0.000528 0.011005 0.006355 0.036092 -0.004704
# 6 0.001394 0.011607 -0.002012 0.000337 -0.004704 0.043069
#
#
# Mechanical properties :
#
#
# Convention : Reuss Voigt Hill
#
# Bulk Modulus (GPa) = 29.08846 55.60299 42.34573
# Shear Modulus (GPa) = 26.10517 35.89790 31.00153
#
# Velocity S-wave (km/s) = 3.57068 4.18718 3.89116
# Velocity P-wave (km/s) = 5.58627 7.10867 6.39295
#
# Compressibility (1/GPa) = 0.03437789
#
# Stress axis : x y z
#
# Youngs Moduli (GPa) = 107.41937 42.19491 77.63298
#
# Poissons Ratio (x) = 0.09520 0.28285
# Poissons Ratio (y) = 0.24237 -0.01115
# Poissons Ratio (z) = 0.39137 -0.00606
#
# Static dielectric constant tensor:
#      x y z
#    x 1.757660 0.034480 -0.049430 
#    y 0.034480 1.911530 0.012460 
#    z -0.049430 0.012460 1.866920 
# 
# From -- ./inp_files/171426.got.cif
#   From: 2010.05.17/outbox.cif.g08.bks.cpg/sg2_86_cif.got.tgz:171426.got - 2010.06.03 11:33:40.
