data_PCOD9086153
_publ_section_title
;
Structure prediction by ZEFSAII (Michael W. Deem and Ramdas Pophale) SiO2 
 PCOD9086153
Probable space group: P -1
;
_chemical_formula_sum "Si O2"
_cell_formula_units_Z 16
_cell_length_a 8.357578
_cell_length_b 15.187880
_cell_length_c 9.490639
_cell_angle_alpha 124.149721
_cell_angle_beta 43.876286
_cell_angle_gamma 104.444460
_cell_volume 665.222408
_symmetry_space_group_name_H-M "P -1"
_symmetry_group_IT_number 2
_symmetry_cell_setting 'triclinic'
loop_
_space_group_symop_operation_xyz
x,y,z
-x,-y,-z
loop_
_atom_site_type_symbol
_atom_site_label
_atom_site_fract_x
_atom_site_fract_y
_atom_site_fract_z
Si Si1 0.013078 0.773319 0.034906
Si Si2 0.875453 0.371657 0.615090
Si Si3 0.380280 0.333233 0.185283
Si Si4 0.481298 0.316737 0.434420
Si Si5 0.160864 0.989459 0.636196
Si Si6 0.523833 0.856739 0.492285
Si Si7 0.602460 0.533493 0.139690
Si Si8 0.864144 0.193222 0.688298
O O1 0.056012 0.782758 0.184936
O O2 0.739602 0.769928 0.190826
O O3 0.238073 0.683351 0.751100
O O4 0.006678 0.896519 0.094471
O O5 0.624633 0.376681 0.702165
O O6 0.931305 0.274133 0.605730
O O7 0.099274 0.356452 0.355631
O O8 0.808480 0.484377 0.851856
O O9 0.395450 0.325208 0.337828
O O10 0.489703 0.432634 0.159278
O O11 0.572649 0.225016 0.907756
O O12 0.483778 0.203489 0.410368
O O13 0.329581 0.415289 0.715511
O O14 0.281752 0.900437 0.597623
O O15 0.041543 0.928785 0.542758
O O16 0.369045 0.036473 0.474293
#
# Coordination Sequence:
#
# PCOD9086153 Si02
#       8
#     2   2   2   2   2   2   2   2
#     4   9  20  35  52  79 109 140 175 218 255 310
#     4  10  21  38  56  81 104 140 177 216 264 319
#     4  10  22  37  54  83 107 134 180 220 259 319
#     4  11  21  36  56  81 106 142 175 216 265 314
#     4   9  19  38  53  77 111 142 171 224 258 300
#     4   9  20  36  52  78 110 137 180 216 254 316
#     4  10  22  37  57  78 109 137 175 220 265 314
#     4  10  19  36  56  78 109 139 177 215 263 310
#
# _framework density 24.052105999999998
#
# number of rings (size 3 to 8) (size 9 to 14) (size 15 to 20)
#    0.750    1.500    0.000    2.625    0.000    3.000 
#    2.250    1.250    0.000    0.000    0.000    0.000 
#    0.000    0.000    0.000    0.000    0.000    0.000 
#
# Total GULP energy -89285.209234 kJ/mol
# GULP energy per Si atom -5580.325577 kJ/mol
# Density = 2.399736 g / cm^3
# Si number density = 24.052106 Si / 1000 Ang^3
#
#
#
# Elastic Constant Matrix: (Units=GPa)
#
#
# Indices 1 2 3 4 5 6 
#
# 1 44.6058 9.2461 4.9090 -4.2473 -5.5164 -11.7402
# 2 9.2461 68.8526 -17.1199 -12.6191 1.3816 -17.6148
# 3 4.9090 -17.1199 66.0816 -9.3771 -16.0578 12.2758
# 4 -4.2473 -12.6191 -9.3771 23.6823 -1.3216 2.2924
# 5 -5.5164 1.3816 -16.0578 -1.3216 39.6854 -3.1676
# 6 -11.7402 -17.6148 12.2758 2.2924 -3.1676 28.1454
#
#
#
# Elastic Compliance Matrix: (Units=1/GPa)
#
#
# Indices 1 2 3 4 5 6 
#
# 1 0.026849 -0.001041 -0.003446 0.001898 0.003418 0.012281
# 2 -0.001041 0.020823 0.006250 0.012654 0.002811 0.009158
# 3 -0.003446 0.006250 0.022121 0.012628 0.008093 -0.007292
# 4 0.001898 0.012654 0.012628 0.054732 0.006716 -0.000499
# 5 0.003418 0.002811 0.008093 0.006716 0.029265 0.002402
# 6 0.012281 0.009158 -0.007292 -0.000499 0.002402 0.049875
#
#
# Mechanical properties :
#
#
# Convention : Reuss Voigt Hill
#
# Bulk Modulus (GPa) = 13.63910 19.29004 16.46457
# Shear Modulus (GPa) = 22.26374 30.46962 26.36668
#
# Velocity S-wave (km/s) = 3.04574 3.56310 3.31453
# Velocity P-wave (km/s) = 4.24873 4.99651 4.63771
#
# Compressibility (1/GPa) = 0.07331862
#
# Stress axis : x y z
#
# Youngs Moduli (GPa) = 37.24491 48.02338 45.20579
#
# Poissons Ratio (x) = 0.05000 0.15577
# Poissons Ratio (y) = 0.03878 -0.28252
# Poissons Ratio (z) = 0.12834 -0.30013
#
# Static dielectric constant tensor:
#      x y z
#    x 1.985850 -0.002320 -0.037930 
#    y -0.002320 1.932520 0.008860 
#    z -0.037930 0.008860 1.923140 
# 
# From -- ./inp_files/215427.got.cif
#   From: 2010.05.17/outbox.cif.g08.bks.cpg/sg2_108_cif.got.tgz:215427.got - 2010.06.03 11:33:40.
