data_PCOD9086981
_publ_section_title
;
Structure prediction by ZEFSAII (Michael W. Deem and Ramdas Pophale) SiO2 
 PCOD9086981
Probable space group: P -1
;
_chemical_formula_sum "Si O2"
_cell_formula_units_Z 16
_cell_length_a 16.180979
_cell_length_b 5.054906
_cell_length_c 10.895124
_cell_angle_alpha 107.646953
_cell_angle_beta 113.048521
_cell_angle_gamma 95.031711
_cell_volume 759.469293
_symmetry_space_group_name_H-M "P -1"
_symmetry_group_IT_number 2
_symmetry_cell_setting 'triclinic'
loop_
_space_group_symop_operation_xyz
x,y,z
-x,-y,-z
loop_
_atom_site_type_symbol
_atom_site_label
_atom_site_fract_x
_atom_site_fract_y
_atom_site_fract_z
Si Si1 0.608040 0.788649 0.482468
Si Si2 0.262279 0.920807 0.742871
Si Si3 0.497184 0.174916 0.341283
Si Si4 0.789082 0.734442 0.450842
Si Si5 0.523227 0.822231 0.099968
Si Si6 0.853949 0.907223 0.102651
Si Si7 0.939712 0.410985 0.074428
Si Si8 0.017753 0.336577 0.364472
O O1 0.545229 0.482780 0.355127
O O2 0.583797 0.783186 0.611207
O O3 0.711087 0.791496 0.505174
O O4 0.573625 0.060100 0.449041
O O5 0.202972 0.033897 0.619758
O O6 0.367974 0.069295 0.793853
O O7 0.234484 0.022117 0.873837
O O8 0.244667 0.580140 0.674442
O O9 0.467626 0.919883 0.192659
O O10 0.883594 0.733857 0.573969
O O11 0.500000 0.500000 0.000000
O O12 0.500000 0.000000 0.000000
O O13 0.859697 0.584063 0.051988
O O14 0.888249 0.079842 0.021390
O O15 0.936471 0.052915 0.264556
O O16 0.002696 0.482341 0.245294
O O17 0.000000 0.500000 0.000000
O O18 0.000000 0.500000 0.500000
#
# Coordination Sequence:
#
# PCOD9086981 Si02
#       8
#     2   2   2   2   2   2   2   2
#     4  10  19  36  61  87 116 155 197 258 310 385
#     4  12  23  39  61  93 125 163 210 264 322 372
#     4  10  20  38  60  85 115 156 204 246 325 368
#     4  12  21  35  62  94 130 155 209 264 321 374
#     4  12  24  40  62  88 122 162 211 259 312 385
#     4  10  22  39  64  89 127 165 212 250 321 366
#     4  10  22  41  63  88 125 180 213 246 315 378
#     4  10  22  36  62 100 128 161 209 264 308 366
#
# _framework density 21.067343000000001
#
# number of rings (size 3 to 8) (size 9 to 14) (size 15 to 20)
#    0.750    0.500    3.750    3.375    1.750    1.000 
#    0.000    1.250    2.750    0.000    0.000    0.000 
#    0.000    0.000    0.000    0.000    0.000    0.000 
#
# Total GULP energy -89248.878539 kJ/mol
# GULP energy per Si atom -5578.054909 kJ/mol
# Density = 2.101939 g / cm^3
# Si number density = 21.067343 Si / 1000 Ang^3
#
#
#
# Elastic Constant Matrix: (Units=GPa)
#
#
# Indices 1 2 3 4 5 6 
#
# 1 116.8683 15.8500 11.1563 -12.9773 -29.2084 -7.7791
# 2 15.8500 98.6547 8.5908 -7.2171 -6.6873 -15.7428
# 3 11.1563 8.5908 46.7713 -2.8676 -20.1080 -1.3014
# 4 -12.9773 -7.2171 -2.8676 32.7288 2.4816 -6.4619
# 5 -29.2084 -6.6873 -20.1080 2.4816 28.0766 1.9772
# 6 -7.7791 -15.7428 -1.3014 -6.4619 1.9772 26.9694
#
#
#
# Elastic Compliance Matrix: (Units=1/GPa)
#
#
# Indices 1 2 3 4 5 6 
#
# 1 0.012908 -0.000421 0.004096 0.004938 0.015563 0.003717
# 2 -0.000421 0.011851 -0.001418 0.003784 0.000499 0.007598
# 3 0.004096 -0.001418 0.032367 0.002203 0.026875 0.000473
# 4 0.004938 0.003784 0.002203 0.035637 0.003620 0.012013
# 5 0.015563 0.000499 0.026875 0.003620 0.070730 0.001760
# 6 0.003717 0.007598 0.000473 0.012013 0.001760 0.045359
#
#
# Mechanical properties :
#
#
# Convention : Reuss Voigt Hill
#
# Bulk Modulus (GPa) = 16.22370 37.05428 26.63899
# Shear Modulus (GPa) = 22.23360 32.66810 27.45085
#
# Velocity S-wave (km/s) = 3.25215 3.94210 3.61363
# Velocity P-wave (km/s) = 4.67114 6.19249 5.48482
#
# Compressibility (1/GPa) = 0.06163822
#
# Stress axis : x y z
#
# Youngs Moduli (GPa) = 77.47008 84.38389 30.89585
#
# Poissons Ratio (x) = 0.03553 -0.12653
# Poissons Ratio (y) = 0.03262 0.04381
# Poissons Ratio (z) = -0.31728 0.11967
#
# Static dielectric constant tensor:
#      x y z
#    x 1.772790 0.002360 -0.013890 
#    y 0.002360 1.778470 -0.011120 
#    z -0.013890 -0.011120 1.784280 
# 
# From -- ./inp_files/441436.got.cif
#   From: 2010.05.17/outbox.cif.g08.bks.cpg/sg2_221_cif.got.tgz:441436.got - 2010.06.03 11:33:40.
