data_PCOD9086547
_publ_section_title
;
Structure prediction by ZEFSAII (Michael W. Deem and Ramdas Pophale) SiO2 
 PCOD9086547
Probable space group: P -1
;
_chemical_formula_sum "Si O2"
_cell_formula_units_Z 16
_cell_length_a 14.516927
_cell_length_b 12.483159
_cell_length_c 9.315071
_cell_angle_alpha 131.646429
_cell_angle_beta 40.992851
_cell_angle_gamma 107.722438
_cell_volume 757.545267
_symmetry_space_group_name_H-M "P -1"
_symmetry_group_IT_number 2
_symmetry_cell_setting 'triclinic'
loop_
_space_group_symop_operation_xyz
x,y,z
-x,-y,-z
loop_
_atom_site_type_symbol
_atom_site_label
_atom_site_fract_x
_atom_site_fract_y
_atom_site_fract_z
Si Si1 0.875686 0.854962 0.114990
Si Si2 0.361164 0.831779 0.252622
Si Si3 0.175235 0.504888 0.661641
Si Si4 0.616746 0.581215 0.911268
Si Si5 0.265995 0.377459 0.880941
Si Si6 0.972128 0.106839 0.312851
Si Si7 0.953572 0.328240 0.765668
Si Si8 0.470096 0.344005 0.366809
O O1 0.860815 0.697011 0.037024
O O2 0.706301 0.985169 0.468518
O O3 0.985048 0.928563 0.128499
O O4 0.921059 0.858658 0.898469
O O5 0.207854 0.800583 0.438928
O O6 0.508360 0.736973 0.091086
O O7 0.400307 0.783518 0.996928
O O8 0.242338 0.526120 0.450372
O O9 0.322568 0.402184 0.490648
O O10 0.082361 0.396416 0.658481
O O11 0.088839 0.651900 0.998760
O O12 0.500000 0.500000 0.000000
O O13 0.681765 0.614625 0.012372
O O14 0.416904 0.290373 0.528039
O O15 0.186323 0.547208 0.051649
O O16 0.995535 0.164110 0.492441
O O17 0.500000 0.500000 0.500000
#
# Coordination Sequence:
#
# PCOD9086547 Si02
#       8
#     2   2   2   2   2   2   2   2
#     4   9  21  36  54  83 112 147 186 226 274 341
#     4   9  19  36  55  73 113 156 172 222 282 332
#     4   9  20  34  53  87 107 141 179 230 279 327
#     4  11  21  33  53  86 115 137 186 233 272 327
#     4  11  22  34  57  90 109 141 192 235 267 324
#     4   9  18  37  57  78 108 154 183 216 284 331
#     4  10  19  36  61  79 108 145 185 233 273 318
#     4  10  19  36  59  81 112 146 183 226 278 330
#
# _framework density 21.120850999999998
#
# number of rings (size 3 to 8) (size 9 to 14) (size 15 to 20)
#    0.750    1.500    0.000    4.500    0.000    4.000 
#    0.000    0.000    0.000    8.250    0.000    0.000 
#    0.000    0.000    0.000    0.000    0.000    0.000 
#
# Total GULP energy -89115.025052 kJ/mol
# GULP energy per Si atom -5569.689066 kJ/mol
# Density = 2.107278 g / cm^3
# Si number density = 21.120851 Si / 1000 Ang^3
#
#
#
# Elastic Constant Matrix: (Units=GPa)
#
#
# Indices 1 2 3 4 5 6 
#
# 1 88.8539 13.5712 36.4446 -3.6625 24.3183 8.0617
# 2 13.5712 64.5054 30.8036 -24.6013 8.9826 2.8509
# 3 36.4446 30.8036 132.0409 -37.2247 31.8549 8.5044
# 4 -3.6625 -24.6013 -37.2247 27.2799 -8.0317 -1.0262
# 5 24.3183 8.9826 31.8549 -8.0317 34.4114 -4.8830
# 6 8.0617 2.8509 8.5044 -1.0262 -4.8830 16.3309
#
#
#
# Elastic Compliance Matrix: (Units=1/GPa)
#
#
# Indices 1 2 3 4 5 6 
#
# 1 0.016683 -0.003256 -0.002597 -0.008137 -0.011909 -0.010387
# 2 -0.003256 0.024773 0.002660 0.025076 -0.001184 -0.002881
# 3 -0.002597 0.002660 0.017123 0.021785 -0.011049 -0.010034
# 4 -0.008137 0.025076 0.021785 0.087194 -0.001560 -0.006693
# 5 -0.011909 -0.001184 -0.011049 -0.001560 0.051501 0.027140
# 6 -0.010387 -0.002881 -0.010034 -0.006693 0.027140 0.079784
#
#
# Mechanical properties :
#
#
# Convention : Reuss Voigt Hill
#
# Bulk Modulus (GPa) = 19.15923 49.67098 34.41510
# Shear Modulus (GPa) = 16.62002 29.24317 22.93159
#
# Velocity S-wave (km/s) = 2.80822 3.72501 3.29862
# Velocity P-wave (km/s) = 4.42783 6.48610 5.55316
#
# Compressibility (1/GPa) = 0.05219417
#
# Stress axis : x y z
#
# Youngs Moduli (GPa) = 59.93998 40.36618 58.40042
#
# Poissons Ratio (x) = 0.13142 0.15168
# Poissons Ratio (y) = 0.19514 -0.15535
# Poissons Ratio (z) = 0.15567 -0.10738
#
# Static dielectric constant tensor:
#      x y z
#    x 0.068600 0.059410 3.205870 
#    y 0.059410 1.779580 -0.136640 
#    z 3.205870 -0.136640 -4.264390 
# 
# From -- ./inp_files/314062.got.cif
#   From: 2010.05.17/outbox.cif.g08.bks.cpg/sg2_158_cif.got.tgz:314062.got - 2010.06.03 11:33:40.
