data_PCOD9086581
_publ_section_title
;
Structure prediction by ZEFSAII (Michael W. Deem and Ramdas Pophale) SiO2 
 PCOD9086581
Probable space group: P -1
;
_chemical_formula_sum "Si O2"
_cell_formula_units_Z 16
_cell_length_a 15.831331
_cell_length_b 11.892066
_cell_length_c 9.384367
_cell_angle_alpha 35.421144
_cell_angle_beta 55.796251
_cell_angle_gamma 71.393025
_cell_volume 810.483336
_symmetry_space_group_name_H-M "P -1"
_symmetry_group_IT_number 2
_symmetry_cell_setting 'triclinic'
loop_
_space_group_symop_operation_xyz
x,y,z
-x,-y,-z
loop_
_atom_site_type_symbol
_atom_site_label
_atom_site_fract_x
_atom_site_fract_y
_atom_site_fract_z
Si Si1 0.655862 0.132772 0.706950
Si Si2 0.841201 0.522818 0.192692
Si Si3 0.568327 0.736055 0.705022
Si Si4 0.206090 0.098444 0.060102
Si Si5 0.496196 0.987643 0.759186
Si Si6 0.188775 0.095610 0.760423
Si Si7 0.987172 0.259156 0.413837
Si Si8 0.000433 0.270210 0.719094
O O1 0.750741 0.337107 0.407711
O O2 0.591479 0.109592 0.646138
O O3 0.706680 0.947957 0.872664
O O4 0.587727 0.127312 0.921746
O O5 0.921702 0.425935 0.300220
O O6 0.792544 0.670850 0.175081
O O7 0.908805 0.656071 0.865212
O O8 0.542748 0.859663 0.464573
O O9 0.697899 0.783240 0.540203
O O10 0.530526 0.834293 0.778898
O O11 0.500000 0.500000 0.000000
O O12 0.090959 0.945730 0.365226
O O13 0.219863 0.034161 0.951166
O O14 0.104180 0.223843 0.734591
O O15 0.113338 0.892641 0.964316
O O16 0.012469 0.228127 0.583957
O O17 0.000000 0.500000 0.500000
#
# Coordination Sequence:
#
# PCOD9086581 Si02
#       8
#     2   2   2   2   2   2   2   2
#     4  10  22  39  63  88 121 159 204 250 308 359
#     4  10  20  34  60  83 117 160 194 248 303 366
#     4  11  25  43  66  90 126 167 207 255 313 364
#     4  10  19  36  59  84 119 156 197 253 298 361
#     4  10  24  44  60  91 125 158 206 263 300 362
#     4  10  22  38  57  91 117 153 213 244 297 377
#     4   9  20  35  51  88 118 149 204 239 308 358
#     4  10  21  37  61  84 120 160 193 253 303 362
#
# _framework density 19.741306000000002
#
# number of rings (size 3 to 8) (size 9 to 14) (size 15 to 20)
#    0.000    2.000    1.250    1.125    1.750    6.000 
#    0.000    5.000    0.000    0.000    0.000    0.000 
#    0.000    0.000    0.000    0.000    0.000    0.000 
#
# Total GULP energy -89203.090251 kJ/mol
# GULP energy per Si atom -5575.193141 kJ/mol
# Density = 1.969637 g / cm^3
# Si number density = 19.741306 Si / 1000 Ang^3
#
#
#
# Elastic Constant Matrix: (Units=GPa)
#
#
# Indices 1 2 3 4 5 6 
#
# 1 98.2148 40.2112 31.4521 1.6938 -12.4006 7.6369
# 2 40.2112 71.8128 36.7030 -9.0717 -4.2041 -4.7560
# 3 31.4521 36.7030 93.1833 -6.8194 -21.8522 -4.0262
# 4 1.6938 -9.0717 -6.8194 29.5196 0.4173 15.5592
# 5 -12.4006 -4.2041 -21.8522 0.4173 29.9747 4.2756
# 6 7.6369 -4.7560 -4.0262 15.5592 4.2756 17.9961
#
#
#
# Elastic Compliance Matrix: (Units=1/GPa)
#
#
# Indices 1 2 3 4 5 6 
#
# 1 0.015753 -0.008530 -0.000730 0.003392 0.006684 -0.013624
# 2 -0.008530 0.022723 -0.007193 0.001527 -0.006792 0.008309
# 3 -0.000730 -0.007193 0.016525 0.003270 0.011172 -0.003376
# 4 0.003392 0.001527 0.003270 0.066825 0.011754 -0.060873
# 5 0.006684 -0.006792 0.011172 0.011754 0.046484 -0.023339
# 6 -0.013624 0.008309 -0.003376 -0.060873 -0.023339 0.120965
#
#
# Mechanical properties :
#
#
# Convention : Reuss Voigt Hill
#
# Bulk Modulus (GPa) = 45.26078 53.32707 49.29392
# Shear Modulus (GPa) = 15.17242 25.82105 20.49673
#
# Velocity S-wave (km/s) = 2.77530 3.62051 3.22571
# Velocity P-wave (km/s) = 5.76597 6.67451 6.23681
#
# Compressibility (1/GPa) = 0.02209418
#
# Stress axis : x y z
#
# Youngs Moduli (GPa) = 63.48125 44.00753 60.51603
#
# Poissons Ratio (x) = 0.37538 0.04418
# Poissons Ratio (y) = 0.54149 0.43530
# Poissons Ratio (z) = 0.04635 0.31656
#
# Static dielectric constant tensor:
#      x y z
#    x 1.717280 -0.012550 -0.013490 
#    y -0.012550 1.691900 0.013770 
#    z -0.013490 0.013770 1.701450 
# 
# From -- ./inp_files/306231.got.cif
#   From: 2010.05.17/outbox.cif.g08.bks.cpg/sg2_154_cif.got.tgz:306231.got - 2010.06.03 11:33:40.
