data_PCOD9086739
_publ_section_title
;
Structure prediction by ZEFSAII (Michael W. Deem and Ramdas Pophale) SiO2 
 PCOD9086739
Probable space group: P -1
;
_chemical_formula_sum "Si O2"
_cell_formula_units_Z 14
_cell_length_a 8.957163
_cell_length_b 21.929122
_cell_length_c 5.311459
_cell_angle_alpha 107.950756
_cell_angle_beta 63.472975
_cell_angle_gamma 135.978147
_cell_volume 648.549326
_symmetry_space_group_name_H-M "P -1"
_symmetry_group_IT_number 2
_symmetry_cell_setting 'triclinic'
loop_
_space_group_symop_operation_xyz
x,y,z
-x,-y,-z
loop_
_atom_site_type_symbol
_atom_site_label
_atom_site_fract_x
_atom_site_fract_y
_atom_site_fract_z
Si Si1 0.171150 0.640261 0.947908
Si Si2 0.919374 0.941314 0.738744
Si Si3 0.199193 0.723371 0.548159
Si Si4 0.523491 0.114911 0.132913
Si Si5 0.298880 0.530220 0.766011
Si Si6 0.292819 0.942252 0.380616
Si Si7 0.700987 0.568948 0.746374
O O1 0.209289 0.699525 0.226275
O O2 0.897955 0.554270 0.021841
O O3 0.260994 0.687232 0.670932
O O4 0.276395 0.599660 0.888218
O O5 0.645114 0.876628 0.850760
O O6 0.048574 0.906528 0.607719
O O7 0.000000 0.000000 0.500000
O O8 0.000000 0.000000 0.000000
O O9 0.356512 0.824006 0.634762
O O10 0.934169 0.667218 0.746441
O O11 0.366567 0.014001 0.206656
O O12 0.703874 0.127970 0.828506
O O13 0.556617 0.575005 0.669193
O O14 0.229282 0.481001 0.489640
O O15 0.500000 0.000000 0.500000
O O16 0.500000 0.500000 0.000000
#
# Coordination Sequence:
#
# PCOD9086739 Si02
#       7
#     2   2   2   2   2   2   2
#     4  10  22  38  59  85 115 158 201 242 299 350
#     4  10  20  37  62  87 114 152 198 244 294 364
#     4  11  24  39  58  87 125 157 192 256 305 343
#     4  10  23  40  60  91 127 156 205 255 305 363
#     4   9  20  36  60  84 111 158 209 241 283 366
#     4  10  20  39  67  89 114 166 206 245 305 371
#     4  10  19  36  60  85 119 160 200 245 297 350
#
# _framework density 21.586639999999999
#
# number of rings (size 3 to 8) (size 9 to 14) (size 15 to 20)
#    0.000    2.000    2.857    0.000    4.000    1.714 
#    2.571    1.429    0.000    0.000    0.000    0.000 
#    0.000    0.000    0.000    0.000    0.000    0.000 
#
# Total GULP energy -77964.570725 kJ/mol
# GULP energy per Si atom -5568.897909 kJ/mol
# Density = 2.153751 g / cm^3
# Si number density = 21.586640 Si / 1000 Ang^3
#
#
#
# Elastic Constant Matrix: (Units=GPa)
#
#
# Indices 1 2 3 4 5 6 
#
# 1 98.5567 25.1610 43.8512 15.5363 -25.0098 25.8123
# 2 25.1610 56.0417 8.4141 13.1077 -11.3574 11.9579
# 3 43.8512 8.4141 70.3605 10.1811 -14.0723 5.6684
# 4 15.5363 13.1077 10.1811 29.6058 -1.6441 8.6760
# 5 -25.0098 -11.3574 -14.0723 -1.6441 48.8530 -3.9703
# 6 25.8123 11.9579 5.6684 8.6760 -3.9703 29.5290
#
#
#
# Elastic Compliance Matrix: (Units=1/GPa)
#
#
# Indices 1 2 3 4 5 6 
#
# 1 0.020766 -0.003352 -0.010047 -0.001650 0.005797 -0.013602
# 2 -0.003352 0.022331 0.001452 -0.007331 0.003339 -0.003789
# 3 -0.010047 0.001452 0.020734 -0.004061 0.001485 0.005608
# 4 -0.001650 -0.007331 -0.004061 0.041271 -0.002926 -0.007328
# 5 0.005797 0.003339 0.001485 -0.002926 0.024334 -0.002573
# 6 -0.013602 -0.003789 0.005608 -0.007328 -0.002573 0.048020
#
#
# Mechanical properties :
#
#
# Convention : Reuss Voigt Hill
#
# Bulk Modulus (GPa) = 25.03943 42.20127 33.62035
# Shear Modulus (GPa) = 23.29260 31.43308 27.36284
#
# Velocity S-wave (km/s) = 3.28842 3.82007 3.56417
# Velocity P-wave (km/s) = 5.10323 6.24896 5.70493
#
# Compressibility (1/GPa) = 0.03993701
#
# Stress axis : x y z
#
# Youngs Moduli (GPa) = 48.15549 44.78167 48.23056
#
# Poissons Ratio (x) = 0.15010 0.48459
# Poissons Ratio (y) = 0.16141 -0.07005
# Poissons Ratio (z) = 0.48384 -0.06504
#
# Static dielectric constant tensor:
#      x y z
#    x 1.870050 0.002300 0.019250 
#    y 0.002300 1.826870 -0.041160 
#    z 0.019250 -0.041160 1.834960 
# 
# From -- ./inp_files/42788.got.cif
#   From: 2010.05.17/outbox.cif.g08.bks.cpg/sg2_22_cif.got.tgz:42788.got - 2010.06.03 11:33:40.
