data_PCOD9086178
_publ_section_title
;
Structure prediction by ZEFSAII (Michael W. Deem and Ramdas Pophale) SiO2 
 PCOD9086178
Probable space group: P -1
;
_chemical_formula_sum "Si O2"
_cell_formula_units_Z 14
_cell_length_a 6.297767
_cell_length_b 6.582697
_cell_length_c 21.424204
_cell_angle_alpha 59.580261
_cell_angle_beta 106.134696
_cell_angle_gamma 66.806027
_cell_volume 562.045901
_symmetry_space_group_name_H-M "P -1"
_symmetry_group_IT_number 2
_symmetry_cell_setting 'triclinic'
loop_
_space_group_symop_operation_xyz
x,y,z
-x,-y,-z
loop_
_atom_site_type_symbol
_atom_site_label
_atom_site_fract_x
_atom_site_fract_y
_atom_site_fract_z
Si Si1 0.168241 0.879030 0.809108
Si Si2 0.355907 0.725449 0.197410
Si Si3 0.425873 0.171452 0.060486
Si Si4 0.244779 0.917053 0.488692
Si Si5 0.961239 0.779182 0.068126
Si Si6 0.978676 0.250943 0.302692
Si Si7 0.840514 0.503389 0.639917
O O1 0.894213 0.069938 0.803788
O O2 0.118922 0.706047 0.782978
O O3 0.110530 0.144154 0.717482
O O4 0.461922 0.708685 0.899549
O O5 0.399326 0.944654 0.130788
O O6 0.247672 0.593327 0.162258
O O7 0.680769 0.447325 0.287316
O O8 0.689805 0.985745 0.061341
O O9 0.131828 0.366398 0.964387
O O10 0.184269 0.931180 0.407407
O O11 0.536595 0.595912 0.586506
O O12 0.205671 0.229578 0.446112
O O13 0.000000 0.000000 0.500000
O O14 0.000000 0.000000 0.000000
O O15 0.129782 0.396858 0.304943
#
# Coordination Sequence:
#
# PCOD9086178 Si02
#       7
#     2   2   2   2   2   2   2
#     4  11  21  36  58  82 115 147 185 232 279 332
#     4  10  19  36  56  82 115 148 184 234 276 327
#     4   9  16  34  54  83 115 146 187 230 275 328
#     4   9  18  38  59  77 112 147 183 232 278 329
#     4   8  16  29  59  82 108 157 183 221 288 320
#     4  10  21  38  56  85 111 145 190 228 279 337
#     4   9  20  37  55  79 114 142 180 238 271 325
#
# _framework density 24.908999000000001
#
# number of rings (size 3 to 8) (size 9 to 14) (size 15 to 20)
#    0.857    1.714    1.429    0.857    0.000    0.571 
#    5.143    1.429    0.000   29.143    0.000    0.000 
#    0.000    0.000    0.000    0.000    0.000    0.000 
#
# Total GULP energy -77936.100343 kJ/mol
# GULP energy per Si atom -5566.864310 kJ/mol
# Density = 2.485231 g / cm^3
# Si number density = 24.908999 Si / 1000 Ang^3
#
#
#
# Elastic Constant Matrix: (Units=GPa)
#
#
# Indices 1 2 3 4 5 6 
#
# 1 82.5368 24.0262 36.7452 8.9388 11.1353 -13.0729
# 2 24.0262 78.6105 27.0126 18.0773 15.6585 5.5778
# 3 36.7452 27.0126 117.2954 10.3649 35.5855 9.4708
# 4 8.9388 18.0773 10.3649 35.6399 13.3592 3.4952
# 5 11.1353 15.6585 35.5855 13.3592 50.8079 7.0500
# 6 -13.0729 5.5778 9.4708 3.4952 7.0500 18.6797
#
#
#
# Elastic Compliance Matrix: (Units=1/GPa)
#
#
# Indices 1 2 3 4 5 6 
#
# 1 0.019505 -0.004491 -0.006228 -0.002463 -0.000489 0.018795
# 2 -0.004491 0.016451 -0.001089 -0.005965 -0.000916 -0.006042
# 3 -0.006228 -0.001089 0.013366 0.001654 -0.006915 -0.008510
# 4 -0.002463 -0.005965 0.001654 0.034357 -0.007190 -0.004496
# 5 -0.000489 -0.000916 -0.006915 -0.007190 0.027586 -0.005629
# 6 0.018795 -0.006042 -0.008510 -0.004496 -0.005629 0.075772
#
#
# Mechanical properties :
#
#
# Convention : Reuss Voigt Hill
#
# Bulk Modulus (GPa) = 38.89991 50.44564 44.67278
# Shear Modulus (GPa) = 22.80806 33.73608 28.27207
#
# Velocity S-wave (km/s) = 3.02926 3.68417 3.37265
# Velocity P-wave (km/s) = 5.28072 6.19625 5.75671
#
# Compressibility (1/GPa) = 0.02570700
#
# Stress axis : x y z
#
# Youngs Moduli (GPa) = 51.26802 60.78785 74.81670
#
# Poissons Ratio (x) = 0.27302 0.46593
# Poissons Ratio (y) = 0.23026 0.08144
# Poissons Ratio (z) = 0.31928 0.06617
#
# Static dielectric constant tensor:
#      x y z
#    x 2.052600 0.052290 0.027170 
#    y 0.052290 2.015460 0.069490 
#    z 0.027170 0.069490 2.052310 
# 
# From -- ./inp_files/603648.got.cif
#   From: 2010.05.17/outbox.cif.g08.bks.cpg/sg2_302_cif.got.tgz:603648.got - 2010.06.03 11:33:40.
