data_PCOD9086735
_publ_section_title
;
Structure prediction by ZEFSAII (Michael W. Deem and Ramdas Pophale) SiO2 
 PCOD9086735
Probable space group: P -1
;
_chemical_formula_sum "Si O2"
_cell_formula_units_Z 16
_cell_length_a 10.037836
_cell_length_b 15.154345
_cell_length_c 11.594284
_cell_angle_alpha 141.974712
_cell_angle_beta 55.717754
_cell_angle_gamma 142.176461
_cell_volume 658.076230
_symmetry_space_group_name_H-M "P -1"
_symmetry_group_IT_number 2
_symmetry_cell_setting 'triclinic'
loop_
_space_group_symop_operation_xyz
x,y,z
-x,-y,-z
loop_
_atom_site_type_symbol
_atom_site_label
_atom_site_fract_x
_atom_site_fract_y
_atom_site_fract_z
Si Si1 0.750139 0.809447 0.840543
Si Si2 0.876935 0.065589 0.380403
Si Si3 0.423378 0.710139 0.731243
Si Si4 0.530409 0.640546 0.224453
Si Si5 0.167584 0.440391 0.357696
Si Si6 0.903047 0.781624 0.340497
Si Si7 0.281791 0.892793 0.134103
Si Si8 0.298603 0.911060 0.727544
O O1 0.530310 0.664090 0.720917
O O2 0.794160 0.708625 0.804139
O O3 0.956905 0.924052 0.770735
O O4 0.721543 0.943029 0.055728
O O5 0.691124 0.855237 0.312116
O O6 0.030884 0.222493 0.567445
O O7 0.757108 0.105478 0.396293
O O8 0.274492 0.557285 0.545892
O O9 0.632399 0.920181 0.788841
O O10 0.302420 0.763095 0.914709
O O11 0.305905 0.569530 0.311681
O O12 0.655607 0.647184 0.280818
O O13 0.500000 0.500000 0.000000
O O14 0.904794 0.301012 0.337867
O O15 0.040474 0.767732 0.171408
O O16 0.000000 0.000000 0.500000
O O17 0.461597 0.995823 0.256015
#
# Coordination Sequence:
#
# PCOD9086735 Si02
#       8
#     2   2   2   2   2   2   2   2
#     4  10  19  37  62  88 120 159 205 246 295 357
#     4  10  19  36  60  85 117 161 202 236 290 361
#     4  10  20  35  59  86 120 160 199 253 302 352
#     4  11  21  34  60  93 123 150 192 254 303 346
#     4  11  21  36  61  94 121 151 202 256 300 349
#     4  10  21  38  60  83 112 155 202 240 292 363
#     4  10  22  40  59  86 124 165 203 242 302 366
#     4  10  22  38  61  90 124 162 200 247 298 354
#
# _framework density 24.313293000000002
#
# number of rings (size 3 to 8) (size 9 to 14) (size 15 to 20)
#    0.000    1.750    0.000    7.125    0.000    4.000 
#    0.000    2.500    0.000   17.250    0.000    0.000 
#    0.000    0.000    0.000    0.000    0.000    0.000 
#
# Total GULP energy -89585.366597 kJ/mol
# GULP energy per Si atom -5599.085412 kJ/mol
# Density = 2.425795 g / cm^3
# Si number density = 24.313293 Si / 1000 Ang^3
#
#
#
# Elastic Constant Matrix: (Units=GPa)
#
#
# Indices 1 2 3 4 5 6 
#
# 1 84.7344 6.0268 -9.1358 -2.0838 13.5917 0.0974
# 2 6.0268 102.0581 4.0487 -12.9303 -2.1059 9.3990
# 3 -9.1358 4.0487 79.3514 5.9109 17.3131 5.2400
# 4 -2.0838 -12.9303 5.9109 32.1139 2.3025 4.3732
# 5 13.5917 -2.1059 17.3131 2.3025 30.7509 -4.6318
# 6 0.0974 9.3990 5.2400 4.3732 -4.6318 29.7055
#
#
#
# Elastic Compliance Matrix: (Units=1/GPa)
#
#
# Indices 1 2 3 4 5 6 
#
# 1 0.013602 -0.000855 0.003500 0.000740 -0.008368 -0.001805
# 2 -0.000855 0.010890 -0.000915 0.004982 0.000677 -0.003909
# 3 0.003500 -0.000915 0.015843 -0.001727 -0.010999 -0.003977
# 4 0.000740 0.004982 -0.001727 0.034623 -0.002627 -0.006781
# 5 -0.008368 0.000677 -0.010999 -0.002627 0.044010 0.009003
# 6 -0.001805 -0.003909 -0.003977 -0.006781 0.009003 0.038010
#
#
# Mechanical properties :
#
#
# Convention : Reuss Voigt Hill
#
# Bulk Modulus (GPa) = 22.83327 29.78035 26.30681
# Shear Modulus (GPa) = 29.74139 36.19435 32.96787
#
# Velocity S-wave (km/s) = 3.50130 3.86251 3.68633
# Velocity P-wave (km/s) = 5.07515 5.67161 5.38165
#
# Compressibility (1/GPa) = 0.04379574
#
# Stress axis : x y z
#
# Youngs Moduli (GPa) = 73.51726 91.82525 63.12012
#
# Poissons Ratio (x) = 0.07848 -0.22089
# Poissons Ratio (y) = 0.06284 0.05773
# Poissons Ratio (z) = -0.25728 0.08398
#
# Static dielectric constant tensor:
#      x y z
#    x 1.976140 -0.016880 -0.010540 
#    y -0.016880 1.934160 0.009990 
#    z -0.010540 0.009990 1.943060 
# 
# From -- ./inp_files/436951.got.cif
#   From: 2010.05.17/outbox.cif.g08.bks.cpg/sg2_219_cif.got.tgz:436951.got - 2010.06.03 11:33:40.
