data_PCOD9086601
_publ_section_title
;
Structure prediction by ZEFSAII (Michael W. Deem and Ramdas Pophale) SiO2 
 PCOD9086601
Probable space group: P -1
;
_chemical_formula_sum "Si O2"
_cell_formula_units_Z 14
_cell_length_a 15.026896
_cell_length_b 9.340657
_cell_length_c 13.723082
_cell_angle_alpha 41.143333
_cell_angle_beta 28.206338
_cell_angle_gamma 57.566083
_cell_volume 546.499614
_symmetry_space_group_name_H-M "P -1"
_symmetry_group_IT_number 2
_symmetry_cell_setting 'triclinic'
loop_
_space_group_symop_operation_xyz
x,y,z
-x,-y,-z
loop_
_atom_site_type_symbol
_atom_site_label
_atom_site_fract_x
_atom_site_fract_y
_atom_site_fract_z
Si Si1 0.582636 0.472808 0.149484
Si Si2 0.536356 0.121880 0.021179
Si Si3 0.218631 0.501810 0.260790
Si Si4 0.160872 0.110200 0.202622
Si Si5 0.809614 0.797706 0.085551
Si Si6 0.339284 0.741209 0.541056
Si Si7 0.218315 0.079831 0.614761
O O1 0.388686 0.218262 0.462274
O O2 0.493366 0.670946 0.113099
O O3 0.733441 0.495595 0.900921
O O4 0.719518 0.602186 0.044340
O O5 0.345232 0.891426 0.360156
O O6 0.627349 0.249454 0.970358
O O7 0.691340 0.030990 0.866791
O O8 0.254534 0.295551 0.391745
O O9 0.000000 0.500000 0.500000
O O10 0.086282 0.075283 0.181742
O O11 0.000000 0.000000 0.500000
O O12 0.574931 0.775279 0.321537
O O13 0.786686 0.529024 0.232521
O O14 0.969504 0.953329 0.933778
O O15 0.264789 0.865726 0.634099
#
# Coordination Sequence:
#
# PCOD9086601 Si02
#       7
#     2   2   2   2   2   2   2
#     4  11  21  36  58  91 124 154 191 259 309 353
#     4  10  19  36  59  86 114 158 197 243 297 355
#     4  11  19  32  59  91 117 151 203 250 297 349
#     4  11  23  38  56  90 129 155 196 245 313 365
#     4  10  23  38  62  89 116 164 207 244 298 358
#     4  10  19  39  63  88 117 155 214 253 279 360
#     4  11  20  36  61  87 118 154 208 246 298 344
#
# _framework density 25.617584000000001
#
# number of rings (size 3 to 8) (size 9 to 14) (size 15 to 20)
#    0.000    1.429    2.857    5.143    0.000    0.000 
#    0.000    0.714    0.000    7.714    0.000    0.000 
#    0.000    0.000    0.000    0.000    0.000    0.000 
#
# Total GULP energy -78261.886051 kJ/mol
# GULP energy per Si atom -5590.134718 kJ/mol
# Density = 2.555928 g / cm^3
# Si number density = 25.617584 Si / 1000 Ang^3
#
#
#
# Elastic Constant Matrix: (Units=GPa)
#
#
# Indices 1 2 3 4 5 6 
#
# 1 46.4792 15.3082 14.3915 -9.7053 -18.8330 21.6763
# 2 15.3082 149.1137 38.3454 -3.7513 -9.5316 1.1791
# 3 14.3915 38.3454 110.5777 -3.4730 -18.7016 1.5884
# 4 -9.7053 -3.7513 -3.4730 59.2388 5.8101 -4.6271
# 5 -18.8330 -9.5316 -18.7016 5.8101 32.1352 -10.8851
# 6 21.6763 1.1791 1.5884 -4.6271 -10.8851 39.3232
#
#
#
# Elastic Compliance Matrix: (Units=1/GPa)
#
#
# Indices 1 2 3 4 5 6 
#
# 1 0.036272 -0.002311 -0.001230 0.003130 0.013995 -0.015633
# 2 -0.002311 0.007532 -0.002345 0.000060 -0.000117 0.001117
# 3 -0.001230 -0.002345 0.010932 -0.000114 0.005590 0.001841
# 4 0.003130 0.000060 -0.000114 0.017524 -0.001398 -0.000048
# 5 0.013995 -0.000117 0.005590 -0.001398 0.044191 0.004131
# 6 -0.015633 0.001117 0.001841 -0.000048 0.004131 0.035078
#
#
# Mechanical properties :
#
#
# Convention : Reuss Voigt Hill
#
# Bulk Modulus (GPa) = 23.27479 49.14010 36.20745
# Shear Modulus (GPa) = 28.14987 42.01446 35.08217
#
# Velocity S-wave (km/s) = 3.31849 4.05416 3.70463
# Velocity P-wave (km/s) = 4.87733 6.41395 5.69768
#
# Compressibility (1/GPa) = 0.04296494
#
# Stress axis : x y z
#
# Youngs Moduli (GPa) = 27.56967 132.77176 91.47412
#
# Poissons Ratio (x) = 0.30677 0.11248
# Poissons Ratio (y) = 0.06370 0.21452
# Poissons Ratio (z) = 0.03390 0.31136
#
# Static dielectric constant tensor:
#      x y z
#    x 2.177350 -0.006220 -0.051780 
#    y -0.006220 1.959340 0.001310 
#    z -0.051780 0.001310 2.084810 
# 
# From -- ./inp_files/451655.got.cif
#   From: 2010.05.17/outbox.cif.g08.bks.cpg/sg2_226_cif.got.tgz:451655.got - 2010.06.03 11:33:40.
