data_PCOD9086111
_publ_section_title
;
Structure prediction by ZEFSAII (Michael W. Deem and Ramdas Pophale) SiO2 
 PCOD9086111
Probable space group: P -1
;
_chemical_formula_sum "Si O2"
_cell_formula_units_Z 16
_cell_length_a 18.643820
_cell_length_b 6.259509
_cell_length_c 21.758279
_cell_angle_alpha 103.272642
_cell_angle_beta 18.365242
_cell_angle_gamma 102.002439
_cell_volume 778.260216
_symmetry_space_group_name_H-M "P -1"
_symmetry_group_IT_number 2
_symmetry_cell_setting 'triclinic'
loop_
_space_group_symop_operation_xyz
x,y,z
-x,-y,-z
loop_
_atom_site_type_symbol
_atom_site_label
_atom_site_fract_x
_atom_site_fract_y
_atom_site_fract_z
Si Si1 0.232528 0.679106 0.093314
Si Si2 0.142454 0.055472 0.654889
Si Si3 0.506945 0.342764 0.674599
Si Si4 0.115883 0.716003 0.445332
Si Si5 0.377721 0.485088 0.533643
Si Si6 0.095568 0.276042 0.096598
Si Si7 0.857380 0.144396 0.697443
Si Si8 0.328965 0.388627 0.338204
O O1 0.166420 0.437284 0.106315
O O2 0.279613 0.727333 0.129575
O O3 0.019184 0.836245 0.258211
O O4 0.457739 0.729536 0.875542
O O5 0.305504 0.238247 0.561170
O O6 0.302420 0.851644 0.490619
O O7 0.969064 0.958694 0.839763
O O8 0.473874 0.412670 0.635432
O O9 0.609541 0.553040 0.638827
O O10 0.289742 0.280409 0.887347
O O11 0.229379 0.819885 0.299264
O O12 0.281846 0.621834 0.356657
O O13 0.000000 0.500000 0.500000
O O14 0.920356 0.887852 0.638920
O O15 0.500000 0.500000 0.500000
O O16 0.136914 0.620114 0.735759
O O17 0.104930 0.252379 0.506519
#
# Coordination Sequence:
#
# PCOD9086111 Si02
#       8
#     2   2   2   2   2   2   2   2
#     4  10  21  34  56  84 109 140 183 229 274 325
#     4  10  20  36  57  81 111 147 183 227 274 324
#     4  10  21  37  59  84 111 144 183 228 277 328
#     4   9  20  36  53  75 108 144 181 224 270 323
#     4  10  22  39  57  82 116 148 182 226 273 326
#     4   9  21  38  56  86 114 141 186 229 272 329
#     4  10  19  36  55  75 108 146 179 222 277 323
#     4  10  20  35  55  81 106 137 182 226 271 326
#
# _framework density 20.558675999999998
#
# number of rings (size 3 to 8) (size 9 to 14) (size 15 to 20)
#    0.000    2.250    0.000    3.000    0.000   10.000 
#    0.000    6.875    0.000    0.000    0.000    0.000 
#    0.000    0.000    0.000    0.000    0.000    0.000 
#
# Total GULP energy -89285.407011 kJ/mol
# GULP energy per Si atom -5580.337938 kJ/mol
# Density = 2.051188 g / cm^3
# Si number density = 20.558676 Si / 1000 Ang^3
#
#
#
# Elastic Constant Matrix: (Units=GPa)
#
#
# Indices 1 2 3 4 5 6 
#
# 1 90.8765 7.3187 14.0562 7.8180 21.0055 -3.1717
# 2 7.3187 61.7258 24.9190 -5.7998 14.1733 -4.7935
# 3 14.0562 24.9190 74.5503 -3.6939 26.2643 -2.5330
# 4 7.8180 -5.7998 -3.6939 19.6718 1.9052 -0.4131
# 5 21.0055 14.1733 26.2643 1.9052 25.5831 0.2590
# 6 -3.1717 -4.7935 -2.5330 -0.4131 0.2590 13.2972
#
#
#
# Elastic Compliance Matrix: (Units=1/GPa)
#
#
# Indices 1 2 3 4 5 6 
#
# 1 0.014324 0.000693 0.001917 -0.003696 -0.013879 0.004187
# 2 0.000693 0.020715 -0.003223 0.006281 -0.009278 0.007395
# 3 0.001917 -0.003223 0.022859 0.004962 -0.023668 0.004265
# 4 -0.003696 0.006281 0.004962 0.056122 -0.009761 0.004261
# 5 -0.013879 -0.009278 -0.023668 -0.009761 0.080782 -0.013041
# 6 0.004187 0.007395 0.004265 0.004261 -0.013041 0.080067
#
#
# Mechanical properties :
#
#
# Convention : Reuss Voigt Hill
#
# Bulk Modulus (GPa) = 17.64621 35.52671 26.58646
# Shear Modulus (GPa) = 16.94993 23.76766 20.35879
#
# Velocity S-wave (km/s) = 2.87447 3.40382 3.15028
# Velocity P-wave (km/s) = 4.42930 5.72417 5.11785
#
# Compressibility (1/GPa) = 0.05666940
#
# Stress axis : x y z
#
# Youngs Moduli (GPa) = 69.81299 48.27495 43.74637
#
# Poissons Ratio (x) = -0.03344 -0.08385
# Poissons Ratio (y) = -0.04836 0.14101
# Poissons Ratio (z) = -0.13381 0.15561
#
# Static dielectric constant tensor:
#      x y z
#    x 1.752410 -0.031410 0.025120 
#    y -0.031410 1.769650 -0.014250 
#    z 0.025120 -0.014250 1.736890 
# 
# From -- ./inp_files/44780.got.cif
#   From: 2010.05.17/outbox.cif.g08.bks.cpg/sg2_23_cif.got.tgz:44780.got - 2010.06.03 11:33:40.
