data_PCOD9086310
_publ_section_title
;
Structure prediction by ZEFSAII (Michael W. Deem and Ramdas Pophale) SiO2 
 PCOD9086310
Probable space group: P -1
;
_chemical_formula_sum "Si O2"
_cell_formula_units_Z 16
_cell_length_a 16.410158
_cell_length_b 8.050512
_cell_length_c 7.432285
_cell_angle_alpha 66.241330
_cell_angle_beta 50.575457
_cell_angle_gamma 49.299054
_cell_volume 574.904145
_symmetry_space_group_name_H-M "P -1"
_symmetry_group_IT_number 2
_symmetry_cell_setting 'triclinic'
loop_
_space_group_symop_operation_xyz
x,y,z
-x,-y,-z
loop_
_atom_site_type_symbol
_atom_site_label
_atom_site_fract_x
_atom_site_fract_y
_atom_site_fract_z
Si Si1 0.792865 0.568654 0.720883
Si Si2 0.068979 0.260111 0.367107
Si Si3 0.069299 0.126390 0.835091
Si Si4 0.196705 0.803147 0.323513
Si Si5 0.174222 0.531646 0.794259
Si Si6 0.551449 0.361703 0.806225
Si Si7 0.568416 0.652281 0.343952
Si Si8 0.316041 0.090302 0.568541
O O1 0.835391 0.663087 0.783108
O O2 0.775366 0.367667 0.800674
O O3 0.690948 0.780052 0.657359
O O4 0.924660 0.464189 0.460424
O O5 0.064227 0.177603 0.609307
O O6 0.099010 0.054769 0.294289
O O7 0.217165 0.016085 0.726032
O O8 0.970556 0.344361 0.992921
O O9 0.000000 0.000000 0.000000
O O10 0.176192 0.689039 0.571773
O O11 0.309746 0.821407 0.236992
O O12 0.278350 0.489739 0.816143
O O13 0.249822 0.283792 0.722325
O O14 0.556093 0.501456 0.574387
O O15 0.471675 0.295341 0.833681
O O16 0.500000 0.500000 0.000000
O O17 0.460652 0.888357 0.477704
#
# Coordination Sequence:
#
# PCOD9086310 Si02
#       8
#     2   2   2   2   2   2   2   2
#     4   9  20  34  57  83 115 158 214 260 313 387
#     4  10  19  36  57  85 124 167 209 265 333 384
#     4  11  21  34  59  92 129 163 214 272 328 389
#     4  10  19  37  59  84 121 167 212 265 327 390
#     4  10  21  38  62  93 123 170 221 265 328 397
#     4  10  22  39  62  96 128 164 222 273 324 394
#     4  10  22  41  69  90 131 178 217 269 331 389
#     4  10  21  40  62  89 129 172 220 270 325 396
#
# _framework density 27.830725999999999
#
# number of rings (size 3 to 8) (size 9 to 14) (size 15 to 20)
#    0.000    2.000    1.250    2.625    3.500    1.000 
#    0.000    5.000    0.000   13.500    0.000    0.000 
#    0.000    0.000    0.000    0.000    0.000    0.000 
#
# Total GULP energy -89204.028240 kJ/mol
# GULP energy per Si atom -5575.251765 kJ/mol
# Density = 2.776738 g / cm^3
# Si number density = 27.830726 Si / 1000 Ang^3
#
#
#
# Elastic Constant Matrix: (Units=GPa)
#
#
# Indices 1 2 3 4 5 6 
#
# 1 127.4587 23.0348 11.2590 8.6494 17.9582 1.1483
# 2 23.0348 130.9304 15.3351 21.0362 -7.7660 5.4734
# 3 11.2590 15.3351 116.1856 9.7805 0.7356 9.1627
# 4 8.6494 21.0362 9.7805 39.4690 5.1463 0.4394
# 5 17.9582 -7.7660 0.7356 5.1463 13.0289 10.5768
# 6 1.1483 5.4734 9.1627 0.4394 10.5768 49.0850
#
#
#
# Elastic Compliance Matrix: (Units=1/GPa)
#
#
# Indices 1 2 3 4 5 6 
#
# 1 0.011910 -0.004146 -0.001154 0.003034 -0.024632 0.005680
# 2 -0.004146 0.010930 -0.000134 -0.007351 0.019365 -0.005204
# 3 -0.001154 -0.000134 0.009112 -0.002425 0.003979 -0.002495
# 4 0.003034 -0.007351 -0.002425 0.032599 -0.026714 0.006666
# 5 -0.024632 0.019365 0.003979 -0.026714 0.162733 -0.037152
# 6 0.005680 -0.005204 -0.002495 0.006666 -0.037152 0.029232
#
#
# Mechanical properties :
#
#
# Convention : Reuss Voigt Hill
#
# Bulk Modulus (GPa) = 47.43174 52.64806 50.03990
# Shear Modulus (GPa) = 18.22071 41.97964 30.10017
#
# Velocity S-wave (km/s) = 2.56148 3.88802 3.29225
# Velocity P-wave (km/s) = 5.08214 6.25411 5.69834
#
# Compressibility (1/GPa) = 0.02108293
#
# Stress axis : x y z
#
# Youngs Moduli (GPa) = 83.96063 91.49198 109.74350
#
# Poissons Ratio (x) = 0.37934 0.12668
# Poissons Ratio (y) = 0.34811 0.01474
# Poissons Ratio (z) = 0.09692 0.01229
#
# Static dielectric constant tensor:
#      x y z
#    x 54.133830 -0.418110 -26.710690 
#    y -0.418110 2.217220 0.357520 
#    z -26.710690 0.357520 16.019810 
# 
# From -- ./inp_files/328684.got.cif
#   From: 2010.05.17/outbox.cif.g08.bks.cpg/sg2_165_cif.got.tgz:328684.got - 2010.06.03 11:33:40.
