data_PCOD9086006
_publ_section_title
;
Structure prediction by ZEFSAII (Michael W. Deem and Ramdas Pophale) SiO2 
 PCOD9086006
Probable space group: P -1
;
_chemical_formula_sum "Si O2"
_cell_formula_units_Z 16
_cell_length_a 15.551119
_cell_length_b 8.892952
_cell_length_c 11.381925
_cell_angle_alpha 151.959658
_cell_angle_beta 98.450318
_cell_angle_gamma 72.258759
_cell_volume 678.100753
_symmetry_space_group_name_H-M "P -1"
_symmetry_group_IT_number 2
_symmetry_cell_setting 'triclinic'
loop_
_space_group_symop_operation_xyz
x,y,z
-x,-y,-z
loop_
_atom_site_type_symbol
_atom_site_label
_atom_site_fract_x
_atom_site_fract_y
_atom_site_fract_z
Si Si1 0.478780 0.907249 0.772752
Si Si2 0.256788 0.906538 0.530085
Si Si3 0.420909 0.153802 0.686771
Si Si4 0.098049 0.233439 0.889521
Si Si5 0.159364 0.221234 0.500961
Si Si6 0.038722 0.703538 0.405413
Si Si7 0.751874 0.229188 0.017637
Si Si8 0.335510 0.152304 0.096540
O O1 0.500000 0.500000 0.500000
O O2 0.564992 0.949651 0.887094
O O3 0.473999 0.099461 0.782402
O O4 0.373729 0.065232 0.912529
O O5 0.279650 0.557715 0.365244
O O6 0.354895 0.934490 0.538600
O O7 0.183818 0.207162 0.803209
O O8 0.204704 0.933598 0.413932
O O9 0.345375 0.526355 0.895606
O O10 0.500000 0.000000 0.500000
O O11 0.087225 0.866306 0.622084
O O12 0.000000 0.500000 0.000000
O O13 0.102192 0.369722 0.114391
O O14 0.048509 0.352028 0.590784
O O15 0.197833 0.520428 0.749849
O O16 0.189755 0.045784 0.259013
O O17 0.000000 0.000000 0.500000
O O18 0.721313 0.051409 0.997013
#
# Coordination Sequence:
#
# PCOD9086006 Si02
#       8
#     2   2   2   2   2   2   2   2
#     4  11  23  44  68  92 135 180 244 284 344 407
#     4  11  23  41  68 104 130 180 236 281 338 420
#     4  11  25  42  70 100 137 182 231 289 344 404
#     4  10  20  36  65 101 132 166 226 288 338 393
#     4  11  23  42  68 104 132 171 233 285 341 407
#     4  10  19  35  66  98 132 168 215 289 344 394
#     4  11  27  42  67  97 141 180 224 285 345 408
#     4  11  26  43  66  95 135 191 228 288 346 415
#
# _framework density 23.595313999999998
#
# number of rings (size 3 to 8) (size 9 to 14) (size 15 to 20)
#    0.000    1.250    3.750    2.250   12.250    1.500 
#    0.000    0.000    0.000    4.500    0.000    0.000 
#    0.000    0.000    0.000    0.000    0.000    0.000 
#
# Total GULP energy -89477.450476 kJ/mol
# GULP energy per Si atom -5592.340655 kJ/mol
# Density = 2.354161 g / cm^3
# Si number density = 23.595314 Si / 1000 Ang^3
#
#
#
# Elastic Constant Matrix: (Units=GPa)
#
#
# Indices 1 2 3 4 5 6 
#
# 1 140.7105 44.7812 61.0942 -9.8440 -10.1971 33.8272
# 2 44.7812 97.0999 39.8167 -1.2665 -6.9606 26.4326
# 3 61.0942 39.8167 143.8580 -28.9583 -7.9633 23.8894
# 4 -9.8440 -1.2665 -28.9583 37.2204 5.9763 -6.3774
# 5 -10.1971 -6.9606 -7.9633 5.9763 44.7856 -8.3230
# 6 33.8272 26.4326 23.8894 -6.3774 -8.3230 36.4852
#
#
#
# Elastic Compliance Matrix: (Units=1/GPa)
#
#
# Indices 1 2 3 4 5 6 
#
# 1 0.010545 -0.001826 -0.003032 -0.000824 0.000479 -0.006503
# 2 -0.001826 0.014195 -0.002574 -0.003335 0.000403 -0.007397
# 3 -0.003032 -0.002574 0.010557 0.007202 -0.000372 -0.001062
# 4 -0.000824 -0.003335 0.007202 0.033261 -0.003205 0.003547
# 5 0.000479 0.000403 -0.000372 -0.003205 0.023670 0.004346
# 6 -0.006503 -0.007397 -0.001062 0.003547 0.004346 0.041103
#
#
# Mechanical properties :
#
#
# Convention : Reuss Voigt Hill
#
# Bulk Modulus (GPa) = 48.94133 74.78362 61.86247
# Shear Modulus (GPa) = 32.25673 39.43000 35.84336
#
# Velocity S-wave (km/s) = 3.70142 4.09234 3.90178
# Velocity P-wave (km/s) = 6.24935 7.35477 6.82448
#
# Compressibility (1/GPa) = 0.02043263
#
# Stress axis : x y z
#
# Youngs Moduli (GPa) = 94.83263 70.44625 94.72396
#
# Poissons Ratio (x) = 0.12863 0.28722
# Poissons Ratio (y) = 0.17315 0.24383
# Poissons Ratio (z) = 0.28755 0.18134
#
# Static dielectric constant tensor:
#      x y z
#    x 1.889260 0.010000 -0.004320 
#    y 0.010000 1.819990 0.133920 
#    z -0.004320 0.133920 2.415700 
# 
# From -- ./inp_files/135560.got.cif
#   From: 2010.05.17/outbox.cif.g08.bks.cpg/sg2_68_cif.got.tgz:135560.got - 2010.06.03 11:33:40.
