data_PCOD9086761
_publ_section_title
;
Structure prediction by ZEFSAII (Michael W. Deem and Ramdas Pophale) SiO2 
 PCOD9086761
Probable space group: P -1
;
_chemical_formula_sum "Si O2"
_cell_formula_units_Z 16
_cell_length_a 19.322930
_cell_length_b 8.038752
_cell_length_c 18.677297
_cell_angle_alpha 58.619202
_cell_angle_beta 21.224892
_cell_angle_gamma 45.866572
_cell_volume 655.404512
_symmetry_space_group_name_H-M "P -1"
_symmetry_group_IT_number 2
_symmetry_cell_setting 'triclinic'
loop_
_space_group_symop_operation_xyz
x,y,z
-x,-y,-z
loop_
_atom_site_type_symbol
_atom_site_label
_atom_site_fract_x
_atom_site_fract_y
_atom_site_fract_z
Si Si1 0.663446 0.796053 0.955608
Si Si2 0.784147 0.007387 0.170839
Si Si3 0.363376 0.309330 0.635296
Si Si4 0.718598 0.204378 0.440814
Si Si5 0.027590 0.867325 0.575418
Si Si6 0.256441 0.734544 0.106602
Si Si7 0.305111 0.342240 0.240981
Si Si8 0.417109 0.500602 0.811989
O O1 0.935348 0.711940 0.698107
O O2 0.738609 0.544136 0.979544
O O3 0.500000 0.000000 0.000000
O O4 0.473332 0.028361 0.146397
O O5 0.546176 0.167765 0.420589
O O6 0.698584 0.202967 0.144290
O O7 0.823630 0.751925 0.171042
O O8 0.000000 0.000000 0.000000
O O9 0.563373 0.180560 0.538397
O O10 0.240028 0.610891 0.677464
O O11 0.513782 0.372555 0.667555
O O12 0.002995 0.938103 0.254924
O O13 0.319273 0.678360 0.359020
O O14 0.000000 0.000000 0.500000
O O15 0.852784 0.093443 0.753285
O O16 0.316063 0.469968 0.129488
O O17 0.542159 0.640787 0.847984
O O18 0.000000 0.500000 0.500000
#
# Coordination Sequence:
#
# PCOD9086761 Si02
#       8
#     2   2   2   2   2   2   2   2
#     4  11  22  37  61  88 119 171 216 257 310 382
#     4  10  22  41  62  94 132 164 209 267 327 388
#     4   9  20  41  67  92 127 165 209 273 326 386
#     4   9  18  40  68  93 124 170 218 266 328 388
#     4  10  19  36  60  86 119 163 214 263 316 379
#     4   9  20  36  56  86 123 160 209 260 318 377
#     4  10  20  36  56  84 125 165 202 262 314 366
#     4  10  21  39  60  88 126 168 211 263 321 377
#
# _framework density 24.412403000000001
#
# number of rings (size 3 to 8) (size 9 to 14) (size 15 to 20)
#    0.000    2.250    1.250    1.500    0.000    5.000 
#    4.500   11.875    0.000    0.000    0.000    0.000 
#    0.000    0.000    0.000    0.000    0.000    0.000 
#
# Total GULP energy -89176.819374 kJ/mol
# GULP energy per Si atom -5573.551211 kJ/mol
# Density = 2.435684 g / cm^3
# Si number density = 24.412403 Si / 1000 Ang^3
#
#
#
# Elastic Constant Matrix: (Units=GPa)
#
#
# Indices 1 2 3 4 5 6 
#
# 1 72.0113 40.4992 17.4928 -13.3499 -2.4976 -16.5281
# 2 40.4992 142.7338 45.4431 -25.6796 -18.4783 -7.1868
# 3 17.4928 45.4431 97.7556 -32.4758 -15.2665 -2.7310
# 4 -13.3499 -25.6796 -32.4758 51.0287 -4.2538 -1.5909
# 5 -2.4976 -18.4783 -15.2665 -4.2538 39.8800 1.1631
# 6 -16.5281 -7.1868 -2.7310 -1.5909 1.1631 33.2632
#
#
#
# Elastic Compliance Matrix: (Units=1/GPa)
#
#
# Indices 1 2 3 4 5 6 
#
# 1 0.018911 -0.004476 -0.000330 0.002670 -0.000981 0.008564
# 2 -0.004476 0.009978 -0.002391 0.002630 0.003716 -0.000269
# 3 -0.000330 -0.002391 0.015268 0.008923 0.005645 0.000802
# 4 0.002670 0.002630 0.008923 0.028054 0.007686 0.003701
# 5 -0.000981 0.003716 0.005645 0.007686 0.029713 0.000108
# 6 0.008564 -0.000269 0.000802 0.003701 0.000108 0.034500
#
#
# Mechanical properties :
#
#
# Convention : Reuss Voigt Hill
#
# Bulk Modulus (GPa) = 33.59850 57.70789 45.65319
# Shear Modulus (GPa) = 31.10616 38.77209 34.93913
#
# Velocity S-wave (km/s) = 3.57346 3.98956 3.78723
# Velocity P-wave (km/s) = 5.55148 6.70166 6.15350
#
# Compressibility (1/GPa) = 0.02976324
#
# Stress axis : x y z
#
# Youngs Moduli (GPa) = 52.87950 100.22023 65.49437
#
# Poissons Ratio (x) = 0.44859 0.02162
# Poissons Ratio (y) = 0.23669 0.15659
# Poissons Ratio (z) = 0.01746 0.23961
#
# Static dielectric constant tensor:
#      x y z
#    x 2.199360 0.026430 -0.007690 
#    y 0.026430 2.239980 0.221770 
#    z -0.007690 0.221770 2.172820 
# 
# From -- ./inp_files/601145.got.cif
#   From: 2010.05.17/outbox.cif.g08.bks.cpg/sg2_301_cif.got.tgz:601145.got - 2010.06.03 11:33:40.
