data_PCOD9086738
_publ_section_title
;
Structure prediction by ZEFSAII (Michael W. Deem and Ramdas Pophale) SiO2 
 PCOD9086738
Probable space group: P -1
;
_chemical_formula_sum "Si O2"
_cell_formula_units_Z 14
_cell_length_a 19.322025
_cell_length_b 6.667625
_cell_length_c 5.385358
_cell_angle_alpha 81.346279
_cell_angle_beta 126.927620
_cell_angle_gamma 85.993866
_cell_volume 536.919160
_symmetry_space_group_name_H-M "P -1"
_symmetry_group_IT_number 2
_symmetry_cell_setting 'triclinic'
loop_
_space_group_symop_operation_xyz
x,y,z
-x,-y,-z
loop_
_atom_site_type_symbol
_atom_site_label
_atom_site_fract_x
_atom_site_fract_y
_atom_site_fract_z
Si Si1 0.232598 0.539135 0.332913
Si Si2 0.003727 0.824077 0.297567
Si Si3 0.376530 0.958865 0.140340
Si Si4 0.033893 0.694550 0.883467
Si Si5 0.217189 0.786680 0.756562
Si Si6 0.500000 0.500000 0.000000
Si Si7 0.609638 0.808554 0.357752
Si Si8 0.500000 0.500000 0.500000
O O1 0.246450 0.664719 0.587228
O O2 0.293777 0.316778 0.483997
O O3 0.128710 0.551095 0.103092
O O4 0.248039 0.655711 0.093225
O O5 0.978827 0.713771 0.510567
O O6 0.109559 0.828673 0.526159
O O7 0.990293 0.691052 0.055754
O O8 0.952262 0.060276 0.127565
O O9 0.426203 0.724551 0.342823
O O10 0.388469 0.082077 0.393941
O O11 0.272280 0.967648 0.862367
O O12 0.416367 0.032388 0.956313
O O13 0.449475 0.370260 0.710015
O O14 0.554493 0.555003 0.871516
#
# Coordination Sequence:
#
# PCOD9086738 Si02
#       8
#     2   2   2   2   2   1   2   1
#     4  10  19  36  60  85 119 159 201 254 307 359
#     4   8  14  25  47  80 112 147 196 248 296 347
#     4  12  26  43  65  92 123 162 206 253 311 374
#     4   8  14  25  47  80 112 147 196 248 296 347
#     4  10  19  36  60  85 119 159 201 254 307 359
#     4  12  26  46  68  92 124 156 202 256 308 370
#     4  12  26  43  65  92 123 162 206 253 311 374
#     4  12  26  46  68  92 124 156 202 256 308 370
#
# _framework density 26.074688999999999
#
# number of rings (size 3 to 8) (size 9 to 14) (size 15 to 20)
#    0.000    1.714    0.000    5.143    0.000    3.429 
#    0.000    0.000    0.000    1.714    0.000    0.000 
#    0.000    0.000    0.000    0.000    0.000    0.000 
#
# Total GULP energy -77950.795861 kJ/mol
# GULP energy per Si atom -5567.913990 kJ/mol
# Density = 2.601534 g / cm^3
# Si number density = 26.074689 Si / 1000 Ang^3
#
#
#
# Elastic Constant Matrix: (Units=GPa)
#
#
# Indices 1 2 3 4 5 6 
#
# 1 286.3941 11.4179 -30.3648 15.4876 -56.7897 -20.3101
# 2 11.4179 124.5749 109.3502 7.8645 15.4131 -0.8280
# 3 -30.3648 109.3502 233.2781 22.9177 -11.1438 1.6684
# 4 15.4876 7.8645 22.9177 57.3245 -26.9643 -4.6565
# 5 -56.7897 15.4131 -11.1438 -26.9643 73.8261 13.7610
# 6 -20.3101 -0.8280 1.6684 -4.6565 13.7610 54.7836
#
#
#
# Elastic Compliance Matrix: (Units=1/GPa)
#
#
# Indices 1 2 3 4 5 6 
#
# 1 0.004788 -0.002973 0.002189 0.000502 0.004721 0.000520
# 2 -0.002973 0.016883 -0.008519 -0.001756 -0.007975 0.001266
# 3 0.002189 -0.008519 0.008877 -0.000854 0.004645 -0.000827
# 4 0.000502 -0.001756 -0.000854 0.021958 0.008667 -0.000125
# 5 0.004721 -0.007975 0.004645 0.008667 0.023389 -0.003650
# 6 0.000520 0.001266 -0.000827 -0.000125 -0.003650 0.019397
#
#
# Mechanical properties :
#
#
# Convention : Reuss Voigt Hill
#
# Bulk Modulus (GPa) = 83.72695 91.67263 87.69979
# Shear Modulus (GPa) = 42.41716 74.10974 58.26345
#
# Velocity S-wave (km/s) = 4.03768 5.33702 4.73216
# Velocity P-wave (km/s) = 7.34284 8.55643 7.97276
#
# Compressibility (1/GPa) = 0.01194359
#
# Stress axis : x y z
#
# Youngs Moduli (GPa) = 208.84833 59.23042 112.65699
#
# Poissons Ratio (x) = 0.17608 -0.24664
# Poissons Ratio (y) = 0.62088 0.95968
# Poissons Ratio (z) = -0.45723 0.50456
#
# Static dielectric constant tensor:
#      x y z
#    x 2.599920 0.251940 -0.465610 
#    y 0.251940 2.225390 -0.170500 
#    z -0.465610 -0.170500 2.409650 
# 
# From -- ./inp_files/121651.got.cif
#   From: 2010.05.17/outbox.cif.g08.bks.cpg/sg2_61_cif.got.tgz:121651.got - 2010.06.03 11:33:40.
