data_PCOD9086373
_publ_section_title
;
Structure prediction by ZEFSAII (Michael W. Deem and Ramdas Pophale) SiO2 
 PCOD9086373
Probable space group: P -1
;
_chemical_formula_sum "Si O2"
_cell_formula_units_Z 14
_cell_length_a 11.168360
_cell_length_b 13.605739
_cell_length_c 8.621313
_cell_angle_alpha 58.008672
_cell_angle_beta 119.087969
_cell_angle_gamma 149.332453
_cell_volume 565.308013
_symmetry_space_group_name_H-M "P -1"
_symmetry_group_IT_number 2
_symmetry_cell_setting 'triclinic'
loop_
_space_group_symop_operation_xyz
x,y,z
-x,-y,-z
loop_
_atom_site_type_symbol
_atom_site_label
_atom_site_fract_x
_atom_site_fract_y
_atom_site_fract_z
Si Si1 0.448268 0.617551 0.188686
Si Si2 0.833381 0.523191 0.557188
Si Si3 0.134365 0.562816 0.874257
Si Si4 0.816851 0.018152 0.908855
Si Si5 0.664204 0.008271 0.527561
Si Si6 0.537649 0.023590 0.822512
Si Si7 0.664058 0.577622 0.180139
O O1 0.334236 0.568306 0.323415
O O2 0.535752 0.548682 0.271538
O O3 0.251907 0.519665 0.016589
O O4 0.679776 0.851742 0.091750
O O5 0.722722 0.488857 0.353412
O O6 0.960552 0.485601 0.693542
O O7 0.065292 0.766834 0.513650
O O8 0.348265 0.800350 0.825699
O O9 0.000000 0.500000 0.000000
O O10 0.684957 0.921350 0.739429
O O11 0.089668 0.190605 0.903243
O O12 0.779746 0.127319 0.845537
O O13 0.535926 0.907752 0.365289
O O14 0.500000 0.000000 0.500000
O O15 0.500000 0.000000 0.000000
O O16 0.500000 0.500000 0.000000
#
# Coordination Sequence:
#
# PCOD9086373 Si02
#       7
#     2   2   2   2   2   2   2
#     4  10  19  36  58  79 103 142 184 217 260 327
#     4   9  18  35  58  78 103 144 184 213 258 330
#     4   8  16  31  53  77 101 131 170 212 257 310
#     4   9  19  35  53  74 107 145 177 215 268 324
#     4   8  15  30  51  76 107 141 171 205 264 329
#     4   9  16  28  51  82 106 130 172 223 262 305
#     4  11  23  37  53  78 110 143 180 225 269 311
#
# _framework density 24.765262
#
# number of rings (size 3 to 8) (size 9 to 14) (size 15 to 20)
#    0.000    2.857    0.000    1.714    0.000    3.429 
#    0.000    5.714    0.000    0.000    0.000    0.000 
#    0.000    0.000    0.000    0.000    0.000    0.000 
#
# Total GULP energy -78025.854033 kJ/mol
# GULP energy per Si atom -5573.275288 kJ/mol
# Density = 2.470890 g / cm^3
# Si number density = 24.765262 Si / 1000 Ang^3
#
#
#
# Elastic Constant Matrix: (Units=GPa)
#
#
# Indices 1 2 3 4 5 6 
#
# 1 79.4242 33.4935 22.0091 0.4449 2.4969 29.1095
# 2 33.4935 109.6548 49.2415 4.6004 -6.9885 33.1548
# 3 22.0091 49.2415 174.6025 14.9415 2.4604 12.8099
# 4 0.4449 4.6004 14.9415 53.7748 11.4437 -2.7274
# 5 2.4969 -6.9885 2.4604 11.4437 40.8256 -6.9083
# 6 29.1095 33.1548 12.8099 -2.7274 -6.9083 37.9527
#
#
#
# Elastic Compliance Matrix: (Units=1/GPa)
#
#
# Indices 1 2 3 4 5 6 
#
# 1 0.018401 -0.001480 -0.000915 0.000337 -0.003643 -0.013151
# 2 -0.001480 0.014054 -0.002964 -0.001151 0.001308 -0.009986
# 3 -0.000915 -0.002964 0.006749 -0.001509 -0.000291 0.000852
# 4 0.000337 -0.001151 -0.001509 0.020379 -0.005550 0.001711
# 5 -0.003643 0.001308 -0.000291 -0.005550 0.027593 0.006374
# 6 -0.013151 -0.009986 0.000852 0.001711 0.006374 0.046155
#
#
# Mechanical properties :
#
#
# Convention : Reuss Voigt Hill
#
# Bulk Modulus (GPa) = 35.10472 63.68554 49.39513
# Shear Modulus (GPa) = 32.56427 43.77311 38.16869
#
# Velocity S-wave (km/s) = 3.63011 4.20875 3.93010
# Velocity P-wave (km/s) = 5.63702 7.02777 6.37046
#
# Compressibility (1/GPa) = 0.02848620
#
# Stress axis : x y z
#
# Youngs Moduli (GPa) = 54.34616 71.15595 148.16313
#
# Poissons Ratio (x) = 0.10529 0.13554
# Poissons Ratio (y) = 0.08042 0.43918
# Poissons Ratio (z) = 0.04972 0.21092
#
# Static dielectric constant tensor:
#      x y z
#    x 1.560930 -0.388990 0.465180 
#    y -0.388990 1.794170 0.310260 
#    z 0.465180 0.310260 1.732290 
# 
# From -- ./inp_files/276415.got.cif
#   From: 2010.05.17/outbox.cif.g08.bks.cpg/sg2_139_cif.got.tgz:276415.got - 2010.06.03 11:33:40.
