data_PCOD9086325
_publ_section_title
;
Structure prediction by ZEFSAII (Michael W. Deem and Ramdas Pophale) SiO2 
 PCOD9086325
Probable space group: P -1
;
_chemical_formula_sum "Si O2"
_cell_formula_units_Z 16
_cell_length_a 9.986010
_cell_length_b 14.856074
_cell_length_c 7.902343
_cell_angle_alpha 142.152109
_cell_angle_beta 65.357375
_cell_angle_gamma 109.756085
_cell_volume 653.715878
_symmetry_space_group_name_H-M "P -1"
_symmetry_group_IT_number 2
_symmetry_cell_setting 'triclinic'
loop_
_space_group_symop_operation_xyz
x,y,z
-x,-y,-z
loop_
_atom_site_type_symbol
_atom_site_label
_atom_site_fract_x
_atom_site_fract_y
_atom_site_fract_z
Si Si1 0.704712 0.426313 0.307125
Si Si2 0.799391 0.309571 0.628357
Si Si3 0.528322 0.333680 0.573276
Si Si4 0.966757 0.327268 0.233226
Si Si5 0.575324 0.197700 0.795564
Si Si6 0.436306 0.066339 0.359634
Si Si7 0.109592 0.135472 0.619298
Si Si8 0.193652 0.393157 0.756297
O O1 0.596251 0.424370 0.518193
O O2 0.837161 0.327060 0.159587
O O3 0.773120 0.573535 0.408629
O O4 0.613468 0.348814 0.090662
O O5 0.646373 0.366082 0.706321
O O6 0.903144 0.267974 0.356309
O O7 0.734943 0.179093 0.588047
O O8 0.860967 0.453455 0.907024
O O9 0.531075 0.153496 0.298142
O O10 0.354131 0.360546 0.706821
O O11 0.000000 0.500000 0.500000
O O12 0.095910 0.236885 0.945274
O O13 0.458537 0.173767 0.672729
O O14 0.527079 0.088112 0.807183
O O15 0.266893 0.064409 0.401482
O O16 0.093269 0.253598 0.650881
O O17 0.000000 0.000000 0.500000
#
# Coordination Sequence:
#
# PCOD9086325 Si02
#       8
#     2   2   2   2   2   2   2   2
#     4  10  21  35  59  89 116 151 196 255 294 348
#     4   9  18  35  60  83 115 157 196 244 293 351
#     4   9  18  32  56  89 117 147 191 251 302 349
#     4  11  22  41  59  85 119 163 202 236 287 357
#     4   9  18  37  60  90 117 152 199 243 310 349
#     4   9  19  37  60  84 120 159 192 243 299 360
#     4  11  23  40  61  86 122 164 202 236 292 356
#     4  10  19  36  57  87 116 151 198 250 296 342
#
# _framework density 24.475463999999999
#
# number of rings (size 3 to 8) (size 9 to 14) (size 15 to 20)
#    0.000    2.250    1.250    1.500    0.000    2.000 
#    4.500    6.875    0.000    0.000    0.000    0.000 
#    0.000    0.000    0.000    0.000    0.000    0.000 
#
# Total GULP energy -89193.970608 kJ/mol
# GULP energy per Si atom -5574.623163 kJ/mol
# Density = 2.441976 g / cm^3
# Si number density = 24.475464 Si / 1000 Ang^3
#
#
#
# Elastic Constant Matrix: (Units=GPa)
#
#
# Indices 1 2 3 4 5 6 
#
# 1 48.5983 9.1834 -3.0508 2.8802 1.5025 13.3676
# 2 9.1834 203.1912 23.4633 5.4244 10.7909 9.8448
# 3 -3.0508 23.4633 24.0061 6.5819 3.0475 2.1412
# 4 2.8802 5.4244 6.5819 23.4101 6.5382 8.1215
# 5 1.5025 10.7909 3.0475 6.5382 26.8232 3.6110
# 6 13.3676 9.8448 2.1412 8.1215 3.6110 29.5202
#
#
#
# Elastic Compliance Matrix: (Units=1/GPa)
#
#
# Indices 1 2 3 4 5 6 
#
# 1 0.024126 -0.001170 0.005288 -0.000460 0.000085 -0.010802
# 2 -0.001170 0.005758 -0.005817 0.001325 -0.001763 -0.001118
# 3 0.005288 -0.005817 0.051840 -0.013601 -0.000475 -0.000415
# 4 -0.000460 0.001325 -0.013601 0.053585 -0.010310 -0.012728
# 5 0.000085 -0.001763 -0.000475 -0.010310 0.040763 -0.001566
# 6 -0.010802 -0.001118 -0.000415 -0.012728 -0.001566 0.042863
#
#
# Mechanical properties :
#
#
# Convention : Reuss Voigt Hill
#
# Bulk Modulus (GPa) = 12.76691 37.22082 24.99387
# Shear Modulus (GPa) = 20.12550 32.36402 26.24476
#
# Velocity S-wave (km/s) = 2.87064 3.64030 3.27813
# Velocity P-wave (km/s) = 4.02678 5.73667 4.95603
#
# Compressibility (1/GPa) = 0.07832747
#
# Stress axis : x y z
#
# Youngs Moduli (GPa) = 41.44939 173.65865 19.29022
#
# Poissons Ratio (x) = 0.20317 -0.10201
# Poissons Ratio (y) = 0.04849 0.11221
# Poissons Ratio (z) = -0.21920 1.01013
#
# Static dielectric constant tensor:
#      x y z
#    x 1.977720 -0.004260 0.006200 
#    y -0.004260 2.073360 -0.051190 
#    z 0.006200 -0.051190 2.004690 
# 
# From -- ./inp_files/274590.got.cif
#   From: 2010.05.17/outbox.cif.g08.bks.cpg/sg2_138_cif.got.tgz:274590.got - 2010.06.03 11:33:40.
