data_PCOD9086475
_publ_section_title
;
Structure prediction by ZEFSAII (Michael W. Deem and Ramdas Pophale) SiO2 
 PCOD9086475
Probable space group: P -1
;
_chemical_formula_sum "Si O2"
_cell_formula_units_Z 16
_cell_length_a 8.717852
_cell_length_b 17.437819
_cell_length_c 7.148992
_cell_angle_alpha 56.073681
_cell_angle_beta 60.440584
_cell_angle_gamma 53.572261
_cell_volume 703.912761
_symmetry_space_group_name_H-M "P -1"
_symmetry_group_IT_number 2
_symmetry_cell_setting 'triclinic'
loop_
_space_group_symop_operation_xyz
x,y,z
-x,-y,-z
loop_
_atom_site_type_symbol
_atom_site_label
_atom_site_fract_x
_atom_site_fract_y
_atom_site_fract_z
Si Si1 0.143406 0.754638 0.916202
Si Si2 0.501143 0.918575 0.961918
Si Si3 0.428813 0.376500 0.337485
Si Si4 0.926998 0.429074 0.759771
Si Si5 0.346334 0.233155 0.346795
Si Si6 0.234332 0.923605 0.797053
Si Si7 0.672255 0.683785 0.158760
Si Si8 0.127403 0.133039 0.428191
O O1 0.357931 0.684427 0.795734
O O2 0.143619 0.843585 0.929266
O O3 0.012112 0.807910 0.739589
O O4 0.079449 0.675024 0.163602
O O5 0.304067 0.936980 0.944355
O O6 0.653823 0.919101 0.716390
O O7 0.595899 0.799621 0.130532
O O8 0.500000 0.000000 0.000000
O O9 0.298288 0.489594 0.180661
O O10 0.315968 0.309850 0.428386
O O11 0.424373 0.371195 0.574256
O O12 0.000000 0.500000 0.500000
O O13 0.092996 0.384189 0.880790
O O14 0.558501 0.133448 0.366881
O O15 0.165521 0.205355 0.457624
O O16 0.375597 0.291206 0.064340
O O17 0.096290 0.037597 0.652022
#
# Coordination Sequence:
#
# PCOD9086475 Si02
#       8
#     2   2   2   2   2   2   2   2
#     4  11  20  38  60  90 125 156 195 260 307 361
#     4  10  20  34  62  85 122 163 206 238 288 369
#     4  10  22  34  68  86 115 162 205 248 317 353
#     4  10  20  40  63  87 114 162 208 253 308 356
#     4   9  18  36  60  87 123 154 210 246 288 369
#     4   9  20  34  57  87 122 158 194 241 307 349
#     4   9  19  38  58  88 119 155 204 251 294 350
#     4  10  19  36  58  87 123 161 193 244 304 358
#
# _framework density 22.730089
#
# number of rings (size 3 to 8) (size 9 to 14) (size 15 to 20)
#    0.000    2.500    2.500    2.250    5.250    0.500 
#    0.000    0.625   22.000   14.250    0.000    0.000 
#    0.000    0.000    0.000    0.000    0.000    0.000 
#
# Total GULP energy -89116.202953 kJ/mol
# GULP energy per Si atom -5569.762685 kJ/mol
# Density = 2.267835 g / cm^3
# Si number density = 22.730089 Si / 1000 Ang^3
#
#
#
# Elastic Constant Matrix: (Units=GPa)
#
#
# Indices 1 2 3 4 5 6 
#
# 1 101.7740 40.5643 42.4413 -26.4095 -11.5156 15.4725
# 2 40.5643 69.0229 47.1429 -26.1914 6.1714 1.8262
# 3 42.4413 47.1429 82.0257 -26.0619 -3.2387 2.6502
# 4 -26.4095 -26.1914 -26.0619 40.8651 -7.8102 -3.9349
# 5 -11.5156 6.1714 -3.2387 -7.8102 28.6842 -4.3806
# 6 15.4725 1.8262 2.6502 -3.9349 -4.3806 30.6578
#
#
#
# Elastic Compliance Matrix: (Units=1/GPa)
#
#
# Indices 1 2 3 4 5 6 
#
# 1 0.016992 -0.006499 -0.002513 0.006317 0.008754 -0.005910
# 2 -0.006499 0.029428 -0.012228 0.005431 -0.008527 0.002063
# 3 -0.002513 -0.012228 0.022739 0.006391 0.006195 0.001737
# 4 0.006317 0.005431 0.006391 0.038885 0.013104 0.002799
# 5 0.008754 -0.008527 0.006195 0.013104 0.045040 0.003672
# 6 -0.005910 0.002063 0.001737 0.002799 0.003672 0.036212
#
#
# Mechanical properties :
#
#
# Convention : Reuss Voigt Hill
#
# Bulk Modulus (GPa) = 37.48328 57.01329 47.24828
# Shear Modulus (GPa) = 20.77545 28.21971 24.49758
#
# Velocity S-wave (km/s) = 3.02653 3.52733 3.28649
# Velocity P-wave (km/s) = 5.36093 6.45962 5.93575
#
# Compressibility (1/GPa) = 0.02667856
#
# Stress axis : x y z
#
# Youngs Moduli (GPa) = 58.85060 33.98103 43.97753
#
# Poissons Ratio (x) = 0.22084 0.11052
# Poissons Ratio (y) = 0.38246 0.53777
# Poissons Ratio (z) = 0.14790 0.41553
#
# Static dielectric constant tensor:
#      x y z
#    x 1.935550 0.012530 -0.026930 
#    y 0.012530 1.881800 -0.007260 
#    z -0.026930 -0.007260 1.903880 
# 
# From -- ./inp_files/220463.got.cif
#   From: 2010.05.17/outbox.cif.g08.bks.cpg/sg2_111_cif.got.tgz:220463.got - 2010.06.03 11:33:40.
