data_PCOD9086106
_publ_section_title
;
Structure prediction by ZEFSAII (Michael W. Deem and Ramdas Pophale) SiO2 
 PCOD9086106
Probable space group: P -1
;
_chemical_formula_sum "Si O2"
_cell_formula_units_Z 16
_cell_length_a 12.757215
_cell_length_b 11.123046
_cell_length_c 9.552634
_cell_angle_alpha 83.072102
_cell_angle_beta 62.831498
_cell_angle_gamma 124.020607
_cell_volume 859.760507
_symmetry_space_group_name_H-M "P -1"
_symmetry_group_IT_number 2
_symmetry_cell_setting 'triclinic'
loop_
_space_group_symop_operation_xyz
x,y,z
-x,-y,-z
loop_
_atom_site_type_symbol
_atom_site_label
_atom_site_fract_x
_atom_site_fract_y
_atom_site_fract_z
Si Si1 0.674126 0.468046 0.360555
Si Si2 0.982606 0.265327 0.278577
Si Si3 0.136061 0.601861 0.028187
Si Si4 0.059478 0.167406 0.507986
Si Si5 0.877192 0.996874 0.162794
Si Si6 0.629628 0.658918 0.547150
Si Si7 0.668565 0.190884 0.373321
Si Si8 0.044107 0.784996 0.146266
O O1 0.610426 0.511905 0.513706
O O2 0.548163 0.407729 0.320363
O O3 0.663707 0.320366 0.426891
O O4 0.863848 0.641517 0.203402
O O5 0.971543 0.139266 0.204860
O O6 0.811534 0.213639 0.356406
O O7 0.122370 0.461591 0.124908
O O8 0.013331 0.240166 0.418561
O O9 0.097471 0.683837 0.145799
O O10 0.291403 0.748001 0.821365
O O11 0.000000 0.500000 0.000000
O O12 0.251464 0.278774 0.404142
O O13 0.983971 0.155376 0.706122
O O14 0.000000 0.000000 0.500000
O O15 0.733831 0.819055 0.352001
O O16 0.833818 0.065117 0.060701
O O17 0.000000 0.000000 0.000000
O O18 0.500000 0.000000 0.500000
#
# Coordination Sequence:
#
# PCOD9086106 Si02
#       8
#     2   2   2   2   2   2   2   2
#     4  10  19  36  54  87 115 147 190 246 286 332
#     4  11  21  36  59  86 119 151 192 244 289 351
#     4  10  19  36  57  88 114 143 197 247 288 339
#     4  11  22  37  56  90 123 156 196 231 294 361
#     4  12  18  32  58  86 109 153 200 241 288 326
#     4  10  22  34  57  86 120 148 195 242 285 349
#     4  11  21  35  62  88 114 146 196 248 293 337
#     4  11  20  37  61  88 116 151 196 248 286 343
#
# _framework density 18.609833999999999
#
# number of rings (size 3 to 8) (size 9 to 14) (size 15 to 20)
#    0.000    1.250    8.750    0.750    0.000    0.500 
#    0.000    0.000    0.000    9.750    0.000    0.000 
#    0.000    0.000    0.000    0.000    0.000    0.000 
#
# Total GULP energy -89081.163701 kJ/mol
# GULP energy per Si atom -5567.572731 kJ/mol
# Density = 1.856748 g / cm^3
# Si number density = 18.609834 Si / 1000 Ang^3
#
#
#
# Elastic Constant Matrix: (Units=GPa)
#
#
# Indices 1 2 3 4 5 6 
#
# 1 101.7643 42.6116 32.4941 -5.0754 9.2112 -0.6963
# 2 42.6116 117.3841 39.8963 -2.2851 -1.4370 -17.3215
# 3 32.4941 39.8963 79.6883 -13.8188 12.3866 -1.5979
# 4 -5.0754 -2.2851 -13.8188 34.0623 -2.6973 0.4559
# 5 9.2112 -1.4370 12.3866 -2.6973 29.8841 2.1301
# 6 -0.6963 -17.3215 -1.5979 0.4559 2.1301 32.1443
#
#
#
# Elastic Compliance Matrix: (Units=1/GPa)
#
#
# Indices 1 2 3 4 5 6 
#
# 1 0.012601 -0.003949 -0.002708 0.000317 -0.002794 -0.001809
# 2 -0.003949 0.012763 -0.005505 -0.001773 0.003503 0.006312
# 3 -0.002708 -0.005505 0.018447 0.006229 -0.006387 -0.001773
# 4 0.000317 -0.001773 0.006229 0.031843 0.000188 -0.001103
# 5 -0.002794 0.003503 -0.006387 0.000188 0.037225 -0.000960
# 6 -0.001809 0.006312 -0.001773 -0.001103 -0.000960 0.034463
#
#
# Mechanical properties :
#
#
# Convention : Reuss Voigt Hill
#
# Bulk Modulus (GPa) = 51.31692 58.76006 55.03849
# Shear Modulus (GPa) = 28.06429 31.47377 29.76903
#
# Velocity S-wave (km/s) = 3.88756 4.11694 4.00389
# Velocity P-wave (km/s) = 6.91273 7.36493 7.14241
#
# Compressibility (1/GPa) = 0.01948675
#
# Stress axis : x y z
#
# Youngs Moduli (GPa) = 79.35732 78.34974 54.20977
#
# Poissons Ratio (x) = 0.30939 0.14682
# Poissons Ratio (y) = 0.31337 0.29843
# Poissons Ratio (z) = 0.21493 0.43132
#
# Static dielectric constant tensor:
#      x y z
#    x 1.719570 -0.028780 -0.015540 
#    y -0.028780 1.683060 -0.019020 
#    z -0.015540 -0.019020 1.704320 
# 
# From -- ./inp_files/303243.got.cif
#   From: 2010.05.17/outbox.cif.g08.bks.cpg/sg2_152_cif.got.tgz:303243.got - 2010.06.03 11:33:40.
