data_PCOD9086350
_publ_section_title
;
Structure prediction by ZEFSAII (Michael W. Deem and Ramdas Pophale) SiO2 
 PCOD9086350
Probable space group: P -1
;
_chemical_formula_sum "Si O2"
_cell_formula_units_Z 16
_cell_length_a 8.967569
_cell_length_b 12.680630
_cell_length_c 16.115731
_cell_angle_alpha 157.642841
_cell_angle_beta 69.098791
_cell_angle_gamma 109.336676
_cell_volume 651.205597
_symmetry_space_group_name_H-M "P -1"
_symmetry_group_IT_number 2
_symmetry_cell_setting 'triclinic'
loop_
_space_group_symop_operation_xyz
x,y,z
-x,-y,-z
loop_
_atom_site_type_symbol
_atom_site_label
_atom_site_fract_x
_atom_site_fract_y
_atom_site_fract_z
Si Si1 0.830559 0.721579 0.102249
Si Si2 0.938999 0.823236 0.974419
Si Si3 0.404967 0.155012 0.889799
Si Si4 0.054498 0.232543 0.720772
Si Si5 0.143735 0.338089 0.519158
Si Si6 0.509929 0.533679 0.422284
Si Si7 0.222982 0.175154 0.209529
Si Si8 0.732338 0.246043 0.967868
O O1 0.660355 0.715339 0.088248
O O2 0.858556 0.887766 0.302051
O O3 0.936884 0.829466 0.081950
O O4 0.896694 0.424806 0.901352
O O5 0.998086 0.520067 0.713860
O O6 0.748587 0.857032 0.026433
O O7 0.076304 0.055222 0.096838
O O8 0.452839 0.839951 0.634210
O O9 0.560923 0.296654 0.998168
O O10 0.178464 0.463225 0.830001
O O11 0.000000 0.000000 0.500000
O O12 0.300135 0.470968 0.627151
O O13 0.151527 0.367562 0.438332
O O14 0.173763 0.006132 0.283474
O O15 0.500000 0.500000 0.500000
O O16 0.379636 0.331706 0.259970
O O17 0.292515 0.917996 0.060914
#
# Coordination Sequence:
#
# PCOD9086350 Si02
#       8
#     2   2   2   2   2   2   2   2
#     4   9  22  39  60  95 126 164 200 279 314 371
#     4  10  19  36  57  90 130 167 203 262 316 372
#     4   9  19  37  63  93 141 159 203 275 318 359
#     4  11  22  41  68  94 119 168 222 257 317 400
#     4   8  18  34  61  85 124 169 215 244 310 382
#     4   9  16  35  64  92 127 177 207 257 307 378
#     4   9  18  34  62  86 126 169 218 241 312 376
#     4   9  18  39  65  92 124 170 207 266 314 376
#
# _framework density 24.569811999999999
#
# number of rings (size 3 to 8) (size 9 to 14) (size 15 to 20)
#    1.500    1.250    2.500    0.000    0.000    4.500 
#    0.000    3.125   11.000    0.000    0.000    4.375 
#    0.000    0.000    0.000    0.000    0.000    0.000 
#
# Total GULP energy -89162.154318 kJ/mol
# GULP energy per Si atom -5572.634645 kJ/mol
# Density = 2.451389 g / cm^3
# Si number density = 24.569812 Si / 1000 Ang^3
#
#
#
# Elastic Constant Matrix: (Units=GPa)
#
#
# Indices 1 2 3 4 5 6 
#
# 1 179.4251 10.4993 58.8344 6.5578 30.2367 -17.9221
# 2 10.4993 24.4644 15.1778 9.3921 8.1604 2.0380
# 3 58.8344 15.1778 116.9350 -1.1203 30.8885 4.3462
# 4 6.5578 9.3921 -1.1203 36.1433 6.1321 4.8096
# 5 30.2367 8.1604 30.8885 6.1321 50.2936 5.1013
# 6 -17.9221 2.0380 4.3462 4.8096 5.1013 32.0176
#
#
#
# Elastic Compliance Matrix: (Units=1/GPa)
#
#
# Indices 1 2 3 4 5 6 
#
# 1 0.007795 -0.000073 -0.003352 -0.001735 -0.002968 0.005557
# 2 -0.000073 0.050430 -0.005839 -0.012756 -0.002991 -0.000065
# 3 -0.003352 -0.005839 0.012414 0.003724 -0.004813 -0.002982
# 4 -0.001735 -0.012756 0.003724 0.032541 -0.002621 -0.005135
# 5 -0.002968 -0.002991 -0.004813 -0.002621 0.025890 -0.004549
# 6 0.005557 -0.000065 -0.002982 -0.005135 -0.004549 0.036248
#
#
# Mechanical properties :
#
#
# Convention : Reuss Voigt Hill
#
# Bulk Modulus (GPa) = 19.18928 54.42751 36.80839
# Shear Modulus (GPa) = 24.84899 39.44509 32.14704
#
# Velocity S-wave (km/s) = 3.18364 4.01113 3.62110
# Velocity P-wave (km/s) = 4.61965 6.60700 5.70060
#
# Compressibility (1/GPa) = 0.05211244
#
# Stress axis : x y z
#
# Youngs Moduli (GPa) = 128.28151 19.82965 80.55452
#
# Poissons Ratio (x) = 0.00144 0.27000
# Poissons Ratio (y) = 0.00932 0.47034
# Poissons Ratio (z) = 0.42997 0.11578
#
# Static dielectric constant tensor:
#      x y z
#    x 2.006650 0.007580 0.019830 
#    y 0.007580 2.170610 -0.071300 
#    z 0.019830 -0.071300 1.968440 
# 
# From -- ./inp_files/561236.got.cif
#   From: 2010.05.17/outbox.cif.g08.bks.cpg/sg2_281_cif.got.tgz:561236.got - 2010.06.03 11:33:40.
