data_PCOD9086676
_publ_section_title
;
Structure prediction by ZEFSAII (Michael W. Deem and Ramdas Pophale) SiO2 
 PCOD9086676
Probable space group: P -1
;
_chemical_formula_sum "Si O2"
_cell_formula_units_Z 16
_cell_length_a 13.122944
_cell_length_b 13.530174
_cell_length_c 10.729793
_cell_angle_alpha 134.754289
_cell_angle_beta 33.684161
_cell_angle_gamma 118.265490
_cell_volume 719.187892
_symmetry_space_group_name_H-M "P -1"
_symmetry_group_IT_number 2
_symmetry_cell_setting 'triclinic'
loop_
_space_group_symop_operation_xyz
x,y,z
-x,-y,-z
loop_
_atom_site_type_symbol
_atom_site_label
_atom_site_fract_x
_atom_site_fract_y
_atom_site_fract_z
Si Si1 0.297059 0.188433 0.665097
Si Si2 0.109173 0.192092 0.599424
Si Si3 0.303009 0.727227 0.262574
Si Si4 0.270319 0.858262 0.148836
Si Si5 0.949995 0.851926 0.886026
Si Si6 0.329183 0.394942 0.511404
Si Si7 0.564692 0.912240 0.225955
Si Si8 0.442995 0.447515 0.712681
O O1 0.164331 0.222745 0.710283
O O2 0.430037 0.294898 0.639953
O O3 0.447092 0.030483 0.353978
O O4 0.156995 0.194117 0.929204
O O5 0.163270 0.320928 0.584570
O O6 0.892849 0.190761 0.802016
O O7 0.238292 0.026292 0.294461
O O8 0.227156 0.837501 0.321015
O O9 0.484251 0.774358 0.172579
O O10 0.145878 0.745480 0.544821
O O11 0.350576 0.570386 0.014644
O O12 0.478084 0.744774 0.812920
O O13 0.791305 0.877135 0.960603
O O14 0.000000 0.000000 0.000000
O O15 0.329487 0.460889 0.707840
O O16 0.361657 0.515503 0.491446
O O17 0.500000 0.000000 0.500000
#
# Coordination Sequence:
#
# PCOD9086676 Si02
#       8
#     2   2   2   2   2   2   2   2
#     4  10  20  41  60  91 124 156 203 249 292 363
#     4  10  19  36  59  94 124 154 201 254 295 351
#     4  11  21  40  61  90 125 157 201 249 295 362
#     4  10  20  35  59  95 125 153 203 255 290 354
#     4  11  21  39  67  89 114 158 200 249 311 347
#     4   9  19  39  58  78 124 175 195 235 306 353
#     4  10  20  39  64  86 116 156 200 253 294 349
#     4   9  21  39  60  84 126 162 200 246 293 361
#
# _framework density 22.247316999999999
#
# number of rings (size 3 to 8) (size 9 to 14) (size 15 to 20)
#    0.000    2.000    3.750    0.375    0.000    2.500 
#   13.500   20.625    0.000    0.000    0.000    0.000 
#    0.000    0.000    0.000    0.000    0.000    0.000 
#
# Total GULP energy -89295.321474 kJ/mol
# GULP energy per Si atom -5580.957592 kJ/mol
# Density = 2.219668 g / cm^3
# Si number density = 22.247317 Si / 1000 Ang^3
#
#
#
# Elastic Constant Matrix: (Units=GPa)
#
#
# Indices 1 2 3 4 5 6 
#
# 1 50.7139 18.6761 6.7900 -12.4495 -2.2849 17.6304
# 2 18.6761 152.9011 28.1573 -5.5484 6.2423 27.5903
# 3 6.7900 28.1573 73.2713 -0.9828 10.9139 18.2817
# 4 -12.4495 -5.5484 -0.9828 23.5496 6.1119 -0.0322
# 5 -2.2849 6.2423 10.9139 6.1119 21.4358 -1.5374
# 6 17.6304 27.5903 18.2817 -0.0322 -1.5374 28.1148
#
#
#
# Elastic Compliance Matrix: (Units=1/GPa)
#
#
# Indices 1 2 3 4 5 6 
#
# 1 0.031119 0.000496 0.003631 0.018106 -0.005462 -0.022640
# 2 0.000496 0.008347 -0.000614 0.003112 -0.003547 -0.008293
# 3 0.003631 -0.000614 0.019045 0.005608 -0.011783 -0.014696
# 4 0.018106 0.003112 0.005608 0.058107 -0.019767 -0.019069
# 5 -0.005462 -0.003547 -0.011783 -0.019767 0.060016 0.017828
# 6 -0.022640 -0.008293 -0.014696 -0.019069 0.017828 0.068413
#
#
# Mechanical properties :
#
#
# Convention : Reuss Voigt Hill
#
# Bulk Modulus (GPa) = 15.25901 42.68146 28.97024
# Shear Modulus (GPa) = 19.24067 29.50425 24.37246
#
# Velocity S-wave (km/s) = 2.94403 3.64564 3.31346
# Velocity P-wave (km/s) = 4.29303 6.07845 5.26202
#
# Compressibility (1/GPa) = 0.06553506
#
# Stress axis : x y z
#
# Youngs Moduli (GPa) = 32.13464 119.80421 52.50840
#
# Poissons Ratio (x) = -0.05937 -0.19066
# Poissons Ratio (y) = -0.01592 0.03226
# Poissons Ratio (z) = -0.11668 0.07360
#
# Static dielectric constant tensor:
#      x y z
#    x 1.932570 0.007790 0.041890 
#    y 0.007790 1.969230 0.053230 
#    z 0.041890 0.053230 1.868530 
# 
# From -- ./inp_files/434311.got.cif
#   From: 2010.05.17/outbox.cif.g08.bks.cpg/sg2_218_cif.got.tgz:434311.got - 2010.06.03 11:33:40.
