data_PCOD9086330
_publ_section_title
;
Structure prediction by ZEFSAII (Michael W. Deem and Ramdas Pophale) SiO2 
 PCOD9086330
Probable space group: P -1
;
_chemical_formula_sum "Si O2"
_cell_formula_units_Z 14
_cell_length_a 9.151891
_cell_length_b 11.865061
_cell_length_c 8.237548
_cell_angle_alpha 108.847833
_cell_angle_beta 47.581229
_cell_angle_gamma 89.708747
_cell_volume 592.251167
_symmetry_space_group_name_H-M "P -1"
_symmetry_group_IT_number 2
_symmetry_cell_setting 'triclinic'
loop_
_space_group_symop_operation_xyz
x,y,z
-x,-y,-z
loop_
_atom_site_type_symbol
_atom_site_label
_atom_site_fract_x
_atom_site_fract_y
_atom_site_fract_z
Si Si1 0.485708 0.801805 0.979497
Si Si2 0.135949 0.434120 0.516851
Si Si3 0.828693 0.458323 0.997985
Si Si4 0.769148 0.876344 0.252309
Si Si5 0.488103 0.710993 0.272878
Si Si6 0.569660 0.032672 0.193547
Si Si7 0.208217 0.673759 0.750258
O O1 0.664594 0.676853 0.735382
O O2 0.381103 0.869548 0.922299
O O3 0.387183 0.757858 0.194060
O O4 0.582711 0.907205 0.024783
O O5 0.177788 0.552028 0.627123
O O6 0.000000 0.500000 0.500000
O O7 0.988987 0.377410 0.709701
O O8 0.656948 0.571243 0.088638
O O9 0.706830 0.388999 0.169453
O O10 0.000000 0.500000 0.000000
O O11 0.627685 0.796951 0.252600
O O12 0.664542 0.917826 0.526887
O O13 0.720952 0.992692 0.217535
O O14 0.000708 0.783478 0.010879
O O15 0.338379 0.719541 0.541791
#
# Coordination Sequence:
#
# PCOD9086330 Si02
#       7
#     2   2   2   2   2   2   2
#     4  10  20  36  57  88 117 153 197 236 293 348
#     4  11  19  36  61  86 124 152 186 239 297 354
#     4  10  19  36  57  87 120 152 191 232 293 357
#     4  10  19  41  63  85 114 151 203 245 286 339
#     4  11  21  38  58  90 123 150 192 240 299 353
#     4   9  20  37  63  82 111 161 200 241 286 338
#     4  11  23  36  61  92 118 154 190 243 297 349
#
# _framework density 23.638621000000001
#
# number of rings (size 3 to 8) (size 9 to 14) (size 15 to 20)
#    0.000    1.714    4.286    2.143    2.000    0.571 
#    0.000    7.143    0.000    0.000    0.000    0.000 
#    0.000    0.000    0.000    0.000    0.000    0.000 
#
# Total GULP energy -78061.159693 kJ/mol
# GULP energy per Si atom -5575.797121 kJ/mol
# Density = 2.358482 g / cm^3
# Si number density = 23.638621 Si / 1000 Ang^3
#
#
#
# Elastic Constant Matrix: (Units=GPa)
#
#
# Indices 1 2 3 4 5 6 
#
# 1 39.8163 42.4180 35.4852 -9.9321 2.3781 -10.8439
# 2 42.4180 156.0842 47.5585 -23.7736 4.9100 -32.7084
# 3 35.4852 47.5585 118.1797 -10.5447 4.7978 -5.8709
# 4 -9.9321 -23.7736 -10.5447 64.2372 -12.2978 11.2834
# 5 2.3781 4.9100 4.7978 -12.2978 17.0472 -8.6239
# 6 -10.8439 -32.7084 -5.8709 11.2834 -8.6239 30.3379
#
#
#
# Elastic Compliance Matrix: (Units=1/GPa)
#
#
# Indices 1 2 3 4 5 6 
#
# 1 0.043670 -0.007467 -0.009771 0.001968 0.003183 0.005841
# 2 -0.007467 0.011124 -0.001777 0.001854 0.004519 0.009576
# 3 -0.009771 -0.001777 0.012043 -0.000187 -0.003704 -0.004061
# 4 0.001968 0.001854 -0.000187 0.019086 0.012579 -0.000857
# 5 0.003183 0.004519 -0.003704 0.012579 0.078653 0.022973
# 6 0.005841 0.009576 -0.004061 -0.000857 0.022973 0.051437
#
#
# Mechanical properties :
#
#
# Convention : Reuss Voigt Hill
#
# Bulk Modulus (GPa) = 34.71400 62.77817 48.74608
# Shear Modulus (GPa) = 18.96481 34.89904 26.93193
#
# Velocity S-wave (km/s) = 2.83553 3.84651 3.37904
# Velocity P-wave (km/s) = 5.04356 6.80754 5.99083
#
# Compressibility (1/GPa) = 0.02880682
#
# Stress axis : x y z
#
# Youngs Moduli (GPa) = 22.89887 89.89214 83.03832
#
# Poissons Ratio (x) = 0.67124 0.81138
# Poissons Ratio (y) = 0.17099 0.14756
# Poissons Ratio (z) = 0.22375 0.15974
#
# Static dielectric constant tensor:
#      x y z
#    x 1.901050 -0.028410 0.026730 
#    y -0.028410 2.019950 -0.053340 
#    z 0.026730 -0.053340 1.965960 
# 
# From -- ./inp_files/258775.got.cif
#   From: 2010.05.17/outbox.cif.g08.bks.cpg/sg2_130_cif.got.tgz:258775.got - 2010.06.03 11:33:40.
