data_PCOD9086400
_publ_section_title
;
Structure prediction by ZEFSAII (Michael W. Deem and Ramdas Pophale) SiO2 
 PCOD9086400
Probable space group: P -1
;
_chemical_formula_sum "Si O2"
_cell_formula_units_Z 16
_cell_length_a 7.285642
_cell_length_b 10.907576
_cell_length_c 20.715388
_cell_angle_alpha 39.990299
_cell_angle_beta 76.555503
_cell_angle_gamma 48.624434
_cell_volume 653.387943
_symmetry_space_group_name_H-M "P -1"
_symmetry_group_IT_number 2
_symmetry_cell_setting 'triclinic'
loop_
_space_group_symop_operation_xyz
x,y,z
-x,-y,-z
loop_
_atom_site_type_symbol
_atom_site_label
_atom_site_fract_x
_atom_site_fract_y
_atom_site_fract_z
Si Si1 0.751220 0.580527 0.184291
Si Si2 0.356894 0.135700 0.075701
Si Si3 0.567234 0.033831 0.651671
Si Si4 0.297122 0.078530 0.543497
Si Si5 0.309028 0.382853 0.102336
Si Si6 0.230250 0.665686 0.592509
Si Si7 0.752559 0.136394 0.705830
Si Si8 0.403269 0.634971 0.807630
O O1 0.677850 0.502894 0.281423
O O2 0.620241 0.557213 0.144946
O O3 0.110605 0.291290 0.270129
O O4 0.605792 0.886660 0.102776
O O5 0.397243 0.287263 0.058371
O O6 0.297701 0.005671 0.184147
O O7 0.041853 0.394312 0.960055
O O8 0.494895 0.930809 0.752098
O O9 0.330528 0.206477 0.545553
O O10 0.640560 0.162393 0.633951
O O11 0.966762 0.307981 0.450535
O O12 0.500000 0.000000 0.500000
O O13 0.403325 0.797075 0.684506
O O14 0.351694 0.522598 0.092828
O O15 0.541569 0.468014 0.614180
O O16 0.000000 0.000000 0.500000
O O17 0.095677 0.906522 0.761890
#
# Coordination Sequence:
#
# PCOD9086400 Si02
#       8
#     2   2   2   2   2   2   2   2
#     4  10  19  36  58  82 116 152 192 234 287 333
#     4   9  19  37  60  83 115 156 186 231 288 349
#     4   9  19  37  56  81 116 145 189 243 279 336
#     4  11  21  36  59  83 112 153 189 238 288 336
#     4   9  19  37  58  85 117 149 190 233 288 341
#     4  11  21  38  57  80 113 155 193 233 286 343
#     4   9  21  39  58  82 115 152 189 237 287 337
#     4  10  21  38  58  87 116 149 192 244 280 339
#
# _framework density 24.487748
#
# number of rings (size 3 to 8) (size 9 to 14) (size 15 to 20)
#    0.000    2.250    2.500    0.000    0.000    2.500 
#    2.250    1.250    0.000    0.000    0.000    0.000 
#    0.000    0.000    0.000    0.000    0.000    0.000 
#
# Total GULP energy -89154.905759 kJ/mol
# GULP energy per Si atom -5572.181610 kJ/mol
# Density = 2.443201 g / cm^3
# Si number density = 24.487748 Si / 1000 Ang^3
#
#
#
# Elastic Constant Matrix: (Units=GPa)
#
#
# Indices 1 2 3 4 5 6 
#
# 1 105.2341 30.1070 23.6828 11.1061 20.3372 21.5576
# 2 30.1070 122.8524 46.2771 -15.3635 19.4442 9.4076
# 3 23.6828 46.2771 41.9947 9.0273 5.9515 14.4076
# 4 11.1061 -15.3635 9.0273 46.2225 11.6279 0.1361
# 5 20.3372 19.4442 5.9515 11.6279 46.5457 22.3433
# 6 21.5576 9.4076 14.4076 0.1361 22.3433 35.5778
#
#
#
# Elastic Compliance Matrix: (Units=1/GPa)
#
#
# Indices 1 2 3 4 5 6 
#
# 1 0.012128 -0.002125 -0.001823 -0.003062 -0.000738 -0.005574
# 2 -0.002125 0.029375 -0.041800 0.024518 -0.024470 0.025721
# 3 -0.001823 -0.041800 0.091329 -0.041512 0.041218 -0.050554
# 4 -0.003062 0.024518 -0.041512 0.046050 -0.029868 0.030765
# 5 -0.000738 -0.024470 0.041218 -0.029868 0.055627 -0.044594
# 6 -0.005574 0.025721 -0.050554 0.030765 -0.044594 0.073044
#
#
# Mechanical properties :
#
#
# Convention : Reuss Voigt Hill
#
# Bulk Modulus (GPa) = 24.19107 52.24609 38.21858
# Shear Modulus (GPa) = 12.11158 37.00350 24.55754
#
# Velocity S-wave (km/s) = 2.22637 3.89151 3.17022
# Velocity P-wave (km/s) = 4.06316 6.44777 5.38901
#
# Compressibility (1/GPa) = 0.04133757
#
# Stress axis : x y z
#
# Youngs Moduli (GPa) = 82.45099 34.04203 10.94942
#
# Poissons Ratio (x) = 0.07233 0.01996
# Poissons Ratio (y) = 0.17519 0.45768
# Poissons Ratio (z) = 0.15033 1.42294
#
# Static dielectric constant tensor:
#      x y z
#    x 2.076030 0.229720 -0.028650 
#    y 0.229720 2.546280 0.164110 
#    z -0.028650 0.164110 2.091940 
# 
# From -- ./inp_files/589015.got.cif
#   From: 2010.05.17/outbox.cif.g08.bks.cpg/sg2_295_cif.got.tgz:589015.got - 2010.06.03 11:33:40.
