data_PCOD9086609
_publ_section_title
;
Structure prediction by ZEFSAII (Michael W. Deem and Ramdas Pophale) SiO2 
 PCOD9086609
Probable space group: P -1
;
_chemical_formula_sum "Si O2"
_cell_formula_units_Z 15
_cell_length_a 12.982000
_cell_length_b 18.907523
_cell_length_c 9.368853
_cell_angle_alpha 41.565558
_cell_angle_beta 58.028658
_cell_angle_gamma 29.303835
_cell_volume 691.167828
_symmetry_space_group_name_H-M "P -1"
_symmetry_group_IT_number 2
_symmetry_cell_setting 'triclinic'
loop_
_space_group_symop_operation_xyz
x,y,z
-x,-y,-z
loop_
_atom_site_type_symbol
_atom_site_label
_atom_site_fract_x
_atom_site_fract_y
_atom_site_fract_z
Si Si1 0.851126 0.527173 0.923476
Si Si2 0.003500 0.256558 0.474090
Si Si3 0.170449 0.815612 0.437842
Si Si4 0.356251 0.206949 0.072018
Si Si5 0.500000 0.000000 0.500000
Si Si6 0.589685 0.615050 0.727479
Si Si7 0.820464 0.223943 0.175307
Si Si8 0.404506 0.370365 0.614161
O O1 0.892591 0.408174 0.195189
O O2 0.105071 0.380562 0.929270
O O3 0.696727 0.732739 0.805946
O O4 0.725775 0.575962 0.806254
O O5 0.951842 0.173335 0.596025
O O6 0.848971 0.405855 0.495637
O O7 0.263727 0.095236 0.539869
O O8 0.157615 0.778988 0.664807
O O9 0.426943 0.654702 0.451982
O O10 0.047185 0.020634 0.237953
O O11 0.490924 0.001829 0.318427
O O12 0.466923 0.225202 0.890184
O O13 0.347817 0.752344 0.754034
O O14 0.571608 0.683995 0.484559
O O15 0.716138 0.409009 0.914031
#
# Coordination Sequence:
#
# PCOD9086609 Si02
#       8
#     2   2   2   2   1   2   2   2
#     4   9  18  36  62  77 112 158 195 222 282 347
#     4  10  20  38  61  86 113 156 193 240 281 339
#     4  10  19  37  58  86 119 156 184 245 284 339
#     4   9  20  38  56  85 111 148 195 239 274 347
#     4  10  22  38  62  84 112 146 202 238 274 344
#     4  10  19  36  59  86 117 157 184 239 285 349
#     4   9  20  34  56  86 119 150 203 222 283 353
#     4  10  22  37  57  86 125 145 188 242 295 334
#
# _framework density 21.702399
#
# number of rings (size 3 to 8) (size 9 to 14) (size 15 to 20)
#    0.000    2.400    1.333    1.200    1.867    1.600 
#    0.000    1.333    0.000    3.200    0.000    0.000 
#    0.000    0.000    0.000    0.000    0.000    0.000 
#
# Total GULP energy -83506.204123 kJ/mol
# GULP energy per Si atom -5567.080275 kJ/mol
# Density = 2.165300 g / cm^3
# Si number density = 21.702399 Si / 1000 Ang^3
#
#
#
# Elastic Constant Matrix: (Units=GPa)
#
#
# Indices 1 2 3 4 5 6 
#
# 1 130.9514 37.8904 13.0337 14.9921 25.6230 -27.1287
# 2 37.8904 57.3918 10.5614 -2.8310 2.3540 -22.8070
# 3 13.0337 10.5614 62.7045 4.7759 4.2196 -1.4812
# 4 14.9921 -2.8310 4.7759 25.4573 -6.1023 4.2629
# 5 25.6230 2.3540 4.2196 -6.1023 22.7109 -5.4209
# 6 -27.1287 -22.8070 -1.4812 4.2629 -5.4209 22.1481
#
#
#
# Elastic Compliance Matrix: (Units=1/GPa)
#
#
# Indices 1 2 3 4 5 6 
#
# 1 0.019813 -0.007292 0.000645 -0.020799 -0.023726 0.014999
# 2 -0.007292 0.034008 -0.005122 0.007837 0.014384 0.027758
# 3 0.000645 -0.005122 0.017342 -0.004925 -0.005639 -0.003756
# 4 -0.020799 0.007837 -0.004925 0.065572 0.036047 -0.021533
# 5 -0.023726 0.014384 -0.005639 0.036047 0.079542 -0.002096
# 6 0.014999 0.027758 -0.003756 -0.021533 -0.002096 0.095487
#
#
# Mechanical properties :
#
#
# Convention : Reuss Voigt Hill
#
# Bulk Modulus (GPa) = 20.99665 41.55762 31.27713
# Shear Modulus (GPa) = 14.23789 26.70075 20.46932
#
# Velocity S-wave (km/s) = 2.56413 3.51139 3.07446
# Velocity P-wave (km/s) = 4.29676 5.96911 5.20059
#
# Compressibility (1/GPa) = 0.04762665
#
# Stress axis : x y z
#
# Youngs Moduli (GPa) = 50.47224 29.40496 57.66256
#
# Poissons Ratio (x) = 0.21441 -0.03718
# Poissons Ratio (y) = 0.36802 0.29532
# Poissons Ratio (z) = -0.03255 0.15060
#
# Static dielectric constant tensor:
#      x y z
#    x 1.791840 0.010240 -0.015230 
#    y 0.010240 1.875720 -0.139480 
#    z -0.015230 -0.139480 1.992080 
# 
# From -- ./inp_files/262555.got.cif
#   From: 2010.05.17/outbox.cif.g08.bks.cpg/sg2_132_cif.got.tgz:262555.got - 2010.06.03 11:33:40.
