data_PCOD9086634
_publ_section_title
;
Structure prediction by ZEFSAII (Michael W. Deem and Ramdas Pophale) SiO2 
 PCOD9086634
Probable space group: P -1
;
_chemical_formula_sum "Si O2"
_cell_formula_units_Z 14
_cell_length_a 12.142326
_cell_length_b 9.021914
_cell_length_c 10.503860
_cell_angle_alpha 61.619738
_cell_angle_beta 39.197626
_cell_angle_gamma 61.523604
_cell_volume 627.530959
_symmetry_space_group_name_H-M "P -1"
_symmetry_group_IT_number 2
_symmetry_cell_setting 'triclinic'
loop_
_space_group_symop_operation_xyz
x,y,z
-x,-y,-z
loop_
_atom_site_type_symbol
_atom_site_label
_atom_site_fract_x
_atom_site_fract_y
_atom_site_fract_z
Si Si1 0.296247 0.513830 0.800783
Si Si2 0.112921 0.973199 0.608494
Si Si3 0.631946 0.123971 0.372980
Si Si4 0.894674 0.570279 0.247246
Si Si5 0.369136 0.146143 0.978790
Si Si6 0.990407 0.246193 0.425243
Si Si7 0.190087 0.067232 0.918933
O O1 0.398119 0.671334 0.661130
O O2 0.226676 0.495129 0.726429
O O3 0.407108 0.334165 0.830050
O O4 0.101628 0.546593 0.029516
O O5 0.015978 0.161166 0.574542
O O6 0.294077 0.956566 0.526098
O O7 0.123727 0.856831 0.520715
O O8 0.991375 0.907418 0.849987
O O9 0.500000 0.000000 0.500000
O O10 0.767310 0.095801 0.142522
O O11 0.820544 0.771702 0.232225
O O12 0.905579 0.445500 0.408620
O O13 0.325599 0.070644 0.911978
O O14 0.185500 0.197011 0.204124
O O15 0.500000 0.000000 0.000000
#
# Coordination Sequence:
#
# PCOD9086634 Si02
#       7
#     2   2   2   2   2   2   2
#     4   9  17  35  61  86 114 158 199 245 288 352
#     4  10  19  36  59  88 113 154 201 243 292 342
#     4  12  24  37  56  88 132 160 190 234 308 365
#     4   9  15  35  64  89 104 144 219 250 279 332
#     4   9  19  36  62  88 117 151 202 247 301 347
#     4   9  18  33  64  90 110 146 200 264 286 325
#     4  10  21  37  62  87 112 160 200 242 288 358
#
# _framework density 22.309654999999999
#
# number of rings (size 3 to 8) (size 9 to 14) (size 15 to 20)
#    0.000    2.286    2.857    2.143    2.000    0.000 
#    0.000    8.571    0.000    0.000    0.000    0.000 
#    0.000    0.000    0.000    0.000    0.000    0.000 
#
# Total GULP energy -78042.402438 kJ/mol
# GULP energy per Si atom -5574.457317 kJ/mol
# Density = 2.225888 g / cm^3
# Si number density = 22.309655 Si / 1000 Ang^3
#
#
#
# Elastic Constant Matrix: (Units=GPa)
#
#
# Indices 1 2 3 4 5 6 
#
# 1 129.5153 68.9934 26.8009 -28.2182 -12.0307 -27.3346
# 2 68.9934 125.0502 36.4169 -32.6140 0.6129 -32.1963
# 3 26.8009 36.4169 32.9415 -17.5303 -8.4846 0.3935
# 4 -28.2182 -32.6140 -17.5303 43.2942 -2.7983 9.7337
# 5 -12.0307 0.6129 -8.4846 -2.7983 28.8395 -13.1478
# 6 -27.3346 -32.1963 0.3935 9.7337 -13.1478 40.8577
#
#
#
# Elastic Compliance Matrix: (Units=1/GPa)
#
#
# Indices 1 2 3 4 5 6 
#
# 1 0.013669 -0.003620 -0.002897 0.003717 0.009100 0.008363
# 2 -0.003620 0.018265 -0.016690 0.002035 -0.001525 0.011157
# 3 -0.002897 -0.016690 0.062442 0.015065 0.011940 -0.015438
# 4 0.003717 0.002035 0.015065 0.034022 0.008607 -0.001390
# 5 0.009100 -0.001525 0.011940 0.008607 0.051673 0.019349
# 6 0.008363 0.011157 -0.015438 -0.001390 0.019349 0.045568
#
#
# Mechanical properties :
#
#
# Convention : Reuss Voigt Hill
#
# Bulk Modulus (GPa) = 20.84990 61.32549 41.08770
# Shear Modulus (GPa) = 17.35865 32.95132 25.15498
#
# Velocity S-wave (km/s) = 2.79243 3.84734 3.36153
# Velocity P-wave (km/s) = 4.44554 6.87634 5.78994
#
# Compressibility (1/GPa) = 0.04796185
#
# Stress axis : x y z
#
# Youngs Moduli (GPa) = 73.15710 54.74928 16.01493
#
# Poissons Ratio (x) = 0.19818 0.04640
# Poissons Ratio (y) = 0.26481 0.26729
# Poissons Ratio (z) = 0.21196 0.91377
#
# Static dielectric constant tensor:
#      x y z
#    x 1.817150 -0.030030 -0.069830 
#    y -0.030030 1.851660 0.013280 
#    z -0.069830 0.013280 1.959720 
# 
# From -- ./inp_files/262131.got.cif
#   From: 2010.05.17/outbox.cif.g08.bks.cpg/sg2_132_cif.got.tgz:262131.got - 2010.06.03 11:33:40.
