data_PCOD9086793
_publ_section_title
;
Structure prediction by ZEFSAII (Michael W. Deem and Ramdas Pophale) SiO2 
 PCOD9086793
Probable space group: P -1
;
_chemical_formula_sum "Si O2"
_cell_formula_units_Z 16
_cell_length_a 14.998451
_cell_length_b 8.449436
_cell_length_c 8.158100
_cell_angle_alpha 81.653550
_cell_angle_beta 109.895630
_cell_angle_gamma 61.583856
_cell_volume 793.890400
_symmetry_space_group_name_H-M "P -1"
_symmetry_group_IT_number 2
_symmetry_cell_setting 'triclinic'
loop_
_space_group_symop_operation_xyz
x,y,z
-x,-y,-z
loop_
_atom_site_type_symbol
_atom_site_label
_atom_site_fract_x
_atom_site_fract_y
_atom_site_fract_z
Si Si1 0.350625 0.753890 0.192529
Si Si2 0.544150 0.595925 0.893119
Si Si3 0.161106 0.178596 0.409759
Si Si4 0.903330 0.961286 0.920279
Si Si5 0.713034 0.694334 0.060187
Si Si6 0.038707 0.428213 0.847289
Si Si7 0.671153 0.026953 0.192458
Si Si8 0.615271 0.969628 0.640071
O O1 0.420499 0.527348 0.232178
O O2 0.221259 0.844853 0.154889
O O3 0.402896 0.830930 0.340565
O O4 0.338157 0.861812 0.996189
O O5 0.439632 0.821076 0.791516
O O6 0.500000 0.500000 0.000000
O O7 0.655768 0.575564 0.042134
O O8 0.103894 0.109483 0.255785
O O9 0.275639 0.135506 0.397643
O O10 0.070317 0.407103 0.348568
O O11 0.212194 0.051593 0.623809
O O12 0.925180 0.791911 0.084638
O O13 0.000000 0.000000 0.000000
O O14 0.849339 0.579821 0.137197
O O15 0.674529 0.838601 0.168477
O O16 0.659004 0.830690 0.846372
O O17 0.000000 0.500000 0.000000
O O18 0.500000 0.000000 0.500000
#
# Coordination Sequence:
#
# PCOD9086793 Si02
#       8
#     2   2   2   2   2   2   2   2
#     4   9  20  39  58  85 121 155 195 239 305 355
#     4  10  22  36  60  85 120 156 195 243 300 360
#     4  10  21  36  58  88 120 148 198 252 280 349
#     4  10  20  38  61  84 118 155 192 244 299 348
#     4  11  20  38  63  83 114 163 198 240 300 349
#     4  10  19  38  60  86 116 148 207 239 285 354
#     4  10  20  40  58  84 120 152 198 247 293 350
#     4  10  19  36  60  88 115 153 201 242 289 351
#
# _framework density 20.153915999999999
#
# number of rings (size 3 to 8) (size 9 to 14) (size 15 to 20)
#    0.000    2.000    5.000    1.125    3.500    2.500 
#    0.000   10.000    0.000    0.000    0.000    0.000 
#    0.000    0.000    0.000    0.000    0.000    0.000 
#
# Total GULP energy -89250.612923 kJ/mol
# GULP energy per Si atom -5578.163308 kJ/mol
# Density = 2.010804 g / cm^3
# Si number density = 20.153916 Si / 1000 Ang^3
#
#
#
# Elastic Constant Matrix: (Units=GPa)
#
#
# Indices 1 2 3 4 5 6 
#
# 1 109.5657 53.9939 31.9096 7.5381 37.6059 10.1137
# 2 53.9939 113.9370 34.0210 4.3859 23.0690 -25.1128
# 3 31.9096 34.0210 92.0087 -5.4217 28.3924 -5.7344
# 4 7.5381 4.3859 -5.4217 22.3079 3.9617 6.6487
# 5 37.6059 23.0690 28.3924 3.9617 34.9331 1.5985
# 6 10.1137 -25.1128 -5.7344 6.6487 1.5985 22.7952
#
#
#
# Elastic Compliance Matrix: (Units=1/GPa)
#
#
# Indices 1 2 3 4 5 6 
#
# 1 0.023288 -0.014020 0.000693 0.005657 -0.015820 -0.026144
# 2 -0.014020 0.024389 -0.002944 -0.011588 0.001062 0.035654
# 3 0.000693 -0.002944 0.015912 0.006603 -0.012456 -0.000601
# 4 0.005657 -0.011588 0.006603 0.057232 -0.008936 -0.029682
# 5 -0.015820 0.001062 -0.012456 -0.008936 0.055921 0.003741
# 6 -0.026144 0.035654 -0.000601 -0.029682 0.003741 0.102991
#
#
# Mechanical properties :
#
#
# Convention : Reuss Voigt Hill
#
# Bulk Modulus (GPa) = 32.20903 61.70670 46.95786
# Shear Modulus (GPa) = 15.49782 29.04637 22.27209
#
# Velocity S-wave (km/s) = 2.77604 3.80047 3.32791
# Velocity P-wave (km/s) = 5.12752 7.06698 6.17389
#
# Compressibility (1/GPa) = 0.03104719
#
# Stress axis : x y z
#
# Youngs Moduli (GPa) = 42.94046 41.00127 62.84462
#
# Poissons Ratio (x) = 0.57484 -0.04357
# Poissons Ratio (y) = 0.60203 0.18504
# Poissons Ratio (z) = -0.02977 0.12073
#
# Static dielectric constant tensor:
#      x y z
#    x 1.711370 -0.004280 -0.025330 
#    y -0.004280 1.781580 -0.001910 
#    z -0.025330 -0.001910 1.744780 
# 
# From -- ./inp_files/169749.got.cif
#   From: 2010.05.17/outbox.cif.g08.bks.cpg/sg2_85_cif.got.tgz:169749.got - 2010.06.03 11:33:40.
