data_PCOD9086784
_publ_section_title
;
Structure prediction by ZEFSAII (Michael W. Deem and Ramdas Pophale) SiO2 
 PCOD9086784
Probable space group: P -1
;
_chemical_formula_sum "Si O2"
_cell_formula_units_Z 14
_cell_length_a 6.147671
_cell_length_b 11.352740
_cell_length_c 12.038171
_cell_angle_alpha 64.489073
_cell_angle_beta 64.902385
_cell_angle_gamma 60.868618
_cell_volume 637.359089
_symmetry_space_group_name_H-M "P -1"
_symmetry_group_IT_number 2
_symmetry_cell_setting 'triclinic'
loop_
_space_group_symop_operation_xyz
x,y,z
-x,-y,-z
loop_
_atom_site_type_symbol
_atom_site_label
_atom_site_fract_x
_atom_site_fract_y
_atom_site_fract_z
Si Si1 0.301722 0.899185 0.474970
Si Si2 0.073189 0.563426 0.346662
Si Si3 0.214088 0.811906 0.311162
Si Si4 0.248629 0.312040 0.854767
Si Si5 0.675763 0.066411 0.300826
Si Si6 0.486398 0.554823 0.107723
Si Si7 0.878529 0.156271 0.016097
O O1 0.305683 0.785508 0.430006
O O2 0.481757 0.983628 0.362578
O O3 0.388483 0.855224 0.599279
O O4 0.000000 0.000000 0.500000
O O5 0.105378 0.699506 0.336703
O O6 0.344685 0.485069 0.252925
O O7 0.000000 0.500000 0.500000
O O8 0.874591 0.610053 0.266425
O O9 0.471526 0.798648 0.196387
O O10 0.973585 0.957644 0.290386
O O11 0.271076 0.427825 0.889443
O O12 0.096077 0.218925 0.975011
O O13 0.688348 0.155496 0.156825
O O14 0.500000 0.500000 0.000000
O O15 0.295100 0.718556 0.075383
O O16 0.000000 0.000000 0.000000
#
# Coordination Sequence:
#
# PCOD9086784 Si02
#       7
#     2   2   2   2   2   2   2
#     4   9  19  35  54  82 129 166 201 259 327 376
#     4  10  22  41  62  91 117 165 226 268 318 394
#     4  10  19  36  60  87 123 161 207 271 321 377
#     4  10  22  41  66  87 130 167 211 271 329 384
#     4  10  20  36  55  91 127 159 213 259 322 385
#     4  10  24  45  61  94 133 172 217 275 330 392
#     4  11  22  38  64  96 126 170 218 266 319 398
#
# _framework density 21.96564
#
# number of rings (size 3 to 8) (size 9 to 14) (size 15 to 20)
#    0.000    2.000    0.000    4.286    0.000    9.143 
#   15.429    0.000    0.000    0.000    0.000    0.000 
#    0.000    0.000    0.000    0.000    0.000    0.000 
#
# Total GULP energy -77964.524206 kJ/mol
# GULP energy per Si atom -5568.894586 kJ/mol
# Density = 2.191564 g / cm^3
# Si number density = 21.965640 Si / 1000 Ang^3
#
#
#
# Elastic Constant Matrix: (Units=GPa)
#
#
# Indices 1 2 3 4 5 6 
#
# 1 114.1515 25.8670 43.5734 9.6731 3.9007 25.5650
# 2 25.8670 54.3251 36.3372 11.4924 14.0491 17.1565
# 3 43.5734 36.3372 173.1081 4.1399 -6.6579 28.3834
# 4 9.6731 11.4924 4.1399 33.8024 9.9183 13.5005
# 5 3.9007 14.0491 -6.6579 9.9183 33.6533 20.6392
# 6 25.5650 17.1565 28.3834 13.5005 20.6392 31.5113
#
#
#
# Elastic Compliance Matrix: (Units=1/GPa)
#
#
# Indices 1 2 3 4 5 6 
#
# 1 0.012387 -0.004153 0.000456 0.000965 0.009002 -0.014508
# 2 -0.004153 0.027439 -0.005933 -0.005421 -0.013631 0.005025
# 3 0.000456 -0.005933 0.010049 0.003254 0.013547 -0.016458
# 4 0.000965 -0.005421 0.003254 0.037335 0.003459 -0.019023
# 5 0.009002 -0.013631 0.013547 0.003459 0.074112 -0.062107
# 6 -0.014508 0.005025 -0.016458 -0.019023 -0.062107 0.104423
#
#
# Mechanical properties :
#
#
# Convention : Reuss Voigt Hill
#
# Bulk Modulus (GPa) = 32.66411 61.45996 47.06204
# Shear Modulus (GPa) = 16.93704 35.51387 26.22545
#
# Velocity S-wave (km/s) = 2.77983 4.02530 3.45908
# Velocity P-wave (km/s) = 5.02057 7.04591 6.11763
#
# Compressibility (1/GPa) = 0.03061464
#
# Stress axis : x y z
#
# Youngs Moduli (GPa) = 80.72766 36.44496 99.51156
#
# Poissons Ratio (x) = 0.15136 -0.04535
# Poissons Ratio (y) = 0.33528 0.59037
# Poissons Ratio (z) = -0.03679 0.21622
#
# Static dielectric constant tensor:
#      x y z
#    x 1.878450 -0.020950 0.012800 
#    y -0.020950 1.874820 0.006330 
#    z 0.012800 0.006330 1.959090 
# 
# From -- ./inp_files/93545.got.cif
#   From: 2010.05.17/outbox.cif.g08.bks.cpg/sg2_47_cif.got.tgz:93545.got - 2010.06.03 11:33:40.
