data_PCOD9086264
_publ_section_title
;
Structure prediction by ZEFSAII (Michael W. Deem and Ramdas Pophale) SiO2 
 PCOD9086264
Probable space group: P -1
;
_chemical_formula_sum "Si O2"
_cell_formula_units_Z 14
_cell_length_a 20.814280
_cell_length_b 14.789360
_cell_length_c 9.459543
_cell_angle_alpha 67.265093
_cell_angle_beta 100.573256
_cell_angle_gamma 159.507388
_cell_volume 783.446216
_symmetry_space_group_name_H-M "P -1"
_symmetry_group_IT_number 2
_symmetry_cell_setting 'triclinic'
loop_
_space_group_symop_operation_xyz
x,y,z
-x,-y,-z
loop_
_atom_site_type_symbol
_atom_site_label
_atom_site_fract_x
_atom_site_fract_y
_atom_site_fract_z
Si Si1 0.356908 0.405910 0.121821
Si Si2 0.594031 0.793765 0.245857
Si Si3 0.189176 0.323785 0.290305
Si Si4 0.955872 0.543779 0.140910
Si Si5 0.864739 0.190296 0.369459
Si Si6 0.201918 0.977018 0.241919
Si Si7 0.241632 0.625523 0.090496
O O1 0.471669 0.545317 0.236819
O O2 0.223491 0.312270 0.165228
O O3 0.214457 0.111882 0.187893
O O4 0.558988 0.711226 0.912316
O O5 0.419871 0.633013 0.277968
O O6 0.674488 0.873672 0.381866
O O7 0.815949 0.143437 0.043382
O O8 0.159721 0.395926 0.209097
O O9 0.000000 0.000000 0.500000
O O10 0.856909 0.295454 0.277663
O O11 0.023888 0.690419 0.227353
O O12 0.809771 0.403016 0.066828
O O13 0.096046 0.479926 0.229676
O O14 0.837533 0.126885 0.559711
O O15 0.500000 0.000000 0.000000
#
# Coordination Sequence:
#
# PCOD9086264 Si02
#       7
#     2   2   2   2   2   2   2
#     4   8  19  36  56  77 117 144 184 229 284 329
#     4   8  18  35  58  79 114 135 194 231 272 318
#     4  10  19  37  59  87 113 144 187 239 280 334
#     4  10  20  37  56  85 113 149 191 227 278 341
#     4  11  20  34  61  88 105 147 197 236 268 335
#     4  10  19  36  57  82 112 150 188 230 277 332
#     4  11  22  37  62  82 117 150 184 239 296 325
#
# _framework density 17.869767
#
# number of rings (size 3 to 8) (size 9 to 14) (size 15 to 20)
#    0.857    1.429    0.000    4.714    0.000    0.571 
#    7.714    1.429    3.143    0.000    0.000    0.000 
#    0.000    0.000    0.000    0.000    0.000    0.000 
#
# Total GULP energy -77967.506827 kJ/mol
# GULP energy per Si atom -5569.107630 kJ/mol
# Density = 1.782909 g / cm^3
# Si number density = 17.869767 Si / 1000 Ang^3
#
#
#
# Elastic Constant Matrix: (Units=GPa)
#
#
# Indices 1 2 3 4 5 6 
#
# 1 94.4899 34.4547 51.2631 4.7699 2.9200 -5.5607
# 2 34.4547 87.6994 47.6120 23.5558 -11.7367 1.1302
# 3 51.2631 47.6120 97.1161 34.7245 4.4973 -2.2702
# 4 4.7699 23.5558 34.7245 24.6201 -3.3317 -1.3030
# 5 2.9200 -11.7367 4.4973 -3.3317 12.6769 3.3196
# 6 -5.5607 1.1302 -2.2702 -1.3030 3.3196 30.8109
#
#
#
# Elastic Compliance Matrix: (Units=1/GPa)
#
#
# Indices 1 2 3 4 5 6 
#
# 1 0.021437 -0.005387 -0.018805 0.028146 0.003220 0.003524
# 2 -0.005387 0.022422 -0.006202 -0.008789 0.023233 -0.005127
# 3 -0.018805 -0.006202 0.046578 -0.060677 -0.034245 0.001389
# 4 0.028146 -0.008789 -0.060677 0.134923 0.041807 0.002133
# 5 0.003220 0.023233 -0.034245 0.041807 0.126630 -0.014669
# 6 0.003524 -0.005127 0.001389 0.002133 -0.014669 0.035053
#
#
# Mechanical properties :
#
#
# Convention : Reuss Voigt Hill
#
# Bulk Modulus (GPa) = 33.72917 60.66277 47.19597
# Shear Modulus (GPa) = 10.92388 23.35328 17.13858
#
# Velocity S-wave (km/s) = 2.47514 3.61897 3.10027
# Velocity P-wave (km/s) = 5.20427 7.17520 6.26769
#
# Compressibility (1/GPa) = 0.02964793
#
# Stress axis : x y z
#
# Youngs Moduli (GPa) = 46.64910 44.59855 21.46958
#
# Poissons Ratio (x) = 0.24026 0.40373
# Poissons Ratio (y) = 0.25131 0.13316
# Poissons Ratio (z) = 0.87723 0.27661
#
# Static dielectric constant tensor:
#      x y z
#    x 1.616380 -0.016150 -0.006930 
#    y -0.016150 1.622860 -0.000460 
#    z -0.006930 -0.000460 1.597660 
# 
# From -- ./inp_files/346900.got.cif
#   From: 2010.05.17/outbox.cif.g08.bks.cpg/sg2_174_cif.got.tgz:346900.got - 2010.06.03 11:33:40.
