data_PCOD9086321
_publ_section_title
;
Structure prediction by ZEFSAII (Michael W. Deem and Ramdas Pophale) SiO2 
 PCOD9086321
Probable space group: P -1
;
_chemical_formula_sum "Si O2"
_cell_formula_units_Z 16
_cell_length_a 7.177935
_cell_length_b 8.646405
_cell_length_c 14.034264
_cell_angle_alpha 113.388849
_cell_angle_beta 102.865969
_cell_angle_gamma 53.308627
_cell_volume 640.921655
_symmetry_space_group_name_H-M "P -1"
_symmetry_group_IT_number 2
_symmetry_cell_setting 'triclinic'
loop_
_space_group_symop_operation_xyz
x,y,z
-x,-y,-z
loop_
_atom_site_type_symbol
_atom_site_label
_atom_site_fract_x
_atom_site_fract_y
_atom_site_fract_z
Si Si1 0.608035 0.203121 0.390740
Si Si2 0.007274 0.119270 0.941062
Si Si3 0.629053 0.303042 0.793965
Si Si4 0.857935 0.675990 0.852184
Si Si5 0.378927 0.712094 0.781320
Si Si6 0.044873 0.250193 0.710906
Si Si7 0.234420 0.133498 0.312400
Si Si8 0.769037 0.930169 0.501526
O O1 0.614316 0.339066 0.343224
O O2 0.352283 0.253242 0.381019
O O3 0.730425 0.129054 0.489724
O O4 0.742132 0.979926 0.300207
O O5 0.762141 0.275616 0.900694
O O6 0.163712 0.935073 0.840777
O O7 0.113736 0.234264 0.026217
O O8 0.000000 0.000000 0.000000
O O9 0.409509 0.529929 0.803945
O O10 0.813692 0.270748 0.725602
O O11 0.603133 0.114967 0.740818
O O12 0.605680 0.713776 0.827542
O O13 0.037545 0.432000 0.805912
O O14 0.874608 0.777843 0.781578
O O15 0.084409 0.251331 0.602271
O O16 0.112428 0.140178 0.399384
O O17 0.500000 0.000000 0.500000
#
# Coordination Sequence:
#
# PCOD9086321 Si02
#       8
#     2   2   2   2   2   2   2   2
#     4   8  17  38  60  80 115 153 189 235 280 340
#     4  12  23  41  58  86 122 147 195 246 292 334
#     4  11  23  39  58  89 119 153 189 242 293 341
#     4  10  22  38  60  86 113 158 197 237 282 346
#     4  10  22  41  61  81 117 158 193 236 286 347
#     4   9  19  37  60  85 112 155 192 230 290 340
#     4  10  19  36  57  86 120 148 193 237 289 339
#     4   8  16  34  61  86 114 153 191 237 284 336
#
# _framework density 24.964048999999999
#
# number of rings (size 3 to 8) (size 9 to 14) (size 15 to 20)
#    0.750    1.500    2.500    0.375    0.000    4.500 
#    4.500    0.625    0.000    0.000    0.000    0.000 
#    0.000    0.000    0.000    0.000    0.000    0.000 
#
# Total GULP energy -89160.442133 kJ/mol
# GULP energy per Si atom -5572.527633 kJ/mol
# Density = 2.490723 g / cm^3
# Si number density = 24.964049 Si / 1000 Ang^3
#
#
#
# Elastic Constant Matrix: (Units=GPa)
#
#
# Indices 1 2 3 4 5 6 
#
# 1 64.8498 8.0001 18.2620 -2.7246 10.3792 -0.2331
# 2 8.0001 101.4491 4.6627 -16.9721 -5.9849 12.0585
# 3 18.2620 4.6627 46.5115 -27.9473 -10.4493 20.5282
# 4 -2.7246 -16.9721 -27.9473 45.5266 2.1049 -2.3027
# 5 10.3792 -5.9849 -10.4493 2.1049 30.5599 -6.9279
# 6 -0.2331 12.0585 20.5282 -2.3027 -6.9279 21.8234
#
#
#
# Elastic Compliance Matrix: (Units=1/GPa)
#
#
# Indices 1 2 3 4 5 6 
#
# 1 0.050442 -0.022942 -0.104672 -0.063529 -0.031510 0.094970
# 2 -0.022942 0.024986 0.066501 0.044606 0.017297 -0.066408
# 3 -0.104672 0.066501 0.323885 0.198720 0.078376 -0.296678
# 4 -0.063529 0.044606 0.198720 0.145403 0.046988 -0.181994
# 5 -0.031510 0.017297 0.078376 0.046988 0.056617 -0.060687
# 6 0.094970 -0.066408 -0.296678 -0.181994 -0.060687 0.324133
#
#
# Mechanical properties :
#
#
# Convention : Reuss Voigt Hill
#
# Bulk Modulus (GPa) = 3.60899 30.51777 17.06338
# Shear Modulus (GPa) = 4.38575 31.70769 18.04672
#
# Velocity S-wave (km/s) = 1.32689 3.56776 2.69161
# Velocity P-wave (km/s) = 1.94842 5.40584 4.06322
#
# Compressibility (1/GPa) = 0.27708594
#
# Stress axis : x y z
#
# Youngs Moduli (GPa) = 19.82469 40.02216 3.08751
#
# Poissons Ratio (x) = 0.91820 0.32318
# Poissons Ratio (y) = 0.45482 -0.20532
# Poissons Ratio (z) = 2.07510 -2.66151
#
# Static dielectric constant tensor:
#      x y z
#    x 2.091920 0.033660 -0.036190 
#    y 0.033660 1.990790 -0.031030 
#    z -0.036190 -0.031030 1.995420 
# 
# From -- ./inp_files/495462.got.cif
#   From: 2010.05.17/outbox.cif.g08.bks.cpg/sg2_248_cif.got.tgz:495462.got - 2010.06.03 11:33:40.
