data_PCOD9086044
_publ_section_title
;
Structure prediction by ZEFSAII (Michael W. Deem and Ramdas Pophale) SiO2 
 PCOD9086044
Probable space group: P -1
;
_chemical_formula_sum "Si O2"
_cell_formula_units_Z 16
_cell_length_a 6.969008
_cell_length_b 13.847631
_cell_length_c 10.231794
_cell_angle_alpha 114.380696
_cell_angle_beta 136.301266
_cell_angle_gamma 85.593390
_cell_volume 581.528155
_symmetry_space_group_name_H-M "P -1"
_symmetry_group_IT_number 2
_symmetry_cell_setting 'triclinic'
loop_
_space_group_symop_operation_xyz
x,y,z
-x,-y,-z
loop_
_atom_site_type_symbol
_atom_site_label
_atom_site_fract_x
_atom_site_fract_y
_atom_site_fract_z
Si Si1 0.007245 0.171851 0.894491
Si Si2 0.610550 0.456475 0.161698
Si Si3 0.562702 0.005506 0.245921
Si Si4 0.572884 0.770435 0.123480
Si Si5 0.907712 0.708442 0.495375
Si Si6 0.550724 0.234830 0.377627
Si Si7 0.043570 0.626830 0.127448
Si Si8 0.996470 0.940323 0.741019
O O1 0.225038 0.212477 0.149308
O O2 0.212965 0.183086 0.871000
O O3 0.842789 0.262248 0.845458
O O4 0.848699 0.035224 0.744662
O O5 0.794269 0.573472 0.389600
O O6 0.500000 0.500000 0.000000
O O7 0.701627 0.347279 0.111211
O O8 0.305100 0.393395 0.048867
O O9 0.514069 0.881338 0.207025
O O10 0.575733 0.120301 0.388146
O O11 0.861416 0.043545 0.325640
O O12 0.281051 0.982304 0.999069
O O13 0.747945 0.727589 0.294910
O O14 0.251332 0.746201 0.647249
O O15 0.856293 0.804114 0.615518
O O16 0.742316 0.338268 0.621360
O O17 0.000000 0.500000 0.000000
#
# Coordination Sequence:
#
# PCOD9086044 Si02
#       8
#     2   2   2   2   2   2   2   2
#     4   9  18  32  47  75 101 125 170 205 243 298
#     4   9  17  33  48  73 105 132 163 202 241 301
#     4   8  15  25  40  71 103 122 162 202 244 294
#     4   9  15  25  43  70 102 127 160 198 235 296
#     4  10  16  26  51  72 104 137 155 199 259 286
#     4  10  18  31  51  73 102 131 156 211 255 282
#     4  11  22  36  54  73  97 132 172 207 242 291
#     4   8  15  25  42  71 100 127 156 204 249 290
#
# _framework density 27.513715999999999
#
# number of rings (size 3 to 8) (size 9 to 14) (size 15 to 20)
#    0.000    2.750    3.750    2.250    1.750    2.000 
#    0.000    5.625    0.000    0.750    0.000    1.750 
#    0.000    0.000    0.000    0.000    0.000    0.000 
#
# Total GULP energy -89261.502749 kJ/mol
# GULP energy per Si atom -5578.843922 kJ/mol
# Density = 2.745109 g / cm^3
# Si number density = 27.513716 Si / 1000 Ang^3
#
#
#
# Elastic Constant Matrix: (Units=GPa)
#
#
# Indices 1 2 3 4 5 6 
#
# 1 50.5299 23.8823 13.0215 9.7924 -3.3203 5.1827
# 2 23.8823 152.2339 59.8171 54.6635 -20.6302 -18.0681
# 3 13.0215 59.8171 155.4729 38.8254 -15.0427 -15.6798
# 4 9.7924 54.6635 38.8254 75.3096 -7.7936 -8.8820
# 5 -3.3203 -20.6302 -15.0427 -7.7936 34.1837 13.3589
# 6 5.1827 -18.0681 -15.6798 -8.8820 13.3589 44.0621
#
#
#
# Elastic Compliance Matrix: (Units=1/GPa)
#
#
# Indices 1 2 3 4 5 6 
#
# 1 0.022283 -0.003392 -0.000790 -0.000439 0.001568 -0.004857
# 2 -0.003392 0.010529 -0.001843 -0.005695 0.003151 0.001958
# 3 -0.000790 -0.001843 0.008073 -0.002432 0.001290 0.001329
# 4 -0.000439 -0.005695 -0.002432 0.018757 -0.000590 0.000811
# 5 0.001568 0.003151 0.001290 -0.000590 0.035365 -0.009274
# 6 -0.004857 0.001958 0.001329 0.000811 -0.009274 0.027517
#
#
# Mechanical properties :
#
#
# Convention : Reuss Voigt Hill
#
# Bulk Modulus (GPa) = 34.67772 61.29762 47.98767
# Shear Modulus (GPa) = 34.67745 48.14545 41.41145
#
# Velocity S-wave (km/s) = 3.55402 4.18768 3.88380
# Velocity P-wave (km/s) = 5.42886 6.76088 6.13116
#
# Compressibility (1/GPa) = 0.02883696
#
# Stress axis : x y z
#
# Youngs Moduli (GPa) = 44.87706 94.97538 123.86727
#
# Poissons Ratio (x) = 0.32213 0.09784
# Poissons Ratio (y) = 0.15221 0.22823
# Poissons Ratio (z) = 0.03545 0.17499
#
# Static dielectric constant tensor:
#      x y z
#    x 1.795280 -0.355030 -0.244270 
#    y -0.355030 2.218610 0.052840 
#    z -0.244270 0.052840 2.139810 
# 
# From -- ./inp_files/264502.got.cif
#   From: 2010.05.17/outbox.cif.g08.bks.cpg/sg2_133_cif.got.tgz:264502.got - 2010.06.03 11:33:40.
