data_PCOD9086504
_publ_section_title
;
Structure prediction by ZEFSAII (Michael W. Deem and Ramdas Pophale) SiO2 
 PCOD9086504
Probable space group: P -1
;
_chemical_formula_sum "Si O2"
_cell_formula_units_Z 14
_cell_length_a 12.099104
_cell_length_b 23.777733
_cell_length_c 7.701531
_cell_angle_alpha 43.875093
_cell_angle_beta 35.616784
_cell_angle_gamma 27.675567
_cell_volume 599.298260
_symmetry_space_group_name_H-M "P -1"
_symmetry_group_IT_number 2
_symmetry_cell_setting 'triclinic'
loop_
_space_group_symop_operation_xyz
x,y,z
-x,-y,-z
loop_
_atom_site_type_symbol
_atom_site_label
_atom_site_fract_x
_atom_site_fract_y
_atom_site_fract_z
Si Si1 0.929809 0.310956 0.864469
Si Si2 0.406408 0.964511 0.842950
Si Si3 0.582671 0.514217 0.088021
Si Si4 0.479050 0.632821 0.316758
Si Si5 0.142845 0.934291 0.778519
Si Si6 0.871570 0.876562 0.701462
Si Si7 0.355474 0.252565 0.203739
O O1 0.620372 0.386490 0.021518
O O2 0.088190 0.291896 0.535053
O O3 0.881183 0.398143 0.874048
O O4 0.077651 0.189997 0.040723
O O5 0.513226 0.844914 0.896763
O O6 0.592149 0.930596 0.845318
O O7 0.500000 0.000000 0.500000
O O8 0.066602 0.060588 0.063890
O O9 0.553837 0.578174 0.150847
O O10 0.483434 0.456294 0.409522
O O11 0.152459 0.766678 0.468840
O O12 0.671591 0.650351 0.058159
O O13 0.442305 0.806912 0.749470
O O14 0.156258 0.017482 0.483557
O O15 0.000000 0.000000 0.000000
#
# Coordination Sequence:
#
# PCOD9086504 Si02
#       7
#     2   2   2   2   2   2   2
#     4  10  23  39  58  89 124 160 190 256 315 352
#     4  11  19  36  64  87 120 163 201 244 283 352
#     4   9  21  42  61  85 118 162 203 254 304 345
#     4  10  19  38  68  87 113 163 210 245 291 360
#     4  10  19  36  58  91 120 153 204 246 277 364
#     4  11  20  39  62  89 127 159 197 242 305 358
#     4  11  21  37  61  93 121 154 204 248 297 360
#
# _framework density 23.360657
#
# number of rings (size 3 to 8) (size 9 to 14) (size 15 to 20)
#    0.000    1.714    5.714    0.857    0.000    1.714 
#    2.571    0.714    0.000    0.000    0.000    0.000 
#    0.000    0.000    0.000    0.000    0.000    0.000 
#
# Total GULP energy -78201.514420 kJ/mol
# GULP energy per Si atom -5585.822459 kJ/mol
# Density = 2.330749 g / cm^3
# Si number density = 23.360657 Si / 1000 Ang^3
#
#
#
# Elastic Constant Matrix: (Units=GPa)
#
#
# Indices 1 2 3 4 5 6 
#
# 1 77.9270 11.5698 2.6115 -5.7456 -14.6020 -6.2228
# 2 11.5698 66.3737 8.1243 -13.8025 -4.8345 -11.6908
# 3 2.6115 8.1243 51.2823 -13.6713 -20.6840 0.5515
# 4 -5.7456 -13.8025 -13.6713 40.5007 11.1125 2.3944
# 5 -14.6020 -4.8345 -20.6840 11.1125 29.1708 8.4609
# 6 -6.2228 -11.6908 0.5515 2.3944 8.4609 39.1225
#
#
#
# Elastic Compliance Matrix: (Units=1/GPa)
#
#
# Indices 1 2 3 4 5 6 
#
# 1 0.014847 -0.002436 0.003515 -0.000179 0.009737 -0.000511
# 2 -0.002436 0.017652 -0.002891 0.005473 -0.004012 0.005461
# 3 0.003515 -0.002891 0.030072 0.003732 0.022895 -0.005909
# 4 -0.000179 0.005473 0.003732 0.030008 -0.008414 0.001537
# 5 0.009737 -0.004012 0.022895 -0.008414 0.061639 -0.012788
# 6 -0.000511 0.005461 -0.005909 0.001537 -0.012788 0.029866
#
#
# Mechanical properties :
#
#
# Convention : Reuss Voigt Hill
#
# Bulk Modulus (GPa) = 16.96433 26.68823 21.82628
# Shear Modulus (GPa) = 24.11304 33.31063 28.71184
#
# Velocity S-wave (km/s) = 3.21628 3.78024 3.50961
# Velocity P-wave (km/s) = 4.59024 5.52294 5.07805
#
# Compressibility (1/GPa) = 0.05894721
#
# Stress axis : x y z
#
# Youngs Moduli (GPa) = 67.35396 56.64973 33.25380
#
# Poissons Ratio (x) = 0.13801 -0.11688
# Poissons Ratio (y) = 0.16409 0.09612
# Poissons Ratio (z) = -0.23674 0.16375
#
# Static dielectric constant tensor:
#      x y z
#    x 1.893850 0.015370 0.007290 
#    y 0.015370 1.956620 0.063230 
#    z 0.007290 0.063230 1.898430 
# 
# From -- ./inp_files/179551.got.cif
#   From: 2010.05.17/outbox.cif.g08.bks.cpg/sg2_90_cif.got.tgz:179551.got - 2010.06.03 11:33:40.
