data_PCOD9086444
_publ_section_title
;
Structure prediction by ZEFSAII (Michael W. Deem and Ramdas Pophale) SiO2 
 PCOD9086444
Probable space group: P -1
;
_chemical_formula_sum "Si O2"
_cell_formula_units_Z 14
_cell_length_a 8.465774
_cell_length_b 14.480668
_cell_length_c 6.528428
_cell_angle_alpha 58.493681
_cell_angle_beta 61.219637
_cell_angle_gamma 79.974317
_cell_volume 594.824780
_symmetry_space_group_name_H-M "P -1"
_symmetry_group_IT_number 2
_symmetry_cell_setting 'triclinic'
loop_
_space_group_symop_operation_xyz
x,y,z
-x,-y,-z
loop_
_atom_site_type_symbol
_atom_site_label
_atom_site_fract_x
_atom_site_fract_y
_atom_site_fract_z
Si Si1 0.941116 0.237190 0.921088
Si Si2 0.272528 0.896975 0.472368
Si Si3 0.389359 0.722937 0.285291
Si Si4 0.661955 0.656285 0.501475
Si Si5 0.578412 0.846561 0.635647
Si Si6 0.999889 0.080514 0.717322
Si Si7 0.799707 0.439642 0.699415
O O1 0.880326 0.141576 0.223483
O O2 0.812925 0.331430 0.950081
O O3 0.141882 0.291702 0.756011
O O4 0.940644 0.189097 0.745684
O O5 0.321923 0.798135 0.415542
O O6 0.457509 0.917122 0.474906
O O7 0.157235 0.959088 0.303467
O O8 0.542960 0.662250 0.368836
O O9 0.253564 0.622821 0.404766
O O10 0.469442 0.804198 0.957149
O O11 0.605955 0.736978 0.618560
O O12 0.674294 0.533709 0.712985
O O13 0.785080 0.897252 0.504314
O O14 0.000000 0.000000 0.000000
O O15 0.000000 0.500000 0.500000
#
# Coordination Sequence:
#
# PCOD9086444 Si02
#       7
#     2   2   2   2   2   2   2
#     4  10  20  42  59  86 124 155 198 248 293 351
#     4  11  21  40  66  84 122 163 190 245 307 346
#     4  11  20  39  59  87 124 160 198 237 296 351
#     4   9  21  35  59  88 119 162 201 240 288 341
#     4  10  22  40  62  89 123 155 196 247 290 355
#     4  11  24  42  66  91 115 152 200 248 305 360
#     4  10  19  36  58  85 122 157 200 243 284 346
#
# _framework density 23.536342000000001
#
# number of rings (size 3 to 8) (size 9 to 14) (size 15 to 20)
#    0.000    1.714    2.857    1.286    0.000    1.714 
#    2.571    4.286    0.000    0.000    0.000    0.000 
#    0.000    0.000    0.000    0.000    0.000    0.000 
#
# Total GULP energy -77982.308670 kJ/mol
# GULP energy per Si atom -5570.164905 kJ/mol
# Density = 2.348277 g / cm^3
# Si number density = 23.536342 Si / 1000 Ang^3
#
#
#
# Elastic Constant Matrix: (Units=GPa)
#
#
# Indices 1 2 3 4 5 6 
#
# 1 151.7542 73.6371 46.3020 7.2570 17.2133 6.7097
# 2 73.6371 74.5898 22.3367 -7.9077 5.7825 19.3637
# 3 46.3020 22.3367 79.4779 14.0058 -2.3525 4.0355
# 4 7.2570 -7.9077 14.0058 24.5341 -4.6143 6.6942
# 5 17.2133 5.7825 -2.3525 -4.6143 44.6694 -2.4148
# 6 6.7097 19.3637 4.0355 6.6942 -2.4148 45.1168
#
#
#
# Elastic Compliance Matrix: (Units=1/GPa)
#
#
# Indices 1 2 3 4 5 6 
#
# 1 0.018169 -0.019966 -0.003218 -0.013142 -0.005522 0.007809
# 2 -0.019966 0.041619 -0.003818 0.027255 0.003927 -0.018386
# 3 -0.003218 -0.003818 0.017308 -0.010445 0.001686 0.002209
# 4 -0.013142 0.027255 -0.010445 0.065632 0.006783 -0.018184
# 5 -0.005522 0.003927 0.001686 0.006783 0.024758 -0.000696
# 6 0.007809 -0.018386 0.002209 -0.018184 -0.000696 0.031357
#
#
# Mechanical properties :
#
#
# Convention : Reuss Voigt Hill
#
# Bulk Modulus (GPa) = 43.30386 65.59704 54.45045
# Shear Modulus (GPa) = 19.19052 33.76713 26.47882
#
# Velocity S-wave (km/s) = 2.85854 3.79183 3.35777
# Velocity P-wave (km/s) = 5.41606 6.86306 6.18204
#
# Compressibility (1/GPa) = 0.02309263
#
# Stress axis : x y z
#
# Youngs Moduli (GPa) = 55.03807 24.02735 57.77646
#
# Poissons Ratio (x) = 0.47974 0.18590
# Poissons Ratio (y) = 1.09890 0.22060
# Poissons Ratio (z) = 0.17709 0.09174
#
# Static dielectric constant tensor:
#      x y z
#    x 2.026400 -0.062020 0.023020 
#    y -0.062020 1.954940 -0.033470 
#    z 0.023020 -0.033470 1.841880 
# 
# From -- ./inp_files/36391.got.cif
#   From: 2010.05.17/outbox.cif.g08.bks.cpg/sg2_19_cif.got.tgz:36391.got - 2010.06.03 11:33:40.
