data_PCOD9086519
_publ_section_title
;
Structure prediction by ZEFSAII (Michael W. Deem and Ramdas Pophale) SiO2 
 PCOD9086519
Probable space group: P -1
;
_chemical_formula_sum "Si O2"
_cell_formula_units_Z 16
_cell_length_a 13.172887
_cell_length_b 11.114863
_cell_length_c 5.776168
_cell_angle_alpha 73.529441
_cell_angle_beta 119.267283
_cell_angle_gamma 123.186931
_cell_volume 617.276322
_symmetry_space_group_name_H-M "P -1"
_symmetry_group_IT_number 2
_symmetry_cell_setting 'triclinic'
loop_
_space_group_symop_operation_xyz
x,y,z
-x,-y,-z
loop_
_atom_site_type_symbol
_atom_site_label
_atom_site_fract_x
_atom_site_fract_y
_atom_site_fract_z
Si Si1 0.376476 0.007625 0.965895
Si Si2 0.807459 0.291967 0.836600
Si Si3 0.678349 0.463480 0.478371
Si Si4 0.700183 0.829073 0.913135
Si Si5 0.936413 0.552280 0.202049
Si Si6 0.890634 0.783212 0.496257
Si Si7 0.141565 0.990108 0.401700
Si Si8 0.660842 0.540979 0.918024
O O1 0.407077 0.135212 0.112218
O O2 0.278934 0.018833 0.662037
O O3 0.500000 0.000000 0.000000
O O4 0.287165 0.859731 0.079405
O O5 0.720649 0.342054 0.559031
O O6 0.937276 0.310228 0.841310
O O7 0.869714 0.414663 0.034344
O O8 0.816518 0.617472 0.575023
O O9 0.609958 0.473909 0.156379
O O10 0.616224 0.451151 0.675510
O O11 0.780039 0.798419 0.216223
O O12 0.649090 0.684383 0.786696
O O13 0.809219 0.970334 0.825926
O O14 0.816097 0.582555 0.103055
O O15 0.000000 0.500000 0.500000
O O16 0.025562 0.843961 0.464915
O O17 0.909746 0.895172 0.659242
#
# Coordination Sequence:
#
# PCOD9086519 Si02
#       8
#     2   2   2   2   2   2   2   2
#     4  11  27  45  61  87 129 186 241 278 320 395
#     4  10  23  37  60  90 133 175 216 273 340 404
#     4  10  19  36  58  95 133 167 203 269 340 418
#     4  10  21  39  62  90 127 173 221 282 334 403
#     4  10  20  36  61 100 133 167 203 270 354 426
#     4   9  19  32  59  98 130 153 203 268 351 413
#     4  10  20  36  60  88 127 169 213 271 333 400
#     4  10  20  34  64  94 137 163 212 266 344 417
#
# _framework density 25.920318999999999
#
# number of rings (size 3 to 8) (size 9 to 14) (size 15 to 20)
#    0.000    2.000    2.500    0.375    5.250    4.500 
#    0.000    0.000    0.000    9.750    0.000    0.000 
#    0.000    0.000    0.000    0.000    0.000    0.000 
#
# Total GULP energy -89446.907172 kJ/mol
# GULP energy per Si atom -5590.431698 kJ/mol
# Density = 2.586132 g / cm^3
# Si number density = 25.920319 Si / 1000 Ang^3
#
#
#
# Elastic Constant Matrix: (Units=GPa)
#
#
# Indices 1 2 3 4 5 6 
#
# 1 168.8026 51.9759 46.5266 10.1110 13.4842 -22.6051
# 2 51.9759 77.5626 29.6422 -23.4010 3.9251 -3.5637
# 3 46.5266 29.6422 104.7963 -17.1209 -2.8562 2.3367
# 4 10.1110 -23.4010 -17.1209 29.9516 -5.0932 0.4581
# 5 13.4842 3.9251 -2.8562 -5.0932 32.9154 3.3746
# 6 -22.6051 -3.5637 2.3367 0.4581 3.3746 38.1719
#
#
#
# Elastic Compliance Matrix: (Units=1/GPa)
#
#
# Indices 1 2 3 4 5 6 
#
# 1 0.014939 -0.012719 -0.006863 -0.020630 -0.009329 0.009152
# 2 -0.012719 0.028657 0.002699 0.029545 0.007216 -0.006015
# 3 -0.006863 0.002699 0.014381 0.013823 0.006433 -0.005427
# 4 -0.020630 0.029545 0.013823 0.074767 0.019018 -0.012883
# 5 -0.009329 0.007216 0.006433 0.019018 0.037746 -0.008810
# 6 0.009152 -0.006015 -0.005427 -0.012883 -0.008810 0.032321
#
#
# Mechanical properties :
#
#
# Convention : Reuss Voigt Hill
#
# Bulk Modulus (GPa) = 41.30700 67.49453 54.40077
# Shear Modulus (GPa) = 20.43750 35.07556 27.75653
#
# Velocity S-wave (km/s) = 2.81102 3.68259 3.27592
# Velocity P-wave (km/s) = 5.14845 6.64663 5.94492
#
# Compressibility (1/GPa) = 0.02420897
#
# Stress axis : x y z
#
# Youngs Moduli (GPa) = 66.94049 34.89521 69.53781
#
# Poissons Ratio (x) = 0.44384 0.47726
# Poissons Ratio (y) = 0.85143 -0.18767
# Poissons Ratio (z) = 0.45943 -0.09418
#
# Static dielectric constant tensor:
#      x y z
#    x 2.070310 -0.035780 -0.040680 
#    y -0.035780 2.089060 0.072690 
#    z -0.040680 0.072690 2.115720 
# 
# From -- ./inp_files/69261.got.cif
#   From: 2010.05.17/outbox.cif.g08.bks.cpg/sg2_35_cif.got.tgz:69261.got - 2010.06.03 11:33:40.
