data_PCOD9086164
_publ_section_title
;
Structure prediction by ZEFSAII (Michael W. Deem and Ramdas Pophale) SiO2 
 PCOD9086164
Probable space group: P -1
;
_chemical_formula_sum "Si O2"
_cell_formula_units_Z 14
_cell_length_a 8.807342
_cell_length_b 10.449025
_cell_length_c 9.526596
_cell_angle_alpha 63.436560
_cell_angle_beta 123.571312
_cell_angle_gamma 83.725082
_cell_volume 573.722397
_symmetry_space_group_name_H-M "P -1"
_symmetry_group_IT_number 2
_symmetry_cell_setting 'triclinic'
loop_
_space_group_symop_operation_xyz
x,y,z
-x,-y,-z
loop_
_atom_site_type_symbol
_atom_site_label
_atom_site_fract_x
_atom_site_fract_y
_atom_site_fract_z
Si Si1 0.767938 0.558617 0.913808
Si Si2 0.800972 0.646704 0.181567
Si Si3 0.597148 0.120900 0.019676
Si Si4 0.416949 0.828984 0.435442
Si Si5 0.902547 0.307546 0.317662
Si Si6 0.323681 0.022375 0.580875
Si Si7 0.985594 0.140148 0.730694
O O1 0.595746 0.652015 0.662970
O O2 0.732025 0.682865 0.963824
O O3 0.747615 0.415390 0.059672
O O4 0.000000 0.500000 0.000000
O O5 0.933393 0.451907 0.336391
O O6 0.921061 0.745096 0.228140
O O7 0.606915 0.703097 0.162163
O O8 0.666711 0.091978 0.232133
O O9 0.818953 0.040877 0.095276
O O10 0.500000 0.000000 0.000000
O O11 0.515476 0.907774 0.344124
O O12 0.203042 0.837294 0.280088
O O13 0.357293 0.943536 0.485963
O O14 0.884171 0.210530 0.489489
O O15 0.101358 0.179397 0.399755
#
# Coordination Sequence:
#
# PCOD9086164 Si02
#       7
#     2   2   2   2   2   2   2
#     4  10  19  36  57  81 107 150 181 214 279 333
#     4   9  18  37  58  77 113 147 175 223 278 327
#     4   9  18  35  58  79 110 145 181 218 272 330
#     4  11  21  35  58  80 114 140 186 231 267 320
#     4   9  19  33  60  77 109 145 188 212 276 328
#     4  10  19  36  56  80 106 155 180 216 282 329
#     4  10  21  35  56  88 107 140 189 231 263 316
#
# _framework density 24.402042999999999
#
# number of rings (size 3 to 8) (size 9 to 14) (size 15 to 20)
#    0.857    1.429    2.857    0.429    0.000    2.857 
#    0.000    5.714    0.000    0.000    0.000    0.000 
#    0.000    0.000    0.000    0.000    0.000    0.000 
#
# Total GULP energy -78028.537640 kJ/mol
# GULP energy per Si atom -5573.466974 kJ/mol
# Density = 2.434650 g / cm^3
# Si number density = 24.402043 Si / 1000 Ang^3
#
#
#
# Elastic Constant Matrix: (Units=GPa)
#
#
# Indices 1 2 3 4 5 6 
#
# 1 87.5117 4.0290 41.1720 -1.2875 2.4306 5.6690
# 2 4.0290 39.6519 22.0449 -7.4978 12.3941 -9.7135
# 3 41.1720 22.0449 82.8284 -8.3935 3.6533 -6.6238
# 4 -1.2875 -7.4978 -8.3935 29.7832 -8.4532 9.3103
# 5 2.4306 12.3941 3.6533 -8.4532 42.0277 5.3267
# 6 5.6690 -9.7135 -6.6238 9.3103 5.3267 28.4670
#
#
#
# Elastic Compliance Matrix: (Units=1/GPa)
#
#
# Indices 1 2 3 4 5 6 
#
# 1 0.015735 0.002299 -0.008763 0.000082 -0.000256 -0.004367
# 2 0.002299 0.036892 -0.009506 -0.000499 -0.011845 0.012298
# 3 -0.008763 -0.009506 0.019284 0.002668 0.001949 0.001751
# 4 0.000082 -0.000499 0.002668 0.041860 0.010253 -0.015175
# 5 -0.000256 -0.011845 0.001949 0.010253 0.030798 -0.012654
# 6 -0.004367 0.012298 0.001751 -0.015175 -0.012654 0.047933
#
#
# Mechanical properties :
#
#
# Convention : Reuss Voigt Hill
#
# Bulk Modulus (GPa) = 25.01879 38.27600 31.64740
# Shear Modulus (GPa) = 21.02915 29.57197 25.30056
#
# Velocity S-wave (km/s) = 2.93879 3.48496 3.22346
# Velocity P-wave (km/s) = 4.66801 5.64915 5.18185
#
# Compressibility (1/GPa) = 0.03996995
#
# Stress axis : x y z
#
# Youngs Moduli (GPa) = 63.55170 27.10631 51.85747
#
# Poissons Ratio (x) = -0.06231 0.45443
# Poissons Ratio (y) = -0.14610 0.49296
# Poissons Ratio (z) = 0.55691 0.25768
#
# Static dielectric constant tensor:
#      x y z
#    x 1.980520 0.025590 -0.001200 
#    y 0.025590 1.945550 0.026940 
#    z -0.001200 0.026940 2.047450 
# 
# From -- ./inp_files/197929.got.cif
#   From: 2010.05.17/outbox.cif.g08.bks.cpg/sg2_99_cif.got.tgz:197929.got - 2010.06.03 11:33:40.
