data_PCOD9086429
_publ_section_title
;
Structure prediction by ZEFSAII (Michael W. Deem and Ramdas Pophale) SiO2 
 PCOD9086429
Probable space group: P -1
;
_chemical_formula_sum "Si O2"
_cell_formula_units_Z 16
_cell_length_a 8.067077
_cell_length_b 15.795037
_cell_length_c 21.325146
_cell_angle_alpha 22.439947
_cell_angle_beta 136.378297
_cell_angle_gamma 133.268402
_cell_volume 714.191288
_symmetry_space_group_name_H-M "P -1"
_symmetry_group_IT_number 2
_symmetry_cell_setting 'triclinic'
loop_
_space_group_symop_operation_xyz
x,y,z
-x,-y,-z
loop_
_atom_site_type_symbol
_atom_site_label
_atom_site_fract_x
_atom_site_fract_y
_atom_site_fract_z
Si Si1 0.906704 0.986189 0.641207
Si Si2 0.568098 0.644095 0.326570
Si Si3 0.720037 0.854754 0.547814
Si Si4 0.361350 0.455972 0.730017
Si Si5 0.758732 0.135860 0.073807
Si Si6 0.087950 0.482309 0.868931
Si Si7 0.114006 0.486127 0.381839
Si Si8 0.481474 0.280217 0.203603
O O1 0.881128 0.932558 0.598137
O O2 0.658733 0.869608 0.680588
O O3 0.099946 0.877455 0.813357
O O4 0.997504 0.242485 0.499390
O O5 0.643301 0.573960 0.326053
O O6 0.288860 0.584105 0.308325
O O7 0.719918 0.528164 0.501040
O O8 0.642954 0.902523 0.179020
O O9 0.478405 0.704407 0.601037
O O10 0.894935 0.674103 0.688980
O O11 0.614352 0.084480 0.334550
O O12 0.112674 0.391531 0.739686
O O13 0.553365 0.299262 0.916541
O O14 0.932276 0.249614 0.989903
O O15 0.290909 0.560185 0.820603
O O16 0.281944 0.430739 0.013875
#
# Coordination Sequence:
#
# PCOD9086429 Si02
#       8
#     2   2   2   2   2   2   2   2
#     4  10  21  40  60  86 129 160 200 262 313 374
#     4  10  22  42  66  86 126 162 207 267 311 366
#     4  11  22  38  61  92 127 166 205 256 319 381
#     4  11  22  39  65  95 119 165 214 253 317 383
#     4   9  21  40  61  85 125 164 203 262 315 362
#     4   9  21  36  57  87 121 160 209 250 313 373
#     4  10  22  41  64  93 120 162 211 257 315 377
#     4  10  19  36  58  84 121 164 200 253 307 373
#
# _framework density 22.402961000000001
#
# number of rings (size 3 to 8) (size 9 to 14) (size 15 to 20)
#    0.000    2.000    1.250    1.500    0.000    8.000 
#    0.000    0.000    8.250    0.000    0.000    0.000 
#    0.000    0.000    0.000    0.000    0.000    0.000 
#
# Total GULP energy -89083.531669 kJ/mol
# GULP energy per Si atom -5567.720729 kJ/mol
# Density = 2.235197 g / cm^3
# Si number density = 22.402961 Si / 1000 Ang^3
#
#
#
# Elastic Constant Matrix: (Units=GPa)
#
#
# Indices 1 2 3 4 5 6 
#
# 1 87.4897 46.4896 22.9577 -6.2959 -7.5130 35.1109
# 2 46.4896 96.0450 26.7698 8.2158 -2.6779 10.0190
# 3 22.9577 26.7698 105.7135 10.8140 0.1284 3.3592
# 4 -6.2959 8.2158 10.8140 27.4383 -1.6873 -19.5722
# 5 -7.5130 -2.6779 0.1284 -1.6873 15.5919 -5.5459
# 6 35.1109 10.0190 3.3592 -19.5722 -5.5459 56.0100
#
#
#
# Elastic Compliance Matrix: (Units=1/GPa)
#
#
# Indices 1 2 3 4 5 6 
#
# 1 0.021473 -0.008552 -0.002240 0.000834 0.005073 -0.011003
# 2 -0.008552 0.015341 -0.001455 -0.005736 -0.001913 0.000510
# 3 -0.002240 -0.001455 0.010891 -0.005278 -0.002370 -0.001068
# 4 0.000834 -0.005736 -0.005278 0.057012 0.013482 0.022077
# 5 0.005073 -0.001913 -0.002370 0.013482 0.070946 0.009040
# 6 -0.011003 0.000510 -0.001068 0.022077 0.009040 0.033334
#
#
# Mechanical properties :
#
#
# Convention : Reuss Voigt Hill
#
# Bulk Modulus (GPa) = 43.07921 53.52026 48.29974
# Shear Modulus (GPa) = 20.72748 32.67679 26.70213
#
# Velocity S-wave (km/s) = 3.04503 3.82330 3.45614
# Velocity P-wave (km/s) = 5.62440 6.59028 6.12641
#
# Compressibility (1/GPa) = 0.02321305
#
# Stress axis : x y z
#
# Youngs Moduli (GPa) = 46.57006 65.18598 91.81875
#
# Poissons Ratio (x) = 0.55745 0.20563
# Poissons Ratio (y) = 0.39825 0.13357
# Poissons Ratio (z) = 0.10429 0.09482
#
# Static dielectric constant tensor:
#      x y z
#    x 1.906800 0.013070 -0.010320 
#    y 0.013070 1.839260 -0.011210 
#    z -0.010320 -0.011210 1.876340 
# 
# From -- ./inp_files/608384.got.cif
#   From: 2010.05.17/outbox.cif.g08.bks.cpg/sg2_305_cif.got.tgz:608384.got - 2010.06.03 11:33:40.
