data_PCOD9086183
_publ_section_title
;
Structure prediction by ZEFSAII (Michael W. Deem and Ramdas Pophale) SiO2 
 PCOD9086183
Probable space group: P -1
;
_chemical_formula_sum "Si O2"
_cell_formula_units_Z 14
_cell_length_a 9.710042
_cell_length_b 12.191264
_cell_length_c 10.970581
_cell_angle_alpha 75.029106
_cell_angle_beta 110.615295
_cell_angle_gamma 43.720971
_cell_volume 512.132971
_symmetry_space_group_name_H-M "P -1"
_symmetry_group_IT_number 2
_symmetry_cell_setting 'triclinic'
loop_
_space_group_symop_operation_xyz
x,y,z
-x,-y,-z
loop_
_atom_site_type_symbol
_atom_site_label
_atom_site_fract_x
_atom_site_fract_y
_atom_site_fract_z
Si Si1 0.211755 0.734678 0.550423
Si Si2 0.370119 0.964917 0.280978
Si Si3 0.213266 0.784861 0.862441
Si Si4 0.202873 0.494109 0.185093
Si Si5 0.285796 0.883917 0.067419
Si Si6 0.652127 0.980873 0.370608
Si Si7 0.021741 0.707134 0.312676
O O1 0.939712 0.012398 0.330728
O O2 0.530910 0.587157 0.724735
O O3 0.010588 0.181133 0.447616
O O4 0.301069 0.580317 0.517044
O O5 0.623553 0.875669 0.449353
O O6 0.116253 0.057822 0.244181
O O7 0.124126 0.232469 0.066168
O O8 0.513100 0.785104 0.269254
O O9 0.410712 0.719307 0.046689
O O10 0.500000 0.500000 0.000000
O O11 0.363895 0.270153 0.239384
O O12 0.138856 0.530451 0.302449
O O13 0.117474 0.105091 0.880808
O O14 0.000000 0.000000 0.000000
O O15 0.737089 0.893281 0.276847
#
# Coordination Sequence:
#
# PCOD9086183 Si02
#       7
#     2   2   2   2   2   2   2
#     4   9  20  37  57  81 113 146 188 228 273 336
#     4  10  21  35  57  84 113 141 186 234 278 323
#     4  10  19  36  56  83 110 149 186 227 273 337
#     4  11  19  35  59  85 109 149 186 228 276 332
#     4   8  16  32  52  77 108 143 178 224 270 322
#     4  10  21  35  53  88 116 140 184 236 277 325
#     4   8  19  33  55  82 112 141 187 226 277 321
#
# _framework density 27.336649999999999
#
# number of rings (size 3 to 8) (size 9 to 14) (size 15 to 20)
#    0.857    1.714    0.000    2.143    0.000    2.286 
#    2.571    0.714    0.000    2.571    0.000    0.000 
#    0.000    0.000    0.000    0.000    0.000    0.000 
#
# Total GULP energy -78154.901303 kJ/mol
# GULP energy per Si atom -5582.492950 kJ/mol
# Density = 2.727443 g / cm^3
# Si number density = 27.336650 Si / 1000 Ang^3
#
#
#
# Elastic Constant Matrix: (Units=GPa)
#
#
# Indices 1 2 3 4 5 6 
#
# 1 127.9559 65.4417 39.2013 10.3119 19.6498 31.6485
# 2 65.4417 201.2759 19.8059 -1.6926 5.5733 20.4565
# 3 39.2013 19.8059 50.5694 -8.9791 3.0202 -0.7210
# 4 10.3119 -1.6926 -8.9791 40.8208 7.0716 -3.1010
# 5 19.6498 5.5733 3.0202 7.0716 33.0086 10.1275
# 6 31.6485 20.4565 -0.7210 -3.1010 10.1275 48.5113
#
#
#
# Elastic Compliance Matrix: (Units=1/GPa)
#
#
# Indices 1 2 3 4 5 6 
#
# 1 0.017096 -0.003233 -0.013211 -0.007421 -0.003871 -0.009653
# 2 -0.003233 0.006035 0.000249 0.000932 0.000852 -0.000550
# 3 -0.013211 0.000249 0.032087 0.011244 -0.000536 0.009821
# 4 -0.007421 0.000932 0.011244 0.030455 -0.005669 0.007746
# 5 -0.003871 0.000852 -0.000536 -0.005669 0.035438 -0.005602
# 6 -0.009653 -0.000550 0.009821 0.007746 -0.005602 0.028954
#
#
# Mechanical properties :
#
#
# Convention : Reuss Voigt Hill
#
# Bulk Modulus (GPa) = 43.80385 69.85544 56.82965
# Shear Modulus (GPa) = 26.30718 41.49163 33.89941
#
# Velocity S-wave (km/s) = 3.10553 3.90012 3.52529
# Velocity P-wave (km/s) = 5.37752 6.77426 6.11589
#
# Compressibility (1/GPa) = 0.02282904
#
# Stress axis : x y z
#
# Youngs Moduli (GPa) = 58.49392 165.69902 31.16564
#
# Poissons Ratio (x) = 0.53565 0.41172
# Poissons Ratio (y) = 0.18909 -0.00776
# Poissons Ratio (z) = 0.77274 -0.04128
#
# Static dielectric constant tensor:
#      x y z
#    x 2.117320 -0.071440 -0.064630 
#    y -0.071440 2.283180 0.023980 
#    z -0.064630 0.023980 2.211040 
# 
# From -- ./inp_files/517988.got.cif
#   From: 2010.05.17/outbox.cif.g08.bks.cpg/sg2_259_cif.got.tgz:517988.got - 2010.06.03 11:33:40.
