data_PCOD9086662
_publ_section_title
;
Structure prediction by ZEFSAII (Michael W. Deem and Ramdas Pophale) SiO2 
 PCOD9086662
Probable space group: P -1
;
_chemical_formula_sum "Si O2"
_cell_formula_units_Z 14
_cell_length_a 8.482813
_cell_length_b 5.295678
_cell_length_c 17.168707
_cell_angle_alpha 75.085679
_cell_angle_beta 45.247659
_cell_angle_gamma 86.974924
_cell_volume 519.910156
_symmetry_space_group_name_H-M "P -1"
_symmetry_group_IT_number 2
_symmetry_cell_setting 'triclinic'
loop_
_space_group_symop_operation_xyz
x,y,z
-x,-y,-z
loop_
_atom_site_type_symbol
_atom_site_label
_atom_site_fract_x
_atom_site_fract_y
_atom_site_fract_z
Si Si1 0.765932 0.095521 0.469668
Si Si2 0.636657 0.693732 0.999801
Si Si3 0.818285 0.644451 0.600054
Si Si4 0.039216 0.076139 0.851202
Si Si5 0.725430 0.234521 0.087754
Si Si6 0.203292 0.319614 0.625990
Si Si7 0.678860 0.168409 0.777560
O O1 0.691742 0.384586 0.466149
O O2 0.029248 0.192530 0.397595
O O3 0.707094 0.855231 0.572209
O O4 0.720098 0.938833 0.416830
O O5 0.738892 0.544907 0.047693
O O6 0.445973 0.815624 0.098751
O O7 0.500000 0.500000 0.000000
O O8 0.859388 0.879890 0.875546
O O9 0.637011 0.399981 0.714421
O O10 0.000000 0.500000 0.500000
O O11 0.192752 0.900287 0.855159
O O12 0.179722 0.298137 0.729094
O O13 0.878174 0.169551 0.965929
O O14 0.460134 0.108444 0.182202
O O15 0.943576 0.254575 0.690897
#
# Coordination Sequence:
#
# PCOD9086662 Si02
#       7
#     2   2   2   2   2   2   2
#     4  10  21  35  57  93 122 155 203 256 313 366
#     4  11  22  36  60  92 124 157 201 259 306 369
#     4  10  19  36  59  91 126 157 197 263 318 365
#     4  10  23  39  58  83 123 171 206 250 306 373
#     4  10  22  40  57  85 124 164 212 246 307 376
#     4  11  22  37  61  93 121 162 206 257 310 364
#     4  10  22  35  59  92 118 155 206 252 314 361
#
# _framework density 26.927727999999998
#
# number of rings (size 3 to 8) (size 9 to 14) (size 15 to 20)
#    0.000    1.714    2.857    2.143   10.000    2.286 
#    0.000    0.000    0.000    1.714    0.000    0.000 
#    0.000    0.000    0.000    0.000    0.000    0.000 
#
# Total GULP energy -78206.025482 kJ/mol
# GULP energy per Si atom -5586.144677 kJ/mol
# Density = 2.686644 g / cm^3
# Si number density = 26.927728 Si / 1000 Ang^3
#
#
#
# Elastic Constant Matrix: (Units=GPa)
#
#
# Indices 1 2 3 4 5 6 
#
# 1 73.5498 22.1404 11.4308 4.8618 9.8142 -10.3582
# 2 22.1404 115.1736 36.9053 -22.5681 5.7207 -14.5760
# 3 11.4308 36.9053 112.8574 -24.8664 16.5252 -4.6747
# 4 4.8618 -22.5681 -24.8664 53.0589 -14.2652 7.5870
# 5 9.8142 5.7207 16.5252 -14.2652 35.7780 -13.2609
# 6 -10.3582 -14.5760 -4.6747 7.5870 -13.2609 55.1024
#
#
#
# Elastic Compliance Matrix: (Units=1/GPa)
#
#
# Indices 1 2 3 4 5 6 
#
# 1 0.015880 -0.003287 -0.000815 -0.004739 -0.004769 0.001552
# 2 -0.003287 0.011149 -0.002710 0.004230 0.002877 0.002211
# 3 -0.000815 -0.002710 0.011031 0.003307 -0.003584 -0.001252
# 4 -0.004739 0.004230 0.003307 0.025116 0.008802 -0.000831
# 5 -0.004769 0.002877 -0.003584 0.008802 0.036617 0.007161
# 6 0.001552 0.002211 -0.001252 -0.000831 0.007161 0.020756
#
#
# Mechanical properties :
#
#
# Convention : Reuss Voigt Hill
#
# Bulk Modulus (GPa) = 40.92479 49.17041 45.04760
# Shear Modulus (GPa) = 35.13208 44.19481 39.66344
#
# Velocity S-wave (km/s) = 3.61595 4.05561 3.84208
# Velocity P-wave (km/s) = 5.71529 6.34275 6.03718
#
# Compressibility (1/GPa) = 0.02443507
#
# Stress axis : x y z
#
# Youngs Moduli (GPa) = 62.97035 89.69575 90.65185
#
# Poissons Ratio (x) = 0.29483 0.07391
# Poissons Ratio (y) = 0.20698 0.24571
# Poissons Ratio (z) = 0.05134 0.24312
#
# Static dielectric constant tensor:
#      x y z
#    x 2.196730 -0.058720 0.037990 
#    y -0.058720 2.181760 0.043460 
#    z 0.037990 0.043460 2.067170 
# 
# From -- ./inp_files/45072.got.cif
#   From: 2010.05.17/outbox.cif.g08.bks.cpg/sg2_23_cif.got.tgz:45072.got - 2010.06.03 11:33:40.
