data_PCOD9086679
_publ_section_title
;
Structure prediction by ZEFSAII (Michael W. Deem and Ramdas Pophale) SiO2 
 PCOD9086679
Probable space group: P -1
;
_chemical_formula_sum "Si O2"
_cell_formula_units_Z 16
_cell_length_a 13.271227
_cell_length_b 9.097623
_cell_length_c 21.921579
_cell_angle_alpha 146.070851
_cell_angle_beta 30.788912
_cell_angle_gamma 129.808837
_cell_volume 731.415783
_symmetry_space_group_name_H-M "P -1"
_symmetry_group_IT_number 2
_symmetry_cell_setting 'triclinic'
loop_
_space_group_symop_operation_xyz
x,y,z
-x,-y,-z
loop_
_atom_site_type_symbol
_atom_site_label
_atom_site_fract_x
_atom_site_fract_y
_atom_site_fract_z
Si Si1 0.912888 0.704823 0.062101
Si Si2 0.172706 0.993038 0.958842
Si Si3 0.068215 0.912398 0.584922
Si Si4 0.496725 0.850677 0.386712
Si Si5 0.981074 0.605872 0.641950
Si Si6 0.558501 0.665648 0.694279
Si Si7 0.780092 0.463485 0.926489
Si Si8 0.545008 0.848382 0.990100
O O1 0.688120 0.867507 0.253409
O O2 0.889209 0.533389 0.955261
O O3 0.058655 0.902823 0.044393
O O4 0.000000 0.500000 0.000000
O O5 0.231136 0.278423 0.021612
O O6 0.385086 0.760150 0.765847
O O7 0.000000 0.000000 0.000000
O O8 0.289310 0.958403 0.495576
O O9 0.993557 0.833563 0.663054
O O10 0.075042 0.647534 0.450286
O O11 0.919452 0.185011 0.731484
O O12 0.502461 0.543839 0.298750
O O13 0.500000 0.000000 0.500000
O O14 0.215198 0.479808 0.497427
O O15 0.787932 0.730298 0.827171
O O16 0.545492 0.932084 0.834544
O O17 0.569089 0.393349 0.029221
O O18 0.500000 0.000000 0.000000
#
# Coordination Sequence:
#
# PCOD9086679 Si02
#       8
#     2   2   2   2   2   2   2   2
#     4  11  21  40  67  96 120 172 234 269 325 402
#     4  10  25  43  67  91 134 181 221 275 339 399
#     4  10  19  36  59  94 133 167 207 276 333 385
#     4  11  23  36  66  99 130 164 225 286 332 382
#     4  10  20  37  62  99 130 164 221 273 325 389
#     4  11  23  42  64  96 135 171 219 276 339 392
#     4  11  22  40  67  96 135 176 216 273 343 395
#     4  12  21  37  70 102 131 172 222 274 334 402
#
# _framework density 21.875381000000001
#
# number of rings (size 3 to 8) (size 9 to 14) (size 15 to 20)
#    0.000    1.250    3.750    3.750    1.750    2.500 
#    0.000    1.250    8.250    0.000    0.000    0.000 
#    0.000    0.000    0.000    0.000    0.000    0.000 
#
# Total GULP energy -89396.860633 kJ/mol
# GULP energy per Si atom -5587.303790 kJ/mol
# Density = 2.182559 g / cm^3
# Si number density = 21.875381 Si / 1000 Ang^3
#
#
#
# Elastic Constant Matrix: (Units=GPa)
#
#
# Indices 1 2 3 4 5 6 
#
# 1 65.3017 24.9690 17.0756 -4.5411 -17.5626 9.1578
# 2 24.9690 161.7977 55.1282 -1.1774 -14.2697 15.6751
# 3 17.0756 55.1282 102.9626 -10.5347 -31.5301 10.1011
# 4 -4.5411 -1.1774 -10.5347 26.2219 12.0041 -9.5736
# 5 -17.5626 -14.2697 -31.5301 12.0041 41.1504 0.3576
# 6 9.1578 15.6751 10.1011 -9.5736 0.3576 32.5598
#
#
#
# Elastic Compliance Matrix: (Units=1/GPa)
#
#
# Indices 1 2 3 4 5 6 
#
# 1 0.018774 -0.001911 0.000887 -0.002508 0.008809 -0.005470
# 2 -0.001911 0.008096 -0.004126 -0.002448 -0.000431 -0.002795
# 3 0.000887 -0.004126 0.015376 0.000094 0.010729 -0.003123
# 4 -0.002508 -0.002448 0.000094 0.051758 -0.017096 0.017261
# 5 0.008809 -0.000431 0.010729 -0.017096 0.041215 -0.011078
# 6 -0.005470 -0.002795 -0.003123 0.017261 -0.011078 0.039763
#
#
# Mechanical properties :
#
#
# Convention : Reuss Voigt Hill
#
# Bulk Modulus (GPa) = 31.30296 58.26751 44.78524
# Shear Modulus (GPa) = 25.51927 35.51237 30.51582
#
# Velocity S-wave (km/s) = 3.41922 4.03351 3.73900
# Velocity P-wave (km/s) = 5.47073 6.95602 6.25760
#
# Compressibility (1/GPa) = 0.03194586
#
# Stress axis : x y z
#
# Youngs Moduli (GPa) = 53.26525 123.51200 65.03669
#
# Poissons Ratio (x) = 0.23603 -0.05770
# Poissons Ratio (y) = 0.10179 0.26836
# Poissons Ratio (z) = -0.04725 0.50965
#
# Static dielectric constant tensor:
#      x y z
#    x 1.843470 0.006970 -0.004450 
#    y 0.006970 1.786340 -0.022440 
#    z -0.004450 -0.022440 1.820140 
# 
# From -- ./inp_files/611782.got.cif
#   From: 2010.05.17/outbox.cif.g08.bks.cpg/sg2_306_cif.got.tgz:611782.got - 2010.06.03 11:33:40.
