data_PCOD9086880
_publ_section_title
;
Structure prediction by ZEFSAII (Michael W. Deem and Ramdas Pophale) SiO2 
 PCOD9086880
Probable space group: P -1
;
_chemical_formula_sum "Si O2"
_cell_formula_units_Z 14
_cell_length_a 9.035275
_cell_length_b 8.199224
_cell_length_c 8.042690
_cell_angle_alpha 85.184330
_cell_angle_beta 72.144312
_cell_angle_gamma 81.245177
_cell_volume 560.072933
_symmetry_space_group_name_H-M "P -1"
_symmetry_group_IT_number 2
_symmetry_cell_setting 'triclinic'
loop_
_space_group_symop_operation_xyz
x,y,z
-x,-y,-z
loop_
_atom_site_type_symbol
_atom_site_label
_atom_site_fract_x
_atom_site_fract_y
_atom_site_fract_z
Si Si1 0.092678 0.608672 0.083674
Si Si2 0.727799 0.607297 0.680603
Si Si3 0.622643 0.973922 0.109061
Si Si4 0.382519 0.684258 0.753769
Si Si5 0.212575 0.218706 0.680858
Si Si6 0.197731 0.867815 0.544647
Si Si7 0.155915 0.073756 0.236015
O O1 0.161647 0.522675 0.237117
O O2 0.956269 0.749526 0.177487
O O3 0.242025 0.645470 0.922847
O O4 0.000000 0.500000 0.000000
O O5 0.547358 0.574756 0.738029
O O6 0.775544 0.640977 0.471537
O O7 0.747386 0.779357 0.754139
O O8 0.648673 0.809580 0.227180
O O9 0.584864 0.132404 0.222495
O O10 0.791544 0.972621 0.963232
O O11 0.500000 0.000000 0.000000
O O12 0.315744 0.716729 0.587703
O O13 0.227299 0.044827 0.594586
O O14 0.023016 0.853702 0.671019
O O15 0.195633 0.908880 0.347697
#
# Coordination Sequence:
#
# PCOD9086880 Si02
#       7
#     2   2   2   2   2   2   2
#     4  12  25  43  64  83 120 167 210 240 286 361
#     4  11  23  40  62  88 125 160 199 245 298 354
#     4  11  21  35  64  93 123 147 193 252 307 352
#     4  11  23  39  62  91 124 152 199 251 307 344
#     4  10  23  40  63  87 120 162 199 247 301 354
#     4   9  20  36  62  90 121 154 193 251 303 362
#     4  10  19  36  60  94 120 155 199 238 306 359
#
# _framework density 24.996746000000002
#
# number of rings (size 3 to 8) (size 9 to 14) (size 15 to 20)
#    0.000    1.429    1.429    4.286    2.000    4.000 
#    0.000    2.143    0.000    0.000    0.000    0.000 
#    0.000    0.000    0.000    0.000    0.000    0.000 
#
# Total GULP energy -78271.252773 kJ/mol
# GULP energy per Si atom -5590.803769 kJ/mol
# Density = 2.493985 g / cm^3
# Si number density = 24.996746 Si / 1000 Ang^3
#
#
#
# Elastic Constant Matrix: (Units=GPa)
#
#
# Indices 1 2 3 4 5 6 
#
# 1 148.5107 33.6183 49.6642 -36.1411 23.2933 -35.1302
# 2 33.6183 46.5796 13.9144 -6.7199 12.3039 -11.2281
# 3 49.6642 13.9144 86.6906 -20.4202 19.7020 -32.3129
# 4 -36.1411 -6.7199 -20.4202 27.6540 -11.9562 10.3306
# 5 23.2933 12.3039 19.7020 -11.9562 46.7109 -15.4090
# 6 -35.1302 -11.2281 -32.3129 10.3306 -15.4090 31.7766
#
#
#
# Elastic Compliance Matrix: (Units=1/GPa)
#
#
# Indices 1 2 3 4 5 6 
#
# 1 0.013118 -0.005767 -0.000901 0.012606 0.001240 0.008052
# 2 -0.005767 0.026782 -0.000117 -0.003796 -0.004422 0.002059
# 3 -0.000901 -0.000117 0.020174 0.007116 -0.000650 0.016849
# 4 0.012606 -0.003796 0.007116 0.058792 0.008330 0.004757
# 5 0.001240 -0.004422 -0.000650 0.008330 0.027602 0.009824
# 6 0.008052 0.002059 0.016849 0.004757 0.009824 0.061450
#
#
# Mechanical properties :
#
#
# Convention : Reuss Voigt Hill
#
# Bulk Modulus (GPa) = 21.50240 52.90828 37.20534
# Shear Modulus (GPa) = 21.09797 33.53390 27.31594
#
# Velocity S-wave (km/s) = 2.90837 3.66666 3.30931
# Velocity P-wave (km/s) = 4.46082 6.25603 5.43309
#
# Compressibility (1/GPa) = 0.04650643
#
# Stress axis : x y z
#
# Youngs Moduli (GPa) = 76.23064 37.33800 49.56801
#
# Poissons Ratio (x) = 0.21532 0.04465
# Poissons Ratio (y) = 0.43960 0.00578
# Poissons Ratio (z) = 0.06867 0.00435
#
# Static dielectric constant tensor:
#      x y z
#    x 2.067080 -0.015370 0.074300 
#    y -0.015370 1.999110 -0.026400 
#    z 0.074300 -0.026400 2.016020 
# 
# From -- ./inp_files/157183.got.cif
#   From: 2010.05.17/outbox.cif.g08.bks.cpg/sg2_79_cif.got.tgz:157183.got - 2010.06.03 11:33:40.
