data_PCOD9086823
_publ_section_title
;
Structure prediction by ZEFSAII (Michael W. Deem and Ramdas Pophale) SiO2 
 PCOD9086823
Probable space group: P -1
;
_chemical_formula_sum "Si O2"
_cell_formula_units_Z 12
_cell_length_a 9.690563
_cell_length_b 8.152652
_cell_length_c 8.569769
_cell_angle_alpha 129.375713
_cell_angle_beta 122.553843
_cell_angle_gamma 58.211090
_cell_volume 422.889521
_symmetry_space_group_name_H-M "P -1"
_symmetry_group_IT_number 2
_symmetry_cell_setting 'triclinic'
loop_
_space_group_symop_operation_xyz
x,y,z
-x,-y,-z
loop_
_atom_site_type_symbol
_atom_site_label
_atom_site_fract_x
_atom_site_fract_y
_atom_site_fract_z
Si Si1 0.702854 0.526182 0.402125
Si Si2 0.329360 0.882931 0.365103
Si Si3 0.211538 0.176171 0.173706
Si Si4 0.478074 0.256109 0.161871
Si Si5 0.755368 0.658511 0.206118
Si Si6 0.995353 0.179986 0.742067
O O1 0.520515 0.722727 0.397666
O O2 0.850324 0.621320 0.620456
O O3 0.648736 0.327228 0.330282
O O4 0.764393 0.476682 0.232556
O O5 0.196160 0.758966 0.273336
O O6 0.284443 0.973846 0.216114
O O7 0.295436 0.100762 0.589758
O O8 0.346447 0.291031 0.243680
O O9 0.104614 0.116480 0.931682
O O10 0.396360 0.350564 0.006201
O O11 0.500000 0.000000 0.000000
O O12 0.914714 0.654580 0.188561
O O13 0.000000 0.000000 0.500000
#
# Coordination Sequence:
#
# PCOD9086823 Si02
#       6
#     2   2   2   2   2   2
#     4  11  21  35  59  90 120 153 201 253 294 345
#     4  10  19  36  60  89 122 158 194 242 295 354
#     4  10  20  35  58  90 120 156 199 241 291 356
#     4  11  21  35  56  86 119 155 199 252 302 349
#     4   9  19  35  56  84 118 157 194 236 292 355
#     4   9  19  36  60  89 126 163 193 232 297 365
#
# _framework density 28.376204999999999
#
# number of rings (size 3 to 8) (size 9 to 14) (size 15 to 20)
#    0.000    2.000    0.000    5.500    0.000    0.000 
#    0.000    3.333    0.000    8.000    0.000   31.500 
#    0.000    0.000    0.000    0.000    0.000    0.000 
#
# Total GULP energy -67081.040692 kJ/mol
# GULP energy per Si atom -5590.086724 kJ/mol
# Density = 2.831162 g / cm^3
# Si number density = 28.376205 Si / 1000 Ang^3
#
#
#
# Elastic Constant Matrix: (Units=GPa)
#
#
# Indices 1 2 3 4 5 6 
#
# 1 181.2836 35.6565 29.6524 -6.4069 13.7863 21.7631
# 2 35.6565 99.6076 75.6156 -15.9770 -2.6585 5.3608
# 3 29.6524 75.6156 203.9417 -25.6735 2.7881 0.6857
# 4 -6.4069 -15.9770 -25.6735 69.4808 12.9438 2.5489
# 5 13.7863 -2.6585 2.7881 12.9438 39.1023 0.0522
# 6 21.7631 5.3608 0.6857 2.5489 0.0522 30.0801
#
#
#
# Elastic Compliance Matrix: (Units=1/GPa)
#
#
# Indices 1 2 3 4 5 6 
#
# 1 0.006716 -0.002059 -0.000058 0.000806 -0.002765 -0.004554
# 2 -0.002059 0.014951 -0.005130 0.001068 0.001756 -0.001151
# 3 -0.000058 -0.005130 0.007038 0.001648 -0.001376 0.000659
# 4 0.000806 0.001068 0.001648 0.016479 -0.005781 -0.002198
# 5 -0.002765 0.001756 -0.001376 -0.005781 0.028677 0.002159
# 6 -0.004554 -0.001151 0.000659 -0.002198 0.002159 0.036912
#
#
# Mechanical properties :
#
#
# Convention : Reuss Voigt Hill
#
# Bulk Modulus (GPa) = 70.37149 85.18688 77.77919
# Shear Modulus (GPa) = 38.46028 50.65987 44.56008
#
# Velocity S-wave (km/s) = 3.68553 4.22986 3.96704
# Velocity P-wave (km/s) = 6.55470 7.34447 6.96080
#
# Compressibility (1/GPa) = 0.01421030
#
# Stress axis : x y z
#
# Youngs Moduli (GPa) = 148.89125 66.88653 142.08986
#
# Poissons Ratio (x) = 0.13773 0.00830
# Poissons Ratio (y) = 0.30660 0.72887
# Poissons Ratio (z) = 0.00870 0.34310
#
# Static dielectric constant tensor:
#      x y z
#    x 2.162530 -0.154260 -0.041950 
#    y -0.154260 2.270490 0.156220 
#    z -0.041950 0.156220 2.419320 
# 
# From -- ./inp_files/212323.got.cif
#   From: 2010.05.17/outbox.cif.g08.bks.cpg/sg2_107_cif.got.tgz:212323.got - 2010.06.03 11:33:40.
