data_PCOD9086661
_publ_section_title
;
Structure prediction by ZEFSAII (Michael W. Deem and Ramdas Pophale) SiO2 
 PCOD9086661
Probable space group: P -1
;
_chemical_formula_sum "Si O2"
_cell_formula_units_Z 15
_cell_length_a 7.438498
_cell_length_b 11.645680
_cell_length_c 11.330728
_cell_angle_alpha 66.418451
_cell_angle_beta 134.479626
_cell_angle_gamma 128.306371
_cell_volume 548.523090
_symmetry_space_group_name_H-M "P -1"
_symmetry_group_IT_number 2
_symmetry_cell_setting 'triclinic'
loop_
_space_group_symop_operation_xyz
x,y,z
-x,-y,-z
loop_
_atom_site_type_symbol
_atom_site_label
_atom_site_fract_x
_atom_site_fract_y
_atom_site_fract_z
Si Si1 0.449986 0.893289 0.689163
Si Si2 0.096611 0.242512 0.666589
Si Si3 0.516300 0.534833 0.631061
Si Si4 0.740856 0.395007 0.151552
Si Si5 0.261746 0.047839 0.695474
Si Si6 0.110134 0.179600 0.188749
Si Si7 0.000000 0.500000 0.000000
Si Si8 0.909452 0.697946 0.097535
O O1 0.256746 0.743581 0.740103
O O2 0.494215 0.028483 0.733382
O O3 0.745356 0.897843 0.785544
O O4 0.232662 0.862496 0.493010
O O5 0.227644 0.410053 0.616618
O O6 0.070182 0.224866 0.802259
O O7 0.298866 0.192990 0.710941
O O8 0.500000 0.500000 0.500000
O O9 0.622002 0.698568 0.656517
O O10 0.798159 0.530758 0.806952
O O11 0.966571 0.567698 0.210467
O O12 0.718067 0.398096 0.999615
O O13 0.432494 0.369055 0.070096
O O14 0.141805 0.932611 0.794364
O O15 0.000000 0.000000 0.500000
O O16 0.968051 0.239974 0.002758
#
# Coordination Sequence:
#
# PCOD9086661 Si02
#       8
#     2   2   2   2   2   2   1   2
#     4  10  23  40  70  94 132 183 222 276 347 395
#     4  11  22  41  63  98 136 168 228 283 330 412
#     4  12  24  40  69 105 135 176 232 284 340 413
#     4  10  19  36  59  91 125 171 209 264 349 383
#     4  10  23  44  66  93 137 176 220 284 339 400
#     4  11  23  45  69  96 135 177 226 274 341 412
#     4  12  20  36  64  94 140 172 208 282 344 386
#     4  10  20  38  61  88 133 170 208 278 333 388
#
# _framework density 27.346159
#
# number of rings (size 3 to 8) (size 9 to 14) (size 15 to 20)
#    0.000    1.333    2.667    4.800    0.000    5.867 
#    0.000    4.000    0.000    0.000    0.000    0.000 
#    0.000    0.000    0.000    0.000    0.000    0.000 
#
# Total GULP energy -83669.184564 kJ/mol
# GULP energy per Si atom -5577.945638 kJ/mol
# Density = 2.728392 g / cm^3
# Si number density = 27.346159 Si / 1000 Ang^3
#
#
#
# Elastic Constant Matrix: (Units=GPa)
#
#
# Indices 1 2 3 4 5 6 
#
# 1 129.5647 1.7720 14.4119 1.3225 -16.5240 -18.7436
# 2 1.7720 80.1162 12.7115 12.0874 -13.8542 -15.2137
# 3 14.4119 12.7115 109.6507 4.8678 -39.1540 -10.5938
# 4 1.3225 12.0874 4.8678 38.0396 -0.5481 -13.9600
# 5 -16.5240 -13.8542 -39.1540 -0.5481 43.6129 -0.8974
# 6 -18.7436 -15.2137 -10.5938 -13.9600 -0.8974 49.0414
#
#
#
# Elastic Compliance Matrix: (Units=1/GPa)
#
#
# Indices 1 2 3 4 5 6 
#
# 1 0.008780 0.001119 0.000633 0.000848 0.004346 0.004160
# 2 0.001119 0.014638 0.000803 -0.003107 0.005846 0.004365
# 3 0.000633 0.000803 0.014007 -0.000560 0.013137 0.003598
# 4 0.000848 -0.003107 -0.000560 0.030178 -0.000628 0.007818
# 5 0.004346 0.005846 0.013137 -0.000628 0.038359 0.006835
# 6 0.004160 0.004365 0.003598 0.007818 0.006835 0.026463
#
#
# Mechanical properties :
#
#
# Convention : Reuss Voigt Hill
#
# Bulk Modulus (GPa) = 23.51044 41.90248 32.70646
# Shear Modulus (GPa) = 35.33731 45.50117 40.41924
#
# Velocity S-wave (km/s) = 3.59865 4.08351 3.84872
# Velocity P-wave (km/s) = 5.08754 6.13104 5.63350
#
# Compressibility (1/GPa) = 0.04253430
#
# Stress axis : x y z
#
# Youngs Moduli (GPa) = 113.89541 68.31435 71.39346
#
# Poissons Ratio (x) = -0.07645 -0.04516
# Poissons Ratio (y) = -0.12747 -0.05732
# Poissons Ratio (z) = -0.07204 -0.05485
#
# Static dielectric constant tensor:
#      x y z
#    x 2.244550 0.160810 0.056740 
#    y 0.160810 2.097250 -0.080170 
#    z 0.056740 -0.080170 2.085220 
# 
# From -- ./inp_files/392397.got.cif
#   From: 2010.05.17/outbox.cif.g08.bks.cpg/sg2_197_cif.got.tgz:392397.got - 2010.06.03 11:33:40.
