data_PCOD9086306
_publ_section_title
;
Structure prediction by ZEFSAII (Michael W. Deem and Ramdas Pophale) SiO2 
 PCOD9086306
Probable space group: P -1
;
_chemical_formula_sum "Si O2"
_cell_formula_units_Z 16
_cell_length_a 8.413513
_cell_length_b 15.932172
_cell_length_c 5.409648
_cell_angle_alpha 91.609678
_cell_angle_beta 91.537164
_cell_angle_gamma 71.316926
_cell_volume 686.535156
_symmetry_space_group_name_H-M "P -1"
_symmetry_group_IT_number 2
_symmetry_cell_setting 'triclinic'
loop_
_space_group_symop_operation_xyz
x,y,z
-x,-y,-z
loop_
_atom_site_type_symbol
_atom_site_label
_atom_site_fract_x
_atom_site_fract_y
_atom_site_fract_z
Si Si1 0.134140 0.096511 0.475910
Si Si2 0.150613 0.940787 0.806832
Si Si3 0.408550 0.958877 0.198870
Si Si4 0.954134 0.290583 0.419971
Si Si5 0.635787 0.238434 0.308468
Si Si6 0.112603 0.530629 0.305225
Si Si7 0.552597 0.756888 0.215978
Si Si8 0.843815 0.635523 0.934864
O O1 0.012643 0.088975 0.241450
O O2 0.059621 0.199391 0.555454
O O3 0.106905 0.036774 0.693285
O O4 0.321659 0.039878 0.389444
O O5 0.288160 0.867449 0.645663
O O6 0.248998 0.937201 0.064772
O O7 0.533677 0.860541 0.257051
O O8 0.500000 0.000000 0.000000
O O9 0.795961 0.270978 0.287901
O O10 0.861140 0.383641 0.560795
O O11 0.098414 0.304883 0.252352
O O12 0.524596 0.273957 0.548097
O O13 0.539612 0.250361 0.047028
O O14 0.233134 0.435099 0.205126
O O15 0.000000 0.500000 0.500000
O O16 0.015501 0.576553 0.061110
O O17 0.735745 0.691759 0.155765
#
# Coordination Sequence:
#
# PCOD9086306 Si02
#       8
#     2   2   2   2   2   2   2   2
#     4  10  19  36  57  85 115 165 214 250 307 358
#     4   9  20  38  56  80 121 171 209 253 298 365
#     4  11  22  36  54  87 125 164 211 261 311 369
#     4  10  22  38  66  95 121 168 222 266 308 382
#     4  10  23  42  63  94 136 173 213 261 321 378
#     4   9  21  42  68  91 124 156 214 266 323 382
#     4  11  24  42  64  94 134 173 206 265 332 378
#     4  10  22  42  68  93 122 166 211 264 325 387
#
# _framework density 23.305434999999999
#
# number of rings (size 3 to 8) (size 9 to 14) (size 15 to 20)
#    0.000    2.000    1.250    1.125    5.250    2.500 
#    0.000    1.250    0.000    0.000    0.000    0.000 
#    0.000    0.000    0.000    0.000    0.000    0.000 
#
# Total GULP energy -89125.576754 kJ/mol
# GULP energy per Si atom -5570.348547 kJ/mol
# Density = 2.325239 g / cm^3
# Si number density = 23.305435 Si / 1000 Ang^3
#
#
#
# Elastic Constant Matrix: (Units=GPa)
#
#
# Indices 1 2 3 4 5 6 
#
# 1 35.1465 30.1299 9.6068 14.9673 -10.0761 -4.9544
# 2 30.1299 121.4855 25.5680 10.7552 -6.4650 11.7310
# 3 9.6068 25.5680 65.6666 23.5996 -1.0841 0.8378
# 4 14.9673 10.7552 23.5996 35.0478 -15.5060 -5.4474
# 5 -10.0761 -6.4650 -1.0841 -15.5060 29.3031 9.4821
# 6 -4.9544 11.7310 0.8378 -5.4474 9.4821 19.7488
#
#
#
# Elastic Compliance Matrix: (Units=1/GPa)
#
#
# Indices 1 2 3 4 5 6 
#
# 1 0.047185 -0.012389 0.003657 -0.016459 0.000266 0.014373
# 2 -0.012389 0.013301 -0.004857 0.004790 0.004851 -0.011811
# 3 0.003657 -0.004857 0.023663 -0.020249 -0.010362 0.002188
# 4 -0.016459 0.004790 -0.020249 0.059180 0.026829 -0.002673
# 5 0.000266 0.004851 -0.010362 0.026829 0.056208 -0.021963
# 6 0.014373 -0.011811 0.002188 -0.002673 -0.021963 0.070973
#
#
# Mechanical properties :
#
#
# Convention : Reuss Voigt Hill
#
# Bulk Modulus (GPa) = 17.55288 39.21197 28.38242
# Shear Modulus (GPa) = 15.78895 27.28619 21.53757
#
# Velocity S-wave (km/s) = 2.60567 3.42542 3.04327
# Velocity P-wave (km/s) = 4.07439 5.70144 4.95516
#
# Compressibility (1/GPa) = 0.05697072
#
# Stress axis : x y z
#
# Youngs Moduli (GPa) = 21.19320 75.18354 42.26058
#
# Poissons Ratio (x) = 0.93142 -0.15454
# Poissons Ratio (y) = 0.26256 0.20527
# Poissons Ratio (z) = -0.07750 0.36518
#
# Static dielectric constant tensor:
#      x y z
#    x 1.956420 0.007980 0.037190 
#    y 0.007980 1.974900 0.056080 
#    z 0.037190 0.056080 1.924780 
# 
# From -- ./inp_files/37924.got.cif
#   From: 2010.05.17/outbox.cif.g08.bks.cpg/sg2_19_cif.got.tgz:37924.got - 2010.06.03 11:33:40.
