data_PCOD9086287
_publ_section_title
;
Structure prediction by ZEFSAII (Michael W. Deem and Ramdas Pophale) SiO2 
 PCOD9086287
Probable space group: P -1
;
_chemical_formula_sum "Si O2"
_cell_formula_units_Z 14
_cell_length_a 14.384529
_cell_length_b 9.522746
_cell_length_c 10.667314
_cell_angle_alpha 97.867425
_cell_angle_beta 153.245353
_cell_angle_gamma 71.233908
_cell_volume 582.774508
_symmetry_space_group_name_H-M "P -1"
_symmetry_group_IT_number 2
_symmetry_cell_setting 'triclinic'
loop_
_space_group_symop_operation_xyz
x,y,z
-x,-y,-z
loop_
_atom_site_type_symbol
_atom_site_label
_atom_site_fract_x
_atom_site_fract_y
_atom_site_fract_z
Si Si1 0.198774 0.591289 0.357782
Si Si2 0.191096 0.506257 0.601443
Si Si3 0.684440 0.641801 0.753921
Si Si4 0.192131 0.127958 0.798680
Si Si5 0.024241 0.915113 0.719313
Si Si6 0.219565 0.562139 0.903758
Si Si7 0.646548 0.135102 0.450937
O O1 0.282746 0.482481 0.569145
O O2 0.314720 0.474694 0.367336
O O3 0.266088 0.734189 0.464888
O O4 0.922024 0.655775 0.022194
O O5 0.330407 0.480929 0.894496
O O6 0.012866 0.694089 0.410631
O O7 0.047131 0.406698 0.429527
O O8 0.464075 0.808782 0.536867
O O9 0.709569 0.547550 0.903173
O O10 0.149573 0.069786 0.604565
O O11 0.433733 0.132935 0.115059
O O12 0.151045 0.018501 0.839153
O O13 0.205878 0.732541 0.926330
O O14 0.871185 0.974379 0.667673
#
# Coordination Sequence:
#
# PCOD9086287 Si02
#       7
#     2   2   2   2   2   2   2
#     4  10  20  36  61  85 109 155 198 228 272 347
#     4   9  16  36  61  80 108 153 189 228 279 339
#     4  10  21  38  60  84 114 151 196 232 280 337
#     4  10  19  36  57  83 114 155 191 224 281 353
#     4  10  21  34  58  83 119 149 187 234 289 335
#     4   9  18  35  60  83 115 147 182 241 292 323
#     4  12  19  35  58  87 108 154 196 236 265 353
#
# _framework density 24.023014
#
# number of rings (size 3 to 8) (size 9 to 14) (size 15 to 20)
#    0.000    2.000    4.286    0.857    0.000    0.000 
#    0.000    4.286    0.000    8.571    0.000    0.000 
#    0.000    0.000    0.000    0.000    0.000    0.000 
#
# Total GULP energy -78168.273090 kJ/mol
# GULP energy per Si atom -5583.448078 kJ/mol
# Density = 2.396834 g / cm^3
# Si number density = 24.023014 Si / 1000 Ang^3
#
#
#
# Elastic Constant Matrix: (Units=GPa)
#
#
# Indices 1 2 3 4 5 6 
#
# 1 118.0061 32.1394 9.2732 -0.2257 -2.6041 -32.4471
# 2 32.1394 103.6841 25.1448 17.6004 12.6955 3.9126
# 3 9.2732 25.1448 61.3537 23.5164 23.1192 3.2570
# 4 -0.2257 17.6004 23.5164 37.1023 -0.1223 10.9441
# 5 -2.6041 12.6955 23.1192 -0.1223 27.2136 4.7064
# 6 -32.4471 3.9126 3.2570 10.9441 4.7064 45.8020
#
#
#
# Elastic Compliance Matrix: (Units=1/GPa)
#
#
# Indices 1 2 3 4 5 6 
#
# 1 0.012232 -0.004163 -0.002369 0.001036 0.003649 0.008567
# 2 -0.004163 0.012675 -0.000295 -0.005228 -0.005708 -0.002175
# 3 -0.002369 -0.000295 0.040175 -0.027105 -0.035309 0.005595
# 4 0.001036 -0.005228 -0.027105 0.050173 0.027821 -0.011739
# 5 0.003649 -0.005708 -0.035309 0.027821 0.071332 -0.008394
# 6 0.008567 -0.002175 0.005595 -0.011739 -0.008394 0.031358
#
#
# Mechanical properties :
#
#
# Convention : Reuss Voigt Hill
#
# Bulk Modulus (GPa) = 19.44473 46.23986 32.84229
# Shear Modulus (GPa) = 20.10096 36.45600 28.27848
#
# Velocity S-wave (km/s) = 2.89578 3.89979 3.43467
# Velocity P-wave (km/s) = 4.39232 6.29029 5.42496
#
# Compressibility (1/GPa) = 0.05142782
#
# Stress axis : x y z
#
# Youngs Moduli (GPa) = 81.75065 78.89439 24.89080
#
# Poissons Ratio (x) = 0.32844 0.05898
# Poissons Ratio (y) = 0.34033 0.00735
# Poissons Ratio (z) = 0.19370 0.02329
#
# Static dielectric constant tensor:
#      x y z
#    x 1.973750 -0.034970 -0.001970 
#    y -0.034970 1.897990 0.011680 
#    z -0.001970 0.011680 1.987050 
# 
# From -- ./inp_files/447687.got.cif
#   From: 2010.05.17/outbox.cif.g08.bks.cpg/sg2_224_cif.got.tgz:447687.got - 2010.06.03 11:33:40.
