data_PCOD9086448
_publ_section_title
;
Structure prediction by ZEFSAII (Michael W. Deem and Ramdas Pophale) SiO2 
 PCOD9086448
Probable space group: P -1
;
_chemical_formula_sum "Si O2"
_cell_formula_units_Z 14
_cell_length_a 8.873895
_cell_length_b 6.297198
_cell_length_c 17.278404
_cell_angle_alpha 135.064575
_cell_angle_beta 127.582179
_cell_angle_gamma 71.638050
_cell_volume 528.558023
_symmetry_space_group_name_H-M "P -1"
_symmetry_group_IT_number 2
_symmetry_cell_setting 'triclinic'
loop_
_space_group_symop_operation_xyz
x,y,z
-x,-y,-z
loop_
_atom_site_type_symbol
_atom_site_label
_atom_site_fract_x
_atom_site_fract_y
_atom_site_fract_z
Si Si1 0.043218 0.926921 0.888668
Si Si2 0.595317 0.151837 0.490566
Si Si3 0.593524 0.702742 0.961704
Si Si4 0.944474 0.485237 0.610697
Si Si5 0.243174 0.692437 0.647721
Si Si6 0.379154 0.146161 0.268297
Si Si7 0.772415 0.657131 0.175030
O O1 0.105686 0.613267 0.856744
O O2 0.983676 0.804615 0.751475
O O3 0.836635 0.991740 0.866981
O O4 0.221704 0.218634 0.017842
O O5 0.822862 0.199201 0.547352
O O6 0.462563 0.016545 0.339530
O O7 0.611120 0.510135 0.609181
O O8 0.500000 0.000000 0.500000
O O9 0.688182 0.675386 0.067862
O O10 0.401986 0.438229 0.841620
O O11 0.500000 0.000000 0.000000
O O12 0.809331 0.490631 0.495140
O O13 0.154086 0.490622 0.639949
O O14 0.471580 0.822724 0.748490
O O15 0.143367 0.987607 0.687932
#
# Coordination Sequence:
#
# PCOD9086448 Si02
#       7
#     2   2   2   2   2   2   2
#     4  10  19  36  58  86 112 154 193 232 284 349
#     4   9  18  37  54  77 114 167 200 226 275 350
#     4   9  19  37  60  84 108 143 199 246 279 340
#     4   9  19  35  55  83 120 158 186 231 285 335
#     4  10  19  38  56  85 125 153 187 241 288 337
#     4   9  20  36  54  82 120 151 188 242 289 327
#     4  10  20  35  62  84 108 151 196 237 289 344
#
# _framework density 26.487162000000001
#
# number of rings (size 3 to 8) (size 9 to 14) (size 15 to 20)
#    0.000    2.571    1.429    0.857    0.000    2.857 
#   20.571    0.714    0.000    7.714    0.000    0.000 
#    0.000    0.000    0.000    0.000    0.000    0.000 
#
# Total GULP energy -78004.375392 kJ/mol
# GULP energy per Si atom -5571.741099 kJ/mol
# Density = 2.642688 g / cm^3
# Si number density = 26.487162 Si / 1000 Ang^3
#
#
#
# Elastic Constant Matrix: (Units=GPa)
#
#
# Indices 1 2 3 4 5 6 
#
# 1 154.4446 64.9813 35.9016 -8.8966 46.1892 34.9647
# 2 64.9813 98.2590 54.8199 7.4184 32.3410 14.5600
# 3 35.9016 54.8199 63.4453 -4.2411 25.5963 4.2284
# 4 -8.8966 7.4184 -4.2411 34.2620 -7.4636 9.1400
# 5 46.1892 32.3410 25.5963 -7.4636 56.6928 18.6551
# 6 34.9647 14.5600 4.2284 9.1400 18.6551 32.7790
#
#
#
# Elastic Compliance Matrix: (Units=1/GPa)
#
#
# Indices 1 2 3 4 5 6 
#
# 1 0.013089 -0.007518 0.001206 0.007909 -0.001976 -0.011858
# 2 -0.007518 0.027214 -0.018804 -0.012016 -0.003757 0.003846
# 3 0.001206 -0.018804 0.033970 0.005980 -0.006325 0.004616
# 4 0.007909 -0.012016 0.005980 0.042661 0.010478 -0.021728
# 5 -0.001976 -0.003757 -0.006325 0.010478 0.030855 -0.015889
# 6 -0.011858 0.003846 0.004616 -0.021728 -0.015889 0.055954
#
#
# Mechanical properties :
#
#
# Convention : Reuss Voigt Hill
#
# Bulk Modulus (GPa) = 41.59591 69.72828 55.66209
# Shear Modulus (GPa) = 19.08468 35.44318 27.26393
#
# Velocity S-wave (km/s) = 2.68717 3.66201 3.21179
# Velocity P-wave (km/s) = 5.03648 6.65304 5.90038
#
# Compressibility (1/GPa) = 0.02404083
#
# Stress axis : x y z
#
# Youngs Moduli (GPa) = 76.40021 36.74583 29.43743
#
# Poissons Ratio (x) = 0.27627 -0.03550
# Poissons Ratio (y) = 0.57440 0.55353
# Poissons Ratio (z) = -0.09213 0.69096
#
# Static dielectric constant tensor:
#      x y z
#    x 2.311210 0.027750 0.092780 
#    y 0.027750 2.098850 -0.021010 
#    z 0.092780 -0.021010 2.113040 
# 
# From -- ./inp_files/507118.got.cif
#   From: 2010.05.17/outbox.cif.g08.bks.cpg/sg2_254_cif.got.tgz:507118.got - 2010.06.03 11:33:40.
