data_PCOD9086924
_publ_section_title
;
Structure prediction by ZEFSAII (Michael W. Deem and Ramdas Pophale) SiO2 
 PCOD9086924
Probable space group: P -1
;
_chemical_formula_sum "Si O2"
_cell_formula_units_Z 16
_cell_length_a 5.216585
_cell_length_b 6.763251
_cell_length_c 22.273568
_cell_angle_alpha 90.100761
_cell_angle_beta 115.078634
_cell_angle_gamma 72.982330
_cell_volume 673.768838
_symmetry_space_group_name_H-M "P -1"
_symmetry_group_IT_number 2
_symmetry_cell_setting 'triclinic'
loop_
_space_group_symop_operation_xyz
x,y,z
-x,-y,-z
loop_
_atom_site_type_symbol
_atom_site_label
_atom_site_fract_x
_atom_site_fract_y
_atom_site_fract_z
Si Si1 0.911695 0.625656 0.167172
Si Si2 0.930599 0.731791 0.967976
Si Si3 0.940851 0.837903 0.540389
Si Si4 0.199205 0.012018 0.935791
Si Si5 0.415980 0.396695 0.549283
Si Si6 0.273508 0.532339 0.312687
Si Si7 0.879525 0.259440 0.311827
Si Si8 0.513653 0.342556 0.160929
O O1 0.832067 0.839748 0.123681
O O2 0.664662 0.510230 0.151186
O O3 0.019202 0.664520 0.243627
O O4 0.201825 0.465369 0.163247
O O5 0.600493 0.774791 0.904522
O O6 0.022063 0.837043 0.036173
O O7 0.113618 0.801746 0.933537
O O8 0.000000 0.500000 0.000000
O O9 0.155592 0.594155 0.552315
O O10 0.003759 0.877750 0.616270
O O11 0.644746 0.804337 0.483494
O O12 0.000000 0.000000 0.500000
O O13 0.500000 0.000000 0.000000
O O14 0.500000 0.500000 0.500000
O O15 0.667900 0.345138 0.624607
O O16 0.582061 0.440059 0.306557
O O17 0.150371 0.347302 0.322525
O O18 0.747033 0.207460 0.234843
#
# Coordination Sequence:
#
# PCOD9086924 Si02
#       8
#     2   2   2   2   2   2   2   2
#     4  10  21  39  63  90 120 160 202 248 302 356
#     4  11  23  41  63  89 119 161 201 244 304 361
#     4  10  21  36  58  88 121 157 202 253 297 354
#     4  11  25  39  63  92 124 155 202 256 298 357
#     4  10  19  36  61  83 117 161 202 242 302 355
#     4   9  18  35  61  85 117 162 200 243 301 360
#     4   9  18  36  58  87 119 159 199 247 300 356
#     4  10  21  38  66  87 118 165 202 241 307 362
#
# _framework density 23.747018000000001
#
# number of rings (size 3 to 8) (size 9 to 14) (size 15 to 20)
#    0.000    2.000    2.500    0.750    3.500    1.500 
#    2.250    0.000    2.750    0.000    0.000    0.000 
#    0.000    0.000    0.000    0.000    0.000    0.000 
#
# Total GULP energy -89092.848719 kJ/mol
# GULP energy per Si atom -5568.303045 kJ/mol
# Density = 2.369297 g / cm^3
# Si number density = 23.747018 Si / 1000 Ang^3
#
#
#
# Elastic Constant Matrix: (Units=GPa)
#
#
# Indices 1 2 3 4 5 6 
#
# 1 61.8098 14.2828 -0.5586 6.1729 3.4863 29.7382
# 2 14.2828 99.7395 61.4078 -7.1729 0.0099 29.7816
# 3 -0.5586 61.4078 227.4712 -6.2719 2.1524 27.3892
# 4 6.1729 -7.1729 -6.2719 38.5794 11.6016 -6.0138
# 5 3.4863 0.0099 2.1524 11.6016 29.6082 -1.7132
# 6 29.7382 29.7816 27.3892 -6.0138 -1.7132 48.9361
#
#
#
# Elastic Compliance Matrix: (Units=1/GPa)
#
#
# Indices 1 2 3 4 5 6 
#
# 1 0.025144 -0.000160 0.002019 -0.005846 -0.001806 -0.017094
# 2 -0.000160 0.013910 -0.002919 0.001310 -0.000669 -0.006597
# 3 0.002019 -0.002919 0.005502 -0.000155 -0.000725 -0.002574
# 4 -0.005846 0.001310 -0.000155 0.031443 -0.011256 0.006312
# 5 -0.001806 -0.000669 -0.000725 -0.011256 0.038559 0.001877
# 6 -0.017094 -0.006597 -0.002574 0.006312 0.001877 0.037120
#
#
# Mechanical properties :
#
#
# Convention : Reuss Voigt Hill
#
# Bulk Modulus (GPa) = 23.56433 59.92052 41.74243
# Shear Modulus (GPa) = 29.77196 44.35062 37.06129
#
# Velocity S-wave (km/s) = 3.54462 4.32630 3.95482
# Velocity P-wave (km/s) = 5.16692 7.08826 6.20244
#
# Compressibility (1/GPa) = 0.04243702
#
# Stress axis : x y z
#
# Youngs Moduli (GPa) = 39.77081 71.88963 181.76449
#
# Poissons Ratio (x) = 0.01148 -0.36699
# Poissons Ratio (y) = 0.00635 0.53053
# Poissons Ratio (z) = -0.08030 0.20983
#
# Static dielectric constant tensor:
#      x y z
#    x 1.684580 0.084210 0.198530 
#    y 0.084210 1.586520 0.053100 
#    z 0.198530 0.053100 1.870640 
# 
# From -- ./inp_files/13423.got.cif
#   From: 2010.05.17/outbox.cif.g08.bks.cpg/sg2_7_cif.got.tgz:13423.got - 2010.06.03 11:33:40.
