data_PCOD9086884
_publ_section_title
;
Structure prediction by ZEFSAII (Michael W. Deem and Ramdas Pophale) SiO2 
 PCOD9086884
Probable space group: P -1
;
_chemical_formula_sum "Si O2"
_cell_formula_units_Z 16
_cell_length_a 12.528793
_cell_length_b 15.218130
_cell_length_c 18.848533
_cell_angle_alpha 29.644434
_cell_angle_beta 150.626037
_cell_angle_gamma 128.352771
_cell_volume 719.886079
_symmetry_space_group_name_H-M "P -1"
_symmetry_group_IT_number 2
_symmetry_cell_setting 'triclinic'
loop_
_space_group_symop_operation_xyz
x,y,z
-x,-y,-z
loop_
_atom_site_type_symbol
_atom_site_label
_atom_site_fract_x
_atom_site_fract_y
_atom_site_fract_z
Si Si1 0.627371 0.824436 0.758469
Si Si2 0.981962 0.420800 0.157442
Si Si3 0.804403 0.131883 0.435298
Si Si4 0.587329 0.075718 0.213493
Si Si5 0.406397 0.436002 0.560606
Si Si6 0.796108 0.370914 0.953634
Si Si7 0.335498 0.071633 0.782422
Si Si8 0.881196 0.861604 0.011827
O O1 0.434305 0.764940 0.720932
O O2 0.700932 0.927528 0.791152
O O3 0.500000 0.000000 0.500000
O O4 0.872090 0.602083 0.025914
O O5 0.174284 0.176734 0.464456
O O6 0.145696 0.473722 0.163118
O O7 0.746630 0.451197 0.950120
O O8 0.026849 0.176719 0.542618
O O9 0.683683 0.180141 0.252068
O O10 0.954838 0.875919 0.719558
O O11 0.576455 0.112182 0.097290
O O12 0.311197 0.123588 0.048469
O O13 0.500000 0.500000 0.500000
O O14 0.600445 0.365254 0.790181
O O15 0.390202 0.240618 0.665125
O O16 0.130089 0.627307 0.298884
O O17 0.500000 0.000000 0.000000
O O18 0.000000 0.000000 0.000000
#
# Coordination Sequence:
#
# PCOD9086884 Si02
#       8
#     2   2   2   2   2   2   2   2
#     4  11  22  37  63  99 131 169 218 276 323 387
#     4  10  20  37  66  92 129 168 223 264 325 382
#     4  10  22  41  64  94 131 169 221 268 326 395
#     4  10  23  43  64  92 129 180 219 269 327 393
#     4  12  25  42  68  97 136 172 220 269 340 395
#     4  10  19  36  60  94 126 171 210 266 318 388
#     4  12  24  44  68  97 131 175 219 272 336 399
#     4  11  24  40  64  99 133 170 220 276 326 387
#
# _framework density 22.225739000000001
#
# number of rings (size 3 to 8) (size 9 to 14) (size 15 to 20)
#    0.000    1.250    2.500    4.125    3.500    1.000 
#    0.000    8.750    0.000    0.000    0.000    0.000 
#    0.000    0.000    0.000    0.000    0.000    0.000 
#
# Total GULP energy -89349.666401 kJ/mol
# GULP energy per Si atom -5584.354150 kJ/mol
# Density = 2.217515 g / cm^3
# Si number density = 22.225739 Si / 1000 Ang^3
#
#
#
# Elastic Constant Matrix: (Units=GPa)
#
#
# Indices 1 2 3 4 5 6 
#
# 1 116.1330 33.8234 32.7327 25.8935 0.5896 -11.7815
# 2 33.8234 112.6581 6.2019 38.9329 -7.9636 3.0836
# 3 32.7327 6.2019 49.3301 21.7602 1.9106 -11.0918
# 4 25.8935 38.9329 21.7602 48.1433 -4.3638 -4.7301
# 5 0.5896 -7.9636 1.9106 -4.3638 30.3315 6.5996
# 6 -11.7815 3.0836 -11.0918 -4.7301 6.5996 38.7467
#
#
#
# Elastic Compliance Matrix: (Units=1/GPa)
#
#
# Indices 1 2 3 4 5 6 
#
# 1 0.011727 -0.003016 -0.006539 -0.000819 -0.001168 0.002033
# 2 -0.003016 0.013804 0.004815 -0.011756 0.002221 -0.002451
# 3 -0.006539 0.004815 0.031856 -0.014579 -0.003940 0.005639
# 4 -0.000819 -0.011756 -0.014579 0.037649 0.003139 0.000575
# 5 -0.001168 0.002221 -0.003940 0.003139 0.035882 -0.007388
# 6 0.002033 -0.002451 0.005639 0.000575 -0.007388 0.029565
#
#
# Mechanical properties :
#
#
# Convention : Reuss Voigt Hill
#
# Bulk Modulus (GPa) = 20.87365 47.07080 33.97223
# Shear Modulus (GPa) = 26.89144 37.13517 32.01330
#
# Velocity S-wave (km/s) = 3.48217 4.09200 3.79934
# Velocity P-wave (km/s) = 5.05761 6.59927 5.87919
#
# Compressibility (1/GPa) = 0.04790728
#
# Stress axis : x y z
#
# Youngs Moduli (GPa) = 85.27386 72.44362 31.39090
#
# Poissons Ratio (x) = 0.21849 0.20525
# Poissons Ratio (y) = 0.25719 -0.15113
# Poissons Ratio (z) = 0.55757 -0.34879
#
# Static dielectric constant tensor:
#      x y z
#    x 1.847680 -0.020460 -0.027610 
#    y -0.020460 1.887800 0.024430 
#    z -0.027610 0.024430 1.826620 
# 
# From -- ./inp_files/417055.got.cif
#   From: 2010.05.17/outbox.cif.g08.bks.cpg/sg2_209_cif.got.tgz:417055.got - 2010.06.03 11:33:40.
