data_PCOD9086296
_publ_section_title
;
Structure prediction by ZEFSAII (Michael W. Deem and Ramdas Pophale) SiO2 
 PCOD9086296
Probable space group: P -1
;
_chemical_formula_sum "Si O2"
_cell_formula_units_Z 16
_cell_length_a 21.856712
_cell_length_b 8.603882
_cell_length_c 10.179792
_cell_angle_alpha 120.016144
_cell_angle_beta 38.498141
_cell_angle_gamma 143.468322
_cell_volume 665.248559
_symmetry_space_group_name_H-M "P -1"
_symmetry_group_IT_number 2
_symmetry_cell_setting 'triclinic'
loop_
_space_group_symop_operation_xyz
x,y,z
-x,-y,-z
loop_
_atom_site_type_symbol
_atom_site_label
_atom_site_fract_x
_atom_site_fract_y
_atom_site_fract_z
Si Si1 0.149314 0.920626 0.226721
Si Si2 0.867592 0.125596 0.199966
Si Si3 0.320799 0.953514 0.146214
Si Si4 0.812918 0.402197 0.559559
Si Si5 0.406206 0.505814 0.569618
Si Si6 0.448081 0.920585 0.356019
Si Si7 0.194095 0.675113 0.843550
Si Si8 0.535303 0.516599 0.103375
O O1 0.974966 0.728064 0.413533
O O2 0.195966 0.925006 0.297124
O O3 0.178784 0.775932 0.038675
O O4 0.282294 0.239117 0.089485
O O5 0.852200 0.246348 0.396248
O O6 0.811048 0.176464 0.197370
O O7 0.766391 0.809298 0.260491
O O8 0.043838 0.342395 0.957657
O O9 0.439223 0.203170 0.157653
O O10 0.244810 0.679662 0.229316
O O11 0.427654 0.047532 0.885240
O O12 0.681473 0.269827 0.621907
O O13 0.500000 0.500000 0.500000
O O14 0.454415 0.762168 0.657415
O O15 0.469030 0.563884 0.340403
O O16 0.342965 0.769500 0.599369
O O17 0.500000 0.500000 0.000000
#
# Coordination Sequence:
#
# PCOD9086296 Si02
#       8
#     2   2   2   2   2   2   2   2
#     4  10  20  36  60  79 110 155 197 226 278 352
#     4   9  17  30  57  80 109 141 191 240 268 330
#     4  11  22  37  55  86 117 151 186 237 296 342
#     4  10  19  36  57  84 111 147 196 235 282 341
#     4  12  18  34  59  89 110 151 202 239 278 344
#     4  11  22  34  58  88 118 143 184 251 293 330
#     4   9  17  33  51  84 110 139 186 234 287 326
#     4  10  21  38  56  84 115 159 196 233 282 355
#
# _framework density 24.051158999999998
#
# number of rings (size 3 to 8) (size 9 to 14) (size 15 to 20)
#    0.000    1.750    5.000    1.500    0.000    0.500 
#    0.000    1.875    0.000    3.000    0.000    0.000 
#    0.000    0.000    0.000    0.000    0.000    0.000 
#
# Total GULP energy -89236.612927 kJ/mol
# GULP energy per Si atom -5577.288308 kJ/mol
# Density = 2.399642 g / cm^3
# Si number density = 24.051159 Si / 1000 Ang^3
#
#
#
# Elastic Constant Matrix: (Units=GPa)
#
#
# Indices 1 2 3 4 5 6 
#
# 1 55.7668 9.2287 29.0514 -8.9760 10.3159 13.8695
# 2 9.2287 116.4337 46.1167 -29.0592 5.7077 0.0670
# 3 29.0514 46.1167 108.2052 -36.5536 7.2051 3.0295
# 4 -8.9760 -29.0592 -36.5536 50.1639 -10.5296 2.3860
# 5 10.3159 5.7077 7.2051 -10.5296 17.2206 3.4160
# 6 13.8695 0.0670 3.0295 2.3860 3.4160 18.8911
#
#
#
# Elastic Compliance Matrix: (Units=1/GPa)
#
#
# Indices 1 2 3 4 5 6 
#
# 1 0.027481 0.000821 -0.006912 -0.001196 -0.011224 -0.016890
# 2 0.000821 0.010898 -0.003528 0.003884 -0.000146 -0.000540
# 3 -0.006912 -0.003528 0.015221 0.008621 0.004049 0.000825
# 4 -0.001196 0.003884 0.008621 0.032191 0.017025 -0.007662
# 5 -0.011224 -0.000146 0.004049 0.017025 0.075175 -0.008152
# 6 -0.016890 -0.000540 0.000825 -0.007662 -0.008152 0.067647
#
#
# Mechanical properties :
#
#
# Convention : Reuss Voigt Hill
#
# Bulk Modulus (GPa) = 29.10270 49.91103 39.50686
# Shear Modulus (GPa) = 19.28240 30.32238 24.80239
#
# Velocity S-wave (km/s) = 2.83455 3.55455 3.21477
# Velocity P-wave (km/s) = 4.77907 6.13543 5.49923
#
# Compressibility (1/GPa) = 0.03436108
#
# Stress axis : x y z
#
# Youngs Moduli (GPa) = 36.38890 91.76235 65.69960
#
# Poissons Ratio (x) = -0.07532 0.45411
# Poissons Ratio (y) = -0.02987 0.23179
# Poissons Ratio (z) = 0.25152 0.32374
#
# Static dielectric constant tensor:
#      x y z
#    x 1.923870 0.031830 0.031190 
#    y 0.031830 2.017250 -0.009490 
#    z 0.031190 -0.009490 1.971020 
# 
# From -- ./inp_files/476512.got.cif
#   From: 2010.05.17/outbox.cif.g08.bks.cpg/sg2_239_cif.got.tgz:476512.got - 2010.06.03 11:33:40.
