data_PCOD9086877
_publ_section_title
;
Structure prediction by ZEFSAII (Michael W. Deem and Ramdas Pophale) SiO2 
 PCOD9086877
Probable space group: P -1
;
_chemical_formula_sum "Si O2"
_cell_formula_units_Z 16
_cell_length_a 17.340276
_cell_length_b 15.468210
_cell_length_c 12.708936
_cell_angle_alpha 39.811261
_cell_angle_beta 31.295550
_cell_angle_gamma 24.930860
_cell_volume 746.052664
_symmetry_space_group_name_H-M "P -1"
_symmetry_group_IT_number 2
_symmetry_cell_setting 'triclinic'
loop_
_space_group_symop_operation_xyz
x,y,z
-x,-y,-z
loop_
_atom_site_type_symbol
_atom_site_label
_atom_site_fract_x
_atom_site_fract_y
_atom_site_fract_z
Si Si1 0.147522 0.275137 0.610461
Si Si2 0.248345 0.939016 0.145481
Si Si3 0.477568 0.420973 0.202693
Si Si4 0.375658 0.902326 0.804929
Si Si5 0.198873 0.569544 0.798348
Si Si6 0.645447 0.809936 0.930573
Si Si7 0.562669 0.455559 0.635640
Si Si8 0.019471 0.335221 0.485361
O O1 0.379940 0.192806 0.384883
O O2 0.986199 0.501332 0.630606
O O3 0.063778 0.250090 0.630298
O O4 0.198755 0.141496 0.770481
O O5 0.248821 0.792009 0.337674
O O6 0.311677 0.868829 0.015662
O O7 0.464299 0.862567 0.016958
O O8 0.035900 0.186449 0.164875
O O9 0.618635 0.193938 0.214804
O O10 0.528506 0.443098 0.237449
O O11 0.218038 0.551227 0.385753
O O12 0.500000 0.500000 0.000000
O O13 0.358853 0.537741 0.725604
O O14 0.322675 0.502735 0.603380
O O15 0.207755 0.407266 0.978237
O O16 0.797193 0.803527 0.687996
O O17 0.500000 0.000000 0.000000
#
# Coordination Sequence:
#
# PCOD9086877 Si02
#       8
#     2   2   2   2   2   2   2   2
#     4   9  19  36  61  89 121 162 210 244 325 378
#     4  11  21  41  70  87 130 168 216 259 323 379
#     4  11  23  40  62  92 129 165 209 261 317 373
#     4  10  19  36  60  93 122 163 204 262 310 383
#     4  10  24  44  68  93 123 177 214 264 317 378
#     4  11  25  42  64  99 129 161 216 268 324 378
#     4  10  23  45  64  92 131 169 222 261 311 380
#     4  10  21  39  62  88 129 166 200 266 318 375
#
# _framework density 21.446209
#
# number of rings (size 3 to 8) (size 9 to 14) (size 15 to 20)
#    0.000    1.750    2.500    1.125    1.750    2.500 
#    4.500    1.250    0.000    0.000    0.000    0.000 
#    0.000    0.000    0.000    0.000    0.000    0.000 
#
# Total GULP energy -89264.922446 kJ/mol
# GULP energy per Si atom -5579.057653 kJ/mol
# Density = 2.139740 g / cm^3
# Si number density = 21.446209 Si / 1000 Ang^3
#
#
#
# Elastic Constant Matrix: (Units=GPa)
#
#
# Indices 1 2 3 4 5 6 
#
# 1 51.7131 17.1158 22.7028 -1.2960 25.5836 4.7913
# 2 17.1158 90.7725 1.2264 -0.6419 4.1155 -15.7866
# 3 22.7028 1.2264 49.4165 5.3225 20.0120 -2.8202
# 4 -1.2960 -0.6419 5.3225 21.5418 6.0178 13.5729
# 5 25.5836 4.1155 20.0120 6.0178 24.9158 0.0427
# 6 4.7913 -15.7866 -2.8202 13.5729 0.0427 26.3014
#
#
#
# Elastic Compliance Matrix: (Units=1/GPa)
#
#
# Indices 1 2 3 4 5 6 
#
# 1 0.094029 -0.026092 -0.015735 0.086581 -0.100378 -0.078996
# 2 -0.026092 0.020282 0.006266 -0.030792 0.025789 0.033447
# 3 -0.015735 0.006266 0.033454 -0.020048 -0.006941 0.020572
# 4 0.086581 -0.030792 -0.020048 0.160286 -0.106222 -0.118948
# 5 -0.100378 0.025789 -0.006941 -0.106222 0.170024 0.087561
# 6 -0.078996 0.033447 0.020572 -0.118948 0.087561 0.135934
#
#
# Mechanical properties :
#
#
# Convention : Reuss Voigt Hill
#
# Bulk Modulus (GPa) = 13.04791 30.44356 21.74573
# Shear Modulus (GPa) = 7.03552 24.60894 15.82223
#
# Velocity S-wave (km/s) = 1.81319 3.39111 2.71913
# Velocity P-wave (km/s) = 3.23740 5.43682 4.47436
#
# Compressibility (1/GPa) = 0.07664065
#
# Stress axis : x y z
#
# Youngs Moduli (GPa) = 10.63498 49.30546 29.89197
#
# Poissons Ratio (x) = 1.28650 0.47036
# Poissons Ratio (y) = 0.27749 -0.18729
# Poissons Ratio (z) = 0.16734 -0.30893
#
# Static dielectric constant tensor:
#      x y z
#    x 1.774550 -0.001200 0.018720 
#    y -0.001200 1.795800 -0.028440 
#    z 0.018720 -0.028440 1.781280 
# 
# From -- ./inp_files/271991.got.cif
#   From: 2010.05.17/outbox.cif.g08.bks.cpg/sg2_136_cif.got.tgz:271991.got - 2010.06.03 11:33:40.
