data_PCOD9086658
_publ_section_title
;
Structure prediction by ZEFSAII (Michael W. Deem and Ramdas Pophale) SiO2 
 PCOD9086658
Probable space group: P -1
;
_chemical_formula_sum "Si O2"
_cell_formula_units_Z 14
_cell_length_a 12.921482
_cell_length_b 17.586320
_cell_length_c 9.692031
_cell_angle_alpha 39.385535
_cell_angle_beta 50.594611
_cell_angle_gamma 24.837325
_cell_volume 568.396817
_symmetry_space_group_name_H-M "P -1"
_symmetry_group_IT_number 2
_symmetry_cell_setting 'triclinic'
loop_
_space_group_symop_operation_xyz
x,y,z
-x,-y,-z
loop_
_atom_site_type_symbol
_atom_site_label
_atom_site_fract_x
_atom_site_fract_y
_atom_site_fract_z
Si Si1 0.126031 0.291209 0.464424
Si Si2 0.822675 0.829281 0.730603
Si Si3 0.389527 0.243147 0.838373
Si Si4 0.074779 0.177914 0.931022
Si Si5 0.280348 0.571882 0.622158
Si Si6 0.896983 0.058878 0.155603
Si Si7 0.585659 0.700040 0.694539
O O1 0.833777 0.558080 0.360667
O O2 0.172734 0.152468 0.733633
O O3 0.146716 0.234798 0.367469
O O4 0.314874 0.257991 0.370563
O O5 0.108779 0.651862 0.783981
O O6 0.605385 0.096970 0.543531
O O7 0.724505 0.784757 0.948611
O O8 0.387380 0.368407 0.752065
O O9 0.690312 0.988681 0.927978
O O10 0.834270 0.442076 0.798281
O O11 0.973005 0.119656 0.089490
O O12 0.500000 0.500000 0.500000
O O13 0.048246 0.828459 0.401091
O O14 0.600712 0.250863 0.138955
O O15 0.000000 0.000000 0.000000
#
# Coordination Sequence:
#
# PCOD9086658 Si02
#       7
#     2   2   2   2   2   2   2
#     4  11  23  41  67  94 131 163 222 260 311 385
#     4  10  22  40  63  95 127 165 213 268 312 368
#     4  11  23  39  67  97 126 167 213 263 324 369
#     4  12  24  43  65  92 136 170 205 266 321 384
#     4  10  19  36  59  91 120 154 210 262 302 364
#     4  11  24  41  70  91 122 172 215 266 319 372
#     4  11  24  41  64  95 130 171 211 259 323 384
#
# _framework density 24.630682
#
# number of rings (size 3 to 8) (size 9 to 14) (size 15 to 20)
#    0.000    1.143    2.857    5.571    2.000    1.714 
#    0.000    0.000    0.000    2.571    0.000    0.000 
#    0.000    0.000    0.000    0.000    0.000    0.000 
#
# Total GULP energy -78114.217161 kJ/mol
# GULP energy per Si atom -5579.586940 kJ/mol
# Density = 2.457462 g / cm^3
# Si number density = 24.630682 Si / 1000 Ang^3
#
#
#
# Elastic Constant Matrix: (Units=GPa)
#
#
# Indices 1 2 3 4 5 6 
#
# 1 89.2379 53.8289 46.7637 14.6845 -21.9417 -35.1046
# 2 53.8289 165.9786 49.3066 -17.1585 -13.8809 -46.3063
# 3 46.7637 49.3066 117.0749 -3.5821 -24.8321 -9.6485
# 4 14.6845 -17.1585 -3.5821 38.0866 -17.5830 -4.7503
# 5 -21.9417 -13.8809 -24.8321 -17.5830 50.8196 5.0611
# 6 -35.1046 -46.3063 -9.6485 -4.7503 5.0611 51.4546
#
#
#
# Elastic Compliance Matrix: (Units=1/GPa)
#
#
# Indices 1 2 3 4 5 6 
#
# 1 0.022540 -0.003236 -0.006754 -0.008826 0.001474 0.010239
# 2 -0.003236 0.010830 -0.001802 0.008184 0.002746 0.007686
# 3 -0.006754 -0.001802 0.012871 0.004795 0.004924 -0.003858
# 4 -0.008826 0.008184 0.004795 0.041074 0.014520 0.004606
# 5 0.001474 0.002746 0.004924 0.014520 0.028199 0.002968
# 6 0.010239 0.007686 -0.003858 0.004606 0.002968 0.032747
#
#
# Mechanical properties :
#
#
# Convention : Reuss Voigt Hill
#
# Bulk Modulus (GPa) = 44.13622 74.67664 59.40643
# Shear Modulus (GPa) = 27.87109 42.89832 35.38470
#
# Velocity S-wave (km/s) = 3.36752 4.17785 3.79438
# Velocity P-wave (km/s) = 5.75138 7.32509 6.58541
#
# Compressibility (1/GPa) = 0.02265713
#
# Stress axis : x y z
#
# Youngs Moduli (GPa) = 44.36540 92.33950 77.69134
#
# Poissons Ratio (x) = 0.29883 0.52471
# Poissons Ratio (y) = 0.14357 0.14000
# Poissons Ratio (z) = 0.29964 0.16640
#
# Static dielectric constant tensor:
#      x y z
#    x 2.046660 -0.038260 0.011900 
#    y -0.038260 2.139870 0.051360 
#    z 0.011900 0.051360 1.975090 
# 
# From -- ./inp_files/155432.got.cif
#   From: 2010.05.17/outbox.cif.g08.bks.cpg/sg2_78_cif.got.tgz:155432.got - 2010.06.03 11:33:40.
