data_PCOD9086654
_publ_section_title
;
Structure prediction by ZEFSAII (Michael W. Deem and Ramdas Pophale) SiO2 
 PCOD9086654
Probable space group: P -1
;
_chemical_formula_sum "Si O2"
_cell_formula_units_Z 14
_cell_length_a 23.119567
_cell_length_b 9.314511
_cell_length_c 8.695922
_cell_angle_alpha 44.734346
_cell_angle_beta 31.265505
_cell_angle_gamma 33.803554
_cell_volume 540.720003
_symmetry_space_group_name_H-M "P -1"
_symmetry_group_IT_number 2
_symmetry_cell_setting 'triclinic'
loop_
_space_group_symop_operation_xyz
x,y,z
-x,-y,-z
loop_
_atom_site_type_symbol
_atom_site_label
_atom_site_fract_x
_atom_site_fract_y
_atom_site_fract_z
Si Si1 0.596530 0.700737 0.562511
Si Si2 0.222411 0.125036 0.971941
Si Si3 0.919143 0.980814 0.060647
Si Si4 0.836120 0.747138 0.652598
Si Si5 0.540511 0.482664 0.153626
Si Si6 0.054648 0.721346 0.650459
Si Si7 0.714589 0.517282 0.942745
O O1 0.552374 0.626559 0.873053
O O2 0.500000 0.000000 0.500000
O O3 0.587753 0.529550 0.584461
O O4 0.728643 0.697333 0.293870
O O5 0.208673 0.098883 0.204879
O O6 0.071857 0.280878 0.115513
O O7 0.328711 0.827484 0.901700
O O8 0.838215 0.887698 0.394369
O O9 0.035890 0.779554 0.828229
O O10 0.808795 0.242880 0.022053
O O11 0.000000 0.000000 0.000000
O O12 0.727495 0.690263 0.899147
O O13 0.000000 0.500000 0.500000
O O14 0.566582 0.592503 0.161697
O O15 0.196588 0.521166 0.384481
O O16 0.000000 0.000000 0.500000
#
# Coordination Sequence:
#
# PCOD9086654 Si02
#       7
#     2   2   2   2   2   2   2
#     4   9  22  41  68  96 117 153 218 273 315 364
#     4  11  21  40  63  92 130 165 211 254 310 376
#     4  11  22  36  56  83 133 172 201 253 303 365
#     4  12  24  37  54  94 135 166 206 250 305 369
#     4  10  21  41  69  91 119 164 214 263 314 372
#     4  10  19  36  59  90 125 168 206 247 302 380
#     4  11  23  39  60  91 129 167 210 252 307 375
#
# _framework density 25.891403
#
# number of rings (size 3 to 8) (size 9 to 14) (size 15 to 20)
#    0.000    1.429    5.714    0.857    2.000    2.857 
#    0.000    0.714    0.000    8.571    0.000    0.000 
#    0.000    0.000    0.000    0.000    0.000    0.000 
#
# Total GULP energy -78276.717503 kJ/mol
# GULP energy per Si atom -5591.194107 kJ/mol
# Density = 2.583247 g / cm^3
# Si number density = 25.891403 Si / 1000 Ang^3
#
#
#
# Elastic Constant Matrix: (Units=GPa)
#
#
# Indices 1 2 3 4 5 6 
#
# 1 171.5265 25.0016 45.2147 -19.9361 -14.0107 16.1730
# 2 25.0016 52.5463 16.8083 -17.4044 4.6384 -5.4728
# 3 45.2147 16.8083 135.7717 -28.0654 -13.0665 -4.1265
# 4 -19.9361 -17.4044 -28.0654 29.3516 11.5504 9.9051
# 5 -14.0107 4.6384 -13.0665 11.5504 61.3858 -9.5045
# 6 16.1730 -5.4728 -4.1265 9.9051 -9.5045 40.1106
#
#
#
# Elastic Compliance Matrix: (Units=1/GPa)
#
#
# Indices 1 2 3 4 5 6 
#
# 1 0.007412 -0.002323 -0.001562 0.003530 0.000207 -0.004289
# 2 -0.002323 0.025970 0.000460 0.016844 -0.005717 -0.000987
# 3 -0.001562 0.000460 0.009575 0.008523 -0.000024 -0.000433
# 4 0.003530 0.016844 0.008523 0.066077 -0.013849 -0.017847
# 5 0.000207 -0.005717 -0.000024 -0.013849 0.020519 0.007416
# 6 -0.004289 -0.000987 -0.000433 -0.017847 0.007416 0.032646
#
#
# Mechanical properties :
#
#
# Convention : Reuss Voigt Hill
#
# Bulk Modulus (GPa) = 27.69475 59.32153 43.50814
# Shear Modulus (GPa) = 27.61181 44.35758 35.98470
#
# Velocity S-wave (km/s) = 3.26919 4.14359 3.73209
# Velocity P-wave (km/s) = 4.99699 6.77155 5.95079
#
# Compressibility (1/GPa) = 0.03610793
#
# Stress axis : x y z
#
# Youngs Moduli (GPa) = 134.92186 38.50624 104.44242
#
# Poissons Ratio (x) = 0.08944 0.16309
# Poissons Ratio (y) = 0.31340 -0.04807
# Poissons Ratio (z) = 0.21068 -0.01772
#
# Static dielectric constant tensor:
#      x y z
#    x 2.168150 -0.040020 -0.083430 
#    y -0.040020 1.931010 0.074600 
#    z -0.083430 0.074600 2.161350 
# 
# From -- ./inp_files/341468.got.cif
#   From: 2010.05.17/outbox.cif.g08.bks.cpg/sg2_171_cif.got.tgz:341468.got - 2010.06.03 11:33:40.
