data_PCOD9086855
_publ_section_title
;
Structure prediction by ZEFSAII (Michael W. Deem and Ramdas Pophale) SiO2 
 PCOD9086855
Probable space group: P -1
;
_chemical_formula_sum "Si O2"
_cell_formula_units_Z 15
_cell_length_a 8.429533
_cell_length_b 15.540664
_cell_length_c 8.556210
_cell_angle_alpha 44.190721
_cell_angle_beta 65.877007
_cell_angle_gamma 94.023283
_cell_volume 585.432759
_symmetry_space_group_name_H-M "P -1"
_symmetry_group_IT_number 2
_symmetry_cell_setting 'triclinic'
loop_
_space_group_symop_operation_xyz
x,y,z
-x,-y,-z
loop_
_atom_site_type_symbol
_atom_site_label
_atom_site_fract_x
_atom_site_fract_y
_atom_site_fract_z
Si Si1 0.034772 0.126812 0.207521
Si Si2 0.734691 0.950473 0.013219
Si Si3 0.222767 0.755861 0.475975
Si Si4 0.423139 0.398620 0.813238
Si Si5 0.246418 0.656756 0.926153
Si Si6 0.500000 0.500000 0.000000
Si Si7 0.663874 0.992353 0.308528
Si Si8 0.268479 0.707730 0.186401
O O1 0.811872 0.069251 0.297692
O O2 0.178587 0.132383 0.002111
O O3 0.173430 0.279558 0.046164
O O4 0.000000 0.000000 0.500000
O O5 0.819502 0.113727 0.691667
O O6 0.787095 0.971849 0.147743
O O7 0.479356 0.847541 0.247173
O O8 0.154772 0.667641 0.782520
O O9 0.152980 0.663187 0.460868
O O10 0.500000 0.500000 0.500000
O O11 0.472386 0.484774 0.841888
O O12 0.547102 0.318552 0.861769
O O13 0.334933 0.554269 0.006954
O O14 0.140645 0.637732 0.165260
O O15 0.459191 0.828634 0.634599
O O16 0.628556 0.113411 0.094468
#
# Coordination Sequence:
#
# PCOD9086855 Si02
#       8
#     2   2   2   2   2   1   2   2
#     4  12  24  38  61  99 132 160 205 266 327 367
#     4   9  19  34  55  89 126 156 197 254 321 369
#     4   9  17  32  57  87 121 153 206 257 302 364
#     4  11  24  43  68  88 127 172 214 257 303 388
#     4  10  20  33  61  86 126 160 210 258 306 373
#     4  10  22  38  56  94 114 166 216 252 300 368
#     4  10  22  36  59  93 125 159 199 269 323 363
#     4  10  19  36  60  91 118 160 213 256 307 367
#
# _framework density 25.622070000000001
#
# number of rings (size 3 to 8) (size 9 to 14) (size 15 to 20)
#    0.000    1.867    1.333    4.000    3.733    0.000 
#    2.400    0.667    0.000    3.200    0.000    0.000 
#    0.000    0.000    0.000    0.000    0.000    0.000 
#
# Total GULP energy -83682.516993 kJ/mol
# GULP energy per Si atom -5578.834466 kJ/mol
# Density = 2.556375 g / cm^3
# Si number density = 25.622070 Si / 1000 Ang^3
#
#
#
# Elastic Constant Matrix: (Units=GPa)
#
#
# Indices 1 2 3 4 5 6 
#
# 1 70.1570 36.6327 26.1593 11.7189 11.6008 11.2549
# 2 36.6327 155.1244 48.6600 48.0284 16.5858 12.8511
# 3 26.1593 48.6600 86.3232 21.5839 15.4696 29.5875
# 4 11.7189 48.0284 21.5839 41.1666 11.4345 6.5914
# 5 11.6008 16.5858 15.4696 11.4345 25.8804 17.0444
# 6 11.2549 12.8511 29.5875 6.5914 17.0444 60.0812
#
#
#
# Elastic Compliance Matrix: (Units=1/GPa)
#
#
# Indices 1 2 3 4 5 6 
#
# 1 0.017576 -0.003181 -0.003127 0.001655 -0.004767 0.000098
# 2 -0.003181 0.011504 -0.003060 -0.011114 0.000277 0.000783
# 3 -0.003127 -0.003060 0.017622 -0.003352 -0.001271 -0.006710
# 4 0.001655 -0.011114 -0.003352 0.041345 -0.011491 0.002442
# 5 -0.004767 0.000277 -0.001271 -0.011491 0.054901 -0.012854
# 6 0.000098 0.000783 -0.006710 0.002442 -0.012854 0.023141
#
#
# Mechanical properties :
#
#
# Convention : Reuss Voigt Hill
#
# Bulk Modulus (GPa) = 35.75480 59.38983 47.57231
# Shear Modulus (GPa) = 25.75357 38.76916 32.26137
#
# Velocity S-wave (km/s) = 3.17382 3.89410 3.55226
# Velocity P-wave (km/s) = 5.23601 6.59152 5.95248
#
# Compressibility (1/GPa) = 0.02796828
#
# Stress axis : x y z
#
# Youngs Moduli (GPa) = 56.89427 86.92636 56.74588
#
# Poissons Ratio (x) = 0.27650 0.17742
# Poissons Ratio (y) = 0.18097 0.17364
# Poissons Ratio (z) = 0.17788 0.26598
#
# Static dielectric constant tensor:
#      x y z
#    x 2.000090 0.029550 -0.002390 
#    y 0.029550 2.050620 0.029050 
#    z -0.002390 0.029050 2.030970 
# 
# From -- ./inp_files/205518.got.cif
#   From: 2010.05.17/outbox.cif.g08.bks.cpg/sg2_103_cif.got.tgz:205518.got - 2010.06.03 11:33:40.
