data_PCOD9086093
_publ_section_title
;
Structure prediction by ZEFSAII (Michael W. Deem and Ramdas Pophale) SiO2 
 PCOD9086093
Probable space group: P -1
;
_chemical_formula_sum "Si O2"
_cell_formula_units_Z 16
_cell_length_a 7.731328
_cell_length_b 20.344689
_cell_length_c 7.402466
_cell_angle_alpha 59.979147
_cell_angle_beta 52.345276
_cell_angle_gamma 96.466124
_cell_volume 632.359407
_symmetry_space_group_name_H-M "P -1"
_symmetry_group_IT_number 2
_symmetry_cell_setting 'triclinic'
loop_
_space_group_symop_operation_xyz
x,y,z
-x,-y,-z
loop_
_atom_site_type_symbol
_atom_site_label
_atom_site_fract_x
_atom_site_fract_y
_atom_site_fract_z
Si Si1 0.646811 0.972638 0.219118
Si Si2 0.904815 0.710614 0.484729
Si Si3 0.602583 0.399319 0.622079
Si Si4 0.095591 0.645545 0.742020
Si Si5 0.217336 0.420483 0.597562
Si Si6 0.693549 0.802751 0.011775
Si Si7 0.195984 0.156087 0.755933
Si Si8 0.476456 0.089697 0.201553
O O1 0.645971 0.890194 0.244729
O O2 0.573673 0.937976 0.520190
O O3 0.468870 0.006879 0.220372
O O4 0.953048 0.072857 0.897322
O O5 0.898182 0.661770 0.740442
O O6 0.870773 0.643509 0.434883
O O7 0.715761 0.745148 0.525867
O O8 0.219143 0.808784 0.144682
O O9 0.465979 0.424374 0.522189
O O10 0.690419 0.472436 0.628439
O O11 0.383552 0.284238 0.946452
O O12 0.869319 0.418614 0.327702
O O13 0.411457 0.740306 0.398068
O O14 0.004034 0.621856 0.039391
O O15 0.912011 0.839952 0.981493
O O16 0.723087 0.887286 0.774278
#
# Coordination Sequence:
#
# PCOD9086093 Si02
#       8
#     2   2   2   2   2   2   2   2
#     4   9  20  34  55  77 110 150 180 239 288 338
#     4  10  20  37  58  85 114 151 195 232 278 355
#     4   9  21  38  55  89 117 146 197 239 271 351
#     4   9  21  38  55  87 116 153 190 239 278 336
#     4  11  20  38  64  80 120 160 182 238 294 321
#     4   9  19  36  55  79 117 142 188 241 270 346
#     4  10  19  36  54  79 114 145 187 236 286 336
#     4   9  19  36  53  81 111 143 192 230 284 347
#
# _framework density 25.302067000000001
#
# number of rings (size 3 to 8) (size 9 to 14) (size 15 to 20)
#    0.750    1.750    1.250    0.375    1.750    2.500 
#    0.000    2.500    0.000    0.000    0.000    0.000 
#    0.000    0.000    0.000    0.000    0.000    0.000 
#
# Total GULP energy -89146.431002 kJ/mol
# GULP energy per Si atom -5571.651938 kJ/mol
# Density = 2.524448 g / cm^3
# Si number density = 25.302067 Si / 1000 Ang^3
#
#
#
# Elastic Constant Matrix: (Units=GPa)
#
#
# Indices 1 2 3 4 5 6 
#
# 1 50.5429 25.1348 -8.1699 -6.0975 6.0865 -14.3943
# 2 25.1348 173.4282 22.0045 -21.1652 -0.0955 -16.7673
# 3 -8.1699 22.0045 43.6399 8.5161 -8.0746 3.2069
# 4 -6.0975 -21.1652 8.5161 22.2815 -4.8540 6.2567
# 5 6.0865 -0.0955 -8.0746 -4.8540 18.6069 1.4854
# 6 -14.3943 -16.7673 3.2069 6.2567 1.4854 39.9424
#
#
#
# Elastic Compliance Matrix: (Units=1/GPa)
#
#
# Indices 1 2 3 4 5 6 
#
# 1 0.025367 -0.003919 0.005307 -0.002576 -0.007305 0.007745
# 2 -0.003919 0.008453 -0.006776 0.009374 0.000736 0.001184
# 3 0.005307 -0.006776 0.031883 -0.014957 0.008279 -0.001457
# 4 -0.002576 0.009374 -0.014957 0.062967 0.011311 -0.006076
# 5 -0.007305 0.000736 0.008279 0.011311 0.063249 -0.007112
# 6 0.007745 0.001184 -0.001457 -0.006076 -0.007112 0.029658
#
#
# Mechanical properties :
#
#
# Convention : Reuss Voigt Hill
#
# Bulk Modulus (GPa) = 18.20638 38.39442 28.30040
# Shear Modulus (GPa) = 19.94722 31.40892 25.67807
#
# Velocity S-wave (km/s) = 2.81083 3.52711 3.18914
# Velocity P-wave (km/s) = 4.21255 5.63868 4.97696
#
# Compressibility (1/GPa) = 0.05492580
#
# Stress axis : x y z
#
# Youngs Moduli (GPa) = 39.42147 118.30401 31.36475
#
# Poissons Ratio (x) = 0.46367 -0.16645
# Poissons Ratio (y) = 0.15450 0.21253
# Poissons Ratio (z) = -0.20921 0.80164
#
# Static dielectric constant tensor:
#      x y z
#    x 2.157970 0.016130 -0.084600 
#    y 0.016130 2.151470 -0.018280 
#    z -0.084600 -0.018280 2.056300 
# 
# From -- ./inp_files/220625.got.cif
#   From: 2010.05.17/outbox.cif.g08.bks.cpg/sg2_111_cif.got.tgz:220625.got - 2010.06.03 11:33:40.
