data_PCOD9086508
_publ_section_title
;
Structure prediction by ZEFSAII (Michael W. Deem and Ramdas Pophale) SiO2 
 PCOD9086508
Probable space group: P -1
;
_chemical_formula_sum "Si O2"
_cell_formula_units_Z 12
_cell_length_a 11.869810
_cell_length_b 9.080865
_cell_length_c 14.422237
_cell_angle_alpha 72.819247
_cell_angle_beta 20.265733
_cell_angle_gamma 73.462009
_cell_volume 514.294358
_symmetry_space_group_name_H-M "P -1"
_symmetry_group_IT_number 2
_symmetry_cell_setting 'triclinic'
loop_
_space_group_symop_operation_xyz
x,y,z
-x,-y,-z
loop_
_atom_site_type_symbol
_atom_site_label
_atom_site_fract_x
_atom_site_fract_y
_atom_site_fract_z
Si Si1 0.111072 0.028064 0.014045
Si Si2 0.160286 0.264182 0.196616
Si Si3 0.086093 0.676498 0.420071
Si Si4 0.867755 0.343647 0.088645
Si Si5 0.252101 0.450674 0.618859
Si Si6 0.860310 0.950876 0.415784
O O1 0.492851 0.988628 0.725648
O O2 0.025300 0.210074 0.053978
O O3 0.914634 0.951840 0.263019
O O4 0.000000 0.000000 0.000000
O O5 0.099415 0.271317 0.352636
O O6 0.916844 0.396603 0.319273
O O7 0.072817 0.094545 0.260593
O O8 0.524020 0.305954 0.877529
O O9 0.000000 0.500000 0.500000
O O10 0.978099 0.792270 0.400368
O O11 0.481274 0.357552 0.388535
O O12 0.000000 0.500000 0.000000
O O13 0.993056 0.341838 0.887423
O O14 0.500000 0.500000 0.500000
#
# Coordination Sequence:
#
# PCOD9086508 Si02
#       6
#     2   2   2   2   2   2
#     4  12  26  43  68 105 145 184 224 284 355 415
#     4  12  24  46  75 102 137 187 237 287 342 418
#     4  12  28  48  71 104 138 181 236 297 357 406
#     4  10  19  36  58  91 130 171 216 262 321 400
#     4  10  20  35  63  99 131 166 216 274 327 392
#     4  12  25  48  72 101 139 187 239 286 340 423
#
# _framework density 23.332941999999999
#
# number of rings (size 3 to 8) (size 9 to 14) (size 15 to 20)
#    0.000    0.667    0.000   10.000    0.000    4.000 
#    0.000    0.000    0.000    0.000    0.000    0.000 
#    0.000    0.000    0.000    0.000    0.000    0.000 
#
# Total GULP energy -67200.983408 kJ/mol
# GULP energy per Si atom -5600.081951 kJ/mol
# Density = 2.327983 g / cm^3
# Si number density = 23.332942 Si / 1000 Ang^3
#
#
#
# Elastic Constant Matrix: (Units=GPa)
#
#
# Indices 1 2 3 4 5 6 
#
# 1 66.0070 50.3880 -11.8938 -6.9882 16.5315 -13.7498
# 2 50.3880 165.4992 51.9856 -3.4288 -6.4869 -36.1791
# 3 -11.8938 51.9856 129.3557 6.1837 11.5380 -3.2204
# 4 -6.9882 -3.4288 6.1837 33.2944 -4.2607 -0.7829
# 5 16.5315 -6.4869 11.5380 -4.2607 52.7536 0.4932
# 6 -13.7498 -36.1791 -3.2204 -0.7829 0.4932 54.5388
#
#
#
# Elastic Compliance Matrix: (Units=1/GPa)
#
#
# Indices 1 2 3 4 5 6 
#
# 1 0.029086 -0.011964 0.008499 0.001720 -0.012306 0.000034
# 2 -0.011964 0.013365 -0.007016 0.001187 0.006973 0.005389
# 3 0.008499 -0.007016 0.011943 -0.002003 -0.006283 -0.001778
# 4 0.001720 0.001187 -0.002003 0.031253 0.002555 0.001528
# 5 -0.012306 0.006973 -0.006283 0.002555 0.025241 0.000960
# 6 0.000034 0.005389 -0.001778 0.001528 0.000960 0.021827
#
#
# Mechanical properties :
#
#
# Convention : Reuss Voigt Hill
#
# Bulk Modulus (GPa) = 29.91169 60.20239 45.05704
# Shear Modulus (GPa) = 30.33570 46.14284 38.23927
#
# Velocity S-wave (km/s) = 3.60963 4.45183 4.05267
# Velocity P-wave (km/s) = 5.49727 7.23066 6.42271
#
# Compressibility (1/GPa) = 0.03343175
#
# Stress axis : x y z
#
# Youngs Moduli (GPa) = 34.38091 74.82400 83.72791
#
# Poissons Ratio (x) = 0.89523 -0.71160
# Poissons Ratio (y) = 0.41135 0.58740
# Poissons Ratio (z) = -0.29220 0.52494
#
# Static dielectric constant tensor:
#      x y z
#    x 1.836030 0.004030 0.189510 
#    y 0.004030 1.878060 0.150610 
#    z 0.189510 0.150610 2.153890 
# 
# From -- ./inp_files/361066.got.cif
#   From: 2010.05.17/outbox.cif.g08.bks.cpg/sg2_181_cif.got.tgz:361066.got - 2010.06.03 11:33:40.
