data_PCOD9086913
_publ_section_title
;
Structure prediction by ZEFSAII (Michael W. Deem and Ramdas Pophale) SiO2 
 PCOD9086913
Probable space group: P -1
;
_chemical_formula_sum "Si O2"
_cell_formula_units_Z 12
_cell_length_a 10.727680
_cell_length_b 7.748081
_cell_length_c 12.027805
_cell_angle_alpha 74.852294
_cell_angle_beta 34.533022
_cell_angle_gamma 60.482979
_cell_volume 471.524350
_symmetry_space_group_name_H-M "P -1"
_symmetry_group_IT_number 2
_symmetry_cell_setting 'triclinic'
loop_
_space_group_symop_operation_xyz
x,y,z
-x,-y,-z
loop_
_atom_site_type_symbol
_atom_site_label
_atom_site_fract_x
_atom_site_fract_y
_atom_site_fract_z
Si Si1 0.236867 0.346947 0.136221
Si Si2 0.629567 0.978629 0.071995
Si Si3 0.874331 0.365604 0.654514
Si Si4 0.288099 0.926658 0.765779
Si Si5 0.660860 0.442035 0.570486
Si Si6 0.837003 0.045331 0.381720
O O1 0.232530 0.546476 0.158955
O O2 0.000000 0.500000 0.500000
O O3 0.939006 0.412659 0.344001
O O4 0.336800 0.235713 0.963212
O O5 0.603136 0.012271 0.218085
O O6 0.409714 0.165438 0.129263
O O7 0.894835 0.968785 0.845793
O O8 0.681259 0.392697 0.695424
O O9 0.078360 0.125826 0.556644
O O10 0.444916 0.678725 0.676586
O O11 0.262428 0.013276 0.645445
O O12 0.000000 0.000000 0.000000
O O13 0.650497 0.273460 0.528414
#
# Coordination Sequence:
#
# PCOD9086913 Si02
#       6
#     2   2   2   2   2   2
#     4   9  18  34  58  83 112 149 193 232 289 323
#     4   9  18  35  58  84 116 150 185 240 284 343
#     4  10  20  36  59  86 114 149 198 243 281 330
#     4  10  20  36  57  87 121 151 185 237 294 345
#     4  10  19  36  61  82 116 153 189 240 283 343
#     4  10  21  35  58  90 115 151 195 228 291 352
#
# _framework density 25.449373999999999
#
# number of rings (size 3 to 8) (size 9 to 14) (size 15 to 20)
#    0.000    2.333    1.667    1.000    0.000    0.667 
#    0.000    4.167    0.000    0.000    0.000    0.000 
#    0.000    0.000    0.000    0.000    0.000    0.000 
#
# Total GULP energy -67094.095021 kJ/mol
# GULP energy per Si atom -5591.174585 kJ/mol
# Density = 2.539145 g / cm^3
# Si number density = 25.449374 Si / 1000 Ang^3
#
#
#
# Elastic Constant Matrix: (Units=GPa)
#
#
# Indices 1 2 3 4 5 6 
#
# 1 97.7848 27.3590 38.4037 -4.9987 4.2698 -2.1560
# 2 27.3590 66.9317 37.1696 19.3906 10.4000 -5.7452
# 3 38.4037 37.1696 141.4598 23.4790 14.7860 -4.2263
# 4 -4.9987 19.3906 23.4790 48.7859 -0.8064 -2.8370
# 5 4.2698 10.4000 14.7860 -0.8064 61.7966 0.6895
# 6 -2.1560 -5.7452 -4.2263 -2.8370 0.6895 47.5847
#
#
#
# Elastic Compliance Matrix: (Units=1/GPa)
#
#
# Indices 1 2 3 4 5 6 
#
# 1 0.013107 -0.005183 -0.003091 0.004902 0.000771 -0.000025
# 2 -0.005183 0.021288 -0.002573 -0.007701 -0.002728 0.001687
# 3 -0.003091 -0.002573 0.009399 -0.003835 -0.001654 0.000179
# 4 0.004902 -0.007701 -0.003835 0.025970 0.002208 0.000468
# 5 0.000771 -0.002728 -0.001654 0.002208 0.017019 -0.000556
# 6 -0.000025 0.001687 0.000179 0.000468 -0.000556 0.021270
#
#
# Mechanical properties :
#
#
# Convention : Reuss Voigt Hill
#
# Bulk Modulus (GPa) = 45.24921 56.89344 51.07133
# Shear Modulus (GPa) = 36.46621 45.18305 40.82463
#
# Velocity S-wave (km/s) = 3.78946 4.21813 4.00953
# Velocity P-wave (km/s) = 6.07992 6.79173 6.44566
#
# Compressibility (1/GPa) = 0.02209983
#
# Stress axis : x y z
#
# Youngs Moduli (GPa) = 76.29413 46.97561 106.39285
#
# Poissons Ratio (x) = 0.24347 0.32890
# Poissons Ratio (y) = 0.39543 0.27371
# Poissons Ratio (z) = 0.23586 0.12085
#
# Static dielectric constant tensor:
#      x y z
#    x 1.999460 0.061340 -0.014080 
#    y 0.061340 1.950390 -0.053540 
#    z -0.014080 -0.053540 2.124250 
# 
# From -- ./inp_files/290438.got.cif
#   From: 2010.05.17/outbox.cif.g08.bks.cpg/sg2_146_cif.got.tgz:290438.got - 2010.06.03 11:33:40.
