data_PCOD9086295
_publ_section_title
;
Structure prediction by ZEFSAII (Michael W. Deem and Ramdas Pophale) SiO2 
 PCOD9086295
Probable space group: P -1
;
_chemical_formula_sum "Si O2"
_cell_formula_units_Z 14
_cell_length_a 5.519997
_cell_length_b 11.026192
_cell_length_c 13.695434
_cell_angle_alpha 125.984884
_cell_angle_beta 76.383729
_cell_angle_gamma 74.146330
_cell_volume 558.634965
_symmetry_space_group_name_H-M "P -1"
_symmetry_group_IT_number 2
_symmetry_cell_setting 'triclinic'
loop_
_space_group_symop_operation_xyz
x,y,z
-x,-y,-z
loop_
_atom_site_type_symbol
_atom_site_label
_atom_site_fract_x
_atom_site_fract_y
_atom_site_fract_z
Si Si1 0.190304 0.621038 0.244342
Si Si2 0.774319 0.706039 0.629551
Si Si3 0.225922 0.428618 0.855966
Si Si4 0.041433 0.183205 0.987143
Si Si5 0.461778 0.218614 0.094238
Si Si6 0.649964 0.011977 0.331161
Si Si7 0.963385 0.886121 0.565953
O O1 0.440285 0.642838 0.178010
O O2 0.325281 0.413729 0.151579
O O3 0.128325 0.723807 0.400201
O O4 0.115848 0.320843 0.752925
O O5 0.630923 0.748028 0.768572
O O6 0.526389 0.790820 0.608820
O O7 0.000000 0.500000 0.500000
O O8 0.935458 0.812113 0.638719
O O9 0.000000 0.500000 0.000000
O O10 0.145546 0.604743 0.887899
O O11 0.176094 0.117294 0.835914
O O12 0.308568 0.130766 0.009826
O O13 0.807792 0.127353 0.002859
O O14 0.866131 0.013951 0.390126
O O15 0.373309 0.998376 0.381025
#
# Coordination Sequence:
#
# PCOD9086295 Si02
#       7
#     2   2   2   2   2   2   2
#     4  10  19  36  57  84 109 137 175 226 271 318
#     4  10  22  35  54  80 110 146 191 225 250 305
#     4  10  21  37  62  85 104 134 177 227 276 325
#     4  10  22  37  55  77 112 145 176 222 277 322
#     4  10  20  34  54  79 109 146 183 221 265 308
#     4  10  22  36  52  78 110 155 177 218 265 315
#     4  10  21  36  55  79 109 149 183 217 264 309
#
# _framework density 25.061088000000002
#
# number of rings (size 3 to 8) (size 9 to 14) (size 15 to 20)
#    0.857    1.143    1.429    2.143    2.000    2.857 
#    0.000    0.000    0.000    5.143    0.000    0.000 
#    0.000    0.000    0.000    0.000    0.000    0.000 
#
# Total GULP energy -78260.128704 kJ/mol
# GULP energy per Si atom -5590.009193 kJ/mol
# Density = 2.500405 g / cm^3
# Si number density = 25.061088 Si / 1000 Ang^3
#
#
#
# Elastic Constant Matrix: (Units=GPa)
#
#
# Indices 1 2 3 4 5 6 
#
# 1 233.9477 36.1862 59.1879 7.3970 10.9589 13.0559
# 2 36.1862 68.8662 -14.1224 10.3834 -1.3136 3.3535
# 3 59.1879 -14.1224 94.2246 2.5687 -3.8240 12.5867
# 4 7.3970 10.3834 2.5687 41.5005 6.1967 -5.6507
# 5 10.9589 -1.3136 -3.8240 6.1967 41.6782 -0.3295
# 6 13.0559 3.3535 12.5867 -5.6507 -0.3295 45.2474
#
#
#
# Elastic Compliance Matrix: (Units=1/GPa)
#
#
# Indices 1 2 3 4 5 6 
#
# 1 0.006219 -0.004349 -0.004651 0.000593 -0.002288 -0.000121
# 2 -0.004349 0.019033 0.006183 -0.005167 0.003059 -0.002499
# 3 -0.004651 0.006183 0.015147 -0.002624 0.003169 -0.003634
# 4 0.000593 -0.005167 -0.002624 0.026694 -0.004495 0.004243
# 5 -0.002288 0.003059 0.003169 -0.004495 0.025644 -0.000823
# 6 -0.000121 -0.002499 -0.003634 0.004243 -0.000823 0.023856
#
#
# Mechanical properties :
#
#
# Convention : Reuss Voigt Hill
#
# Bulk Modulus (GPa) = 28.76417 62.17130 45.46774
# Shear Modulus (GPa) = 37.36503 46.73769 42.05136
#
# Velocity S-wave (km/s) = 3.86548 4.32319 4.10073
# Velocity P-wave (km/s) = 5.60581 7.05562 6.37208
#
# Compressibility (1/GPa) = 0.03476548
#
# Stress axis : x y z
#
# Youngs Moduli (GPa) = 160.79654 52.54028 66.01981
#
# Poissons Ratio (x) = 0.22849 0.30707
# Poissons Ratio (y) = 0.69927 -0.40821
# Poissons Ratio (z) = 0.74790 -0.32487
#
# Static dielectric constant tensor:
#      x y z
#    x 2.007860 -0.024020 -0.004860 
#    y -0.024020 2.065900 0.013900 
#    z -0.004860 0.013900 1.889530 
# 
# From -- ./inp_files/368047.got.cif
#   From: 2010.05.17/outbox.cif.g08.bks.cpg/sg2_185_cif.got.tgz:368047.got - 2010.06.03 11:33:40.
