data_PCOD9086437
_publ_section_title
;
Structure prediction by ZEFSAII (Michael W. Deem and Ramdas Pophale) SiO2 
 PCOD9086437
Probable space group: P -1
;
_chemical_formula_sum "Si O2"
_cell_formula_units_Z 16
_cell_length_a 7.144788
_cell_length_b 6.220186
_cell_length_c 29.413195
_cell_angle_alpha 51.055610
_cell_angle_beta 141.098295
_cell_angle_gamma 119.983910
_cell_volume 638.302416
_symmetry_space_group_name_H-M "P -1"
_symmetry_group_IT_number 2
_symmetry_cell_setting 'triclinic'
loop_
_space_group_symop_operation_xyz
x,y,z
-x,-y,-z
loop_
_atom_site_type_symbol
_atom_site_label
_atom_site_fract_x
_atom_site_fract_y
_atom_site_fract_z
Si Si1 0.958281 0.764059 0.744444
Si Si2 0.108540 0.428007 0.980485
Si Si3 0.428547 0.858896 0.133374
Si Si4 0.374577 0.523414 0.616054
Si Si5 0.283876 0.644359 0.386791
Si Si6 0.702938 0.913645 0.507073
Si Si7 0.441105 0.041059 0.751821
Si Si8 0.937555 0.127944 0.152541
O O1 0.033617 0.687461 0.820407
O O2 0.663128 0.627235 0.685902
O O3 0.233591 0.775566 0.760156
O O4 0.904709 0.093406 0.696250
O O5 0.221696 0.701820 0.939964
O O6 0.823511 0.337927 0.908438
O O7 0.000000 0.500000 0.000000
O O8 0.317000 0.169488 0.060614
O O9 0.465103 0.835602 0.197600
O O10 0.735275 0.861549 0.162943
O O11 0.498870 0.419175 0.605539
O O12 0.258589 0.258142 0.657505
O O13 0.182525 0.795972 0.532003
O O14 0.482090 0.768997 0.448549
O O15 0.115548 0.351750 0.405975
O O16 0.500000 0.000000 0.500000
O O17 0.738126 0.961694 0.791549
#
# Coordination Sequence:
#
# PCOD9086437 Si02
#       8
#     2   2   2   2   2   2   2   2
#     4  10  22  38  58  85 119 153 195 240 290 346
#     4  11  22  42  63  88 116 152 195 240 289 348
#     4  10  24  42  61  87 119 150 194 241 288 347
#     4  10  19  36  58  85 117 156 190 243 295 336
#     4   9  16  34  57  85 117 154 194 241 291 341
#     4   8  16  30  59  86 114 157 195 236 295 340
#     4  11  22  40  59  88 118 152 198 237 285 357
#     4  11  22  41  61  85 119 157 189 241 294 340
#
# _framework density 25.066488
#
# number of rings (size 3 to 8) (size 9 to 14) (size 15 to 20)
#    0.000    2.000    2.500    1.125    0.000    1.500 
#    4.500    0.625    0.000   25.500    0.000    0.000 
#    0.000    0.000    0.000    0.000    0.000    0.000 
#
# Total GULP energy -89426.942535 kJ/mol
# GULP energy per Si atom -5589.183908 kJ/mol
# Density = 2.500944 g / cm^3
# Si number density = 25.066488 Si / 1000 Ang^3
#
#
#
# Elastic Constant Matrix: (Units=GPa)
#
#
# Indices 1 2 3 4 5 6 
#
# 1 122.1020 25.1558 21.5117 -5.2296 -23.0582 -2.0635
# 2 25.1558 76.8865 25.1320 -5.0868 -15.2254 -9.7556
# 3 21.5117 25.1320 83.3609 -14.6702 -31.6835 -6.6338
# 4 -5.2296 -5.0868 -14.6702 50.2265 -0.4113 -3.6395
# 5 -23.0582 -15.2254 -31.6835 -0.4113 54.0019 0.6347
# 6 -2.0635 -9.7556 -6.6338 -3.6395 0.6347 25.4058
#
#
#
# Elastic Compliance Matrix: (Units=1/GPa)
#
#
# Indices 1 2 3 4 5 6 
#
# 1 0.009347 -0.002285 -0.000461 0.000616 0.003084 -0.000227
# 2 -0.002285 0.015769 -0.002958 0.000885 0.001681 0.005182
# 3 -0.000461 -0.002958 0.017824 0.005225 0.009420 0.003994
# 4 0.000616 0.000885 0.005225 0.021968 0.003689 0.004809
# 5 0.003084 0.001681 0.009420 0.003689 0.025825 0.003239
# 6 -0.000227 0.005182 0.003994 0.004809 0.003239 0.042984
#
#
# Mechanical properties :
#
#
# Convention : Reuss Voigt Hill
#
# Bulk Modulus (GPa) = 31.71184 47.32759 39.51972
# Shear Modulus (GPa) = 32.12634 39.96349 36.04491
#
# Velocity S-wave (km/s) = 3.58389 3.99720 3.79617
# Velocity P-wave (km/s) = 5.45933 6.34234 5.91733
#
# Compressibility (1/GPa) = 0.03153396
#
# Stress axis : x y z
#
# Youngs Moduli (GPa) = 106.98990 63.41373 56.10313
#
# Poissons Ratio (x) = 0.14489 0.02585
# Poissons Ratio (y) = 0.24446 0.16593
# Poissons Ratio (z) = 0.04929 0.18755
#
# Static dielectric constant tensor:
#      x y z
#    x 2.077380 0.019290 0.011000 
#    y 0.019290 1.948350 -0.064080 
#    z 0.011000 -0.064080 2.022690 
# 
# From -- ./inp_files/13286.got.cif
#   From: 2010.05.17/outbox.cif.g08.bks.cpg/sg2_7_cif.got.tgz:13286.got - 2010.06.03 11:33:40.
