data_PCOD9086592
_publ_section_title
;
Structure prediction by ZEFSAII (Michael W. Deem and Ramdas Pophale) SiO2 
 PCOD9086592
Probable space group: P -1
;
_chemical_formula_sum "Si O2"
_cell_formula_units_Z 14
_cell_length_a 11.406665
_cell_length_b 12.402317
_cell_length_c 10.469709
_cell_angle_alpha 146.642143
_cell_angle_beta 46.790003
_cell_angle_gamma 115.048785
_cell_volume 551.350825
_symmetry_space_group_name_H-M "P -1"
_symmetry_group_IT_number 2
_symmetry_cell_setting 'triclinic'
loop_
_space_group_symop_operation_xyz
x,y,z
-x,-y,-z
loop_
_atom_site_type_symbol
_atom_site_label
_atom_site_fract_x
_atom_site_fract_y
_atom_site_fract_z
Si Si1 0.173965 0.408151 0.604831
Si Si2 0.078621 0.763009 0.252584
Si Si3 0.602879 0.496462 0.115673
Si Si4 0.609633 0.693729 0.050764
Si Si5 0.862825 0.199402 0.125460
Si Si6 0.520772 0.272536 0.319947
Si Si7 0.769441 0.019573 0.275452
O O1 0.151807 0.559852 0.650595
O O2 0.371094 0.237209 0.311494
O O3 0.041872 0.292145 0.609522
O O4 0.117231 0.589331 0.938529
O O5 0.265198 0.709908 0.121793
O O6 0.000000 0.000000 0.500000
O O7 0.678195 0.556723 0.991398
O O8 0.559948 0.685111 0.435287
O O9 0.434356 0.448754 0.160944
O O10 0.730377 0.819555 0.051823
O O11 0.413452 0.846490 0.389658
O O12 0.724709 0.164482 0.093689
O O13 0.813696 0.139686 0.242983
O O14 0.067819 0.058457 0.827114
O O15 0.500000 0.500000 0.500000
#
# Coordination Sequence:
#
# PCOD9086592 Si02
#       7
#     2   2   2   2   2   2   2
#     4   9  20  37  60  83 118 158 192 246 299 357
#     4  10  21  36  58  91 116 150 201 246 298 350
#     4  10  20  37  58  85 120 153 194 250 295 349
#     4  10  21  37  59  87 119 153 201 244 296 346
#     4  10  19  36  59  85 117 153 199 238 299 358
#     4   9  18  36  59  80 113 163 192 232 301 360
#     4  10  21  35  60  89 112 159 200 241 291 362
#
# _framework density 25.392181000000001
#
# number of rings (size 3 to 8) (size 9 to 14) (size 15 to 20)
#    0.000    2.286    1.429    0.857    2.000    1.143 
#    0.000    3.571    0.000   10.286    0.000    0.000 
#    0.000    0.000    0.000    0.000    0.000    0.000 
#
# Total GULP energy -78167.961596 kJ/mol
# GULP energy per Si atom -5583.425828 kJ/mol
# Density = 2.533439 g / cm^3
# Si number density = 25.392181 Si / 1000 Ang^3
#
#
#
# Elastic Constant Matrix: (Units=GPa)
#
#
# Indices 1 2 3 4 5 6 
#
# 1 88.2553 38.5051 32.3943 19.2862 -34.8702 -3.5404
# 2 38.5051 151.1052 27.2117 7.1765 -12.8368 3.3471
# 3 32.3943 27.2117 92.8886 13.8782 -39.4775 -4.5225
# 4 19.2862 7.1765 13.8782 32.8833 -2.2148 -7.9839
# 5 -34.8702 -12.8368 -39.4775 -2.2148 43.2584 10.1600
# 6 -3.5404 3.3471 -4.5225 -7.9839 10.1600 36.7758
#
#
#
# Elastic Compliance Matrix: (Units=1/GPa)
#
#
# Indices 1 2 3 4 5 6 
#
# 1 0.023167 -0.003981 0.004407 -0.014580 0.022218 -0.006169
# 2 -0.003981 0.007747 -0.002333 0.001366 -0.002904 -0.000276
# 3 0.004407 -0.002333 0.020847 -0.010652 0.022597 -0.005355
# 4 -0.014580 0.001366 -0.010652 0.044827 -0.021808 0.012919
# 5 0.022218 -0.002904 0.022597 -0.021808 0.063698 -0.017150
# 6 -0.006169 -0.000276 -0.005355 0.012919 -0.017150 0.033507
#
#
# Mechanical properties :
#
#
# Convention : Reuss Voigt Hill
#
# Bulk Modulus (GPa) = 20.85595 58.71905 39.78750
# Shear Modulus (GPa) = 23.40953 38.19272 30.80112
#
# Velocity S-wave (km/s) = 3.03961 3.88250 3.48662
# Velocity P-wave (km/s) = 4.53324 6.57825 5.64906
#
# Compressibility (1/GPa) = 0.04794794
#
# Stress axis : x y z
#
# Youngs Moduli (GPa) = 43.16523 129.08348 47.96947
#
# Poissons Ratio (x) = 0.51382 -0.21142
# Poissons Ratio (y) = 0.17182 0.11191
# Poissons Ratio (z) = -0.19025 0.30115
#
# Static dielectric constant tensor:
#      x y z
#    x 2.040000 -0.022010 0.068570 
#    y -0.022010 1.986980 -0.043720 
#    z 0.068570 -0.043720 2.154660 
# 
# From -- ./inp_files/282940.got.cif
#   From: 2010.05.17/outbox.cif.g08.bks.cpg/sg2_142_cif.got.tgz:282940.got - 2010.06.03 11:33:40.
