data_PCOD9086559
_publ_section_title
;
Structure prediction by ZEFSAII (Michael W. Deem and Ramdas Pophale) SiO2 
 PCOD9086559
Probable space group: P -1
;
_chemical_formula_sum "Si O2"
_cell_formula_units_Z 16
_cell_length_a 7.809594
_cell_length_b 9.103197
_cell_length_c 14.156306
_cell_angle_alpha 65.122623
_cell_angle_beta 48.885609
_cell_angle_gamma 91.720853
_cell_volume 614.750126
_symmetry_space_group_name_H-M "P -1"
_symmetry_group_IT_number 2
_symmetry_cell_setting 'triclinic'
loop_
_space_group_symop_operation_xyz
x,y,z
-x,-y,-z
loop_
_atom_site_type_symbol
_atom_site_label
_atom_site_fract_x
_atom_site_fract_y
_atom_site_fract_z
Si Si1 0.000479 0.886461 0.191922
Si Si2 0.766093 0.462661 0.350777
Si Si3 0.872989 0.168341 0.113856
Si Si4 0.253476 0.610401 0.049280
Si Si5 0.012001 0.849190 0.410676
Si Si6 0.582870 0.755153 0.076591
Si Si7 0.316613 0.532247 0.416614
Si Si8 0.592467 0.818508 0.720112
O O1 0.903089 0.676727 0.270627
O O2 0.975641 0.921363 0.302534
O O3 0.837706 0.965483 0.171688
O O4 0.287972 0.026349 0.023784
O O5 0.515814 0.444886 0.392063
O O6 0.700767 0.376978 0.502192
O O7 0.987744 0.438606 0.220779
O O8 0.644240 0.177921 0.250397
O O9 0.852791 0.261735 0.999563
O O10 0.160078 0.271898 0.018491
O O11 0.404820 0.683207 0.070906
O O12 0.472235 0.644716 0.881342
O O13 0.946420 0.641956 0.468833
O O14 0.805751 0.826117 0.570987
O O15 0.279126 0.000008 0.311704
O O16 0.440156 0.660675 0.248597
#
# Coordination Sequence:
#
# PCOD9086559 Si02
#       8
#     2   2   2   2   2   2   2   2
#     4   9  18  35  59  86 105 154 189 222 280 337
#     4  10  20  37  59  81 119 150 183 236 282 331
#     4   8  18  35  57  88 107 147 192 234 271 332
#     4  10  19  36  59  83 114 149 191 233 274 335
#     4  10  19  36  61  85 111 148 189 238 283 329
#     4  10  19  37  58  83 116 147 193 226 279 344
#     4  10  21  37  54  86 119 145 184 238 284 338
#     4   9  18  37  60  81 114 144 192 241 274 327
#
# _framework density 26.026837
#
# number of rings (size 3 to 8) (size 9 to 14) (size 15 to 20)
#    1.500    1.000    2.500    0.000    0.000    3.500 
#    0.000    6.875    0.000    0.000    0.000    0.000 
#    0.000    0.000    0.000    0.000    0.000    0.000 
#
# Total GULP energy -89290.226384 kJ/mol
# GULP energy per Si atom -5580.639149 kJ/mol
# Density = 2.596760 g / cm^3
# Si number density = 26.026837 Si / 1000 Ang^3
#
#
#
# Elastic Constant Matrix: (Units=GPa)
#
#
# Indices 1 2 3 4 5 6 
#
# 1 120.6247 23.8419 28.5513 -2.3485 -4.3643 17.8592
# 2 23.8419 58.2076 16.3525 -15.4840 -2.0317 16.3320
# 3 28.5513 16.3525 165.8050 -0.0346 0.3582 0.9803
# 4 -2.3485 -15.4840 -0.0346 34.3052 -0.4770 -10.9320
# 5 -4.3643 -2.0317 0.3582 -0.4770 53.7444 -3.9893
# 6 17.8592 16.3320 0.9803 -10.9320 -3.9893 23.5827
#
#
#
# Elastic Compliance Matrix: (Units=1/GPa)
#
#
# Indices 1 2 3 4 5 6 
#
# 1 0.010129 -0.002445 -0.001462 -0.002680 0.000187 -0.007128
# 2 -0.002445 0.023711 -0.001849 0.006934 -0.000066 -0.011289
# 3 -0.001462 -0.001849 0.006454 -0.000304 -0.000089 0.001964
# 4 -0.002680 0.006934 -0.000304 0.036743 0.001450 0.014518
# 5 0.000187 -0.000066 -0.000089 0.001450 0.018913 0.003780
# 6 -0.007128 -0.011289 0.001964 0.014518 0.003780 0.062908
#
#
# Mechanical properties :
#
#
# Convention : Reuss Voigt Hill
#
# Bulk Modulus (GPa) = 34.74391 53.56985 44.15688
# Shear Modulus (GPa) = 27.78340 40.71922 34.25131
#
# Velocity S-wave (km/s) = 3.27079 3.95968 3.63161
# Velocity P-wave (km/s) = 5.25760 6.44458 5.88111
#
# Compressibility (1/GPa) = 0.02878202
#
# Stress axis : x y z
#
# Youngs Moduli (GPa) = 98.72294 42.17525 154.94716
#
# Poissons Ratio (x) = 0.10311 0.22653
# Poissons Ratio (y) = 0.24136 0.28652
# Poissons Ratio (z) = 0.14433 0.07799
#
# Static dielectric constant tensor:
#      x y z
#    x 2.086580 -0.084360 -0.049560 
#    y -0.084360 2.162230 0.090050 
#    z -0.049560 0.090050 2.129870 
# 
# From -- ./inp_files/499043.got.cif
#   From: 2010.05.17/outbox.cif.g08.bks.cpg/sg2_250_cif.got.tgz:499043.got - 2010.06.03 11:33:40.
