data_PCOD9086290
_publ_section_title
;
Structure prediction by ZEFSAII (Michael W. Deem and Ramdas Pophale) SiO2 
 PCOD9086290
Probable space group: P -1
;
_chemical_formula_sum "Si O2"
_cell_formula_units_Z 16
_cell_length_a 8.401490
_cell_length_b 11.967115
_cell_length_c 9.453660
_cell_angle_alpha 66.575583
_cell_angle_beta 72.251976
_cell_angle_gamma 89.540290
_cell_volume 823.650214
_symmetry_space_group_name_H-M "P -1"
_symmetry_group_IT_number 2
_symmetry_cell_setting 'triclinic'
loop_
_space_group_symop_operation_xyz
x,y,z
-x,-y,-z
loop_
_atom_site_type_symbol
_atom_site_label
_atom_site_fract_x
_atom_site_fract_y
_atom_site_fract_z
Si Si1 0.441955 0.701405 0.569594
Si Si2 0.199867 0.560566 0.528598
Si Si3 0.651208 0.438801 0.054448
Si Si4 0.949779 0.644646 0.795069
Si Si5 0.840156 0.229368 0.062144
Si Si6 0.807691 0.817713 0.525790
Si Si7 0.990620 0.695157 0.308809
Si Si8 0.308846 0.936997 0.586714
O O1 0.385159 0.628491 0.479348
O O2 0.392480 0.599866 0.754558
O O3 0.629313 0.762481 0.528790
O O4 0.322932 0.810867 0.562193
O O5 0.168331 0.413017 0.605948
O O6 0.074797 0.594887 0.671485
O O7 0.131831 0.618460 0.375839
O O8 0.689216 0.311762 0.037780
O O9 0.500000 0.500000 0.000000
O O10 0.819304 0.532410 0.942064
O O11 0.847719 0.739432 0.690601
O O12 0.045896 0.707635 0.872179
O O13 0.757204 0.102231 0.218243
O O14 0.949135 0.240263 0.885735
O O15 0.946777 0.794018 0.384639
O O16 0.799155 0.959903 0.491152
O O17 0.500000 0.000000 0.500000
#
# Coordination Sequence:
#
# PCOD9086290 Si02
#       8
#     2   2   2   2   2   2   2   2
#     4  10  19  37  60  83 111 154 190 237 284 331
#     4  10  19  36  57  83 116 155 183 222 298 343
#     4  11  19  30  56  87 114 138 184 242 281 327
#     4  11  19  34  58  88 112 146 191 239 279 339
#     4  11  21  37  59  84 114 154 185 236 293 324
#     4  10  22  37  56  85 116 150 195 229 278 345
#     4  10  22  35  55  85 122 150 180 232 287 352
#     4   9  20  38  62  82 109 150 196 241 281 323
#
# _framework density 19.425723999999999
#
# number of rings (size 3 to 8) (size 9 to 14) (size 15 to 20)
#    0.000    1.750    5.000    1.125    0.000    1.500 
#    0.000    1.250    0.000    1.500    0.000    0.000 
#    0.000    0.000    0.000    0.000    0.000    0.000 
#
# Total GULP energy -89204.214185 kJ/mol
# GULP energy per Si atom -5575.263387 kJ/mol
# Density = 1.938151 g / cm^3
# Si number density = 19.425724 Si / 1000 Ang^3
#
#
#
# Elastic Constant Matrix: (Units=GPa)
#
#
# Indices 1 2 3 4 5 6 
#
# 1 57.5323 13.7545 6.8227 -8.6365 9.9529 2.1982
# 2 13.7545 53.3757 19.7471 -15.1860 15.9401 -9.7357
# 3 6.8227 19.7471 89.6534 -10.9722 -3.0539 4.4396
# 4 -8.6365 -15.1860 -10.9722 31.4338 0.0132 6.0689
# 5 9.9529 15.9401 -3.0539 0.0132 23.5434 -7.1526
# 6 2.1982 -9.7357 4.4396 6.0689 -7.1526 29.4887
#
#
#
# Elastic Compliance Matrix: (Units=1/GPa)
#
#
# Indices 1 2 3 4 5 6 
#
# 1 0.020509 -0.001701 -0.000538 0.005675 -0.009238 -0.005418
# 2 -0.001701 0.031700 -0.006301 0.011849 -0.020298 0.004179
# 3 -0.000538 -0.006301 0.013164 0.002012 0.005238 -0.003166
# 4 0.005675 0.011849 0.002012 0.041433 -0.012746 -0.008433
# 5 -0.009238 -0.020298 0.005238 -0.012746 0.064276 0.011412
# 6 -0.005418 0.004179 -0.003166 -0.008433 0.011412 0.040675
#
#
# Mechanical properties :
#
#
# Convention : Reuss Voigt Hill
#
# Bulk Modulus (GPa) = 20.70659 31.24554 25.97606
# Shear Modulus (GPa) = 20.41365 27.57567 23.99466
#
# Velocity S-wave (km/s) = 3.24521 3.77177 3.51835
# Velocity P-wave (km/s) = 4.97236 5.92350 5.46865
#
# Compressibility (1/GPa) = 0.04829381
#
# Stress axis : x y z
#
# Youngs Moduli (GPa) = 48.75909 31.54598 75.96305
#
# Poissons Ratio (x) = 0.05365 0.04086
# Poissons Ratio (y) = 0.08293 0.47864
# Poissons Ratio (z) = 0.02623 0.19877
#
# Static dielectric constant tensor:
#      x y z
#    x 1.742610 0.007930 0.001720 
#    y 0.007930 1.715010 -0.001890 
#    z 0.001720 -0.001890 1.676940 
# 
# From -- ./inp_files/175022.got.cif
#   From: 2010.05.17/outbox.cif.g08.bks.cpg/sg2_88_cif.got.tgz:175022.got - 2010.06.03 11:33:40.
