data_PCOD9086961
_publ_section_title
;
Structure prediction by ZEFSAII (Michael W. Deem and Ramdas Pophale) SiO2 
 PCOD9086961
Probable space group: P -1
;
_chemical_formula_sum "Si O2"
_cell_formula_units_Z 14
_cell_length_a 13.983906
_cell_length_b 7.752778
_cell_length_c 11.033660
_cell_angle_alpha 116.868162
_cell_angle_beta 148.219985
_cell_angle_gamma 71.371503
_cell_volume 556.620412
_symmetry_space_group_name_H-M "P -1"
_symmetry_group_IT_number 2
_symmetry_cell_setting 'triclinic'
loop_
_space_group_symop_operation_xyz
x,y,z
-x,-y,-z
loop_
_atom_site_type_symbol
_atom_site_label
_atom_site_fract_x
_atom_site_fract_y
_atom_site_fract_z
Si Si1 0.748580 0.133665 0.706243
Si Si2 0.109329 0.390809 0.684141
Si Si3 0.305080 0.039447 0.149258
Si Si4 0.762896 0.934185 0.430625
Si Si5 0.625339 0.301410 0.029901
Si Si6 0.715275 0.537420 0.711620
Si Si7 0.223015 0.644770 0.526958
O O1 0.527423 0.090107 0.425889
O O2 0.805081 0.362190 0.813474
O O3 0.770426 0.070764 0.846110
O O4 0.842501 0.004798 0.669452
O O5 0.130079 0.179916 0.586179
O O6 0.302382 0.532758 0.937487
O O7 0.000000 0.500000 0.500000
O O8 0.990156 0.377708 0.671954
O O9 0.226184 0.241722 0.114332
O O10 0.280733 0.889372 0.964594
O O11 0.715880 0.135775 0.386671
O O12 0.587139 0.778513 0.223518
O O13 0.676485 0.371279 0.242459
O O14 0.500000 0.500000 0.500000
O O15 0.737606 0.505764 0.581678
#
# Coordination Sequence:
#
# PCOD9086961 Si02
#       7
#     2   2   2   2   2   2   2
#     4   8  17  31  54  83 109 150 193 233 289 343
#     4  10  22  37  55  83 122 155 190 234 299 354
#     4   9  17  33  54  79 119 145 186 243 287 334
#     4  10  19  36  61  86 113 151 202 244 279 343
#     4  10  21  37  57  94 115 146 198 243 290 342
#     4   9  18  34  57  83 111 153 195 234 286 352
#     4  10  21  38  61  85 119 153 191 238 300 353
#
# _framework density 25.151790999999999
#
# number of rings (size 3 to 8) (size 9 to 14) (size 15 to 20)
#    0.000    2.571    0.000    2.143    4.000    0.000 
#    7.714    0.714    0.000    1.714    0.000    0.000 
#    0.000    0.000    0.000    0.000    0.000    0.000 
#
# Total GULP energy -78322.274781 kJ/mol
# GULP energy per Si atom -5594.448199 kJ/mol
# Density = 2.509454 g / cm^3
# Si number density = 25.151791 Si / 1000 Ang^3
#
#
#
# Elastic Constant Matrix: (Units=GPa)
#
#
# Indices 1 2 3 4 5 6 
#
# 1 157.3851 47.5941 36.7266 19.1215 -0.1805 -26.8211
# 2 47.5941 113.8715 29.0424 37.9704 -8.9023 -20.6998
# 3 36.7266 29.0424 76.4774 4.3213 13.6325 -8.3164
# 4 19.1215 37.9704 4.3213 25.8105 -3.8989 -9.1292
# 5 -0.1805 -8.9023 13.6325 -3.8989 30.5178 12.0042
# 6 -26.8211 -20.6998 -8.3164 -9.1292 12.0042 52.2670
#
#
#
# Elastic Compliance Matrix: (Units=1/GPa)
#
#
# Indices 1 2 3 4 5 6 
#
# 1 0.008254 -0.001299 -0.002905 -0.002773 -0.000525 0.002895
# 2 -0.001299 0.020574 -0.006532 -0.027249 0.005242 0.000479
# 3 -0.002905 -0.006532 0.018612 0.008031 -0.010249 0.002640
# 4 -0.002773 -0.027249 0.008031 0.080450 -0.002748 0.003746
# 5 -0.000525 0.005242 -0.010249 -0.002748 0.042478 -0.010060
# 6 0.002895 0.000479 0.002640 0.003746 -0.010060 0.024193
#
#
# Mechanical properties :
#
#
# Convention : Reuss Voigt Hill
#
# Bulk Modulus (GPa) = 38.51002 63.82891 51.16947
# Shear Modulus (GPa) = 22.25289 37.34379 29.79834
#
# Velocity S-wave (km/s) = 2.97769 3.85741 3.44574
# Velocity P-wave (km/s) = 5.21215 6.72845 6.01824
#
# Compressibility (1/GPa) = 0.02596727
#
# Stress axis : x y z
#
# Youngs Moduli (GPa) = 121.14729 48.60547 53.72956
#
# Poissons Ratio (x) = 0.06315 0.15611
# Poissons Ratio (y) = 0.15740 0.35095
# Poissons Ratio (z) = 0.35199 0.31748
#
# Static dielectric constant tensor:
#      x y z
#    x 1.999760 -0.039150 0.082980 
#    y -0.039150 1.976220 -0.011730 
#    z 0.082980 -0.011730 2.070370 
# 
# From -- ./inp_files/154251.got.cif
#   From: 2010.05.17/outbox.cif.g08.bks.cpg/sg2_78_cif.got.tgz:154251.got - 2010.06.03 11:33:40.
