data_PCOD9086783
_publ_section_title
;
Structure prediction by ZEFSAII (Michael W. Deem and Ramdas Pophale) SiO2 
 PCOD9086783
Probable space group: P -1
;
_chemical_formula_sum "Si O2"
_cell_formula_units_Z 16
_cell_length_a 10.642983
_cell_length_b 9.736211
_cell_length_c 11.335458
_cell_angle_alpha 120.598727
_cell_angle_beta 126.548136
_cell_angle_gamma 76.527847
_cell_volume 808.040888
_symmetry_space_group_name_H-M "P -1"
_symmetry_group_IT_number 2
_symmetry_cell_setting 'triclinic'
loop_
_space_group_symop_operation_xyz
x,y,z
-x,-y,-z
loop_
_atom_site_type_symbol
_atom_site_label
_atom_site_fract_x
_atom_site_fract_y
_atom_site_fract_z
Si Si1 0.790338 0.327399 0.080327
Si Si2 0.327122 0.853317 0.440954
Si Si3 0.859148 0.586272 0.402919
Si Si4 0.855561 0.579688 0.017752
Si Si5 0.671119 0.012428 0.752747
Si Si6 0.847599 0.708944 0.695235
Si Si7 0.654394 0.500884 0.666717
Si Si8 0.014829 0.820382 0.390618
O O1 0.749235 0.442820 0.215808
O O2 0.798185 0.448602 0.026993
O O3 0.964862 0.275198 0.181610
O O4 0.692265 0.161854 0.918810
O O5 0.272675 0.926139 0.319799
O O6 0.361406 0.672322 0.358782
O O7 0.196783 0.829578 0.459084
O O8 0.487390 0.952542 0.613993
O O9 0.792897 0.679833 0.516331
O O10 0.000000 0.500000 0.500000
O O11 0.941558 0.706494 0.404527
O O12 0.923385 0.743412 0.191129
O O13 0.718587 0.608868 0.860892
O O14 0.000000 0.500000 0.000000
O O15 0.768153 0.861038 0.767767
O O16 0.789902 0.550192 0.668058
O O17 0.500000 0.500000 0.500000
O O18 0.000000 0.000000 0.500000
#
# Coordination Sequence:
#
# PCOD9086783 Si02
#       8
#     2   2   2   2   2   2   2   2
#     4  10  19  36  60  87 122 157 206 246 296 365
#     4  11  22  38  60  85 127 160 195 250 313 358
#     4   9  20  37  57  85 117 158 194 245 303 352
#     4  11  19  37  65  89 114 164 205 252 300 355
#     4  11  22  36  58  90 122 157 196 254 308 351
#     4  11  21  36  62  91 118 156 209 251 299 357
#     4  12  22  39  62  92 125 158 206 254 307 362
#     4  11  22  40  65  91 120 157 207 255 300 369
#
# _framework density 19.800978000000001
#
# number of rings (size 3 to 8) (size 9 to 14) (size 15 to 20)
#    0.000    1.250    5.000    2.625    0.000    0.000 
#    4.500    1.250    0.000    9.000    0.000    0.000 
#    0.000    0.000    0.000    0.000    0.000    0.000 
#
# Total GULP energy -89138.364507 kJ/mol
# GULP energy per Si atom -5571.147782 kJ/mol
# Density = 1.975591 g / cm^3
# Si number density = 19.800978 Si / 1000 Ang^3
#
#
#
# Elastic Constant Matrix: (Units=GPa)
#
#
# Indices 1 2 3 4 5 6 
#
# 1 23.0333 5.9577 37.0473 8.8933 -7.5962 10.8493
# 2 5.9577 75.8191 47.7981 10.9823 -6.3956 2.7157
# 3 37.0473 47.7981 146.0335 23.3235 -12.7448 5.8842
# 4 8.8933 10.9823 23.3235 39.8447 0.3570 0.6232
# 5 -7.5962 -6.3956 -12.7448 0.3570 25.7903 0.5371
# 6 10.8493 2.7157 5.8842 0.6232 0.5371 23.8834
#
#
#
# Elastic Compliance Matrix: (Units=1/GPa)
#
#
# Indices 1 2 3 4 5 6 
#
# 1 0.128830 0.015730 -0.030972 -0.014382 0.027842 -0.052931
# 2 0.015730 0.018704 -0.008832 -0.003430 0.005102 -0.007121
# 3 -0.030972 -0.008832 0.017000 -0.000747 -0.003130 0.010975
# 4 -0.014382 -0.003430 -0.000747 0.029643 -0.006001 0.006469
# 5 0.027842 0.005102 -0.003130 -0.006001 0.047055 -0.013358
# 6 -0.052931 -0.007121 0.010975 0.006469 -0.013358 0.064152
#
#
# Mechanical properties :
#
#
# Convention : Reuss Voigt Hill
#
# Bulk Modulus (GPa) = 8.59218 47.38803 27.99011
# Shear Modulus (GPa) = 12.74449 28.17586 20.46018
#
# Velocity S-wave (km/s) = 2.53974 3.77630 3.21797
# Velocity P-wave (km/s) = 3.59848 6.55729 5.28900
#
# Compressibility (1/GPa) = 0.11638486
#
# Stress axis : x y z
#
# Youngs Moduli (GPa) = 7.76219 53.46527 58.82409
#
# Poissons Ratio (x) = -0.84100 1.82188
# Poissons Ratio (y) = -0.12210 0.51955
# Poissons Ratio (z) = 0.24041 0.47222
#
# Static dielectric constant tensor:
#      x y z
#    x 1.744970 -0.061500 -0.006360 
#    y -0.061500 1.742140 -0.024540 
#    z -0.006360 -0.024540 1.798970 
# 
# From -- ./inp_files/262676.got.cif
#   From: 2010.05.17/outbox.cif.g08.bks.cpg/sg2_132_cif.got.tgz:262676.got - 2010.06.03 11:33:40.
