data_PCOD9086151
_publ_section_title
;
Structure prediction by ZEFSAII (Michael W. Deem and Ramdas Pophale) SiO2 
 PCOD9086151
Probable space group: P -1
;
_chemical_formula_sum "Si O2"
_cell_formula_units_Z 10
_cell_length_a 7.496480
_cell_length_b 7.186028
_cell_length_c 11.598647
_cell_angle_alpha 53.028405
_cell_angle_beta 77.794065
_cell_angle_gamma 79.251055
_cell_volume 486.492357
_symmetry_space_group_name_H-M "P -1"
_symmetry_group_IT_number 2
_symmetry_cell_setting 'triclinic'
loop_
_space_group_symop_operation_xyz
x,y,z
-x,-y,-z
loop_
_atom_site_type_symbol
_atom_site_label
_atom_site_fract_x
_atom_site_fract_y
_atom_site_fract_z
Si Si1 0.541603 0.076727 0.098532
Si Si2 0.904984 0.418812 0.217927
Si Si3 0.137263 0.149390 0.115718
Si Si4 0.560218 0.568149 0.340526
Si Si5 0.771417 0.344138 0.822467
O O1 0.617181 0.837032 0.235712
O O2 0.339828 0.152335 0.144876
O O3 0.726244 0.406818 0.323685
O O4 0.500000 0.000000 0.000000
O O5 0.974418 0.205770 0.206310
O O6 0.078167 0.475652 0.249298
O O7 0.870147 0.645312 0.054683
O O8 0.320371 0.725380 0.016559
O O9 0.133168 0.898651 0.149877
O O10 0.500000 0.500000 0.500000
O O11 0.389043 0.571550 0.274887
#
# Coordination Sequence:
#
# PCOD9086151 Si02
#       5
#     2   2   2   2   2
#     4   8  15  34  51  74 106 134 168 215 262 295
#     4  11  19  32  58  83 102 137 179 216 265 306
#     4   9  18  33  53  87 106 126 177 232 253 302
#     4  10  20  36  53  76 112 142 173 214 260 320
#     4  10  19  36  56  78 107 139 174 218 264 307
#
# _framework density 20.555309000000001
#
# number of rings (size 3 to 8) (size 9 to 14) (size 15 to 20)
#    0.000    2.800    6.000    0.600    0.000    1.600 
#    0.000    4.000    0.000    6.000    0.000    0.000 
#    0.000    0.000    0.000    0.000    0.000    0.000 
#
# Total GULP energy -55776.358183 kJ/mol
# GULP energy per Si atom -5577.635818 kJ/mol
# Density = 2.050852 g / cm^3
# Si number density = 20.555309 Si / 1000 Ang^3
#
#
#
# Elastic Constant Matrix: (Units=GPa)
#
#
# Indices 1 2 3 4 5 6 
#
# 1 98.9745 27.5008 24.2000 19.7325 -12.3617 -22.9528
# 2 27.5008 37.4282 11.5150 10.3403 -8.2417 -10.2010
# 3 24.2000 11.5150 82.7018 21.4971 -16.2353 -15.0529
# 4 19.7325 10.3403 21.4971 15.0769 -11.0007 -13.2433
# 5 -12.3617 -8.2417 -16.2353 -11.0007 16.1474 11.9089
# 6 -22.9528 -10.2010 -15.0529 -13.2433 11.9089 31.2044
#
#
#
# Elastic Compliance Matrix: (Units=1/GPa)
#
#
# Indices 1 2 3 4 5 6 
#
# 1 0.015561 -0.007090 0.000333 -0.016098 -0.005776 0.004661
# 2 -0.007090 0.036513 0.001852 -0.015351 0.005291 -0.000919
# 3 0.000333 0.001852 0.019668 -0.031383 0.002496 -0.003934
# 4 -0.016098 -0.015351 -0.031383 0.233213 0.080400 0.036295
# 5 -0.005776 0.005291 0.002496 0.080400 0.129842 -0.016746
# 6 0.004661 -0.000919 -0.003934 0.036295 -0.016746 0.055072
#
#
# Mechanical properties :
#
#
# Convention : Reuss Voigt Hill
#
# Bulk Modulus (GPa) = 16.14677 38.39288 27.26983
# Shear Modulus (GPa) = 9.60940 22.87832 16.24386
#
# Velocity S-wave (km/s) = 2.16450 3.33980 2.81419
# Velocity P-wave (km/s) = 3.75753 5.79576 4.88415
#
# Compressibility (1/GPa) = 0.06193189
#
# Stress axis : x y z
#
# Youngs Moduli (GPa) = 64.26156 27.38743 50.84411
#
# Poissons Ratio (x) = 0.19419 -0.01691
# Poissons Ratio (y) = 0.45563 -0.09418
# Poissons Ratio (z) = -0.02138 -0.05073
#
# Static dielectric constant tensor:
#      x y z
#    x 1.817320 0.009220 -0.022220 
#    y 0.009220 1.767360 -0.004530 
#    z -0.022220 -0.004530 1.726790 
# 
# From -- ./inp_files/372036.got.cif
#   From: 2010.05.17/outbox.cif.g08.bks.cpg/sg2_187_cif.got.tgz:372036.got - 2010.06.03 11:33:40.
