data_PCOD9086390
_publ_section_title
;
Structure prediction by ZEFSAII (Michael W. Deem and Ramdas Pophale) SiO2 
 PCOD9086390
Probable space group: P -1
;
_chemical_formula_sum "Si O2"
_cell_formula_units_Z 16
_cell_length_a 6.883809
_cell_length_b 8.600010
_cell_length_c 17.433417
_cell_angle_alpha 80.717761
_cell_angle_beta 93.636844
_cell_angle_gamma 127.989209
_cell_volume 801.900060
_symmetry_space_group_name_H-M "P -1"
_symmetry_group_IT_number 2
_symmetry_cell_setting 'triclinic'
loop_
_space_group_symop_operation_xyz
x,y,z
-x,-y,-z
loop_
_atom_site_type_symbol
_atom_site_label
_atom_site_fract_x
_atom_site_fract_y
_atom_site_fract_z
Si Si1 0.208060 0.322831 0.134693
Si Si2 0.677926 0.026290 0.152555
Si Si3 0.772881 0.993687 0.909388
Si Si4 0.965861 0.256679 0.283288
Si Si5 0.049358 0.769466 0.475744
Si Si6 0.258842 0.213422 0.417004
Si Si7 0.685204 0.738393 0.077625
Si Si8 0.810891 0.428895 0.385184
O O1 0.219607 0.139389 0.144590
O O2 0.445981 0.511227 0.085287
O O3 0.931814 0.218787 0.103491
O O4 0.182760 0.374422 0.216141
O O5 0.438271 0.992072 0.118944
O O6 0.737564 0.084651 0.238791
O O7 0.658361 0.836241 0.143246
O O8 0.705479 0.864433 0.995234
O O9 0.043778 0.203038 0.911501
O O10 0.900153 0.385453 0.314296
O O11 0.058539 0.176297 0.353699
O O12 0.175147 0.701562 0.538825
O O13 0.799806 0.705627 0.517418
O O14 0.986566 0.653563 0.403680
O O15 0.206066 0.005465 0.451941
O O16 0.534761 0.358068 0.380736
#
# Coordination Sequence:
#
# PCOD9086390 Si02
#       8
#     2   2   2   2   2   2   2   2
#     4   9  21  38  53  80 115 144 183 232 277 336
#     4   9  21  38  53  79 115 144 181 233 277 331
#     4  10  20  36  61  82 108 144 190 238 281 324
#     4   9  22  38  50  80 117 148 180 223 273 337
#     4   9  20  36  57  87 102 139 189 224 267 323
#     4  10  19  37  59  79 111 143 180 227 274 314
#     4  10  20  37  59  84 107 144 191 237 279 329
#     4  10  19  36  58  81 111 141 183 226 271 320
#
# _framework density 19.952611999999998
#
# number of rings (size 3 to 8) (size 9 to 14) (size 15 to 20)
#    0.750    1.750    0.000    1.500    1.750    1.500 
#    4.500    0.000    0.000    0.000    0.000    0.000 
#    0.000    0.000    0.000    0.000    0.000    0.000 
#
# Total GULP energy -89095.629518 kJ/mol
# GULP energy per Si atom -5568.476845 kJ/mol
# Density = 1.990720 g / cm^3
# Si number density = 19.952612 Si / 1000 Ang^3
#
#
#
# Elastic Constant Matrix: (Units=GPa)
#
#
# Indices 1 2 3 4 5 6 
#
# 1 82.3327 53.1353 -12.8008 0.0880 4.4106 22.7127
# 2 53.1353 317.6638 -94.5681 -48.1430 8.5978 98.0461
# 3 -12.8008 -94.5681 83.4917 38.8621 -20.5187 -35.0523
# 4 0.0880 -48.1430 38.8621 35.9485 -4.4504 -26.7707
# 5 4.4106 8.5978 -20.5187 -4.4504 33.1516 11.4077
# 6 22.7127 98.0461 -35.0523 -26.7707 11.4077 52.3775
#
#
#
# Elastic Compliance Matrix: (Units=1/GPa)
#
#
# Indices 1 2 3 4 5 6 
#
# 1 0.015680 0.000170 0.004455 -0.012616 0.002784 -0.011191
# 2 0.000170 0.011307 0.012368 -0.013376 0.010505 -0.022087
# 3 0.004455 0.012368 0.044319 -0.046736 0.025946 -0.024962
# 4 -0.012616 -0.013376 -0.046736 0.098541 -0.029855 0.056100
# 5 0.002784 0.010505 0.025946 -0.029855 0.049271 -0.029497
# 6 -0.011191 -0.022087 -0.024962 0.056100 -0.029497 0.083683
#
#
# Mechanical properties :
#
#
# Convention : Reuss Voigt Hill
#
# Bulk Modulus (GPa) = 9.49730 41.66900 25.58315
# Shear Modulus (GPa) = 16.45209 60.14366 38.29787
#
# Velocity S-wave (km/s) = 2.87463 5.49624 4.38590
# Velocity P-wave (km/s) = 3.97344 7.82353 6.20467
#
# Compressibility (1/GPa) = 0.10529304
#
# Stress axis : x y z
#
# Youngs Moduli (GPa) = 63.77455 88.43974 22.56349
#
# Poissons Ratio (x) = -0.01506 -0.10052
# Poissons Ratio (y) = -0.01086 -0.27906
# Poissons Ratio (z) = -0.28411 -1.09381
#
# Static dielectric constant tensor:
#      x y z
#    x 1.706390 0.018720 -0.032060 
#    y 0.018720 1.698250 0.009080 
#    z -0.032060 0.009080 1.746630 
# 
# From -- ./inp_files/582426.got.cif
#   From: 2010.05.17/outbox.cif.g08.bks.cpg/sg2_292_cif.got.tgz:582426.got - 2010.06.03 11:33:40.
