data_PCOD9086499
_publ_section_title
;
Structure prediction by ZEFSAII (Michael W. Deem and Ramdas Pophale) SiO2 
 PCOD9086499
Probable space group: P -1
;
_chemical_formula_sum "Si O2"
_cell_formula_units_Z 15
_cell_length_a 11.055552
_cell_length_b 10.536551
_cell_length_c 7.975076
_cell_angle_alpha 62.492518
_cell_angle_beta 110.924794
_cell_angle_gamma 136.299083
_cell_volume 568.868834
_symmetry_space_group_name_H-M "P -1"
_symmetry_group_IT_number 2
_symmetry_cell_setting 'triclinic'
loop_
_space_group_symop_operation_xyz
x,y,z
-x,-y,-z
loop_
_atom_site_type_symbol
_atom_site_label
_atom_site_fract_x
_atom_site_fract_y
_atom_site_fract_z
Si Si1 0.713626 0.170614 0.164263
Si Si2 0.717715 0.530631 0.614659
Si Si3 0.125581 0.648988 0.324693
Si Si4 0.500000 0.000000 0.500000
Si Si5 0.468201 0.220417 0.888487
Si Si6 0.318198 0.077817 0.244879
Si Si7 0.976954 0.723263 0.909828
Si Si8 0.967525 0.929646 0.334774
O O1 0.916221 0.287832 0.170089
O O2 0.643316 0.105027 0.352954
O O3 0.633855 0.987976 0.118021
O O4 0.646004 0.271964 0.005730
O O5 0.779194 0.417444 0.662052
O O6 0.516296 0.364880 0.675401
O O7 0.802755 0.634464 0.776573
O O8 0.807513 0.700084 0.417132
O O9 0.287506 0.880264 0.311188
O O10 0.000000 0.500000 0.500000
O O11 0.006395 0.652784 0.134351
O O12 0.486932 0.175242 0.380929
O O13 0.376216 0.198140 0.029935
O O14 0.140942 0.992495 0.297949
O O15 0.061172 0.942058 0.851942
O O16 0.000000 0.000000 0.500000
#
# Coordination Sequence:
#
# PCOD9086499 Si02
#       8
#     2   2   2   1   2   2   2   2
#     4  10  19  36  58  90 124 168 206 256 333 375
#     4  11  21  40  65  98 125 164 220 269 313 375
#     4  12  23  37  64 100 127 152 225 280 302 369
#     4  10  20  30  62  88 120 164 214 254 310 386
#     4  10  20  37  62  88 128 162 206 272 318 369
#     4  11  22  41  61  95 128 170 211 267 329 377
#     4  11  23  41  66  90 133 178 206 256 337 384
#     4  10  23  42  64  93 132 171 215 262 320 393
#
# _framework density 26.368113999999998
#
# number of rings (size 3 to 8) (size 9 to 14) (size 15 to 20)
#    0.000    1.333    4.000    3.600    0.000    1.600 
#    0.000    3.333    0.000    4.800    0.000    0.000 
#    0.000    0.000    0.000    0.000    0.000    0.000 
#
# Total GULP energy -83607.057813 kJ/mol
# GULP energy per Si atom -5573.803854 kJ/mol
# Density = 2.630810 g / cm^3
# Si number density = 26.368114 Si / 1000 Ang^3
#
#
#
# Elastic Constant Matrix: (Units=GPa)
#
#
# Indices 1 2 3 4 5 6 
#
# 1 151.1666 2.6850 57.6607 -15.1987 -24.0659 4.5629
# 2 2.6850 44.1046 15.7670 -14.1200 7.9361 -11.1125
# 3 57.6607 15.7670 179.3569 -43.5542 -37.5843 -14.5953
# 4 -15.1987 -14.1200 -43.5542 40.7969 2.0315 10.1200
# 5 -24.0659 7.9361 -37.5843 2.0315 57.1798 -8.0766
# 6 4.5629 -11.1125 -14.5953 10.1200 -8.0766 25.2844
#
#
#
# Elastic Compliance Matrix: (Units=1/GPa)
#
#
# Indices 1 2 3 4 5 6 
#
# 1 0.007876 -0.000319 -0.002126 0.001164 0.001530 -0.002766
# 2 -0.000319 0.027830 -0.000791 0.006887 -0.003644 0.007911
# 3 -0.002126 -0.000791 0.009946 0.008141 0.006094 0.004465
# 4 0.001164 0.006887 0.008141 0.037547 0.002608 -0.006679
# 5 0.001530 -0.003644 0.006094 0.002608 0.023705 0.008168
# 6 -0.002766 0.007911 0.004465 -0.006679 0.008168 0.051386
#
#
# Mechanical properties :
#
#
# Convention : Reuss Voigt Hill
#
# Bulk Modulus (GPa) = 25.52366 58.53929 42.03148
# Shear Modulus (GPa) = 28.11815 44.55324 36.33569
#
# Velocity S-wave (km/s) = 3.26907 4.11501 3.71619
# Velocity P-wave (km/s) = 4.89386 6.69528 5.86415
#
# Compressibility (1/GPa) = 0.03917933
#
# Stress axis : x y z
#
# Youngs Moduli (GPa) = 126.97135 35.93285 100.54609
#
# Poissons Ratio (x) = 0.01146 0.21373
# Poissons Ratio (y) = 0.04050 0.07956
# Poissons Ratio (z) = 0.26990 0.02843
#
# Static dielectric constant tensor:
#      x y z
#    x 1.854220 -0.312270 -0.290990 
#    y -0.312270 1.634150 -0.543330 
#    z -0.290990 -0.543330 1.650620 
# 
# From -- ./inp_files/256976.got.cif
#   From: 2010.05.17/outbox.cif.g08.bks.cpg/sg2_129_cif.got.tgz:256976.got - 2010.06.03 11:33:40.
