data_PCOD9086278
_publ_section_title
;
Structure prediction by ZEFSAII (Michael W. Deem and Ramdas Pophale) SiO2 
 PCOD9086278
Probable space group: P -1
;
_chemical_formula_sum "Si O2"
_cell_formula_units_Z 13
_cell_length_a 8.917732
_cell_length_b 7.271693
_cell_length_c 9.905164
_cell_angle_alpha 49.718225
_cell_angle_beta 71.274217
_cell_angle_gamma 90.620542
_cell_volume 442.361117
_symmetry_space_group_name_H-M "P -1"
_symmetry_group_IT_number 2
_symmetry_cell_setting 'triclinic'
loop_
_space_group_symop_operation_xyz
x,y,z
-x,-y,-z
loop_
_atom_site_type_symbol
_atom_site_label
_atom_site_fract_x
_atom_site_fract_y
_atom_site_fract_z
Si Si1 0.166124 0.689640 0.609456
Si Si2 0.304345 0.090041 0.083266
Si Si3 0.785214 0.737822 0.639660
Si Si4 0.017728 0.825550 0.950702
Si Si5 0.346173 0.781239 0.965435
Si Si6 0.477294 0.575787 0.621788
Si Si7 0.000000 0.500000 0.500000
O O1 0.056082 0.469668 0.846001
O O2 0.351842 0.735662 0.586624
O O3 0.152827 0.970068 0.481596
O O4 0.160580 0.557338 0.527020
O O5 0.111361 0.096469 0.151568
O O6 0.451956 0.104514 0.143211
O O7 0.386668 0.324947 0.851697
O O8 0.294463 0.855289 0.096200
O O9 0.705301 0.524439 0.878697
O O10 0.642708 0.707415 0.587716
O O11 0.921999 0.635273 0.576693
O O12 0.217026 0.865745 0.865185
O O13 0.000000 0.000000 0.000000
O O14 0.500000 0.500000 0.500000
#
# Coordination Sequence:
#
# PCOD9086278 Si02
#       7
#     2   2   2   2   2   2   1
#     4  11  22  37  57  84 111 145 190 229 276 340
#     4   8  17  29  50  79 103 143 188 217 271 337
#     4  11  22  36  58  83 111 148 186 232 279 328
#     4   9  17  31  53  77 103 144 184 219 274 333
#     4   9  16  31  51  77 103 143 187 219 272 334
#     4  10  19  36  57  83 111 146 186 232 277 327
#     4  12  22  34  54  84 116 142 178 236 280 332
#
# _framework density 29.387757000000001
#
# number of rings (size 3 to 8) (size 9 to 14) (size 15 to 20)
#    0.000    2.154    3.077    0.923    0.000    0.000 
#    0.000    0.000    0.000    3.692    0.000    0.000 
#    0.000    0.000    0.000    0.000    0.000    0.000 
#
# Total GULP energy -72557.120153 kJ/mol
# GULP energy per Si atom -5581.316935 kJ/mol
# Density = 2.932087 g / cm^3
# Si number density = 29.387757 Si / 1000 Ang^3
#
#
#
# Elastic Constant Matrix: (Units=GPa)
#
#
# Indices 1 2 3 4 5 6 
#
# 1 254.9590 38.1913 34.3151 -6.1700 4.6220 21.1009
# 2 38.1913 118.7062 38.2680 -21.8236 -9.7094 11.1130
# 3 34.3151 38.2680 141.0522 -11.1878 5.6012 -10.6296
# 4 -6.1700 -21.8236 -11.1878 48.6214 -0.3119 5.3228
# 5 4.6220 -9.7094 5.6012 -0.3119 21.6979 -14.6284
# 6 21.1009 11.1130 -10.6296 5.3228 -14.6284 45.9173
#
#
#
# Elastic Compliance Matrix: (Units=1/GPa)
#
#
# Indices 1 2 3 4 5 6 
#
# 1 0.004530 -0.001120 -0.000885 0.000186 -0.003322 -0.003095
# 2 -0.001120 0.011014 -0.002688 0.004408 0.004725 -0.001779
# 3 -0.000885 -0.002688 0.008304 0.000312 -0.001489 0.002469
# 4 0.000186 0.004408 0.000312 0.023065 -0.000442 -0.003895
# 5 -0.003322 0.004725 -0.001489 -0.000442 0.062846 0.020111
# 6 -0.003095 -0.001779 0.002469 -0.003895 0.020111 0.031061
#
#
# Mechanical properties :
#
#
# Convention : Reuss Voigt Hill
#
# Bulk Modulus (GPa) = 69.14061 81.80735 75.47398
# Shear Modulus (GPa) = 32.25258 50.17686 41.21472
#
# Velocity S-wave (km/s) = 3.31642 4.13656 3.74899
# Velocity P-wave (km/s) = 6.18409 7.12127 6.66916
#
# Compressibility (1/GPa) = 0.01446328
#
# Stress axis : x y z
#
# Youngs Moduli (GPa) = 220.75373 90.79001 120.42392
#
# Poissons Ratio (x) = 0.10167 0.10655
# Poissons Ratio (y) = 0.24722 0.32368
# Poissons Ratio (z) = 0.19532 0.24403
#
# Static dielectric constant tensor:
#      x y z
#    x 2.342870 -0.034660 -0.052080 
#    y -0.034660 2.153720 -0.034480 
#    z -0.052080 -0.034480 2.376230 
# 
# From -- ./inp_files/290154.got.cif
#   From: 2010.05.17/outbox.cif.g08.bks.cpg/sg2_146_cif.got.tgz:290154.got - 2010.06.03 11:33:40.
