data_PCOD9086193
_publ_section_title
;
Structure prediction by ZEFSAII (Michael W. Deem and Ramdas Pophale) SiO2 
 PCOD9086193
Probable space group: P -1
;
_chemical_formula_sum "Si O2"
_cell_formula_units_Z 16
_cell_length_a 19.991022
_cell_length_b 8.744764
_cell_length_c 14.038215
_cell_angle_alpha 81.934049
_cell_angle_beta 21.261008
_cell_angle_gamma 82.695678
_cell_volume 881.055689
_symmetry_space_group_name_H-M "P -1"
_symmetry_group_IT_number 2
_symmetry_cell_setting 'triclinic'
loop_
_space_group_symop_operation_xyz
x,y,z
-x,-y,-z
loop_
_atom_site_type_symbol
_atom_site_label
_atom_site_fract_x
_atom_site_fract_y
_atom_site_fract_z
Si Si1 0.282868 0.393402 0.976817
Si Si2 0.514970 0.135670 0.346961
Si Si3 0.212653 0.535466 0.246309
Si Si4 0.540963 0.224510 0.505772
Si Si5 0.175757 0.109716 0.260072
Si Si6 0.239010 0.268454 0.365803
Si Si7 0.143466 0.705648 0.044347
Si Si8 0.562003 0.166506 0.076303
O O1 0.443554 0.334856 0.699913
O O2 0.335805 0.467669 0.002201
O O3 0.172514 0.240196 0.170786
O O4 0.176836 0.531637 0.052862
O O5 0.445416 0.223716 0.526637
O O6 0.460583 0.189910 0.310311
O O7 0.473502 0.954381 0.428789
O O8 0.734237 0.177406 0.061534
O O9 0.256307 0.445719 0.292911
O O10 0.000000 0.500000 0.500000
O O11 0.267540 0.712933 0.166568
O O12 0.751326 0.272391 0.197389
O O13 0.187978 0.185962 0.341312
O O14 0.000000 0.000000 0.500000
O O15 0.355898 0.004332 0.017473
O O16 0.421310 0.201486 0.175896
O O17 0.068047 0.255190 0.666129
#
# Coordination Sequence:
#
# PCOD9086193 Si02
#       8
#     2   2   2   2   2   2   2   2
#     4  11  19  33  62  86 110 141 202 243 282 321
#     4   9  18  35  60  80 110 146 200 239 286 330
#     4  11  20  38  59  87 113 151 195 235 283 349
#     4   9  19  34  60  88 104 145 204 251 275 325
#     4  11  24  36  61  85 116 152 198 240 278 348
#     4  11  24  36  56  88 121 151 185 235 303 353
#     4  10  19  36  56  85 112 144 196 239 278 342
#     4  12  21  39  56  85 123 153 182 239 303 346
#
# _framework density 18.160032999999999
#
# number of rings (size 3 to 8) (size 9 to 14) (size 15 to 20)
#    0.750    0.750    3.750    3.375    0.000    0.000 
#    0.000    0.625    0.000    3.000    0.000    0.000 
#    0.000    0.000    0.000    0.000    0.000    0.000 
#
# Total GULP energy -89076.115894 kJ/mol
# GULP energy per Si atom -5567.257243 kJ/mol
# Density = 1.811870 g / cm^3
# Si number density = 18.160033 Si / 1000 Ang^3
#
#
#
# Elastic Constant Matrix: (Units=GPa)
#
#
# Indices 1 2 3 4 5 6 
#
# 1 52.1052 8.9841 31.8390 -3.9416 8.3676 -8.3414
# 2 8.9841 91.5008 39.2863 -15.1754 1.0541 -11.2562
# 3 31.8390 39.2863 92.4033 0.6327 15.4532 0.2370
# 4 -3.9416 -15.1754 0.6327 24.7481 3.8922 9.1052
# 5 8.3676 1.0541 15.4532 3.8922 26.5704 6.9086
# 6 -8.3414 -11.2562 0.2370 9.1052 6.9086 23.5784
#
#
#
# Elastic Compliance Matrix: (Units=1/GPa)
#
#
# Indices 1 2 3 4 5 6 
#
# 1 0.028170 0.003851 -0.010256 0.003576 -0.006841 0.012531
# 2 0.003851 0.016288 -0.008364 0.008638 0.000227 0.005820
# 3 -0.010256 -0.008364 0.018893 -0.004772 -0.005602 -0.004327
# 4 0.003576 0.008638 -0.004772 0.051903 -0.002705 -0.013814
# 5 -0.006841 0.000227 -0.005602 -0.002705 0.047358 -0.015087
# 6 0.012531 0.005820 -0.004327 -0.013814 -0.015087 0.059422
#
#
# Mechanical properties :
#
#
# Convention : Reuss Voigt Hill
#
# Bulk Modulus (GPa) = 29.57485 44.02534 36.80010
# Shear Modulus (GPa) = 19.02270 25.37270 22.19770
#
# Velocity S-wave (km/s) = 3.24003 3.74193 3.49999
# Velocity P-wave (km/s) = 5.50619 6.55477 6.05323
#
# Compressibility (1/GPa) = 0.03381251
#
# Stress axis : x y z
#
# Youngs Moduli (GPa) = 35.49833 61.39577 52.93018
#
# Poissons Ratio (x) = -0.23644 0.54287
# Poissons Ratio (y) = -0.13671 0.44270
# Poissons Ratio (z) = 0.36409 0.51351
#
# Static dielectric constant tensor:
#      x y z
#    x 1.630610 0.002060 0.036720 
#    y 0.002060 1.661350 -0.009200 
#    z 0.036720 -0.009200 1.646510 
# 
# From -- ./inp_files/540228.got.cif
#   From: 2010.05.17/outbox.cif.g08.bks.cpg/sg2_271_cif.got.tgz:540228.got - 2010.06.03 11:33:40.
