data_PCOD9086320
_publ_section_title
;
Structure prediction by ZEFSAII (Michael W. Deem and Ramdas Pophale) SiO2 
 PCOD9086320
Probable space group: P -1
;
_chemical_formula_sum "Si O2"
_cell_formula_units_Z 16
_cell_length_a 7.814342
_cell_length_b 14.306754
_cell_length_c 21.198948
_cell_angle_alpha 21.269625
_cell_angle_beta 80.412017
_cell_angle_gamma 91.255555
_cell_volume 736.484664
_symmetry_space_group_name_H-M "P -1"
_symmetry_group_IT_number 2
_symmetry_cell_setting 'triclinic'
loop_
_space_group_symop_operation_xyz
x,y,z
-x,-y,-z
loop_
_atom_site_type_symbol
_atom_site_label
_atom_site_fract_x
_atom_site_fract_y
_atom_site_fract_z
Si Si1 0.042844 0.369094 0.642761
Si Si2 0.075069 0.295828 0.090469
Si Si3 0.617119 0.305581 0.494525
Si Si4 0.739161 0.942911 0.231469
Si Si5 0.950642 0.939500 0.625782
Si Si6 0.165017 0.191663 0.922332
Si Si7 0.512574 0.702626 0.812462
Si Si8 0.049408 0.486649 0.201623
O O1 0.168040 0.601836 0.544215
O O2 0.199494 0.256195 0.687714
O O3 0.000000 0.500000 0.500000
O O4 0.847751 0.071272 0.867527
O O5 0.063621 0.095708 0.276507
O O6 0.298206 0.498698 0.922673
O O7 0.922396 0.104350 0.167230
O O8 0.000000 0.500000 0.000000
O O9 0.457241 0.227183 0.608680
O O10 0.648127 0.572074 0.278624
O O11 0.536292 0.007252 0.646267
O O12 0.751987 0.212855 0.019803
O O13 0.719772 0.796546 0.706035
O O14 0.024756 0.734877 0.714966
O O15 0.066329 0.278036 0.384202
O O16 0.093924 0.391688 0.840334
O O17 0.000000 0.000000 0.000000
O O18 0.500000 0.500000 0.000000
#
# Coordination Sequence:
#
# PCOD9086320 Si02
#       8
#     2   2   2   2   2   2   2   2
#     4  10  24  40  62  90 116 154 201 260 300 341
#     4  11  20  36  57  88 119 160 194 242 293 352
#     4  11  20  40  63  86 117 162 203 235 299 364
#     4  11  22  39  62  84 123 157 200 244 301 354
#     4  10  20  34  58  83 120 159 198 236 294 354
#     4   9  20  38  64  86 115 158 202 244 298 354
#     4  10  20  33  59  89 117 157 202 235 286 363
#     4  10  19  36  57  86 119 155 196 242 294 351
#
# _framework density 21.724824999999999
#
# number of rings (size 3 to 8) (size 9 to 14) (size 15 to 20)
#    0.000    1.750    3.750    1.125    3.500    0.000 
#    0.000    2.500    8.250    0.000    0.000    0.000 
#    0.000    0.000    0.000    0.000    0.000    0.000 
#
# Total GULP energy -89218.453328 kJ/mol
# GULP energy per Si atom -5576.153333 kJ/mol
# Density = 2.167538 g / cm^3
# Si number density = 21.724825 Si / 1000 Ang^3
#
#
#
# Elastic Constant Matrix: (Units=GPa)
#
#
# Indices 1 2 3 4 5 6 
#
# 1 45.6483 10.2816 36.3395 1.4992 -12.6245 1.0533
# 2 10.2816 64.1878 29.8913 -4.9910 -3.0279 -0.0697
# 3 36.3395 29.8913 201.6473 26.8583 -8.5844 1.1481
# 4 1.4992 -4.9910 26.8583 41.7786 -3.8250 -5.8589
# 5 -12.6245 -3.0279 -8.5844 -3.8250 33.1567 0.2632
# 6 1.0533 -0.0697 1.1481 -5.8589 0.2632 33.7381
#
#
#
# Elastic Compliance Matrix: (Units=1/GPa)
#
#
# Indices 1 2 3 4 5 6 
#
# 1 0.028826 -0.001656 -0.004896 0.002773 0.009879 -0.000332
# 2 -0.001656 0.017519 -0.002828 0.004162 0.000710 0.000901
# 3 -0.004896 -0.002828 0.006865 -0.004785 -0.000890 -0.000911
# 4 0.002773 0.004162 -0.004785 0.028424 0.003437 0.004994
# 5 0.009879 0.000710 -0.000890 0.003437 0.034152 0.000054
# 6 -0.000332 0.000901 -0.000911 0.004994 0.000054 0.030550
#
#
# Mechanical properties :
#
#
# Convention : Reuss Voigt Hill
#
# Bulk Modulus (GPa) = 29.02675 51.61202 40.31938
# Shear Modulus (GPa) = 28.31558 37.39941 32.85750
#
# Velocity S-wave (km/s) = 3.61414 4.15360 3.89323
# Velocity P-wave (km/s) = 5.55033 6.84193 6.22969
#
# Compressibility (1/GPa) = 0.03445098
#
# Stress axis : x y z
#
# Youngs Moduli (GPa) = 34.69061 57.07931 145.65938
#
# Poissons Ratio (x) = 0.09452 0.71320
# Poissons Ratio (y) = 0.05744 0.41190
# Poissons Ratio (z) = 0.16986 0.16141
#
# Static dielectric constant tensor:
#      x y z
#    x 1.828560 -0.019760 0.019260 
#    y -0.019760 1.883080 0.021480 
#    z 0.019260 0.021480 1.851490 
# 
# From -- ./inp_files/590414.got.cif
#   From: 2010.05.17/outbox.cif.g08.bks.cpg/sg2_296_cif.got.tgz:590414.got - 2010.06.03 11:33:40.
