data_PCOD9086206
_publ_section_title
;
Structure prediction by ZEFSAII (Michael W. Deem and Ramdas Pophale) SiO2 
 PCOD9086206
Probable space group: P -1
;
_chemical_formula_sum "Si O2"
_cell_formula_units_Z 16
_cell_length_a 8.913961
_cell_length_b 9.658292
_cell_length_c 14.655271
_cell_angle_alpha 52.760903
_cell_angle_beta 85.284383
_cell_angle_gamma 61.563192
_cell_volume 844.194956
_symmetry_space_group_name_H-M "P -1"
_symmetry_group_IT_number 2
_symmetry_cell_setting 'triclinic'
loop_
_space_group_symop_operation_xyz
x,y,z
-x,-y,-z
loop_
_atom_site_type_symbol
_atom_site_label
_atom_site_fract_x
_atom_site_fract_y
_atom_site_fract_z
Si Si1 0.567204 0.713467 0.189226
Si Si2 0.017855 0.930288 0.733906
Si Si3 0.051023 0.650754 0.690986
Si Si4 0.712397 0.989708 0.068125
Si Si5 0.105320 0.625332 0.162465
Si Si6 0.059342 0.651692 0.472429
Si Si7 0.705761 0.338193 0.034573
Si Si8 0.275067 0.699500 0.304327
O O1 0.746081 0.515148 0.221783
O O2 0.634736 0.858326 0.163750
O O3 0.469210 0.648137 0.290667
O O4 0.422418 0.850573 0.064345
O O5 0.982250 0.858912 0.667858
O O6 0.164947 0.726848 0.859873
O O7 0.064718 0.105643 0.646297
O O8 0.845312 0.059143 0.756507
O O9 0.067278 0.654254 0.579643
O O10 0.928659 0.558558 0.752377
O O11 0.907630 0.831215 0.080541
O O12 0.729776 0.123747 0.089502
O O13 0.192324 0.656076 0.236566
O O14 0.223613 0.595042 0.081019
O O15 0.241837 0.591087 0.434379
O O16 0.000000 0.500000 0.500000
O O17 0.500000 0.500000 0.000000
#
# Coordination Sequence:
#
# PCOD9086206 Si02
#       8
#     2   2   2   2   2   2   2   2
#     4  10  21  33  60  89 120 154 204 249 297 345
#     4  10  23  37  61  91 120 161 198 248 306 354
#     4  11  22  40  62  90 124 157 199 259 301 350
#     4  10  19  36  56  87 122 163 197 242 293 367
#     4  11  21  38  66  86 121 167 206 237 298 374
#     4  10  21  41  68  87 113 163 215 244 294 361
#     4  12  23  36  61  92 129 157 197 251 308 358
#     4  10  20  38  62  89 113 162 207 245 288 367
#
# _framework density 18.952967999999998
#
# number of rings (size 3 to 8) (size 9 to 14) (size 15 to 20)
#    0.750    0.750    3.750    2.250    1.750    2.000 
#    0.000    0.000    0.000    1.500    0.000    0.000 
#    0.000    0.000    0.000    0.000    0.000    0.000 
#
# Total GULP energy -89157.791558 kJ/mol
# GULP energy per Si atom -5572.361972 kJ/mol
# Density = 1.890983 g / cm^3
# Si number density = 18.952968 Si / 1000 Ang^3
#
#
#
# Elastic Constant Matrix: (Units=GPa)
#
#
# Indices 1 2 3 4 5 6 
#
# 1 103.2794 45.4914 31.2928 12.8532 -34.5192 -6.1108
# 2 45.4914 90.3982 48.7319 16.1258 -28.5788 2.3640
# 3 31.2928 48.7319 69.6095 18.6160 -16.3896 6.3210
# 4 12.8532 16.1258 18.6160 28.0590 -0.4972 3.9190
# 5 -34.5192 -28.5788 -16.3896 -0.4972 26.1289 -7.5807
# 6 -6.1108 2.3640 6.3210 3.9190 -7.5807 15.6142
#
#
#
# Elastic Compliance Matrix: (Units=1/GPa)
#
#
# Indices 1 2 3 4 5 6 
#
# 1 0.039912 0.011091 -0.005082 -0.028473 0.078967 0.061483
# 2 0.011091 0.030128 -0.012888 -0.017603 0.048790 0.033103
# 3 -0.005082 -0.012888 0.026648 -0.006250 -0.008032 -0.013156
# 4 -0.028473 -0.017603 -0.006250 0.070098 -0.077154 -0.061000
# 5 0.078967 0.048790 -0.008032 -0.077154 0.236095 0.160758
# 6 0.061483 0.033103 -0.013156 -0.061000 0.160758 0.181779
#
#
# Mechanical properties :
#
#
# Convention : Reuss Voigt Hill
#
# Bulk Modulus (GPa) = 12.05855 57.14660 34.60257
# Shear Modulus (GPa) = 7.98644 23.14515 15.56579
#
# Velocity S-wave (km/s) = 2.05499 3.49834 2.86892
# Velocity P-wave (km/s) = 3.46508 6.82166 5.41026
#
# Compressibility (1/GPa) = 0.08292870
#
# Stress axis : x y z
#
# Youngs Moduli (GPa) = 25.05534 33.19208 37.52562
#
# Poissons Ratio (x) = -0.36814 0.19072
# Poissons Ratio (y) = -0.27789 0.48364
# Poissons Ratio (z) = 0.12734 0.42779
#
# Static dielectric constant tensor:
#      x y z
#    x 1.669050 0.017850 0.027320 
#    y 0.017850 1.649480 0.013110 
#    z 0.027320 0.013110 1.732290 
# 
# From -- ./inp_files/461400.got.cif
#   From: 2010.05.17/outbox.cif.g08.bks.cpg/sg2_231_cif.got.tgz:461400.got - 2010.06.03 11:33:40.
