data_PCOD9086259
_publ_section_title
;
Structure prediction by ZEFSAII (Michael W. Deem and Ramdas Pophale) SiO2 
 PCOD9086259
Probable space group: P -1
;
_chemical_formula_sum "Si O2"
_cell_formula_units_Z 14
_cell_length_a 8.025752
_cell_length_b 9.495619
_cell_length_c 16.309615
_cell_angle_alpha 63.487936
_cell_angle_beta 89.792805
_cell_angle_gamma 44.846322
_cell_volume 681.168095
_symmetry_space_group_name_H-M "P -1"
_symmetry_group_IT_number 2
_symmetry_cell_setting 'triclinic'
loop_
_space_group_symop_operation_xyz
x,y,z
-x,-y,-z
loop_
_atom_site_type_symbol
_atom_site_label
_atom_site_fract_x
_atom_site_fract_y
_atom_site_fract_z
Si Si1 0.536713 0.671749 0.890967
Si Si2 0.904530 0.107202 0.062533
Si Si3 0.973184 0.114530 0.230405
Si Si4 0.010546 0.893185 0.445375
Si Si5 0.261956 0.195883 0.252646
Si Si6 0.280849 0.386645 0.531095
Si Si7 0.575062 0.780508 0.600566
O O1 0.782111 0.374765 0.991385
O O2 0.630286 0.761966 0.825820
O O3 0.336655 0.833736 0.927196
O O4 0.339521 0.711038 0.823172
O O5 0.000000 0.000000 0.000000
O O6 0.093513 0.968787 0.179723
O O7 0.019626 0.264532 0.205459
O O8 0.085929 0.940862 0.354501
O O9 0.212387 0.595319 0.526230
O O10 0.698496 0.068380 0.392812
O O11 0.000000 0.000000 0.500000
O O12 0.496024 0.894337 0.355932
O O13 0.209379 0.338071 0.298322
O O14 0.345505 0.380892 0.436911
O O15 0.000000 0.500000 0.500000
O O16 0.500000 0.000000 0.500000
#
# Coordination Sequence:
#
# PCOD9086259 Si02
#       7
#     2   2   2   2   2   2   2
#     4   9  20  43  64  86 124 158 197 269 313 368
#     4   9  20  43  67  89 121 160 205 260 321 372
#     4  10  22  40  62  91 123 163 207 255 314 373
#     4  12  23  40  60  90 132 167 212 257 307 368
#     4  11  21  40  62  92 125 164 211 259 316 368
#     4  11  22  38  59  87 127 173 214 255 301 372
#     4  10  19  36  57  81 120 165 205 253 304 355
#
# _framework density 20.552931000000001
#
# number of rings (size 3 to 8) (size 9 to 14) (size 15 to 20)
#    0.857    0.857    4.286    1.714    0.000    4.000 
#    2.571    0.714    0.000    0.000    0.000    0.000 
#    0.000    0.000    0.000    0.000    0.000    0.000 
#
# Total GULP energy -77945.394328 kJ/mol
# GULP energy per Si atom -5567.528166 kJ/mol
# Density = 2.050615 g / cm^3
# Si number density = 20.552931 Si / 1000 Ang^3
#
#
#
# Elastic Constant Matrix: (Units=GPa)
#
#
# Indices 1 2 3 4 5 6 
#
# 1 108.3244 13.5813 34.0678 2.9064 -25.8822 10.5746
# 2 13.5813 88.4130 40.7765 27.3606 -8.5524 12.8905
# 3 34.0678 40.7765 114.0991 26.2873 -28.2721 6.3965
# 4 2.9064 27.3606 26.2873 33.5992 -4.3321 0.1902
# 5 -25.8822 -8.5524 -28.2721 -4.3321 37.7249 4.3437
# 6 10.5746 12.8905 6.3965 0.1902 4.3437 25.7865
#
#
#
# Elastic Compliance Matrix: (Units=1/GPa)
#
#
# Indices 1 2 3 4 5 6 
#
# 1 0.012199 0.000187 -0.001653 0.001152 0.008000 -0.006042
# 2 0.000187 0.017630 -0.002702 -0.011993 0.001692 -0.008416
# 3 -0.001653 -0.002702 0.014228 -0.007694 0.008361 -0.002852
# 4 0.001152 -0.011993 -0.007694 0.044965 -0.003415 0.007675
# 5 0.008000 0.001692 0.008361 -0.003415 0.039735 -0.012869
# 6 -0.006042 -0.008416 -0.002852 0.007675 -0.012869 0.048283
#
#
# Mechanical properties :
#
#
# Convention : Reuss Voigt Hill
#
# Bulk Modulus (GPa) = 27.99621 54.18752 41.09186
# Shear Modulus (GPa) = 25.34417 34.24950 29.79684
#
# Velocity S-wave (km/s) = 3.51539 4.08659 3.81170
# Velocity P-wave (km/s) = 5.48893 6.97775 6.27764
#
# Compressibility (1/GPa) = 0.03571912
#
# Stress axis : x y z
#
# Youngs Moduli (GPa) = 81.97727 56.72071 70.28460
#
# Poissons Ratio (x) = -0.01061 0.11620
# Poissons Ratio (y) = -0.01534 0.18994
# Poissons Ratio (z) = 0.13554 0.15329
#
# Static dielectric constant tensor:
#      x y z
#    x 1.812450 -0.004570 0.061590 
#    y -0.004570 1.764610 0.044740 
#    z 0.061590 0.044740 1.839470 
# 
# From -- ./inp_files/490779.got.cif
#   From: 2010.05.17/outbox.cif.g08.bks.cpg/sg2_246_cif.got.tgz:490779.got - 2010.06.03 11:33:40.
