data_PCOD9086314
_publ_section_title
;
Structure prediction by ZEFSAII (Michael W. Deem and Ramdas Pophale) SiO2 
 PCOD9086314
Probable space group: P -1
;
_chemical_formula_sum "Si O2"
_cell_formula_units_Z 14
_cell_length_a 22.649019
_cell_length_b 13.037611
_cell_length_c 13.643624
_cell_angle_alpha 146.297467
_cell_angle_beta 26.288519
_cell_angle_gamma 160.950271
_cell_volume 579.006956
_symmetry_space_group_name_H-M "P -1"
_symmetry_group_IT_number 2
_symmetry_cell_setting 'triclinic'
loop_
_space_group_symop_operation_xyz
x,y,z
-x,-y,-z
loop_
_atom_site_type_symbol
_atom_site_label
_atom_site_fract_x
_atom_site_fract_y
_atom_site_fract_z
Si Si1 0.223983 0.891013 0.724425
Si Si2 0.270076 0.627144 0.939090
Si Si3 0.907043 0.541795 0.590789
Si Si4 0.553288 0.786678 0.928388
Si Si5 0.619184 0.762185 0.609920
Si Si6 0.787238 0.065016 0.988808
Si Si7 0.720590 0.430308 0.339968
O O1 0.186296 0.660838 0.531416
O O2 0.219043 0.922424 0.874143
O O3 0.487683 0.224513 0.573981
O O4 0.978551 0.705311 0.912799
O O5 0.476689 0.792021 0.828509
O O6 0.300939 0.562204 0.737413
O O7 0.285374 0.861182 0.071307
O O8 0.698375 0.414645 0.848532
O O9 0.000000 0.500000 0.500000
O O10 0.118102 0.909651 0.543429
O O11 0.612825 0.782573 0.945318
O O12 0.581417 0.674167 0.709584
O O13 0.500000 0.500000 0.500000
O O14 0.751824 0.242123 0.156048
O O15 0.024216 0.228818 0.738654
#
# Coordination Sequence:
#
# PCOD9086314 Si02
#       7
#     2   2   2   2   2   2   2
#     4  11  18  30  58  89 119 151 186 247 294 340
#     4  10  19  36  57  86 110 151 200 237 284 346
#     4  12  22  36  62  89 115 156 200 240 289 347
#     4  11  21  37  60  89 118 153 199 245 284 355
#     4  12  26  41  58  84 122 160 194 247 301 341
#     4   9  19  29  51  92 127 138 188 247 299 332
#     4   9  17  29  51  87 121 143 180 241 292 337
#
# _framework density 24.179331000000001
#
# number of rings (size 3 to 8) (size 9 to 14) (size 15 to 20)
#    0.000    1.429    5.714    2.571    0.000    0.571 
#    0.000    0.000    0.000    3.429    0.000    9.000 
#    0.000    0.000    0.000    0.000    0.000    0.000 
#
# Total GULP energy -77962.570838 kJ/mol
# GULP energy per Si atom -5568.755060 kJ/mol
# Density = 2.412430 g / cm^3
# Si number density = 24.179331 Si / 1000 Ang^3
#
#
#
# Elastic Constant Matrix: (Units=GPa)
#
#
# Indices 1 2 3 4 5 6 
#
# 1 59.2339 54.3881 18.2109 -8.8852 13.9062 24.0436
# 2 54.3881 99.3314 88.8758 -5.3432 7.1961 27.3515
# 3 18.2109 88.8758 148.4587 -32.8160 31.9324 13.4111
# 4 -8.8852 -5.3432 -32.8160 63.5379 18.4183 -1.6415
# 5 13.9062 7.1961 31.9324 18.4183 26.9802 11.2473
# 6 24.0436 27.3515 13.4111 -1.6415 11.2473 26.3373
#
#
#
# Elastic Compliance Matrix: (Units=1/GPa)
#
#
# Indices 1 2 3 4 5 6 
#
# 1 0.015027 0.010779 -0.015012 -0.014132 0.029636 -0.030805
# 2 0.010779 -0.007147 0.014592 0.019411 -0.037191 0.007244
# 3 -0.015012 0.014592 -0.007059 -0.011640 0.023789 -0.008740
# 4 -0.014132 0.019411 -0.011640 0.004508 0.016111 -0.007929
# 5 0.029636 -0.037191 0.023789 0.016111 -0.009290 0.004426
# 6 -0.030805 0.007244 -0.008740 -0.007929 0.004426 0.060634
#
#
# Mechanical properties :
#
#
# Convention : Reuss Voigt Hill
#
# Bulk Modulus (GPa) = 46.42486 69.99708 58.21097
# Shear Modulus (GPa) = 115.91784 33.07435 74.49609
#
# Velocity S-wave (km/s) = 6.93145 3.70249 5.55668
# Velocity P-wave (km/s) = 9.12698 6.87677 8.08059
#
# Compressibility (1/GPa) = 0.02154018
#
# Stress axis : x y z
#
# Youngs Moduli (GPa) = 66.54686 -139.91541 -141.66827
#
# Poissons Ratio (x) = 1.50812 -2.12668
# Poissons Ratio (y) = -0.71729 2.06728
# Poissons Ratio (z) = 0.99898 2.04170
#
# Static dielectric constant tensor:
#      x y z
#    x 2.005940 -0.037740 -0.016340 
#    y -0.037740 2.034800 0.061230 
#    z -0.016340 0.061230 1.957850 
# 
# From -- ./inp_files/475172.got.cif
#   From: 2010.05.17/outbox.cif.g08.bks.cpg/sg2_238_cif.got.tgz:475172.got - 2010.06.03 11:33:40.
