data_PCOD9086362
_publ_section_title
;
Structure prediction by ZEFSAII (Michael W. Deem and Ramdas Pophale) SiO2 
 PCOD9086362
Probable space group: P -1
;
_chemical_formula_sum "Si O2"
_cell_formula_units_Z 16
_cell_length_a 8.324733
_cell_length_b 24.126591
_cell_length_c 8.673490
_cell_angle_alpha 49.793104
_cell_angle_beta 32.864659
_cell_angle_gamma 51.039533
_cell_volume 706.048902
_symmetry_space_group_name_H-M "P -1"
_symmetry_group_IT_number 2
_symmetry_cell_setting 'triclinic'
loop_
_space_group_symop_operation_xyz
x,y,z
-x,-y,-z
loop_
_atom_site_type_symbol
_atom_site_label
_atom_site_fract_x
_atom_site_fract_y
_atom_site_fract_z
Si Si1 0.055298 0.589149 0.679702
Si Si2 0.052333 0.255135 0.685807
Si Si3 0.399506 0.783938 0.465554
Si Si4 0.103026 0.944953 0.371432
Si Si5 0.710622 0.571292 0.286081
Si Si6 0.538301 0.055651 0.229151
Si Si7 0.536472 0.799292 0.794235
Si Si8 0.818857 0.721748 0.997281
O O1 0.348464 0.587159 0.556530
O O2 0.142511 0.513850 0.644246
O O3 0.996740 0.663902 0.496301
O O4 0.786709 0.581171 0.025840
O O5 0.296085 0.253620 0.625487
O O6 0.725028 0.236422 0.007298
O O7 0.234260 0.190497 0.543276
O O8 0.325228 0.872025 0.388912
O O9 0.503464 0.766886 0.238013
O O10 0.105745 0.749319 0.783829
O O11 0.799613 0.919523 0.609636
O O12 0.251030 0.969467 0.048059
O O13 0.000000 0.000000 0.500000
O O14 0.833851 0.634692 0.161879
O O15 0.500000 0.000000 0.500000
O O16 0.613004 0.126471 0.128634
O O17 0.758704 0.743238 0.828819
#
# Coordination Sequence:
#
# PCOD9086362 Si02
#       8
#     2   2   2   2   2   2   2   2
#     4  10  19  36  57  99 130 164 216 278 320 388
#     4  12  24  41  67 100 131 175 219 279 332 392
#     4  12  26  43  66  95 138 170 221 271 341 409
#     4  12  26  49  70  97 140 182 219 273 357 421
#     4  10  20  33  64  92 129 169 218 269 331 380
#     4  12  27  48  71 104 132 171 232 291 332 402
#     4  12  23  43  72  93 131 168 234 275 319 393
#     4  12  21  43  67  95 125 182 222 272 323 404
#
# _framework density 22.661321000000001
#
# number of rings (size 3 to 8) (size 9 to 14) (size 15 to 20)
#    0.000    0.500    5.000    3.750    1.750    0.000 
#    0.000    1.250    0.000    0.000    0.000    0.000 
#    0.000    0.000    0.000    0.000    0.000    0.000 
#
# Total GULP energy -89322.940038 kJ/mol
# GULP energy per Si atom -5582.683752 kJ/mol
# Density = 2.260974 g / cm^3
# Si number density = 22.661321 Si / 1000 Ang^3
#
#
#
# Elastic Constant Matrix: (Units=GPa)
#
#
# Indices 1 2 3 4 5 6 
#
# 1 54.7312 41.1398 23.4597 -7.8636 -14.4757 -2.5184
# 2 41.1398 128.9115 27.3949 -19.4987 4.3615 3.9935
# 3 23.4597 27.3949 118.0401 5.1227 -15.3931 3.1027
# 4 -7.8636 -19.4987 5.1227 31.6725 3.7824 -4.8363
# 5 -14.4757 4.3615 -15.3931 3.7824 28.4576 3.9154
# 6 -2.5184 3.9935 3.1027 -4.8363 3.9154 24.0756
#
#
#
# Elastic Compliance Matrix: (Units=1/GPa)
#
#
# Indices 1 2 3 4 5 6 
#
# 1 0.031011 -0.010086 -0.001825 0.000282 0.015935 0.002617
# 2 -0.010086 0.012880 -0.002514 0.006963 -0.009398 0.000060
# 3 -0.001825 -0.002514 0.010527 -0.004927 0.006237 -0.003135
# 4 0.000282 0.006963 -0.004927 0.039308 -0.010058 0.009041
# 5 0.015935 -0.009398 0.006237 -0.010058 0.050471 -0.007806
# 6 0.002617 0.000060 -0.003135 0.009041 -0.007806 0.045290
#
#
# Mechanical properties :
#
#
# Convention : Reuss Voigt Hill
#
# Bulk Modulus (GPa) = 39.11289 53.96351 46.53820
# Shear Modulus (GPa) = 22.04006 30.82037 26.43021
#
# Velocity S-wave (km/s) = 3.12201 3.69188 3.41884
# Velocity P-wave (km/s) = 5.50392 6.48367 6.01378
#
# Compressibility (1/GPa) = 0.02556702
#
# Stress axis : x y z
#
# Youngs Moduli (GPa) = 32.24702 77.64191 94.98932
#
# Poissons Ratio (x) = 0.78311 0.17338
# Poissons Ratio (y) = 0.32525 0.23879
# Poissons Ratio (z) = 0.05886 0.19518
#
# Static dielectric constant tensor:
#      x y z
#    x 1.917290 0.008430 0.092470 
#    y 0.008430 1.866860 -0.011310 
#    z 0.092470 -0.011310 1.878150 
# 
# From -- ./inp_files/226051.got.cif
#   From: 2010.05.17/outbox.cif.g08.bks.cpg/sg2_114_cif.got.tgz:226051.got - 2010.06.03 11:33:40.
