data_PCOD9086893
_publ_section_title
;
Structure prediction by ZEFSAII (Michael W. Deem and Ramdas Pophale) SiO2 
 PCOD9086893
Probable space group: P -1
;
_chemical_formula_sum "Si O2"
_cell_formula_units_Z 12
_cell_length_a 8.561326
_cell_length_b 11.655841
_cell_length_c 8.070946
_cell_angle_alpha 50.541388
_cell_angle_beta 96.776128
_cell_angle_gamma 67.103922
_cell_volume 491.539132
_symmetry_space_group_name_H-M "P -1"
_symmetry_group_IT_number 2
_symmetry_cell_setting 'triclinic'
loop_
_space_group_symop_operation_xyz
x,y,z
-x,-y,-z
loop_
_atom_site_type_symbol
_atom_site_label
_atom_site_fract_x
_atom_site_fract_y
_atom_site_fract_z
Si Si1 0.829304 0.433899 0.587960
Si Si2 0.314132 0.266877 0.213689
Si Si3 0.892227 0.103414 0.063789
Si Si4 0.456481 0.850771 0.122619
Si Si5 0.010046 0.397131 0.331172
Si Si6 0.297017 0.952130 0.371947
O O1 0.784950 0.319943 0.802476
O O2 0.645993 0.638245 0.317802
O O3 0.949568 0.321090 0.540351
O O4 0.959275 0.467362 0.688297
O O5 0.534624 0.194751 0.344240
O O6 0.208166 0.267858 0.368125
O O7 0.310859 0.123850 0.228216
O O8 0.170858 0.474985 0.933938
O O9 0.715083 0.090775 0.082568
O O10 0.000000 0.000000 0.000000
O O11 0.069428 0.030923 0.282001
O O12 0.375170 0.858839 0.287922
O O13 0.500000 0.000000 0.000000
#
# Coordination Sequence:
#
# PCOD9086893 Si02
#       6
#     2   2   2   2   2   2
#     4  11  21  40  62  96 129 161 216 263 307 367
#     4  10  19  36  60  95 129 169 203 253 313 386
#     4  10  23  39  62  95 130 163 209 267 314 362
#     4  11  23  39  67  97 122 164 218 263 313 369
#     4  10  21  34  63  95 124 169 213 251 308 378
#     4  10  20  36  60  92 129 165 203 254 319 375
#
# _framework density 24.413112999999999
#
# number of rings (size 3 to 8) (size 9 to 14) (size 15 to 20)
#    0.000    1.667    3.333    1.500    7.000    0.000 
#    0.000    0.000    0.000   30.000    0.000    0.000 
#    0.000    0.000    0.000    0.000    0.000    0.000 
#
# Total GULP energy -67050.618148 kJ/mol
# GULP energy per Si atom -5587.551512 kJ/mol
# Density = 2.435755 g / cm^3
# Si number density = 24.413113 Si / 1000 Ang^3
#
#
#
# Elastic Constant Matrix: (Units=GPa)
#
#
# Indices 1 2 3 4 5 6 
#
# 1 146.4514 14.4627 76.5491 2.0291 44.7542 23.6324
# 2 14.4627 67.9801 13.9707 6.2057 6.0805 -19.3375
# 3 76.5491 13.9707 103.1719 -15.8345 39.8968 3.7797
# 4 2.0291 6.2057 -15.8345 31.5778 -0.2843 1.4702
# 5 44.7542 6.0805 39.8968 -0.2843 56.6927 10.7112
# 6 23.6324 -19.3375 3.7797 1.4702 10.7112 35.2638
#
#
#
# Elastic Compliance Matrix: (Units=1/GPa)
#
#
# Indices 1 2 3 4 5 6 
#
# 1 0.014684 -0.003132 -0.009897 -0.004870 -0.002515 -0.009530
# 2 -0.003132 0.020162 -0.001056 -0.004955 -0.001610 0.013964
# 3 -0.009897 -0.001056 0.022091 0.011571 -0.008665 0.005835
# 4 -0.004870 -0.004955 0.011571 0.038787 -0.003327 -0.001301
# 5 -0.002515 -0.001610 -0.008665 -0.003327 0.027079 -0.006355
# 6 -0.009530 0.013964 0.005835 -0.001301 -0.006355 0.043761
#
#
# Mechanical properties :
#
#
# Convention : Reuss Voigt Hill
#
# Bulk Modulus (GPa) = 34.75952 58.61872 46.68912
# Shear Modulus (GPa) = 24.47094 38.88159 31.67627
#
# Velocity S-wave (km/s) = 3.16946 3.99513 3.60600
# Velocity P-wave (km/s) = 5.25955 6.73385 6.04184
#
# Compressibility (1/GPa) = 0.02876910
#
# Stress axis : x y z
#
# Youngs Moduli (GPa) = 68.09923 49.59842 45.26641
#
# Poissons Ratio (x) = 0.15533 0.44799
# Poissons Ratio (y) = 0.21327 0.04780
# Poissons Ratio (z) = 0.67396 0.05237
#
# Static dielectric constant tensor:
#      x y z
#    x 1.995060 -0.013240 -0.007220 
#    y -0.013240 1.942560 0.007360 
#    z -0.007220 0.007360 1.999900 
# 
# From -- ./inp_files/149589.got.cif
#   From: 2010.05.17/outbox.cif.g08.bks.cpg/sg2_75_cif.got.tgz:149589.got - 2010.06.03 11:33:40.
