data_PCOD9086989
_publ_section_title
;
Structure prediction by ZEFSAII (Michael W. Deem and Ramdas Pophale) SiO2 
 PCOD9086989
Probable space group: P -1
;
_chemical_formula_sum "Si O2"
_cell_formula_units_Z 14
_cell_length_a 14.153699
_cell_length_b 10.710876
_cell_length_c 14.055953
_cell_angle_alpha 149.076606
_cell_angle_beta 41.167578
_cell_angle_gamma 120.557341
_cell_volume 658.697681
_symmetry_space_group_name_H-M "P -1"
_symmetry_group_IT_number 2
_symmetry_cell_setting 'triclinic'
loop_
_space_group_symop_operation_xyz
x,y,z
-x,-y,-z
loop_
_atom_site_type_symbol
_atom_site_label
_atom_site_fract_x
_atom_site_fract_y
_atom_site_fract_z
Si Si1 0.976377 0.409222 0.353325
Si Si2 0.865107 0.895310 0.628606
Si Si3 0.635048 0.919681 0.489252
Si Si4 0.703028 0.609303 0.950563
Si Si5 0.067342 0.220387 0.711206
Si Si6 0.725990 0.266578 0.519425
Si Si7 0.611352 0.426862 0.098581
O O1 0.885549 0.220010 0.313684
O O2 0.000000 0.500000 0.500000
O O3 0.146148 0.318765 0.117071
O O4 0.862915 0.672153 0.554986
O O5 0.973104 0.036391 0.683458
O O6 0.942042 0.753762 0.378574
O O7 0.702067 0.132770 0.877758
O O8 0.752742 0.913363 0.479132
O O9 0.638695 0.630962 0.283017
O O10 0.697181 0.009851 0.405141
O O11 0.458772 0.135360 0.776319
O O12 0.722412 0.414212 0.719084
O O13 0.683064 0.470852 0.972292
O O14 0.000000 0.500000 0.000000
O O15 0.574255 0.463980 0.706276
#
# Coordination Sequence:
#
# PCOD9086989 Si02
#       7
#     2   2   2   2   2   2   2
#     4  10  22  39  63  88 122 170 207 248 314 373
#     4  11  22  39  64  90 129 160 205 258 314 365
#     4  11  21  37  61  92 124 155 209 262 303 364
#     4  10  19  36  61  87 120 159 209 256 304 360
#     4  11  21  37  63  98 124 156 207 263 309 358
#     4  10  20  37  61  89 122 167 208 248 308 372
#     4  11  21  37  61  94 120 161 207 260 310 357
#
# _framework density 21.254059999999999
#
# number of rings (size 3 to 8) (size 9 to 14) (size 15 to 20)
#    0.000    1.429    1.429    8.571    0.000    0.571 
#    0.000    2.857   12.571    4.286    0.000    0.000 
#    0.000    0.000    0.000    0.000    0.000    0.000 
#
# Total GULP energy -78268.604535 kJ/mol
# GULP energy per Si atom -5590.614610 kJ/mol
# Density = 2.120568 g / cm^3
# Si number density = 21.254060 Si / 1000 Ang^3
#
#
#
# Elastic Constant Matrix: (Units=GPa)
#
#
# Indices 1 2 3 4 5 6 
#
# 1 97.6385 11.0459 28.0141 -1.5609 -16.4123 6.1378
# 2 11.0459 68.7925 23.7812 -8.9076 -10.7712 6.5086
# 3 28.0141 23.7812 76.8551 2.4671 -3.1487 4.3623
# 4 -1.5609 -8.9076 2.4671 31.1579 9.7802 -10.8541
# 5 -16.4123 -10.7712 -3.1487 9.7802 44.3584 0.9221
# 6 6.1378 6.5086 4.3623 -10.8541 0.9221 33.4606
#
#
#
# Elastic Compliance Matrix: (Units=1/GPa)
#
#
# Indices 1 2 3 4 5 6 
#
# 1 0.012326 0.000262 -0.004215 -0.001229 0.004644 -0.002289
# 2 0.000262 0.017516 -0.005424 0.003923 0.003133 -0.001562
# 3 -0.004215 -0.005424 0.016364 -0.003210 -0.000980 -0.001319
# 4 -0.001229 0.003923 -0.003210 0.040911 -0.009029 0.013400
# 5 0.004644 0.003133 -0.000980 -0.009029 0.027048 -0.005008
# 6 -0.002289 -0.001562 -0.001319 0.013400 -0.005008 0.035266
#
#
# Mechanical properties :
#
#
# Convention : Reuss Voigt Hill
#
# Bulk Modulus (GPa) = 36.42630 40.99651 38.71140
# Shear Modulus (GPa) = 28.19523 33.82504 31.01013
#
# Velocity S-wave (km/s) = 3.64618 3.99364 3.82386
# Velocity P-wave (km/s) = 5.90778 6.37152 6.14403
#
# Compressibility (1/GPa) = 0.02745269
#
# Stress axis : x y z
#
# Youngs Moduli (GPa) = 81.12788 57.09138 61.10989
#
# Poissons Ratio (x) = -0.01497 0.25755
# Poissons Ratio (y) = -0.02128 0.33149
# Poissons Ratio (z) = 0.34191 0.30969
#
# Static dielectric constant tensor:
#      x y z
#    x 1.781560 0.021180 -0.009290 
#    y 0.021180 1.760220 0.001260 
#    z -0.009290 0.001260 1.797330 
# 
# From -- ./inp_files/532765.got.cif
#   From: 2010.05.17/outbox.cif.g08.bks.cpg/sg2_267_cif.got.tgz:532765.got - 2010.06.03 11:33:40.
