data_PCOD9086015
_publ_section_title
;
Structure prediction by ZEFSAII (Michael W. Deem and Ramdas Pophale) SiO2 
 PCOD9086015
Probable space group: P -1
;
_chemical_formula_sum "Si O2"
_cell_formula_units_Z 16
_cell_length_a 8.958978
_cell_length_b 13.670276
_cell_length_c 27.735148
_cell_angle_alpha 25.777085
_cell_angle_beta 136.460427
_cell_angle_gamma 145.842703
_cell_volume 826.515017
_symmetry_space_group_name_H-M "P -1"
_symmetry_group_IT_number 2
_symmetry_cell_setting 'triclinic'
loop_
_space_group_symop_operation_xyz
x,y,z
-x,-y,-z
loop_
_atom_site_type_symbol
_atom_site_label
_atom_site_fract_x
_atom_site_fract_y
_atom_site_fract_z
Si Si1 0.275704 0.009949 0.469668
Si Si2 0.717925 0.729924 0.983630
Si Si3 0.790289 0.266415 0.755348
Si Si4 0.833491 0.563082 0.721964
Si Si5 0.639840 0.530536 0.160997
Si Si6 0.304372 0.958407 0.014114
Si Si7 0.409852 0.975403 0.626719
Si Si8 0.276674 0.542086 0.443483
O O1 0.300686 0.978205 0.547232
O O2 0.003030 0.756562 0.494144
O O3 0.500000 0.000000 0.500000
O O4 0.284028 0.286548 0.346992
O O5 0.720306 0.615926 0.086663
O O6 0.011440 0.866385 0.970116
O O7 0.500000 0.500000 0.000000
O O8 0.652497 0.951958 0.877488
O O9 0.722698 0.434806 0.699402
O O10 0.738030 0.284246 0.679939
O O11 0.099556 0.394233 0.781842
O O12 0.760297 0.294556 0.854277
O O13 0.149995 0.803456 0.678275
O O14 0.463739 0.199533 0.269397
O O15 0.565205 0.734778 0.069490
O O16 0.500000 0.000000 0.000000
O O17 0.624938 0.276356 0.565618
O O18 0.500000 0.500000 0.500000
#
# Coordination Sequence:
#
# PCOD9086015 Si02
#       8
#     2   2   2   2   2   2   2   2
#     4  12  27  42  65  99 136 173 209 276 341 378
#     4  11  20  36  63  97 123 164 221 260 313 387
#     4  10  19  35  67  91 120 166 223 264 307 379
#     4  11  20  42  66  90 126 175 221 260 316 395
#     4  10  19  40  63  93 126 171 215 261 315 397
#     4  11  23  38  64  95 127 170 209 266 333 386
#     4  11  22  41  69  94 130 168 229 260 316 391
#     4  12  23  40  68 100 123 174 233 267 313 390
#
# _framework density 19.358388999999999
#
# number of rings (size 3 to 8) (size 9 to 14) (size 15 to 20)
#    0.000    1.000    7.500    2.625    1.750    0.500 
#    0.000    0.625    2.750    0.000    0.000    0.000 
#    0.000    0.000    0.000    0.000    0.000    0.000 
#
# Total GULP energy -89126.674421 kJ/mol
# GULP energy per Si atom -5570.417151 kJ/mol
# Density = 1.931433 g / cm^3
# Si number density = 19.358389 Si / 1000 Ang^3
#
#
#
# Elastic Constant Matrix: (Units=GPa)
#
#
# Indices 1 2 3 4 5 6 
#
# 1 103.8574 41.9663 16.8427 -10.5506 22.9282 -10.0622
# 2 41.9663 109.4526 20.5631 -22.9408 14.2650 -14.8794
# 3 16.8427 20.5631 84.3961 -15.6855 29.6840 -12.5159
# 4 -10.5506 -22.9408 -15.6855 34.2195 -14.2649 8.5221
# 5 22.9282 14.2650 29.6840 -14.2649 29.6266 -5.9529
# 6 -10.0622 -14.8794 -12.5159 8.5221 -5.9529 23.0373
#
#
#
# Elastic Compliance Matrix: (Units=1/GPa)
#
#
# Indices 1 2 3 4 5 6 
#
# 1 0.013540 -0.004440 0.002239 -0.003244 -0.011654 0.002452
# 2 -0.004440 0.012650 -0.001333 0.006676 0.002643 0.003720
# 3 0.002239 -0.001333 0.019383 -0.001059 -0.019833 0.005914
# 4 -0.003244 0.006676 -0.001059 0.042224 0.019002 -0.008390
# 5 -0.011654 0.002643 -0.019833 0.019002 0.069893 -0.003127
# 6 0.002452 0.003720 0.005914 -0.008390 -0.003127 0.052390
#
#
# Mechanical properties :
#
#
# Convention : Reuss Voigt Hill
#
# Bulk Modulus (GPa) = 25.97090 50.71672 38.34381
# Shear Modulus (GPa) = 21.74079 31.93228 26.83653
#
# Velocity S-wave (km/s) = 3.35486 4.06585 3.72734
# Velocity P-wave (km/s) = 5.33401 6.94962 6.19471
#
# Compressibility (1/GPa) = 0.03850464
#
# Stress axis : x y z
#
# Youngs Moduli (GPa) = 73.85303 79.05302 51.59212
#
# Poissons Ratio (x) = 0.35101 -0.11553
# Poissons Ratio (y) = 0.32792 0.06878
# Poissons Ratio (z) = -0.16538 0.10540
#
# Static dielectric constant tensor:
#      x y z
#    x 1.678050 -0.018800 0.011100 
#    y -0.018800 1.691450 -0.035610 
#    z 0.011100 -0.035610 1.742140 
# 
# From -- ./inp_files/607494.got.cif
#   From: 2010.05.17/outbox.cif.g08.bks.cpg/sg2_304_cif.got.tgz:607494.got - 2010.06.03 11:33:40.
