data_PCOD9086866
_publ_section_title
;
Structure prediction by ZEFSAII (Michael W. Deem and Ramdas Pophale) SiO2 
 PCOD9086866
Probable space group: P -1
;
_chemical_formula_sum "Si O2"
_cell_formula_units_Z 14
_cell_length_a 9.607845
_cell_length_b 11.496895
_cell_length_c 14.173522
_cell_angle_alpha 61.995877
_cell_angle_beta 57.549671
_cell_angle_gamma 109.191657
_cell_volume 730.874539
_symmetry_space_group_name_H-M "P -1"
_symmetry_group_IT_number 2
_symmetry_cell_setting 'triclinic'
loop_
_space_group_symop_operation_xyz
x,y,z
-x,-y,-z
loop_
_atom_site_type_symbol
_atom_site_label
_atom_site_fract_x
_atom_site_fract_y
_atom_site_fract_z
Si Si1 0.856922 0.288381 0.082750
Si Si2 0.118909 0.714733 0.340671
Si Si3 0.850467 0.750522 0.560534
Si Si4 0.302747 0.830706 0.022908
Si Si5 0.302003 0.058268 0.426820
Si Si6 0.545911 0.372392 0.962159
Si Si7 0.099203 0.277650 0.152019
O O1 0.557572 0.135840 0.276838
O O2 0.993524 0.251135 0.099348
O O3 0.861292 0.274083 0.974346
O O4 0.000000 0.500000 0.000000
O O5 0.133204 0.748749 0.209848
O O6 0.000000 0.500000 0.500000
O O7 0.946119 0.722460 0.448869
O O8 0.430624 0.916674 0.179016
O O9 0.684743 0.783192 0.598794
O O10 0.689562 0.554188 0.764110
O O11 0.118845 0.953064 0.441299
O O12 0.412200 0.751575 0.027675
O O13 0.145413 0.876875 0.630188
O O14 0.682320 0.489586 0.968951
O O15 0.244474 0.228565 0.124584
#
# Coordination Sequence:
#
# PCOD9086866 Si02
#       7
#     2   2   2   2   2   2   2
#     4  12  22  37  58  94 129 159 199 259 322 365
#     4  11  22  40  62  91 122 167 214 255 295 369
#     4  10  19  36  62  90 122 153 211 262 298 363
#     4  11  23  38  63  91 125 164 208 255 310 363
#     4  10  21  35  59  92 124 158 199 258 316 363
#     4  10  19  36  60  92 119 162 206 247 308 371
#     4  10  21  34  59  90 129 159 196 254 315 373
#
# _framework density 19.155134
#
# number of rings (size 3 to 8) (size 9 to 14) (size 15 to 20)
#    0.000    1.429    4.286    2.143    4.000    0.000 
#    2.571    0.000    0.000   11.143    0.000    0.000 
#    0.000    0.000    0.000    0.000    0.000    0.000 
#
# Total GULP energy -78109.023927 kJ/mol
# GULP energy per Si atom -5579.215995 kJ/mol
# Density = 1.911154 g / cm^3
# Si number density = 19.155134 Si / 1000 Ang^3
#
#
#
# Elastic Constant Matrix: (Units=GPa)
#
#
# Indices 1 2 3 4 5 6 
#
# 1 71.3070 30.1196 18.0287 1.7845 4.4111 17.6534
# 2 30.1196 106.6601 33.0168 22.6900 11.7629 10.8646
# 3 18.0287 33.0168 81.9864 11.2741 7.6000 11.5033
# 4 1.7845 22.6900 11.2741 36.7260 -4.9348 7.0250
# 5 4.4111 11.7629 7.6000 -4.9348 20.2454 1.0704
# 6 17.6534 10.8646 11.5033 7.0250 1.0704 35.5680
#
#
#
# Elastic Compliance Matrix: (Units=1/GPa)
#
#
# Indices 1 2 3 4 5 6 
#
# 1 0.018288 -0.004858 -0.001620 0.004249 0.000901 -0.007935
# 2 -0.004858 0.014404 -0.002825 -0.009130 -0.008528 0.000985
# 3 -0.001620 -0.002825 0.014801 -0.002806 -0.004117 -0.002442
# 4 0.004249 -0.009130 -0.002806 0.036665 0.014692 -0.006096
# 5 0.000901 -0.008528 -0.004117 0.014692 0.059342 -0.001198
# 6 -0.007935 0.000985 -0.002442 -0.006096 -0.001198 0.033783
#
#
# Mechanical properties :
#
#
# Convention : Reuss Voigt Hill
#
# Bulk Modulus (GPa) = 34.61541 46.92041 40.76791
# Shear Modulus (GPa) = 24.32899 30.42712 27.37806
#
# Velocity S-wave (km/s) = 3.56772 3.98987 3.78468
# Velocity P-wave (km/s) = 5.92299 6.76562 6.35828
#
# Compressibility (1/GPa) = 0.02888887
#
# Stress axis : x y z
#
# Youngs Moduli (GPa) = 54.68150 69.42414 67.56348
#
# Poissons Ratio (x) = 0.33725 0.10942
# Poissons Ratio (y) = 0.26563 0.19084
# Poissons Ratio (z) = 0.08856 0.19610
#
# Static dielectric constant tensor:
#      x y z
#    x 1.684620 -0.005930 0.016950 
#    y -0.005930 1.712710 -0.013550 
#    z 0.016950 -0.013550 1.744510 
# 
# From -- ./inp_files/170132.got.cif
#   From: 2010.05.17/outbox.cif.g08.bks.cpg/sg2_86_cif.got.tgz:170132.got - 2010.06.03 11:33:40.
