data_PCOD9086097
_publ_section_title
;
Structure prediction by ZEFSAII (Michael W. Deem and Ramdas Pophale) SiO2 
 PCOD9086097
Probable space group: P -1
;
_chemical_formula_sum "Si O2"
_cell_formula_units_Z 14
_cell_length_a 15.823643
_cell_length_b 7.730776
_cell_length_c 14.643994
_cell_angle_alpha 38.734521
_cell_angle_beta 149.157206
_cell_angle_gamma 135.971923
_cell_volume 567.847671
_symmetry_space_group_name_H-M "P -1"
_symmetry_group_IT_number 2
_symmetry_cell_setting 'triclinic'
loop_
_space_group_symop_operation_xyz
x,y,z
-x,-y,-z
loop_
_atom_site_type_symbol
_atom_site_label
_atom_site_fract_x
_atom_site_fract_y
_atom_site_fract_z
Si Si1 0.588859 0.527779 0.972635
Si Si2 0.506724 0.933199 0.342607
Si Si3 0.730924 0.580899 0.611098
Si Si4 0.182441 0.761287 0.005402
Si Si5 0.238265 0.845400 0.824962
Si Si6 0.968760 0.724994 0.302217
Si Si7 0.125602 0.381493 0.472159
O O1 0.609702 0.249555 0.050053
O O2 0.784689 0.649583 0.118537
O O3 0.500000 0.500000 0.000000
O O4 0.501348 0.767485 0.743489
O O5 0.671229 0.862793 0.475739
O O6 0.434003 0.662717 0.447546
O O7 0.368816 0.916118 0.140730
O O8 0.816373 0.602417 0.584553
O O9 0.835781 0.456909 0.838507
O O10 0.202920 0.671808 0.957419
O O11 0.048245 0.973385 0.797375
O O12 0.067412 0.768029 0.640366
O O13 0.237734 0.174726 0.709572
O O14 0.000000 0.500000 0.500000
O O15 0.109979 0.682240 0.377083
#
# Coordination Sequence:
#
# PCOD9086097 Si02
#       7
#     2   2   2   2   2   2   2
#     4  10  20  36  56  80 109 147 176 220 276 322
#     4   8  18  37  56  74 109 141 178 223 262 313
#     4   9  18  36  59  75 104 146 183 214 267 320
#     4   9  18  35  56  76 109 139 177 223 261 315
#     4  10  20  34  53  82 112 136 176 227 269 312
#     4  10  19  36  54  81 113 137 181 228 262 314
#     4  10  20  33  56  78 109 145 174 218 276 318
#
# _framework density 24.654499999999999
#
# number of rings (size 3 to 8) (size 9 to 14) (size 15 to 20)
#    0.857    1.714    1.429    0.857    0.000    1.143 
#    2.571    2.857    0.000    0.000    0.000    0.000 
#    0.000    0.000    0.000    0.000    0.000    0.000 
#
# Total GULP energy -78059.639841 kJ/mol
# GULP energy per Si atom -5575.688560 kJ/mol
# Density = 2.459839 g / cm^3
# Si number density = 24.654500 Si / 1000 Ang^3
#
#
#
# Elastic Constant Matrix: (Units=GPa)
#
#
# Indices 1 2 3 4 5 6 
#
# 1 177.9059 23.6645 73.7631 -33.0104 32.5843 -19.6830
# 2 23.6645 41.0620 17.8187 -13.8360 16.0981 -5.7242
# 3 73.7631 17.8187 151.2608 -29.5112 33.0479 -14.2805
# 4 -33.0104 -13.8360 -29.5112 45.9640 -6.7267 13.7388
# 5 32.5843 16.0981 33.0479 -6.7267 54.8253 -9.2945
# 6 -19.6830 -5.7242 -14.2805 13.7388 -9.2945 30.2696
#
#
#
# Elastic Compliance Matrix: (Units=1/GPa)
#
#
# Indices 1 2 3 4 5 6 
#
# 1 0.007977 -0.001463 -0.002533 0.002817 -0.002137 0.001781
# 2 -0.001463 0.030392 0.000092 0.007301 -0.007337 -0.000727
# 3 -0.002533 0.000092 0.009364 0.003684 -0.003719 -0.000026
# 4 0.002817 0.007301 0.003684 0.030827 -0.003997 -0.010268
# 5 -0.002137 -0.007337 -0.003719 -0.003997 0.024215 0.004718
# 6 0.001781 -0.000727 -0.000026 -0.010268 0.004718 0.040154
#
#
# Mechanical properties :
#
#
# Convention : Reuss Voigt Hill
#
# Bulk Modulus (GPa) = 25.04674 66.74679 45.89677
# Shear Modulus (GPa) = 30.47949 43.21062 36.84506
#
# Velocity S-wave (km/s) = 3.51987 4.19100 3.87001
# Velocity P-wave (km/s) = 5.16725 7.10992 6.21496
#
# Compressibility (1/GPa) = 0.03992536
#
# Stress axis : x y z
#
# Youngs Moduli (GPa) = 125.36232 32.90381 106.78810
#
# Poissons Ratio (x) = 0.04813 0.27049
# Poissons Ratio (y) = 0.18336 -0.00981
# Poissons Ratio (z) = 0.31754 -0.00302
#
# Static dielectric constant tensor:
#      x y z
#    x 1.946140 -0.012430 0.032770 
#    y -0.012430 2.192380 -0.039700 
#    z 0.032770 -0.039700 1.939200 
# 
# From -- ./inp_files/176659.got.cif
#   From: 2010.05.17/outbox.cif.g08.bks.cpg/sg2_89_cif.got.tgz:176659.got - 2010.06.03 11:33:40.
