data_PCOD9086719
_publ_section_title
;
Structure prediction by ZEFSAII (Michael W. Deem and Ramdas Pophale) SiO2 
 PCOD9086719
Probable space group: P -1
;
_chemical_formula_sum "Si O2"
_cell_formula_units_Z 14
_cell_length_a 9.408846
_cell_length_b 8.215301
_cell_length_c 12.951984
_cell_angle_alpha 132.677185
_cell_angle_beta 73.514063
_cell_angle_gamma 120.125798
_cell_volume 634.094012
_symmetry_space_group_name_H-M "P -1"
_symmetry_group_IT_number 2
_symmetry_cell_setting 'triclinic'
loop_
_space_group_symop_operation_xyz
x,y,z
-x,-y,-z
loop_
_atom_site_type_symbol
_atom_site_label
_atom_site_fract_x
_atom_site_fract_y
_atom_site_fract_z
Si Si1 0.306108 0.335134 0.994799
Si Si2 0.458266 0.280910 0.647941
Si Si3 0.850415 0.057813 0.321524
Si Si4 0.642081 0.303722 0.407484
Si Si5 0.407743 0.174099 0.111509
Si Si6 0.344869 0.823867 0.253465
Si Si7 0.209337 0.152317 0.354450
O O1 0.305859 0.191410 0.038720
O O2 0.252909 0.556736 0.105375
O O3 0.500000 0.500000 0.000000
O O4 0.208744 0.145428 0.844498
O O5 0.279222 0.067608 0.613641
O O6 0.542567 0.276827 0.522309
O O7 0.457576 0.542824 0.778883
O O8 0.579033 0.247143 0.693016
O O9 0.032439 0.128895 0.350898
O O10 0.807027 0.272476 0.379950
O O11 0.693167 0.587286 0.493433
O O12 0.511496 0.054061 0.269685
O O13 0.293081 0.131427 0.218602
O O14 0.500000 0.000000 0.000000
O O15 0.217543 0.940983 0.332457
#
# Coordination Sequence:
#
# PCOD9086719 Si02
#       7
#     2   2   2   2   2   2   2
#     4  11  19  37  63  83 108 161 194 223 285 349
#     4   9  20  38  63  81 109 162 198 222 280 350
#     4  11  21  37  62  85 119 149 190 238 290 336
#     4  10  20  40  62  81 114 159 196 228 280 345
#     4  10  21  37  59  85 116 148 197 236 273 350
#     4  10  19  36  60  84 113 154 194 227 275 356
#     4  11  24  35  58  93 119 143 188 249 292 318
#
# _framework density 22.078747
#
# number of rings (size 3 to 8) (size 9 to 14) (size 15 to 20)
#    0.000    1.714    4.286    3.429    0.000    1.143 
#    0.000    2.857    0.000    0.000    0.000    0.000 
#    0.000    0.000    0.000    0.000    0.000    0.000 
#
# Total GULP energy -78055.402324 kJ/mol
# GULP energy per Si atom -5575.385880 kJ/mol
# Density = 2.202849 g / cm^3
# Si number density = 22.078747 Si / 1000 Ang^3
#
#
#
# Elastic Constant Matrix: (Units=GPa)
#
#
# Indices 1 2 3 4 5 6 
#
# 1 138.4069 23.1417 50.1102 8.8385 -16.3375 -10.2069
# 2 23.1417 42.8279 34.8310 3.7261 -9.3847 -15.8622
# 3 50.1102 34.8310 144.0689 36.3777 -27.4437 -21.6058
# 4 8.8385 3.7261 36.3777 33.1390 -15.2290 -8.1516
# 5 -16.3375 -9.3847 -27.4437 -15.2290 41.8682 7.8921
# 6 -10.2069 -15.8622 -21.6058 -8.1516 7.8921 20.0709
#
#
#
# Elastic Compliance Matrix: (Units=1/GPa)
#
#
# Indices 1 2 3 4 5 6 
#
# 1 0.008632 -0.002541 -0.002466 0.001405 0.001769 -0.000397
# 2 -0.002541 0.039914 -0.007358 0.011857 0.002514 0.026158
# 3 -0.002466 -0.007358 0.013072 -0.011840 0.001336 0.001669
# 4 0.001405 0.011857 -0.011840 0.049803 0.011069 0.013213
# 5 0.001769 0.002514 0.001336 0.011069 0.030649 -0.003232
# 6 -0.000397 0.026158 0.001669 0.013213 -0.003232 0.078728
#
#
# Mechanical properties :
#
#
# Convention : Reuss Voigt Hill
#
# Bulk Modulus (GPa) = 27.10834 60.16325 43.63580
# Shear Modulus (GPa) = 19.39308 33.49701 26.44505
#
# Velocity S-wave (km/s) = 2.96693 3.89930 3.46462
# Velocity P-wave (km/s) = 4.90322 6.89792 5.98426
#
# Compressibility (1/GPa) = 0.03688902
#
# Stress axis : x y z
#
# Youngs Moduli (GPa) = 115.84315 25.05384 76.49907
#
# Poissons Ratio (x) = 0.06366 0.18862
# Poissons Ratio (y) = 0.29436 0.56289
# Poissons Ratio (z) = 0.28563 0.18435
#
# Static dielectric constant tensor:
#      x y z
#    x 1.814120 -0.041240 -0.014880 
#    y -0.041240 1.866190 -0.013010 
#    z -0.014880 -0.013010 1.995150 
# 
# From -- ./inp_files/555709.got.cif
#   From: 2010.05.17/outbox.cif.g08.bks.cpg/sg2_278_cif.got.tgz:555709.got - 2010.06.03 11:33:40.
