data_PCOD9086440
_publ_section_title
;
Structure prediction by ZEFSAII (Michael W. Deem and Ramdas Pophale) SiO2 
 PCOD9086440
Probable space group: P -1
;
_chemical_formula_sum "Si O2"
_cell_formula_units_Z 14
_cell_length_a 8.559805
_cell_length_b 11.874206
_cell_length_c 7.939743
_cell_angle_alpha 101.426262
_cell_angle_beta 117.760022
_cell_angle_gamma 91.648253
_cell_volume 693.119455
_symmetry_space_group_name_H-M "P -1"
_symmetry_group_IT_number 2
_symmetry_cell_setting 'triclinic'
loop_
_space_group_symop_operation_xyz
x,y,z
-x,-y,-z
loop_
_atom_site_type_symbol
_atom_site_label
_atom_site_fract_x
_atom_site_fract_y
_atom_site_fract_z
Si Si1 0.206886 0.821516 0.326775
Si Si2 0.232782 0.405492 0.476046
Si Si3 0.298614 0.646246 0.769694
Si Si4 0.919945 0.391804 0.042777
Si Si5 0.155130 0.052344 0.218707
Si Si6 0.003272 0.209074 0.460548
Si Si7 0.545853 0.741480 0.660237
O O1 0.056888 0.829208 0.395405
O O2 0.377693 0.784065 0.495329
O O3 0.250853 0.945097 0.295923
O O4 0.128811 0.721848 0.128038
O O5 0.248931 0.534892 0.591069
O O6 0.291193 0.154889 0.234644
O O7 0.401015 0.364203 0.456761
O O8 0.162542 0.316845 0.563964
O O9 0.254474 0.602964 0.924707
O O10 0.166910 0.741176 0.693066
O O11 0.489643 0.701924 0.809869
O O12 0.078568 0.385216 0.252535
O O13 0.000000 0.500000 0.000000
O O14 0.066783 0.110071 0.349029
O O15 0.000000 0.000000 0.000000
#
# Coordination Sequence:
#
# PCOD9086440 Si02
#       7
#     2   2   2   2   2   2   2
#     4  11  21  38  58  85 117 148 188 239 283 333
#     4  10  19  37  60  84 116 155 189 229 282 340
#     4  10  19  36  58  85 118 152 188 236 284 330
#     4  11  21  36  60  88 115 152 193 231 277 342
#     4  11  22  40  62  84 110 149 195 238 284 341
#     4   9  19  35  58  85 110 148 191 230 280 337
#     4  10  22  38  57  83 115 152 189 235 289 335
#
# _framework density 20.198539
#
# number of rings (size 3 to 8) (size 9 to 14) (size 15 to 20)
#    0.000    1.714    0.000    8.143    0.000    0.000 
#    0.000   16.429    0.000    0.000    0.000    0.000 
#    0.000    0.000    0.000    0.000    0.000    0.000 
#
# Total GULP energy -78130.231022 kJ/mol
# GULP energy per Si atom -5580.730787 kJ/mol
# Density = 2.015257 g / cm^3
# Si number density = 20.198539 Si / 1000 Ang^3
#
#
#
# Elastic Constant Matrix: (Units=GPa)
#
#
# Indices 1 2 3 4 5 6 
#
# 1 108.4854 30.1371 43.8544 4.2817 -24.9078 27.9444
# 2 30.1371 79.8550 35.5427 13.1918 -5.7544 20.5535
# 3 43.8544 35.5427 99.6740 22.5125 -8.9924 18.4752
# 4 4.2817 13.1918 22.5125 31.8772 2.8126 -5.0297
# 5 -24.9078 -5.7544 -8.9924 2.8126 20.9238 -8.3810
# 6 27.9444 20.5535 18.4752 -5.0297 -8.3810 35.6442
#
#
#
# Elastic Compliance Matrix: (Units=1/GPa)
#
#
# Indices 1 2 3 4 5 6 
#
# 1 0.016364 -0.001480 -0.003800 -0.001273 0.014938 -0.006673
# 2 -0.001480 0.017486 -0.002557 -0.006543 -0.000646 -0.008672
# 3 -0.003800 -0.002557 0.016080 -0.010692 0.001062 -0.005140
# 4 -0.001273 -0.006543 -0.010692 0.044836 -0.008028 0.014752
# 5 0.014938 -0.000646 0.001062 -0.008028 0.068134 0.002998
# 6 -0.006673 -0.008672 -0.005140 0.014752 0.002998 0.043738
#
#
# Mechanical properties :
#
#
# Convention : Reuss Voigt Hill
#
# Bulk Modulus (GPa) = 29.19243 56.34254 42.76748
# Shear Modulus (GPa) = 21.39218 29.58771 25.48994
#
# Velocity S-wave (km/s) = 3.25790 3.83148 3.55628
# Velocity P-wave (km/s) = 5.35127 6.89410 6.17109
#
# Compressibility (1/GPa) = 0.03425546
#
# Stress axis : x y z
#
# Youngs Moduli (GPa) = 61.11007 57.18915 62.18921
#
# Poissons Ratio (x) = 0.08465 0.23631
# Poissons Ratio (y) = 0.09045 0.15902
# Poissons Ratio (z) = 0.23221 0.14624
#
# Static dielectric constant tensor:
#      x y z
#    x 1.761610 0.021120 -0.014000 
#    y 0.021120 1.768500 -0.035770 
#    z -0.014000 -0.035770 1.677400 
# 
# From -- ./inp_files/166286.got.cif
#   From: 2010.05.17/outbox.cif.g08.bks.cpg/sg2_84_cif.got.tgz:166286.got - 2010.06.03 11:33:40.
