data_PCOD9086825
_publ_section_title
;
Structure prediction by ZEFSAII (Michael W. Deem and Ramdas Pophale) SiO2 
 PCOD9086825
Probable space group: P -1
;
_chemical_formula_sum "Si O2"
_cell_formula_units_Z 16
_cell_length_a 8.167848
_cell_length_b 11.371982
_cell_length_c 14.756020
_cell_angle_alpha 133.526660
_cell_angle_beta 109.836561
_cell_angle_gamma 105.115745
_cell_volume 643.847652
_symmetry_space_group_name_H-M "P -1"
_symmetry_group_IT_number 2
_symmetry_cell_setting 'triclinic'
loop_
_space_group_symop_operation_xyz
x,y,z
-x,-y,-z
loop_
_atom_site_type_symbol
_atom_site_label
_atom_site_fract_x
_atom_site_fract_y
_atom_site_fract_z
Si Si1 0.854872 0.196813 0.742486
Si Si2 0.619046 0.966506 0.874985
Si Si3 0.700678 0.486299 0.538168
Si Si4 0.310114 0.263592 0.896419
Si Si5 0.998416 0.383390 0.050341
Si Si6 0.470219 0.665141 0.375993
Si Si7 0.062332 0.264014 0.464321
Si Si8 0.576874 0.291460 0.127366
O O1 0.973266 0.406287 0.806101
O O2 0.058906 0.202984 0.817106
O O3 0.610777 0.931181 0.532207
O O4 0.821692 0.272697 0.869985
O O5 0.413582 0.753687 0.655406
O O6 0.611009 0.841790 0.892381
O O7 0.577724 0.116009 0.988015
O O8 0.869621 0.160214 0.968501
O O9 0.500000 0.500000 0.500000
O O10 0.705379 0.460150 0.632963
O O11 0.922996 0.684981 0.614193
O O12 0.500000 0.500000 0.000000
O O13 0.460362 0.326838 0.049227
O O14 0.190535 0.008055 0.706019
O O15 0.290252 0.529071 0.183670
O O16 0.694074 0.687123 0.442618
O O17 0.149849 0.476108 0.654656
#
# Coordination Sequence:
#
# PCOD9086825 Si02
#       8
#     2   2   2   2   2   2   2   2
#     4  10  22  39  57  89 129 154 208 254 291 368
#     4  10  21  40  61  91 128 158 205 254 300 366
#     4   9  18  37  60  90 126 155 191 255 307 359
#     4  11  23  41  65  87 118 168 209 248 306 361
#     4  11  21  36  61  90 122 165 196 250 313 353
#     4  10  19  36  60  89 123 158 198 249 311 357
#     4   9  21  39  59  90 124 155 205 255 296 367
#     4  10  22  42  60  88 126 164 205 252 300 362
#
# _framework density 24.850601000000001
#
# number of rings (size 3 to 8) (size 9 to 14) (size 15 to 20)
#    0.000    2.000    1.250    1.875    1.750    0.500 
#    2.250    5.625    0.000    0.000    0.000    0.000 
#    0.000    0.000    0.000    0.000    0.000    0.000 
#
# Total GULP energy -89221.166669 kJ/mol
# GULP energy per Si atom -5576.322917 kJ/mol
# Density = 2.479404 g / cm^3
# Si number density = 24.850601 Si / 1000 Ang^3
#
#
#
# Elastic Constant Matrix: (Units=GPa)
#
#
# Indices 1 2 3 4 5 6 
#
# 1 27.9660 3.4982 11.1674 0.5541 -12.0921 -4.1416
# 2 3.4982 137.9350 53.9196 17.9758 6.7636 -9.9780
# 3 11.1674 53.9196 134.5823 24.9937 -4.6076 6.6746
# 4 0.5541 17.9758 24.9937 45.8393 -6.5259 0.7311
# 5 -12.0921 6.7636 -4.6076 -6.5259 33.6683 4.4653
# 6 -4.1416 -9.9780 6.6746 0.7311 4.4653 20.1837
#
#
#
# Elastic Compliance Matrix: (Units=1/GPa)
#
#
# Indices 1 2 3 4 5 6 
#
# 1 0.045126 -0.000290 -0.004172 0.003945 0.015542 0.006915
# 2 -0.000290 0.009824 -0.003960 -0.002375 -0.004019 0.007082
# 3 -0.004172 -0.003960 0.010420 -0.003863 0.000810 -0.006299
# 4 0.003945 -0.002375 -0.003863 0.025762 0.006554 -0.001470
# 5 0.015542 -0.004019 0.000810 0.006554 0.038509 -0.007822
# 6 0.006915 0.007082 -0.006299 -0.001470 -0.007822 0.058331
#
#
# Mechanical properties :
#
#
# Convention : Reuss Voigt Hill
#
# Bulk Modulus (GPa) = 20.60671 48.62819 34.61745
# Shear Modulus (GPa) = 22.62540 35.39813 29.01177
#
# Velocity S-wave (km/s) = 3.02065 3.77827 3.42050
# Velocity P-wave (km/s) = 4.52504 6.21646 5.43693
#
# Compressibility (1/GPa) = 0.04852788
#
# Stress axis : x y z
#
# Youngs Moduli (GPa) = 22.16023 101.79356 95.96548
#
# Poissons Ratio (x) = 0.02949 0.40036
# Poissons Ratio (y) = 0.00642 0.37998
# Poissons Ratio (z) = 0.09245 0.40306
#
# Static dielectric constant tensor:
#      x y z
#    x 2.081060 0.015120 -0.069990 
#    y 0.015120 2.042590 0.010840 
#    z -0.069990 0.010840 1.974730 
# 
# From -- ./inp_files/333366.got.cif
#   From: 2010.05.17/outbox.cif.g08.bks.cpg/sg2_167_cif.got.tgz:333366.got - 2010.06.03 11:33:40.
