data_PCOD9086341
_publ_section_title
;
Structure prediction by ZEFSAII (Michael W. Deem and Ramdas Pophale) SiO2 
 PCOD9086341
Probable space group: P -1
;
_chemical_formula_sum "Si O2"
_cell_formula_units_Z 16
_cell_length_a 14.810306
_cell_length_b 8.843863
_cell_length_c 15.873352
_cell_angle_alpha 32.309338
_cell_angle_beta 136.448373
_cell_angle_gamma 122.065341
_cell_volume 746.605006
_symmetry_space_group_name_H-M "P -1"
_symmetry_group_IT_number 2
_symmetry_cell_setting 'triclinic'
loop_
_space_group_symop_operation_xyz
x,y,z
-x,-y,-z
loop_
_atom_site_type_symbol
_atom_site_label
_atom_site_fract_x
_atom_site_fract_y
_atom_site_fract_z
Si Si1 0.909671 0.893580 0.420217
Si Si2 0.902649 0.392013 0.050750
Si Si3 0.927414 0.950304 0.888687
Si Si4 0.615836 0.210524 0.110388
Si Si5 0.601005 0.549840 0.774938
Si Si6 0.942452 0.663007 0.299800
Si Si7 0.632637 0.112652 0.638647
Si Si8 0.649104 0.772209 0.977804
O O1 0.924924 0.081615 0.257782
O O2 0.754445 0.971728 0.307443
O O3 0.000000 0.000000 0.500000
O O4 0.975698 0.558971 0.608806
O O5 0.750477 0.454393 0.884029
O O6 0.000000 0.500000 0.000000
O O7 0.906293 0.624144 0.019787
O O8 0.777566 0.147341 0.690345
O O9 0.013680 0.037859 0.829470
O O10 0.000000 0.000000 0.000000
O O11 0.647179 0.476299 0.063332
O O12 0.579300 0.323064 0.937793
O O13 0.485766 0.140720 0.099327
O O14 0.487121 0.624113 0.592721
O O15 0.602328 0.838172 0.695508
O O16 0.783865 0.711310 0.153620
O O17 0.000000 0.500000 0.500000
O O18 0.647087 0.017484 0.790320
#
# Coordination Sequence:
#
# PCOD9086341 Si02
#       8
#     2   2   2   2   2   2   2   2
#     4  11  21  40  63  90 120 156 204 246 299 350
#     4  10  21  38  61  89 115 152 198 250 288 347
#     4  11  21  38  61  84 120 159 193 238 304 356
#     4   9  19  35  61  85 114 153 200 254 287 343
#     4   8  17  32  56  84 109 141 198 245 284 329
#     4  12  25  38  59  94 126 157 196 248 303 364
#     4   9  17  33  56  82 109 149 195 241 281 345
#     4  10  19  36  57  89 117 151 204 247 290 349
#
# _framework density 21.430343000000001
#
# number of rings (size 3 to 8) (size 9 to 14) (size 15 to 20)
#    0.000    2.000    2.500    2.250    1.750    1.000 
#    4.500    0.625    2.750    1.500    0.000    0.000 
#    0.000    0.000    0.000    0.000    0.000    0.000 
#
# Total GULP energy -89304.917259 kJ/mol
# GULP energy per Si atom -5581.557329 kJ/mol
# Density = 2.138157 g / cm^3
# Si number density = 21.430343 Si / 1000 Ang^3
#
#
#
# Elastic Constant Matrix: (Units=GPa)
#
#
# Indices 1 2 3 4 5 6 
#
# 1 125.9957 0.4350 36.5671 14.7716 13.8166 13.7912
# 2 0.4350 46.0179 19.5374 0.6594 8.0875 8.3016
# 3 36.5671 19.5374 122.1912 34.6744 11.9480 6.3639
# 4 14.7716 0.6594 34.6744 36.4264 -2.2558 3.8495
# 5 13.8166 8.0875 11.9480 -2.2558 31.6907 1.0402
# 6 13.7912 8.3016 6.3639 3.8495 1.0402 23.9698
#
#
#
# Elastic Compliance Matrix: (Units=1/GPa)
#
#
# Indices 1 2 3 4 5 6 
#
# 1 0.009801 0.002573 -0.002216 -0.001579 -0.004026 -0.005514
# 2 0.002573 0.026521 -0.005133 0.004059 -0.005347 -0.009722
# 3 -0.002216 -0.005133 0.013395 -0.012158 -0.003692 0.001609
# 4 -0.001579 0.004059 -0.012158 0.040473 0.007251 -0.004084
# 5 -0.004026 -0.005347 -0.003692 0.007251 0.036504 0.002400
# 6 -0.005514 -0.009722 0.001609 -0.004084 0.002400 0.048383
#
#
# Mechanical properties :
#
#
# Convention : Reuss Voigt Hill
#
# Bulk Modulus (GPa) = 24.89727 45.25375 35.07551
# Shear Modulus (GPa) = 25.25017 34.26174 29.75595
#
# Velocity S-wave (km/s) = 3.43628 4.00277 3.73030
# Velocity P-wave (km/s) = 5.23326 6.52115 5.91238
#
# Compressibility (1/GPa) = 0.04016505
#
# Stress axis : x y z
#
# Youngs Moduli (GPa) = 102.03069 37.70584 74.65402
#
# Poissons Ratio (x) = -0.09701 0.16541
# Poissons Ratio (y) = -0.26251 0.38321
# Poissons Ratio (z) = 0.22607 0.19355
#
# Static dielectric constant tensor:
#      x y z
#    x 1.818940 -0.091020 0.007110 
#    y -0.091020 1.942380 -0.026640 
#    z 0.007110 -0.026640 1.756440 
# 
# From -- ./inp_files/528127.got.cif
#   From: 2010.05.17/outbox.cif.g08.bks.cpg/sg2_265_cif.got.tgz:528127.got - 2010.06.03 11:33:40.
