data_PCOD9086586
_publ_section_title
;
Structure prediction by ZEFSAII (Michael W. Deem and Ramdas Pophale) SiO2 
 PCOD9086586
Probable space group: P -1
;
_chemical_formula_sum "Si O2"
_cell_formula_units_Z 16
_cell_length_a 7.942842
_cell_length_b 14.430129
_cell_length_c 12.991771
_cell_angle_alpha 130.081345
_cell_angle_beta 101.167687
_cell_angle_gamma 44.844982
_cell_volume 701.674211
_symmetry_space_group_name_H-M "P -1"
_symmetry_group_IT_number 2
_symmetry_cell_setting 'triclinic'
loop_
_space_group_symop_operation_xyz
x,y,z
-x,-y,-z
loop_
_atom_site_type_symbol
_atom_site_label
_atom_site_fract_x
_atom_site_fract_y
_atom_site_fract_z
Si Si1 0.992429 0.144491 0.194941
Si Si2 0.342663 0.401276 0.802775
Si Si3 0.587857 0.056256 0.464007
Si Si4 0.202495 0.414245 0.214706
Si Si5 0.562001 0.753044 0.072803
Si Si6 0.060949 0.346681 0.463308
Si Si7 0.929856 0.792061 0.136985
Si Si8 0.283528 0.937664 0.877186
O O1 0.983023 0.283181 0.332969
O O2 0.744661 0.191806 0.221868
O O3 0.252007 0.945992 0.144144
O O4 0.064056 0.100641 0.052041
O O5 0.569742 0.202352 0.616637
O O6 0.400334 0.308535 0.852345
O O7 0.077601 0.499839 0.780860
O O8 0.222417 0.597015 0.976489
O O9 0.358900 0.175199 0.430029
O O10 0.500000 0.000000 0.500000
O O11 0.872697 0.868892 0.302963
O O12 0.420406 0.201819 0.138594
O O13 0.134890 0.550342 0.387675
O O14 0.319328 0.399060 0.110515
O O15 0.749596 0.768694 0.094084
O O16 0.000000 0.500000 0.500000
O O17 0.786903 0.965933 0.169233
#
# Coordination Sequence:
#
# PCOD9086586 Si02
#       8
#     2   2   2   2   2   2   2   2
#     4  10  22  40  59  79 125 159 194 243 303 371
#     4  10  21  34  58  95 116 149 200 256 296 346
#     4  11  21  35  57  92 124 152 194 251 313 351
#     4   9  20  32  55  83 116 144 195 240 295 351
#     4  10  19  36  59  85 112 154 199 246 298 346
#     4  11  22  34  57  92 116 152 198 262 299 346
#     4  11  20  35  61  87 115 157 198 254 290 354
#     4  10  23  39  56  85 117 167 195 233 309 367
#
# _framework density 22.802606000000001
#
# number of rings (size 3 to 8) (size 9 to 14) (size 15 to 20)
#    0.000    1.750    2.500    2.250    7.000    3.000 
#    0.000    0.625    0.000    3.000    0.000    0.000 
#    0.000    0.000    0.000    0.000    0.000    0.000 
#
# Total GULP energy -89072.780433 kJ/mol
# GULP energy per Si atom -5567.048777 kJ/mol
# Density = 2.275071 g / cm^3
# Si number density = 22.802606 Si / 1000 Ang^3
#
#
#
# Elastic Constant Matrix: (Units=GPa)
#
#
# Indices 1 2 3 4 5 6 
#
# 1 102.6318 3.0244 -21.2548 41.3779 3.3281 54.2684
# 2 3.0244 86.4119 42.8992 -25.8595 6.2345 -0.2430
# 3 -21.2548 42.8992 186.3300 -29.0804 13.9990 -25.4978
# 4 41.3779 -25.8595 -29.0804 54.9342 -7.8451 26.6218
# 5 3.3281 6.2345 13.9990 -7.8451 14.5398 -2.6171
# 6 54.2684 -0.2430 -25.4978 26.6218 -2.6171 53.7725
#
#
#
# Elastic Compliance Matrix: (Units=1/GPa)
#
#
# Indices 1 2 3 4 5 6 
#
# 1 0.027737 -0.004368 0.000165 -0.014855 -0.016498 -0.021383
# 2 -0.004368 0.016266 -0.003042 0.010715 0.002347 -0.002151
# 3 0.000165 -0.003042 0.006834 0.000008 -0.004801 0.002823
# 4 -0.014855 0.010715 0.000008 0.038718 0.019114 -0.003194
# 5 -0.016498 0.002347 -0.004801 0.019114 0.088140 0.009212
# 6 -0.021383 -0.002151 0.002823 -0.003194 0.009212 0.043536
#
#
# Mechanical properties :
#
#
# Convention : Reuss Voigt Hill
#
# Bulk Modulus (GPa) = 27.51188 47.19015 37.35101
# Shear Modulus (GPa) = 20.17448 48.02963 34.10205
#
# Velocity S-wave (km/s) = 2.97769 4.59445 3.87141
# Velocity P-wave (km/s) = 4.89016 6.99180 6.03320
#
# Compressibility (1/GPa) = 0.03634794
#
# Stress axis : x y z
#
# Youngs Moduli (GPa) = 36.05276 61.47605 146.32264
#
# Poissons Ratio (x) = 0.26851 -0.02409
# Poissons Ratio (y) = 0.15747 0.44509
# Poissons Ratio (z) = -0.00593 0.18700
#
# Static dielectric constant tensor:
#      x y z
#    x 1.879950 -0.008610 -0.008370 
#    y -0.008610 1.859020 0.046290 
#    z -0.008370 0.046290 2.002060 
# 
# From -- ./inp_files/392839.got.cif
#   From: 2010.05.17/outbox.cif.g08.bks.cpg/sg2_197_cif.got.tgz:392839.got - 2010.06.03 11:33:40.
