data_PCOD9086693
_publ_section_title
;
Structure prediction by ZEFSAII (Michael W. Deem and Ramdas Pophale) SiO2 
 PCOD9086693
Probable space group: P -1
;
_chemical_formula_sum "Si O2"
_cell_formula_units_Z 14
_cell_length_a 19.377833
_cell_length_b 11.600598
_cell_length_c 12.677798
_cell_angle_alpha 38.938862
_cell_angle_beta 150.900923
_cell_angle_gamma 154.111901
_cell_volume 604.673610
_symmetry_space_group_name_H-M "P -1"
_symmetry_group_IT_number 2
_symmetry_cell_setting 'triclinic'
loop_
_space_group_symop_operation_xyz
x,y,z
-x,-y,-z
loop_
_atom_site_type_symbol
_atom_site_label
_atom_site_fract_x
_atom_site_fract_y
_atom_site_fract_z
Si Si1 0.437172 0.757316 0.902733
Si Si2 0.185970 0.824584 0.626777
Si Si3 0.165916 0.028197 0.257105
Si Si4 0.554525 0.012116 0.443759
Si Si5 0.542488 0.622465 0.318066
Si Si6 0.886206 0.324219 0.137031
Si Si7 0.160496 0.419230 0.260033
O O1 0.257844 0.700506 0.761819
O O2 0.414453 0.774391 0.736103
O O3 0.469082 0.594211 0.119745
O O4 0.648078 0.056798 0.000273
O O5 0.060706 0.669322 0.676119
O O6 0.089054 0.857176 0.382248
O O7 0.394494 0.129439 0.719617
O O8 0.262301 0.958872 0.360210
O O9 0.357753 0.337633 0.323904
O O10 0.000000 0.000000 0.000000
O O11 0.355272 0.721776 0.339587
O O12 0.500000 0.000000 0.500000
O O13 0.750517 0.699712 0.543838
O O14 0.998375 0.297010 0.223043
O O15 0.920633 0.561474 0.969345
#
# Coordination Sequence:
#
# PCOD9086693 Si02
#       7
#     2   2   2   2   2   2   2
#     4   9  19  35  57  82 113 139 185 232 270 335
#     4  10  20  36  58  82 114 145 181 227 288 327
#     4  10  22  41  54  84 115 142 192 240 266 333
#     4   9  19  41  55  73 113 158 182 220 285 330
#     4  10  19  36  60  81 109 147 181 229 287 319
#     4   9  17  34  53  81 111 136 183 225 278 319
#     4   9  19  34  55  83 113 141 183 234 266 331
#
# _framework density 23.152987
#
# number of rings (size 3 to 8) (size 9 to 14) (size 15 to 20)
#    0.000    2.571    0.000    3.000    0.000    3.429 
#   18.000    2.857    0.000    0.000    0.000    0.000 
#    0.000    0.000    0.000    0.000    0.000    0.000 
#
# Total GULP energy -78190.391839 kJ/mol
# GULP energy per Si atom -5585.027988 kJ/mol
# Density = 2.310029 g / cm^3
# Si number density = 23.152987 Si / 1000 Ang^3
#
#
#
# Elastic Constant Matrix: (Units=GPa)
#
#
# Indices 1 2 3 4 5 6 
#
# 1 130.0843 30.4947 89.1695 -26.3207 -28.1989 36.8680
# 2 30.4947 63.7715 17.6828 -2.4261 -6.8176 0.8180
# 3 89.1695 17.6828 162.2506 -22.4602 -18.8435 22.4889
# 4 -26.3207 -2.4261 -22.4602 30.7895 8.7333 -15.1817
# 5 -28.1989 -6.8176 -18.8435 8.7333 37.8792 -10.2109
# 6 36.8680 0.8180 22.4889 -15.1817 -10.2109 26.4197
#
#
#
# Elastic Compliance Matrix: (Units=1/GPa)
#
#
# Indices 1 2 3 4 5 6 
#
# 1 0.022134 -0.007602 -0.007625 0.000490 0.005320 -0.021823
# 2 -0.007602 0.019038 0.000878 0.000198 0.000768 0.009683
# 3 -0.007625 0.000878 0.010131 0.002704 -0.000164 0.003480
# 4 0.000490 0.000198 0.002704 0.046999 -0.002921 0.022887
# 5 0.005320 0.000768 -0.000164 -0.002921 0.032002 0.003382
# 6 -0.021823 0.009683 0.003480 0.022887 0.003382 0.079501
#
#
# Mechanical properties :
#
#
# Convention : Reuss Voigt Hill
#
# Bulk Modulus (GPa) = 44.24058 70.08893 57.16475
# Shear Modulus (GPa) = 20.32192 33.60164 26.96178
#
# Velocity S-wave (km/s) = 2.96585 3.81371 3.41619
# Velocity P-wave (km/s) = 5.55678 7.05197 6.34855
#
# Compressibility (1/GPa) = 0.02260368
#
# Stress axis : x y z
#
# Youngs Moduli (GPa) = 45.17953 52.52523 98.70542
#
# Poissons Ratio (x) = 0.39932 0.75265
# Poissons Ratio (y) = 0.34348 -0.08664
# Poissons Ratio (z) = 0.34450 -0.04610
#
# Static dielectric constant tensor:
#      x y z
#    x 1.878880 0.004660 -0.061900 
#    y 0.004660 1.893250 -0.010510 
#    z -0.061900 -0.010510 1.956180 
# 
# From -- ./inp_files/208352.got.cif
#   From: 2010.05.17/outbox.cif.g08.bks.cpg/sg2_105_cif.got.tgz:208352.got - 2010.06.03 11:33:40.
