data_PCOD9086942
_publ_section_title
;
Structure prediction by ZEFSAII (Michael W. Deem and Ramdas Pophale) SiO2 
 PCOD9086942
Probable space group: P -1
;
_chemical_formula_sum "Si O2"
_cell_formula_units_Z 16
_cell_length_a 12.033275
_cell_length_b 14.431728
_cell_length_c 15.282657
_cell_angle_alpha 151.977866
_cell_angle_beta 35.289929
_cell_angle_gamma 134.601576
_cell_volume 718.689205
_symmetry_space_group_name_H-M "P -1"
_symmetry_group_IT_number 2
_symmetry_cell_setting 'triclinic'
loop_
_space_group_symop_operation_xyz
x,y,z
-x,-y,-z
loop_
_atom_site_type_symbol
_atom_site_label
_atom_site_fract_x
_atom_site_fract_y
_atom_site_fract_z
Si Si1 0.601010 0.943297 0.095628
Si Si2 0.430628 0.495588 0.322757
Si Si3 0.641263 0.773888 0.116086
Si Si4 0.307845 0.658584 0.357839
Si Si5 0.840921 0.369840 0.035331
Si Si6 0.281410 0.490010 0.593271
Si Si7 0.680641 0.954843 0.778711
Si Si8 0.018179 0.995028 0.877960
O O1 0.607538 0.723686 0.868023
O O2 0.802022 0.028103 0.010804
O O3 0.590266 0.913511 0.181549
O O4 0.420174 0.058014 0.262206
O O5 0.404504 0.631165 0.368329
O O6 0.642582 0.470372 0.206188
O O7 0.287982 0.556378 0.544273
O O8 0.454669 0.760713 0.284898
O O9 0.820024 0.854594 0.120009
O O10 0.707525 0.558232 0.854554
O O11 0.108916 0.785138 0.608564
O O12 0.847574 0.395913 0.157166
O O13 0.000000 0.500000 0.000000
O O14 0.819783 0.135258 0.837798
O O15 0.500000 0.500000 0.500000
O O16 0.230678 0.261121 0.434911
O O17 0.500000 0.000000 0.000000
O O18 0.000000 0.000000 0.000000
#
# Coordination Sequence:
#
# PCOD9086942 Si02
#       8
#     2   2   2   2   2   2   2   2
#     4   9  19  36  59  86 114 147 199 237 291 346
#     4   9  19  37  59  83 112 160 196 231 293 359
#     4   9  20  37  58  82 115 157 190 237 293 355
#     4  10  20  39  59  79 122 155 189 237 301 345
#     4  10  22  39  57  89 123 147 200 257 286 349
#     4  10  19  36  61  85 112 157 202 233 290 356
#     4  11  19  39  66  82 119 163 188 244 296 350
#     4  10  21  36  56  87 115 144 198 250 280 347
#
# _framework density 22.262754000000001
#
# number of rings (size 3 to 8) (size 9 to 14) (size 15 to 20)
#    0.000    2.250    3.750    0.375    0.000    9.000 
#    2.250    7.500    0.000    0.000    0.000    0.000 
#    0.000    0.000    0.000    0.000    0.000    0.000 
#
# Total GULP energy -89376.987921 kJ/mol
# GULP energy per Si atom -5586.061745 kJ/mol
# Density = 2.221208 g / cm^3
# Si number density = 22.262754 Si / 1000 Ang^3
#
#
#
# Elastic Constant Matrix: (Units=GPa)
#
#
# Indices 1 2 3 4 5 6 
#
# 1 64.8526 36.7048 19.2944 -5.6603 13.9224 -9.3237
# 2 36.7048 108.9882 31.9286 -1.4347 2.9781 0.2202
# 3 19.2944 31.9286 87.4528 10.0229 10.2436 -2.6350
# 4 -5.6603 -1.4347 10.0229 27.0735 -3.8146 10.3228
# 5 13.9224 2.9781 10.2436 -3.8146 16.0039 -2.6375
# 6 -9.3237 0.2202 -2.6350 10.3228 -2.6375 34.9455
#
#
#
# Elastic Compliance Matrix: (Units=1/GPa)
#
#
# Indices 1 2 3 4 5 6 
#
# 1 0.024706 -0.007727 -0.000279 0.000234 -0.018977 0.005118
# 2 -0.007727 0.012859 -0.004225 0.002681 0.007227 -0.002708
# 3 -0.000279 -0.004225 0.015306 -0.008483 -0.010323 0.002833
# 4 0.000234 0.002681 -0.008483 0.047377 0.013787 -0.013549
# 5 -0.018977 0.007227 -0.010323 0.013787 0.086982 -0.003395
# 6 0.005118 -0.002708 0.002833 -0.013549 -0.003395 0.033958
#
#
# Mechanical properties :
#
#
# Convention : Reuss Voigt Hill
#
# Bulk Modulus (GPa) = 35.20265 48.57214 41.88740
# Shear Modulus (GPa) = 19.59857 27.16231 23.38044
#
# Velocity S-wave (km/s) = 2.97025 3.49675 3.24420
# Velocity P-wave (km/s) = 5.25451 6.17803 5.73489
#
# Compressibility (1/GPa) = 0.02840695
#
# Stress axis : x y z
#
# Youngs Moduli (GPa) = 40.47545 77.76796 65.33518
#
# Poissons Ratio (x) = 0.60094 0.01826
# Poissons Ratio (y) = 0.31277 0.27605
# Poissons Ratio (z) = 0.01131 0.32858
#
# Static dielectric constant tensor:
#      x y z
#    x 1.843960 -0.010480 -0.002650 
#    y -0.010480 1.844610 0.026280 
#    z -0.002650 0.026280 1.844410 
# 
# From -- ./inp_files/522586.got.cif
#   From: 2010.05.17/outbox.cif.g08.bks.cpg/sg2_262_cif.got.tgz:522586.got - 2010.06.03 11:33:40.
