data_PCOD9086414
_publ_section_title
;
Structure prediction by ZEFSAII (Michael W. Deem and Ramdas Pophale) SiO2 
 PCOD9086414
Probable space group: P -1
;
_chemical_formula_sum "Si O2"
_cell_formula_units_Z 14
_cell_length_a 18.899845
_cell_length_b 20.242995
_cell_length_c 11.157506
_cell_angle_alpha 148.291944
_cell_angle_beta 27.877034
_cell_angle_gamma 157.853629
_cell_volume 739.922687
_symmetry_space_group_name_H-M "P -1"
_symmetry_group_IT_number 2
_symmetry_cell_setting 'triclinic'
loop_
_space_group_symop_operation_xyz
x,y,z
-x,-y,-z
loop_
_atom_site_type_symbol
_atom_site_label
_atom_site_fract_x
_atom_site_fract_y
_atom_site_fract_z
Si Si1 0.042604 0.581587 0.693000
Si Si2 0.198566 0.216073 0.157545
Si Si3 0.482301 0.775970 0.422960
Si Si4 0.574913 0.341979 0.119122
Si Si5 0.594320 0.023068 0.263660
Si Si6 0.795475 0.818781 0.174121
Si Si7 0.495487 0.531951 0.360371
O O1 0.229152 0.612789 0.529596
O O2 0.159765 0.785382 0.814179
O O3 0.000000 0.500000 0.500000
O O4 0.824596 0.460866 0.905464
O O5 0.294370 0.387692 0.351448
O O6 0.392128 0.228683 0.874431
O O7 0.147941 0.213354 0.088379
O O8 0.995333 0.025554 0.223536
O O9 0.521761 0.946737 0.606125
O O10 0.590676 0.785479 0.393946
O O11 0.513314 0.419899 0.243744
O O12 0.533323 0.366628 0.353070
O O13 0.444713 0.141322 0.969035
O O14 0.500000 0.000000 0.500000
O O15 0.708455 0.675225 0.182844
#
# Coordination Sequence:
#
# PCOD9086414 Si02
#       7
#     2   2   2   2   2   2   2
#     4  10  19  37  59  88 116 149 193 243 294 347
#     4   9  18  40  62  90 112 150 202 243 297 335
#     4   8  19  36  59  89 112 141 203 245 283 343
#     4  11  24  39  56  93 118 164 189 239 306 345
#     4  10  19  36  58  83 121 144 194 242 284 351
#     4   9  20  40  62  90 112 157 199 248 291 336
#     4  11  23  39  60  84 129 151 203 238 286 369
#
# _framework density 18.920895000000002
#
# number of rings (size 3 to 8) (size 9 to 14) (size 15 to 20)
#    1.714    0.571    1.429    2.143    0.000    3.429 
#    5.143    4.286    0.000    0.000    0.000    0.000 
#    0.000    0.000    0.000    0.000    0.000    0.000 
#
# Total GULP energy -77935.340710 kJ/mol
# GULP energy per Si atom -5566.810051 kJ/mol
# Density = 1.887783 g / cm^3
# Si number density = 18.920895 Si / 1000 Ang^3
#
#
#
# Elastic Constant Matrix: (Units=GPa)
#
#
# Indices 1 2 3 4 5 6 
#
# 1 20.7224 20.3135 19.2894 6.8028 8.7707 -1.8519
# 2 20.3135 127.2702 36.7822 21.6095 25.9418 12.8180
# 3 19.2894 36.7822 70.9838 28.6316 13.3332 9.6231
# 4 6.8028 21.6095 28.6316 31.3799 7.4578 -6.9417
# 5 8.7707 25.9418 13.3332 7.4578 27.7837 -2.2679
# 6 -1.8519 12.8180 9.6231 -6.9417 -2.2679 28.3622
#
#
#
# Elastic Compliance Matrix: (Units=1/GPa)
#
#
# Indices 1 2 3 4 5 6 
#
# 1 0.081414 -0.009453 -0.027383 0.020774 -0.007402 0.023371
# 2 -0.009453 0.013072 0.002833 -0.009783 -0.008819 -0.010586
# 3 -0.027383 0.002833 0.039036 -0.036062 -0.005139 -0.025550
# 4 0.020774 -0.009783 -0.036062 0.074380 0.002892 0.036449
# 5 -0.007402 -0.008819 -0.005139 0.002892 0.049059 0.009877
# 6 0.023371 -0.010586 -0.025550 0.036449 0.009877 0.059948
#
#
# Mechanical properties :
#
#
# Convention : Reuss Voigt Hill
#
# Bulk Modulus (GPa) = 15.26333 41.30517 28.28425
# Shear Modulus (GPa) = 12.29242 27.01126 19.65184
#
# Velocity S-wave (km/s) = 2.55164 3.78244 3.22628
# Velocity P-wave (km/s) = 4.09458 6.39951 5.37212
#
# Compressibility (1/GPa) = 0.06551651
#
# Stress axis : x y z
#
# Youngs Moduli (GPa) = 12.28284 76.49785 25.61758
#
# Poissons Ratio (x) = 0.72313 0.70148
# Poissons Ratio (y) = 0.11611 -0.07257
# Poissons Ratio (z) = 0.33634 -0.21670
#
# Static dielectric constant tensor:
#      x y z
#    x 1.631110 0.133870 -0.086510 
#    y 0.133870 1.341740 0.171190 
#    z -0.086510 0.171190 1.560530 
# 
# From -- ./inp_files/472672.got.cif
#   From: 2010.05.17/outbox.cif.g08.bks.cpg/sg2_237_cif.got.tgz:472672.got - 2010.06.03 11:33:40.
