data_PCOD9086835
_publ_section_title
;
Structure prediction by ZEFSAII (Michael W. Deem and Ramdas Pophale) SiO2 
 PCOD9086835
Probable space group: P -1
;
_chemical_formula_sum "Si O2"
_cell_formula_units_Z 14
_cell_length_a 11.212632
_cell_length_b 6.965940
_cell_length_c 13.747306
_cell_angle_alpha 71.657332
_cell_angle_beta 69.466465
_cell_angle_gamma 37.882377
_cell_volume 616.101935
_symmetry_space_group_name_H-M "P -1"
_symmetry_group_IT_number 2
_symmetry_cell_setting 'triclinic'
loop_
_space_group_symop_operation_xyz
x,y,z
-x,-y,-z
loop_
_atom_site_type_symbol
_atom_site_label
_atom_site_fract_x
_atom_site_fract_y
_atom_site_fract_z
Si Si1 0.052106 0.636236 0.093173
Si Si2 0.847964 0.771111 0.690183
Si Si3 0.648397 0.414290 0.696449
Si Si4 0.375671 0.475816 0.088978
Si Si5 0.845083 0.372271 0.477553
Si Si6 0.715185 0.789569 0.096361
Si Si7 0.587420 0.637594 0.317575
O O1 0.101379 0.448935 0.206471
O O2 0.150568 0.731949 0.075563
O O3 0.828569 0.845942 0.100483
O O4 0.169193 0.418575 0.998924
O O5 0.024523 0.590736 0.592488
O O6 0.810504 0.035316 0.710799
O O7 0.632884 0.000508 0.667977
O O8 0.616816 0.513489 0.799421
O O9 0.724070 0.500136 0.591396
O O10 0.460590 0.528721 0.683147
O O11 0.494548 0.128490 0.083046
O O12 0.500000 0.500000 0.000000
O O13 0.700237 0.505747 0.407427
O O14 0.000000 0.000000 0.500000
O O15 0.702731 0.627103 0.205303
#
# Coordination Sequence:
#
# PCOD9086835 Si02
#       7
#     2   2   2   2   2   2   2
#     4  11  22  40  62  86 114 155 201 235 286 353
#     4   9  19  36  63  84 114 156 197 236 278 343
#     4   9  21  35  57  92 116 151 188 238 300 328
#     4  12  23  41  58  86 125 148 187 246 302 342
#     4  10  19  36  60  90 117 150 197 244 277 339
#     4  11  23  38  63  87 112 159 200 233 287 351
#     4  10  19  37  62  87 114 152 204 233 278 349
#
# _framework density 22.723513000000001
#
# number of rings (size 3 to 8) (size 9 to 14) (size 15 to 20)
#    0.857    0.857    2.857    2.571    0.000    0.571 
#    5.143    1.429    0.000    0.000    0.000    0.000 
#    0.000    0.000    0.000    0.000    0.000    0.000 
#
# Total GULP energy -78133.242895 kJ/mol
# GULP energy per Si atom -5580.945921 kJ/mol
# Density = 2.267179 g / cm^3
# Si number density = 22.723513 Si / 1000 Ang^3
#
#
#
# Elastic Constant Matrix: (Units=GPa)
#
#
# Indices 1 2 3 4 5 6 
#
# 1 118.6796 22.0031 72.0740 4.9611 -17.2395 -39.7777
# 2 22.0031 37.2651 32.8264 -5.6300 9.9801 -20.1034
# 3 72.0740 32.8264 179.5083 4.2012 -21.8557 -20.7851
# 4 4.9611 -5.6300 4.2012 29.5325 -8.4882 7.3579
# 5 -17.2395 9.9801 -21.8557 -8.4882 44.3485 -3.5932
# 6 -39.7777 -20.1034 -20.7851 7.3579 -3.5932 38.7816
#
#
#
# Elastic Compliance Matrix: (Units=1/GPa)
#
#
# Indices 1 2 3 4 5 6 
#
# 1 0.017993 0.001002 -0.004602 -0.005227 0.004955 0.017958
# 2 0.001002 0.048106 -0.008472 0.001591 -0.012691 0.019946
# 3 -0.004602 -0.008472 0.009036 0.000068 0.004269 -0.003887
# 4 -0.005227 0.001591 0.000068 0.039112 0.004195 -0.011532
# 5 0.004955 -0.012691 0.004269 0.004195 0.030466 0.002819
# 6 0.017958 0.019946 -0.003887 -0.011532 0.002819 0.054910
#
#
# Mechanical properties :
#
#
# Convention : Reuss Voigt Hill
#
# Bulk Modulus (GPa) = 19.61217 65.47333 42.54275
# Shear Modulus (GPa) = 20.76721 36.43581 28.60151
#
# Velocity S-wave (km/s) = 3.02637 4.00864 3.55163
# Velocity P-wave (km/s) = 4.56743 7.09233 5.96501
#
# Compressibility (1/GPa) = 0.05098875
#
# Stress axis : x y z
#
# Youngs Moduli (GPa) = 55.57811 20.78755 110.66848
#
# Poissons Ratio (x) = -0.02082 0.50933
# Poissons Ratio (y) = -0.05566 0.93758
# Poissons Ratio (z) = 0.25579 0.17611
#
# Static dielectric constant tensor:
#      x y z
#    x 1.903710 -0.004200 -0.032560 
#    y -0.004200 1.840380 0.011630 
#    z -0.032560 0.011630 1.804410 
# 
# From -- ./inp_files/414667.got.cif
#   From: 2010.05.17/outbox.cif.g08.bks.cpg/sg2_208_cif.got.tgz:414667.got - 2010.06.03 11:33:40.
