data_PCOD9086569
_publ_section_title
;
Structure prediction by ZEFSAII (Michael W. Deem and Ramdas Pophale) SiO2 
 PCOD9086569
Probable space group: P -1
;
_chemical_formula_sum "Si O2"
_cell_formula_units_Z 14
_cell_length_a 7.442006
_cell_length_b 15.768425
_cell_length_c 7.276231
_cell_angle_alpha 85.245153
_cell_angle_beta 128.310666
_cell_angle_gamma 72.355996
_cell_volume 595.132277
_symmetry_space_group_name_H-M "P -1"
_symmetry_group_IT_number 2
_symmetry_cell_setting 'triclinic'
loop_
_space_group_symop_operation_xyz
x,y,z
-x,-y,-z
loop_
_atom_site_type_symbol
_atom_site_label
_atom_site_fract_x
_atom_site_fract_y
_atom_site_fract_z
Si Si1 0.718814 0.803299 0.798509
Si Si2 0.398585 0.157201 0.720931
Si Si3 0.023398 0.595147 0.955080
Si Si4 0.974748 0.091754 0.075731
Si Si5 0.578955 0.530722 0.235470
Si Si6 0.276272 0.990750 0.622811
Si Si7 0.911797 0.636652 0.439198
O O1 0.632675 0.821182 0.523797
O O2 0.822355 0.690585 0.913660
O O3 0.486033 0.881845 0.753753
O O4 0.955179 0.829078 0.978359
O O5 0.186707 0.251445 0.666589
O O6 0.359918 0.064503 0.759126
O O7 0.684939 0.139302 0.956174
O O8 0.964937 0.616517 0.695912
O O9 0.000000 0.500000 0.000000
O O10 0.317794 0.574545 0.176698
O O11 0.207902 0.039502 0.371929
O O12 0.000000 0.000000 0.000000
O O13 0.690249 0.605987 0.259287
O O14 0.825193 0.435805 0.479303
O O15 0.500000 0.500000 0.000000
O O16 0.000000 0.000000 0.500000
#
# Coordination Sequence:
#
# PCOD9086569 Si02
#       7
#     2   2   2   2   2   2   2
#     4  10  20  37  56  82 110 150 195 232 270 338
#     4  10  19  36  59  84 108 149 195 226 274 343
#     4  10  21  35  56  82 116 148 187 233 282 332
#     4  11  18  36  64  79 105 153 197 222 270 343
#     4   9  18  36  56  78 108 142 188 232 276 325
#     4  11  23  36  54  86 124 143 178 243 289 328
#     4   9  19  35  60  83 109 147 191 234 275 332
#
# _framework density 23.524183000000001
#
# number of rings (size 3 to 8) (size 9 to 14) (size 15 to 20)
#    0.000    2.000    2.857    1.714    0.000    3.429 
#    0.000    4.286    0.000    0.000    0.000    0.000 
#    0.000    0.000    0.000    0.000    0.000    0.000 
#
# Total GULP energy -78174.873726 kJ/mol
# GULP energy per Si atom -5583.919552 kJ/mol
# Density = 2.347064 g / cm^3
# Si number density = 23.524183 Si / 1000 Ang^3
#
#
#
# Elastic Constant Matrix: (Units=GPa)
#
#
# Indices 1 2 3 4 5 6 
#
# 1 106.5063 69.0452 32.3888 -13.1402 41.6654 -1.8775
# 2 69.0452 199.8188 56.0218 -38.9085 27.8812 -10.8216
# 3 32.3888 56.0218 74.3242 -10.4491 19.2188 6.7998
# 4 -13.1402 -38.9085 -10.4491 42.3904 -3.6353 8.6812
# 5 41.6654 27.8812 19.2188 -3.6353 42.7653 3.5704
# 6 -1.8775 -10.8216 6.7998 8.6812 3.5704 32.1885
#
#
#
# Elastic Compliance Matrix: (Units=1/GPa)
#
#
# Indices 1 2 3 4 5 6 
#
# 1 0.017944 -0.003613 -0.001433 0.000298 -0.014597 0.001673
# 2 -0.003613 0.008613 -0.004417 0.005263 0.000155 0.002181
# 3 -0.001433 -0.004417 0.019008 0.000980 -0.003729 -0.005435
# 4 0.000298 0.005263 0.000980 0.029969 -0.001082 -0.006383
# 5 -0.014597 0.000155 -0.003729 -0.001082 0.039430 -0.004093
# 6 0.001673 0.002181 -0.005435 -0.006383 -0.004093 0.035221
#
#
# Mechanical properties :
#
#
# Convention : Reuss Voigt Hill
#
# Bulk Modulus (GPa) = 37.54006 77.28454 57.41230
# Shear Modulus (GPa) = 28.09148 38.34842 33.21995
#
# Velocity S-wave (km/s) = 3.45940 4.04192 3.76195
# Velocity P-wave (km/s) = 5.65237 7.39644 6.58243
#
# Compressibility (1/GPa) = 0.02663821
#
# Stress axis : x y z
#
# Youngs Moduli (GPa) = 55.72940 116.10815 52.61051
#
# Poissons Ratio (x) = 0.41951 0.07538
# Poissons Ratio (y) = 0.20136 0.23239
# Poissons Ratio (z) = 0.07985 0.51286
#
# Static dielectric constant tensor:
#      x y z
#    x 1.962980 0.005090 -0.111550 
#    y 0.005090 1.989160 -0.017230 
#    z -0.111550 -0.017230 2.084320 
# 
# From -- ./inp_files/201627.got.cif
#   From: 2010.05.17/outbox.cif.g08.bks.cpg/sg2_101_cif.got.tgz:201627.got - 2010.06.03 11:33:40.
