data_PCOD9086036
_publ_section_title
;
Structure prediction by ZEFSAII (Michael W. Deem and Ramdas Pophale) SiO2 
 PCOD9086036
Probable space group: P -1
;
_chemical_formula_sum "Si O2"
_cell_formula_units_Z 15
_cell_length_a 8.979154
_cell_length_b 10.112980
_cell_length_c 8.256836
_cell_angle_alpha 109.223240
_cell_angle_beta 61.852118
_cell_angle_gamma 112.655832
_cell_volume 599.971770
_symmetry_space_group_name_H-M "P -1"
_symmetry_group_IT_number 2
_symmetry_cell_setting 'triclinic'
loop_
_space_group_symop_operation_xyz
x,y,z
-x,-y,-z
loop_
_atom_site_type_symbol
_atom_site_label
_atom_site_fract_x
_atom_site_fract_y
_atom_site_fract_z
Si Si1 0.460993 0.339564 0.242893
Si Si2 0.700285 0.444493 0.885105
Si Si3 0.229909 0.454675 0.625587
Si Si4 0.334041 0.790609 0.440821
Si Si5 0.000000 0.000000 0.500000
Si Si6 0.925704 0.245350 0.865019
Si Si7 0.397413 0.078459 0.360142
Si Si8 0.032048 0.690071 0.769628
O O1 0.283498 0.362899 0.418035
O O2 0.607240 0.434558 0.327591
O O3 0.448381 0.169565 0.205358
O O4 0.523826 0.408983 0.067197
O O5 0.666982 0.361045 0.698690
O O6 0.806592 0.345250 0.893920
O O7 0.826596 0.607920 0.862133
O O8 0.109289 0.551285 0.662536
O O9 0.120529 0.350082 0.775819
O O10 0.466318 0.830893 0.539231
O O11 0.134776 0.784460 0.603585
O O12 0.404926 0.914838 0.320478
O O13 0.087415 0.900412 0.288134
O O14 0.802625 0.926059 0.500078
O O15 0.902098 0.226594 0.062382
#
# Coordination Sequence:
#
# PCOD9086036 Si02
#       8
#     2   2   2   2   1   2   2   2
#     4  11  20  38  68 100 125 172 229 278 325 378
#     4  11  21  39  70 104 128 171 226 276 331 399
#     4  10  19  35  69  96 130 162 227 285 321 368
#     4  11  24  43  64  97 145 178 215 267 348 397
#     4  12  24  44  70  92 130 180 238 274 312 398
#     4  11  20  40  67  99 128 169 235 268 323 389
#     4  11  24  44  64  92 137 183 216 277 328 397
#     4  11  21  42  68 101 133 181 214 273 335 408
#
# _framework density 25.001173999999999
#
# number of rings (size 3 to 8) (size 9 to 14) (size 15 to 20)
#    0.000    1.067    6.667    1.200    0.000    0.533 
#    4.800    1.333    5.867    0.000    0.000    0.000 
#    0.000    0.000    0.000    0.000    0.000    0.000 
#
# Total GULP energy -83572.284200 kJ/mol
# GULP energy per Si atom -5571.485613 kJ/mol
# Density = 2.494427 g / cm^3
# Si number density = 25.001174 Si / 1000 Ang^3
#
#
#
# Elastic Constant Matrix: (Units=GPa)
#
#
# Indices 1 2 3 4 5 6 
#
# 1 59.7067 10.1580 5.8885 -8.9595 -11.8980 25.3402
# 2 10.1580 108.5236 52.4064 -12.1140 20.5357 -8.0870
# 3 5.8885 52.4064 129.6080 -17.1447 -3.8211 -2.5364
# 4 -8.9595 -12.1140 -17.1447 45.5257 -2.9468 4.2931
# 5 -11.8980 20.5357 -3.8211 -2.9468 29.0466 -9.1100
# 6 25.3402 -8.0870 -2.5364 4.2931 -9.1100 35.7440
#
#
#
# Elastic Compliance Matrix: (Units=1/GPa)
#
#
# Indices 1 2 3 4 5 6 
#
# 1 0.029840 -0.006820 0.002356 0.007633 0.011711 -0.020462
# 2 -0.006820 0.015777 -0.006494 -0.000896 -0.013442 0.004625
# 3 0.002356 -0.006494 0.010869 0.003376 0.007020 -0.000985
# 4 0.007633 -0.000896 0.003376 0.025479 0.004504 -0.007287
# 5 0.011711 -0.013442 0.007020 0.004504 0.050580 0.001505
# 6 -0.020462 0.004625 -0.000985 -0.007287 0.001505 0.044718
#
#
# Mechanical properties :
#
#
# Convention : Reuss Voigt Hill
#
# Bulk Modulus (GPa) = 28.92593 48.30491 38.61542
# Shear Modulus (GPa) = 23.73013 37.35564 30.54289
#
# Velocity S-wave (km/s) = 3.08419 3.86962 3.49901
# Velocity P-wave (km/s) = 4.92726 6.27123 5.63942
#
# Compressibility (1/GPa) = 0.03457105
#
# Stress axis : x y z
#
# Youngs Moduli (GPa) = 33.51201 63.38262 92.00855
#
# Poissons Ratio (x) = 0.43226 -0.21681
# Poissons Ratio (y) = 0.22855 0.59749
# Poissons Ratio (z) = -0.07897 0.41160
#
# Static dielectric constant tensor:
#      x y z
#    x 2.223030 -0.181000 0.053660 
#    y -0.181000 2.232520 -0.210760 
#    z 0.053660 -0.210760 2.087410 
# 
# From -- ./inp_files/262962.got.cif
#   From: 2010.05.17/outbox.cif.g08.bks.cpg/sg2_132_cif.got.tgz:262962.got - 2010.06.03 11:33:40.
