data_PCOD9086039
_publ_section_title
;
Structure prediction by ZEFSAII (Michael W. Deem and Ramdas Pophale) SiO2 
 PCOD9086039
Probable space group: P -1
;
_chemical_formula_sum "Si O2"
_cell_formula_units_Z 16
_cell_length_a 8.253618
_cell_length_b 10.235666
_cell_length_c 15.440814
_cell_angle_alpha 42.796014
_cell_angle_beta 80.308311
_cell_angle_gamma 59.307924
_cell_volume 713.054010
_symmetry_space_group_name_H-M "P -1"
_symmetry_group_IT_number 2
_symmetry_cell_setting 'triclinic'
loop_
_space_group_symop_operation_xyz
x,y,z
-x,-y,-z
loop_
_atom_site_type_symbol
_atom_site_label
_atom_site_fract_x
_atom_site_fract_y
_atom_site_fract_z
Si Si1 0.686633 0.251320 0.641312
Si Si2 0.669263 0.197583 0.971547
Si Si3 0.656142 0.285189 0.173373
Si Si4 0.075404 0.758247 0.218774
Si Si5 0.715566 0.606408 0.912792
Si Si6 0.988467 0.095977 0.360100
Si Si7 0.662306 0.901412 0.926825
Si Si8 0.990709 0.532914 0.195110
O O1 0.500000 0.500000 0.500000
O O2 0.835735 0.280089 0.674288
O O3 0.815684 0.070093 0.638191
O O4 0.608832 0.137995 0.770442
O O5 0.517653 0.461889 0.893339
O O6 0.768196 0.235005 0.861351
O O7 0.526134 0.220064 0.164274
O O8 0.520256 0.113388 0.020118
O O9 0.770526 0.361596 0.065737
O O10 0.860640 0.007173 0.104650
O O11 0.930105 0.357141 0.260639
O O12 0.807602 0.117843 0.313473
O O13 0.037951 0.573252 0.268101
O O14 0.812243 0.574840 0.827897
O O15 0.772606 0.716440 0.927767
O O16 0.000000 0.000000 0.500000
O O17 0.172838 0.213051 0.956247
#
# Coordination Sequence:
#
# PCOD9086039 Si02
#       8
#     2   2   2   2   2   2   2   2
#     4  12  30  50  69 101 151 192 231 292 362 426
#     4  10  21  40  68 111 140 180 226 299 353 415
#     4  10  21  38  70 104 142 177 233 296 351 413
#     4  11  26  42  69 105 149 180 232 292 365 415
#     4  10  19  35  70 107 132 165 234 294 346 397
#     4  12  28  49  73 100 141 195 243 292 349 426
#     4  11  22  40  75 102 141 179 239 289 351 409
#     4  12  22  44  72 110 133 182 236 298 342 424
#
# _framework density 22.438693000000001
#
# number of rings (size 3 to 8) (size 9 to 14) (size 15 to 20)
#    0.000    1.000    5.000    2.625    7.000    3.000 
#    2.250    2.500    0.000    0.000    0.000    0.000 
#    0.000    0.000    0.000    0.000    0.000    0.000 
#
# Total GULP energy -89294.870000 kJ/mol
# GULP energy per Si atom -5580.929375 kJ/mol
# Density = 2.238762 g / cm^3
# Si number density = 22.438693 Si / 1000 Ang^3
#
#
#
# Elastic Constant Matrix: (Units=GPa)
#
#
# Indices 1 2 3 4 5 6 
#
# 1 86.3871 15.9678 26.8660 7.8578 12.9944 6.4776
# 2 15.9678 113.0324 1.2432 -0.4528 9.4710 7.5812
# 3 26.8660 1.2432 79.3709 3.0220 24.1521 7.0235
# 4 7.8578 -0.4528 3.0220 24.5969 4.0466 5.9162
# 5 12.9944 9.4710 24.1521 4.0466 35.3013 8.4734
# 6 6.4776 7.5812 7.0235 5.9162 8.4734 42.5906
#
#
#
# Elastic Compliance Matrix: (Units=1/GPa)
#
#
# Indices 1 2 3 4 5 6 
#
# 1 0.013714 -0.001775 -0.004049 -0.003620 -0.001305 -0.000340
# 2 -0.001775 0.009393 0.001310 0.001316 -0.002606 -0.001282
# 3 -0.004049 0.001310 0.017184 0.001071 -0.010624 -0.000486
# 4 -0.003620 0.001316 0.001071 0.043533 -0.003492 -0.005213
# 5 -0.001305 -0.002606 -0.010624 -0.003492 0.038310 -0.004722
# 6 -0.000340 -0.001282 -0.000486 -0.005213 -0.004722 0.025503
#
#
# Mechanical properties :
#
#
# Convention : Reuss Voigt Hill
#
# Bulk Modulus (GPa) = 31.98689 40.77160 36.37925
# Shear Modulus (GPa) = 29.92456 36.14532 33.03494
#
# Velocity S-wave (km/s) = 3.65583 4.01789 3.84113
# Velocity P-wave (km/s) = 5.66624 6.30351 5.99335
#
# Compressibility (1/GPa) = 0.03126280
#
# Stress axis : x y z
#
# Youngs Moduli (GPa) = 72.91665 106.46182 58.19288
#
# Poissons Ratio (x) = 0.18899 0.23564
# Poissons Ratio (y) = 0.12944 -0.07624
# Poissons Ratio (z) = 0.29526 -0.13948
#
# Static dielectric constant tensor:
#      x y z
#    x 1.882770 0.049790 -0.024830 
#    y 0.049790 1.992300 0.006890 
#    z -0.024830 0.006890 1.827860 
# 
# From -- ./inp_files/494368.got.cif
#   From: 2010.05.17/outbox.cif.g08.bks.cpg/sg2_248_cif.got.tgz:494368.got - 2010.06.03 11:33:40.
