data_PCOD9086489
_publ_section_title
;
Structure prediction by ZEFSAII (Michael W. Deem and Ramdas Pophale) SiO2 
 PCOD9086489
Probable space group: P -1
;
_chemical_formula_sum "Si O2"
_cell_formula_units_Z 16
_cell_length_a 13.788340
_cell_length_b 16.222036
_cell_length_c 6.947221
_cell_angle_alpha 120.835471
_cell_angle_beta 64.483570
_cell_angle_gamma 140.795870
_cell_volume 841.751443
_symmetry_space_group_name_H-M "P -1"
_symmetry_group_IT_number 2
_symmetry_cell_setting 'triclinic'
loop_
_space_group_symop_operation_xyz
x,y,z
-x,-y,-z
loop_
_atom_site_type_symbol
_atom_site_label
_atom_site_fract_x
_atom_site_fract_y
_atom_site_fract_z
Si Si1 0.597120 0.420594 0.337360
Si Si2 0.594448 0.066734 0.303074
Si Si3 0.599157 0.574046 0.199585
Si Si4 0.919290 0.350395 0.946083
Si Si5 0.063804 0.774544 0.880799
Si Si6 0.942075 0.854362 0.341899
Si Si7 0.428512 0.816029 0.865004
Si Si8 0.071103 0.302259 0.499282
O O1 0.599199 0.471283 0.186378
O O2 0.490520 0.413303 0.562420
O O3 0.548917 0.279935 0.220435
O O4 0.770259 0.541713 0.410777
O O5 0.775372 0.159166 0.266592
O O6 0.558787 0.145421 0.323027
O O7 0.500000 0.000000 0.500000
O O8 0.537659 0.950513 0.061846
O O9 0.774653 0.728034 0.231860
O O10 0.500000 0.500000 0.000000
O O11 0.940984 0.286965 0.683760
O O12 0.987530 0.342984 0.070049
O O13 0.743123 0.261143 0.026289
O O14 0.000000 0.500000 0.000000
O O15 0.954416 0.725667 0.736972
O O16 0.062717 0.868778 0.128898
O O17 0.926997 0.793231 0.490290
O O18 0.000000 0.000000 0.500000
#
# Coordination Sequence:
#
# PCOD9086489 Si02
#       8
#     2   2   2   2   2   2   2   2
#     4  10  21  38  61  85 115 156 191 247 299 342
#     4  10  22  40  57  85 120 156 195 241 289 352
#     4  10  22  41  61  86 119 152 201 247 293 354
#     4  10  19  36  58  89 120 154 188 241 294 350
#     4  10  22  38  61  88 117 156 197 239 291 358
#     4  10  23  41  62  88 121 157 195 249 304 347
#     4  10  21  38  59  83 121 153 195 239 295 349
#     4  10  20  39  60  86 124 151 194 245 293 351
#
# _framework density 19.007985000000001
#
# number of rings (size 3 to 8) (size 9 to 14) (size 15 to 20)
#    0.000    2.000    1.250    1.500    1.750    3.000 
#    4.500    0.000    0.000    0.000    0.000    0.000 
#    0.000    0.000    0.000    0.000    0.000    0.000 
#
# Total GULP energy -89212.265982 kJ/mol
# GULP energy per Si atom -5575.766624 kJ/mol
# Density = 1.896472 g / cm^3
# Si number density = 19.007985 Si / 1000 Ang^3
#
#
#
# Elastic Constant Matrix: (Units=GPa)
#
#
# Indices 1 2 3 4 5 6 
#
# 1 79.6825 37.8158 47.3523 5.8066 13.8187 -18.7579
# 2 37.8158 96.0341 38.5050 4.8387 5.3789 -21.2877
# 3 47.3523 38.5050 76.5549 -7.8795 15.3979 -13.5077
# 4 5.8066 4.8387 -7.8795 30.3477 3.7312 -13.5713
# 5 13.8187 5.3789 15.3979 3.7312 36.2021 3.2198
# 6 -18.7579 -21.2877 -13.5077 -13.5713 3.2198 27.8165
#
#
#
# Elastic Compliance Matrix: (Units=1/GPa)
#
#
# Indices 1 2 3 4 5 6 
#
# 1 0.023034 -0.002647 -0.011288 -0.003394 -0.003855 0.006817
# 2 -0.002647 0.014929 -0.004473 0.000395 -0.000028 0.007664
# 3 -0.011288 -0.004473 0.028051 0.016643 -0.009726 0.011832
# 4 -0.003394 0.000395 0.016643 0.055177 -0.014616 0.034708
# 5 -0.003855 -0.000028 -0.009726 -0.014616 0.036403 -0.018688
# 6 0.006817 0.007664 0.011832 0.034708 -0.018688 0.071255
#
#
# Mechanical properties :
#
#
# Convention : Reuss Voigt Hill
#
# Bulk Modulus (GPa) = 34.24702 55.51307 44.88004
# Shear Modulus (GPa) = 18.15549 27.44650 22.80100
#
# Velocity S-wave (km/s) = 3.09390 3.80405 3.46721
# Velocity P-wave (km/s) = 5.55151 6.96871 6.30009
#
# Compressibility (1/GPa) = 0.02919963
#
# Stress axis : x y z
#
# Youngs Moduli (GPa) = 43.41392 66.98233 35.64887
#
# Poissons Ratio (x) = 0.17727 0.40239
# Poissons Ratio (y) = 0.11490 0.15947
# Poissons Ratio (z) = 0.49004 0.29964
#
# Static dielectric constant tensor:
#      x y z
#    x 1.686280 -0.001700 -0.003970 
#    y -0.001700 1.657740 -0.033550 
#    z -0.003970 -0.033550 1.637730 
# 
# From -- ./inp_files/84491.got.cif
#   From: 2010.05.17/outbox.cif.g08.bks.cpg/sg2_43_cif.got.tgz:84491.got - 2010.06.03 11:33:40.
