data_PCOD9086087
_publ_section_title
;
Structure prediction by ZEFSAII (Michael W. Deem and Ramdas Pophale) SiO2 
 PCOD9086087
Probable space group: P -1
;
_chemical_formula_sum "Si O2"
_cell_formula_units_Z 16
_cell_length_a 9.047906
_cell_length_b 9.813980
_cell_length_c 16.955863
_cell_angle_alpha 113.937947
_cell_angle_beta 86.571050
_cell_angle_gamma 136.278630
_cell_volume 883.783654
_symmetry_space_group_name_H-M "P -1"
_symmetry_group_IT_number 2
_symmetry_cell_setting 'triclinic'
loop_
_space_group_symop_operation_xyz
x,y,z
-x,-y,-z
loop_
_atom_site_type_symbol
_atom_site_label
_atom_site_fract_x
_atom_site_fract_y
_atom_site_fract_z
Si Si1 0.154323 0.775217 0.279001
Si Si2 0.093920 0.645994 0.423639
Si Si3 0.034538 0.956912 0.215739
Si Si4 0.501187 0.524836 0.099784
Si Si5 0.950139 0.708602 0.703941
Si Si6 0.065200 0.378715 0.134372
Si Si7 0.816782 0.963440 0.949644
Si Si8 0.690991 0.156557 0.379596
O O1 0.065694 0.705437 0.355662
O O2 0.070845 0.560218 0.187590
O O3 0.089238 0.869608 0.254373
O O4 0.428375 0.974609 0.326497
O O5 0.255935 0.840624 0.530486
O O6 0.181901 0.544770 0.376389
O O7 0.844811 0.422640 0.418664
O O8 0.758920 0.762776 0.172239
O O9 0.124968 0.987454 0.132578
O O10 0.141281 0.199493 0.292153
O O11 0.309508 0.500341 0.124403
O O12 0.419794 0.305565 0.090051
O O13 0.500000 0.500000 0.000000
O O14 0.190969 0.870372 0.688963
O O15 0.974518 0.718475 0.799602
O O16 0.865157 0.160767 0.033339
O O17 0.000000 0.000000 0.000000
#
# Coordination Sequence:
#
# PCOD9086087 Si02
#       8
#     2   2   2   2   2   2   2   2
#     4  11  23  34  57  89 116 137 180 242 278 319
#     4   8  19  38  62  82 108 145 193 213 270 353
#     4  12  22  35  53  89 116 139 186 237 279 308
#     4  11  19  35  61  74 101 157 190 223 266 321
#     4   9  17  36  60  81 105 147 190 222 257 344
#     4  10  19  38  57  79 109 148 196 221 260 340
#     4  10  19  36  54  75 110 145 191 223 260 326
#     4   9  18  39  66  76 110 151 183 219 280 335
#
# _framework density 18.103978000000001
#
# number of rings (size 3 to 8) (size 9 to 14) (size 15 to 20)
#    0.750    1.250    5.000    1.125    0.000    1.500 
#    0.000    1.875    0.000    0.000    0.000    0.000 
#    0.000    0.000    0.000    0.000    0.000    0.000 
#
# Total GULP energy -89080.297024 kJ/mol
# GULP energy per Si atom -5567.518564 kJ/mol
# Density = 1.806277 g / cm^3
# Si number density = 18.103978 Si / 1000 Ang^3
#
#
#
# Elastic Constant Matrix: (Units=GPa)
#
#
# Indices 1 2 3 4 5 6 
#
# 1 -119.8962 -11.7397 -56.8749 12.7418 5.1777 7.6294
# 2 -11.7397 70.6990 15.2225 -12.1894 2.5493 -9.2871
# 3 -56.8749 15.2225 24.9289 -9.9700 -2.2707 11.2245
# 4 12.7418 -12.1894 -9.9700 30.0174 0.9383 -1.8651
# 5 5.1777 2.5493 -2.2707 0.9383 13.7223 -11.8902
# 6 7.6294 -9.2871 11.2245 -1.8651 -11.8902 26.1547
#
#
#
# Elastic Compliance Matrix: (Units=1/GPa)
#
#
# Indices 1 2 3 4 5 6 
#
# 1 -0.002395 0.002884 -0.011464 -0.001233 0.006987 0.009731
# 2 0.002884 0.018171 -0.007191 0.004316 0.003058 0.010395
# 3 -0.011464 -0.007191 0.026790 0.010220 0.001238 -0.009415
# 4 -0.001233 0.004316 0.010220 0.039008 -0.001754 -0.000509
# 5 0.006987 0.003058 0.001238 -0.001754 0.113186 0.049847
# 6 0.009731 0.010395 -0.009415 -0.000509 0.049847 0.065752
#
#
# Mechanical properties :
#
#
# Convention : Reuss Voigt Hill
#
# Bulk Modulus (GPa) = 90.70297 -14.56141 38.07078
# Shear Modulus (GPa) = 16.90736 15.92048 16.41392
#
# Velocity S-wave (km/s) = 3.05930 2.96867 3.01432
# Velocity P-wave (km/s) = 7.91764 1.92094 5.76103
#
# Compressibility (1/GPa) = 0.01102500
#
# Stress axis : x y z
#
# Youngs Moduli (GPa) = -417.53165 55.03201 37.32691
#
# Poissons Ratio (x) = -0.15873 0.42791
# Poissons Ratio (y) = 1.20428 0.26843
# Poissons Ratio (z) = -4.78652 0.39575
#
# Static dielectric constant tensor:
#      x y z
#    x 1.607670 -0.006390 -0.035590 
#    y -0.006390 1.673540 0.024370 
#    z -0.035590 0.024370 1.634120 
# 
# From -- ./inp_files/495241.got.cif
#   From: 2010.05.17/outbox.cif.g08.bks.cpg/sg2_248_cif.got.tgz:495241.got - 2010.06.03 11:33:40.
