data_PCOD9086047
_publ_section_title
;
Structure prediction by ZEFSAII (Michael W. Deem and Ramdas Pophale) SiO2 
 PCOD9086047
Probable space group: P -1
;
_chemical_formula_sum "Si O2"
_cell_formula_units_Z 14
_cell_length_a 17.561100
_cell_length_b 5.273675
_cell_length_c 11.645269
_cell_angle_alpha 104.842448
_cell_angle_beta 52.184417
_cell_angle_gamma 109.153489
_cell_volume 802.639244
_symmetry_space_group_name_H-M "P -1"
_symmetry_group_IT_number 2
_symmetry_cell_setting 'triclinic'
loop_
_space_group_symop_operation_xyz
x,y,z
-x,-y,-z
loop_
_atom_site_type_symbol
_atom_site_label
_atom_site_fract_x
_atom_site_fract_y
_atom_site_fract_z
Si Si1 0.117994 0.047132 0.409618
Si Si2 0.881282 0.379203 0.444701
Si Si3 0.726379 0.177790 0.367834
Si Si4 0.218281 0.552175 0.864675
Si Si5 0.383169 0.419650 0.587495
Si Si6 0.081426 0.706396 0.197115
Si Si7 0.034705 0.228517 0.901417
O O1 0.153017 0.360793 0.442154
O O2 0.135839 0.857769 0.474662
O O3 0.143711 0.923998 0.251471
O O4 0.000000 0.000000 0.500000
O O5 0.818192 0.275061 0.378380
O O6 0.997552 0.486283 0.316058
O O7 0.767735 0.183505 0.198876
O O8 0.658594 0.397993 0.445811
O O9 0.658149 0.894624 0.432082
O O10 0.325907 0.489450 0.763418
O O11 0.152448 0.320575 0.816517
O O12 0.156387 0.578463 0.037331
O O13 0.500000 0.500000 0.500000
O O14 0.014299 0.836780 0.185050
O O15 0.000000 0.500000 0.000000
O O16 0.000000 0.000000 0.000000
#
# Coordination Sequence:
#
# PCOD9086047 Si02
#       7
#     2   2   2   2   2   2   2
#     4  10  22  35  50  74 107 158 189 214 249 292
#     4  11  21  37  53  76 111 150 187 213 250 312
#     4  10  21  36  56  81 105 137 179 217 270 330
#     4   9  22  32  53  81 106 140 176 208 279 315
#     4  10  21  37  55  82 110 129 169 222 284 335
#     4  10  19  36  49  78 114 144 178 222 247 309
#     4  10  21  30  46  74 110 143 168 203 257 313
#
# _framework density 17.442456
#
# number of rings (size 3 to 8) (size 9 to 14) (size 15 to 20)
#    0.857    1.143    1.429    3.000    4.000    6.857 
#    0.000    0.000    0.000    0.000    0.000    6.000 
#    0.000    0.000    0.000    0.000    0.000    0.000 
#
# Total GULP energy -77988.661906 kJ/mol
# GULP energy per Si atom -5570.618708 kJ/mol
# Density = 1.740276 g / cm^3
# Si number density = 17.442456 Si / 1000 Ang^3
#
#
#
# Elastic Constant Matrix: (Units=GPa)
#
#
# Indices 1 2 3 4 5 6 
#
# 1 45.3621 25.1221 35.3076 2.5057 -7.7231 -5.1692
# 2 25.1221 114.2267 23.1746 -1.7100 -1.7418 -9.4253
# 3 35.3076 23.1746 71.5367 10.9000 -9.0583 7.5377
# 4 2.5057 -1.7100 10.9000 19.4868 4.1636 5.4269
# 5 -7.7231 -1.7418 -9.0583 4.1636 31.3929 -6.5221
# 6 -5.1692 -9.4253 7.5377 5.4269 -6.5221 29.6497
#
#
#
# Elastic Compliance Matrix: (Units=1/GPa)
#
#
# Indices 1 2 3 4 5 6 
#
# 1 0.042738 -0.004118 -0.020280 0.000430 0.007029 0.012765
# 2 -0.004118 0.010285 -0.001963 0.001987 -0.000748 0.002522
# 3 -0.020280 -0.001963 0.027545 -0.011131 0.002547 -0.008565
# 4 0.000430 0.001987 -0.011131 0.063708 -0.013762 -0.011151
# 5 0.007029 -0.000748 0.002547 -0.013762 0.038454 0.011318
# 6 0.012765 0.002522 -0.008565 -0.011151 0.011318 0.043462
#
#
# Mechanical properties :
#
#
# Convention : Reuss Voigt Hill
#
# Bulk Modulus (GPa) = 35.91164 44.25935 40.08549
# Shear Modulus (GPa) = 17.34927 25.94061 21.64494
#
# Velocity S-wave (km/s) = 3.15724 3.86062 3.52651
# Velocity P-wave (km/s) = 5.82445 6.73068 6.29390
#
# Compressibility (1/GPa) = 0.02784613
#
# Stress axis : x y z
#
# Youngs Moduli (GPa) = 23.39819 97.23043 36.30389
#
# Poissons Ratio (x) = 0.40040 0.73626
# Poissons Ratio (y) = 0.09635 0.07125
# Poissons Ratio (z) = 0.47453 0.19083
#
# Static dielectric constant tensor:
#      x y z
#    x 1.612110 -0.017290 0.024470 
#    y -0.017290 1.691830 0.042050 
#    z 0.024470 0.042050 1.668000 
# 
# From -- ./inp_files/458883.got.cif
#   From: 2010.05.17/outbox.cif.g08.bks.cpg/sg2_230_cif.got.tgz:458883.got - 2010.06.03 11:33:40.
