data_PCOD9086750
_publ_section_title
;
Structure prediction by ZEFSAII (Michael W. Deem and Ramdas Pophale) SiO2 
 PCOD9086750
Probable space group: P -1
;
_chemical_formula_sum "Si O2"
_cell_formula_units_Z 14
_cell_length_a 7.123869
_cell_length_b 17.249736
_cell_length_c 10.171078
_cell_angle_alpha 39.334387
_cell_angle_beta 109.132365
_cell_angle_gamma 89.047423
_cell_volume 667.989756
_symmetry_space_group_name_H-M "P -1"
_symmetry_group_IT_number 2
_symmetry_cell_setting 'triclinic'
loop_
_space_group_symop_operation_xyz
x,y,z
-x,-y,-z
loop_
_atom_site_type_symbol
_atom_site_label
_atom_site_fract_x
_atom_site_fract_y
_atom_site_fract_z
Si Si1 0.120908 0.512905 0.847475
Si Si2 0.372703 0.921606 0.134440
Si Si3 0.965175 0.868459 0.709334
Si Si4 0.237413 0.582644 0.504040
Si Si5 0.774736 0.729490 0.646606
Si Si6 0.023773 0.108472 0.022348
Si Si7 0.748812 0.441854 0.760150
O O1 0.208940 0.519864 0.715462
O O2 0.009769 0.653206 0.720334
O O3 0.911575 0.481309 0.825381
O O4 0.278142 0.379432 0.140317
O O5 0.575778 0.792988 0.414305
O O6 0.205352 0.907029 0.009731
O O7 0.207871 0.000605 0.112281
O O8 0.500000 0.000000 0.000000
O O9 0.880815 0.899107 0.800290
O O10 0.810278 0.834400 0.617047
O O11 0.182328 0.718011 0.979814
O O12 0.000000 0.000000 0.500000
O O13 0.497091 0.542319 0.604206
O O14 0.201351 0.539100 0.406333
O O15 0.063885 0.741884 0.258177
#
# Coordination Sequence:
#
# PCOD9086750 Si02
#       7
#     2   2   2   2   2   2   2
#     4  10  20  38  59  85 120 151 189 246 292 339
#     4  11  22  40  61  85 118 158 197 242 291 342
#     4  10  21  40  59  86 124 155 191 244 291 344
#     4  10  19  36  60  86 116 152 191 242 296 340
#     4  10  22  38  60  89 119 154 198 238 291 355
#     4  10  23  38  60  89 116 153 203 239 284 357
#     4   9  20  36  59  88 114 150 199 237 286 354
#
# _framework density 20.958404999999999
#
# number of rings (size 3 to 8) (size 9 to 14) (size 15 to 20)
#    0.000    2.000    0.000    3.000    0.000    2.857 
#    0.000   22.857    0.000    0.000    0.000    0.000 
#    0.000    0.000    0.000    0.000    0.000    0.000 
#
# Total GULP energy -77988.590670 kJ/mol
# GULP energy per Si atom -5570.613619 kJ/mol
# Density = 2.091070 g / cm^3
# Si number density = 20.958405 Si / 1000 Ang^3
#
#
#
# Elastic Constant Matrix: (Units=GPa)
#
#
# Indices 1 2 3 4 5 6 
#
# 1 35.9669 21.7992 12.6826 9.4854 -10.4914 -8.5479
# 2 21.7992 88.6029 19.0329 1.3831 -9.3624 4.7789
# 3 12.6826 19.0329 94.6438 11.5593 -19.8950 -20.5984
# 4 9.4854 1.3831 11.5593 23.0679 -3.6802 -1.2921
# 5 -10.4914 -9.3624 -19.8950 -3.6802 26.0559 5.1829
# 6 -8.5479 4.7789 -20.5984 -1.2921 5.1829 20.2756
#
#
#
# Elastic Compliance Matrix: (Units=1/GPa)
#
#
# Indices 1 2 3 4 5 6 
#
# 1 0.047968 -0.013064 0.006617 -0.018918 0.011872 0.025784
# 2 -0.013064 0.016380 -0.005426 0.006337 0.000271 -0.014547
# 3 0.006617 -0.005426 0.018058 -0.008858 0.009383 0.019451
# 4 -0.018918 0.006337 -0.008858 0.054122 -0.001551 -0.014623
# 5 0.011872 0.000271 0.009383 -0.001551 0.049878 0.001624
# 6 0.025784 -0.014547 0.019451 -0.014623 0.001624 0.082033
#
#
# Mechanical properties :
#
#
# Convention : Reuss Voigt Hill
#
# Bulk Modulus (GPa) = 17.04752 36.24920 26.64836
# Shear Modulus (GPa) = 16.03905 24.92648 20.48277
#
# Velocity S-wave (km/s) = 2.76937 3.45241 3.12958
# Velocity P-wave (km/s) = 4.28690 5.76416 5.07952
#
# Compressibility (1/GPa) = 0.05865956
#
# Stress axis : x y z
#
# Youngs Moduli (GPa) = 20.84725 61.04854 55.37701
#
# Poissons Ratio (x) = 0.79754 -0.36643
# Poissons Ratio (y) = 0.27235 0.30050
# Poissons Ratio (z) = -0.13795 0.33128
#
# Static dielectric constant tensor:
#      x y z
#    x 1.709750 0.019400 0.006530 
#    y 0.019400 2.058930 0.469010 
#    z 0.006530 0.469010 2.789060 
# 
# From -- ./inp_files/369966.got.cif
#   From: 2010.05.17/outbox.cif.g08.bks.cpg/sg2_185_cif.got.tgz:369966.got - 2010.06.03 11:33:40.
