data_PCOD9086882
_publ_section_title
;
Structure prediction by ZEFSAII (Michael W. Deem and Ramdas Pophale) SiO2 
 PCOD9086882
Probable space group: P -1
;
_chemical_formula_sum "Si O2"
_cell_formula_units_Z 14
_cell_length_a 8.308946
_cell_length_b 8.582320
_cell_length_c 25.827267
_cell_angle_alpha 136.996885
_cell_angle_beta 42.039318
_cell_angle_gamma 106.462985
_cell_volume 691.886158
_symmetry_space_group_name_H-M "P -1"
_symmetry_group_IT_number 2
_symmetry_cell_setting 'triclinic'
loop_
_space_group_symop_operation_xyz
x,y,z
-x,-y,-z
loop_
_atom_site_type_symbol
_atom_site_label
_atom_site_fract_x
_atom_site_fract_y
_atom_site_fract_z
Si Si1 0.822657 0.827486 0.134980
Si Si2 0.170697 0.249728 0.357300
Si Si3 0.265915 0.191413 0.558525
Si Si4 0.932704 0.281158 0.317131
Si Si5 0.138308 0.725212 0.241565
Si Si6 0.333702 0.881765 0.040613
Si Si7 0.686530 0.931769 0.312016
O O1 0.734858 0.834483 0.218116
O O2 0.038365 0.927561 0.099760
O O3 0.520727 0.057112 0.234320
O O4 0.000000 0.500000 0.000000
O O5 0.044433 0.372113 0.360335
O O6 0.000000 0.500000 0.500000
O O7 0.105064 0.014497 0.319783
O O8 0.236837 0.475813 0.624930
O O9 0.962018 0.288165 0.680120
O O10 0.500000 0.000000 0.500000
O O11 0.387130 0.028652 0.435956
O O12 0.222395 0.024514 0.157989
O O13 0.727755 0.183745 0.359192
O O14 0.935275 0.732517 0.246007
O O15 0.450343 0.449994 0.089006
O O16 0.500000 0.000000 0.000000
#
# Coordination Sequence:
#
# PCOD9086882 Si02
#       7
#     2   2   2   2   2   2   2
#     4  11  23  40  66  92 130 173 219 263 319 382
#     4  11  24  43  64  94 133 173 216 264 321 387
#     4  10  19  36  60  94 125 157 211 271 318 368
#     4  10  21  37  66  90 125 168 218 263 319 383
#     4  10  21  39  65  94 127 169 209 271 324 379
#     4  11  22  41  67  93 129 166 218 268 324 382
#     4   9  21  36  63  91 123 165 222 261 311 385
#
# _framework density 20.234541
#
# number of rings (size 3 to 8) (size 9 to 14) (size 15 to 20)
#    0.000    1.714    2.857    1.286    2.000    7.429 
#    0.000    5.000    0.000    0.000    0.000    0.000 
#    0.000    0.000    0.000    0.000    0.000    0.000 
#
# Total GULP energy -77943.512115 kJ/mol
# GULP energy per Si atom -5567.393723 kJ/mol
# Density = 2.018849 g / cm^3
# Si number density = 20.234541 Si / 1000 Ang^3
#
#
#
# Elastic Constant Matrix: (Units=GPa)
#
#
# Indices 1 2 3 4 5 6 
#
# 1 75.9235 12.6986 37.2482 5.2183 8.1627 -9.9106
# 2 12.6986 64.8252 20.3783 -3.9775 2.8411 -13.7730
# 3 37.2482 20.3783 132.4399 10.5549 14.3730 -14.2295
# 4 5.2183 -3.9775 10.5549 35.6297 -3.7262 0.7254
# 5 8.1627 2.8411 14.3730 -3.7262 29.1155 3.4060
# 6 -9.9106 -13.7730 -14.2295 0.7254 3.4060 19.0089
#
#
#
# Elastic Compliance Matrix: (Units=1/GPa)
#
#
# Indices 1 2 3 4 5 6 
#
# 1 0.016249 -0.000802 -0.003183 -0.002063 -0.003905 0.006286
# 2 -0.000802 0.018890 -0.001250 0.002108 -0.002211 0.012648
# 3 -0.003183 -0.001250 0.010106 -0.003324 -0.005107 0.006042
# 4 -0.002063 0.002108 -0.003324 0.030347 0.006406 -0.004343
# 5 -0.003905 -0.002211 -0.005107 0.006406 0.040753 -0.015008
# 6 0.006286 0.012648 0.006042 -0.004343 -0.015008 0.072427
#
#
# Mechanical properties :
#
#
# Convention : Reuss Voigt Hill
#
# Bulk Modulus (GPa) = 28.75621 45.98208 37.36915
# Shear Modulus (GPa) = 23.71530 30.27505 26.99518
#
# Velocity S-wave (km/s) = 3.42719 3.87228 3.65651
# Velocity P-wave (km/s) = 5.46838 6.53962 6.02784
#
# Compressibility (1/GPa) = 0.03477509
#
# Stress axis : x y z
#
# Youngs Moduli (GPa) = 61.54176 52.93868 98.94648
#
# Poissons Ratio (x) = 0.04247 0.31494
# Poissons Ratio (y) = 0.04937 0.12368
# Poissons Ratio (z) = 0.19588 0.06617
#
# Static dielectric constant tensor:
#      x y z
#    x 1.766230 -0.013410 -0.019490 
#    y -0.013410 1.763850 -0.002780 
#    z -0.019490 -0.002780 1.781630 
# 
# From -- ./inp_files/167658.got.cif
#   From: 2010.05.17/outbox.cif.g08.bks.cpg/sg2_84_cif.got.tgz:167658.got - 2010.06.03 11:33:40.
