data_PCOD9086859
_publ_section_title
;
Structure prediction by ZEFSAII (Michael W. Deem and Ramdas Pophale) SiO2 
 PCOD9086859
Probable space group: P -1
;
_chemical_formula_sum "Si O2"
_cell_formula_units_Z 14
_cell_length_a 11.703897
_cell_length_b 12.035482
_cell_length_c 16.225107
_cell_angle_alpha 148.843591
_cell_angle_beta 33.584712
_cell_angle_gamma 126.297863
_cell_volume 592.849891
_symmetry_space_group_name_H-M "P -1"
_symmetry_group_IT_number 2
_symmetry_cell_setting 'triclinic'
loop_
_space_group_symop_operation_xyz
x,y,z
-x,-y,-z
loop_
_atom_site_type_symbol
_atom_site_label
_atom_site_fract_x
_atom_site_fract_y
_atom_site_fract_z
Si Si1 0.747102 0.156083 0.783326
Si Si2 0.379063 0.655871 0.558477
Si Si3 0.513290 0.996316 0.388018
Si Si4 0.692776 0.817402 0.708417
Si Si5 0.172735 0.523099 0.169123
Si Si6 0.143907 0.647852 0.842817
Si Si7 0.998447 0.758708 0.169149
O O1 0.667664 0.365660 0.898085
O O2 0.802529 0.247277 0.895105
O O3 0.637037 0.978720 0.760805
O O4 0.000000 0.000000 0.500000
O O5 0.394437 0.811647 0.573325
O O6 0.344117 0.419860 0.411781
O O7 0.186685 0.777847 0.820735
O O8 0.619856 0.554042 0.395908
O O9 0.261494 0.069754 0.549055
O O10 0.500000 0.000000 0.500000
O O11 0.668817 0.754536 0.092925
O O12 0.977998 0.698736 0.461359
O O13 0.500000 0.000000 0.000000
O O14 0.009699 0.488216 0.174553
O O15 0.046335 0.818909 0.086478
O O16 0.000000 0.500000 0.000000
#
# Coordination Sequence:
#
# PCOD9086859 Si02
#       7
#     2   2   2   2   2   2   2
#     4  10  21  40  64  91 126 166 217 262 306 382
#     4  10  22  37  60  94 126 163 214 266 323 366
#     4  12  23  37  64  97 133 162 205 275 327 376
#     4  10  22  36  60  85 122 169 211 249 304 381
#     4  10  21  39  58  96 125 162 208 264 321 362
#     4  10  19  36  60  91 124 156 218 267 302 366
#     4  12  20  37  67  92 124 164 225 262 303 381
#
# _framework density 23.614747999999999
#
# number of rings (size 3 to 8) (size 9 to 14) (size 15 to 20)
#    0.000    1.429    4.286    0.857    2.000    2.286 
#    0.000    2.857    0.000    2.571    0.000    0.000 
#    0.000    0.000    0.000    0.000    0.000    0.000 
#
# Total GULP energy -77945.171260 kJ/mol
# GULP energy per Si atom -5567.512233 kJ/mol
# Density = 2.356100 g / cm^3
# Si number density = 23.614748 Si / 1000 Ang^3
#
#
#
# Elastic Constant Matrix: (Units=GPa)
#
#
# Indices 1 2 3 4 5 6 
#
# 1 41.3359 22.8799 8.2643 -0.8819 3.0399 2.5059
# 2 22.8799 210.3122 44.9501 -2.0536 13.0725 -20.7274
# 3 8.2643 44.9501 136.3516 -11.5129 0.2408 -3.5977
# 4 -0.8819 -2.0536 -11.5129 38.6274 -5.6963 7.6460
# 5 3.0399 13.0725 0.2408 -5.6963 27.6856 -4.6538
# 6 2.5059 -20.7274 -3.5977 7.6460 -4.6538 27.1980
#
#
#
# Elastic Compliance Matrix: (Units=1/GPa)
#
#
# Indices 1 2 3 4 5 6 
#
# 1 0.026591 -0.003169 -0.000623 0.001047 -0.002145 -0.005609
# 2 -0.003169 0.006065 -0.001807 -0.001528 -0.002014 0.004760
# 3 -0.000623 -0.001807 0.008170 0.002665 0.001269 -0.000771
# 4 0.001047 -0.001528 0.002665 0.029007 0.005177 -0.008177
# 5 -0.002145 -0.002014 0.001269 0.005177 0.039042 0.004056
# 6 -0.005609 0.004760 -0.000771 -0.008177 0.004056 0.043802
#
#
# Mechanical properties :
#
#
# Convention : Reuss Voigt Hill
#
# Bulk Modulus (GPa) = 33.75190 60.02090 46.88640
# Shear Modulus (GPa) = 28.77668 39.49592 34.13630
#
# Velocity S-wave (km/s) = 3.49462 4.09407 3.80616
# Velocity P-wave (km/s) = 5.53235 6.91523 6.26208
#
# Compressibility (1/GPa) = 0.02962796
#
# Stress axis : x y z
#
# Youngs Moduli (GPa) = 37.60709 164.87317 122.40019
#
# Poissons Ratio (x) = 0.52246 0.07623
# Poissons Ratio (y) = 0.11917 0.22121
# Poissons Ratio (z) = 0.02342 0.29797
#
# Static dielectric constant tensor:
#      x y z
#    x 1.968430 -0.021880 0.050300 
#    y -0.021880 2.013180 -0.015470 
#    z 0.050300 -0.015470 2.012580 
# 
# From -- ./inp_files/239582.got.cif
#   From: 2010.05.17/outbox.cif.g08.bks.cpg/sg2_120_cif.got.tgz:239582.got - 2010.06.03 11:33:40.
