data_PCOD9086270
_publ_section_title
;
Structure prediction by ZEFSAII (Michael W. Deem and Ramdas Pophale) SiO2 
 PCOD9086270
Probable space group: P -1
;
_chemical_formula_sum "Si O2"
_cell_formula_units_Z 14
_cell_length_a 11.780415
_cell_length_b 8.649093
_cell_length_c 19.382955
_cell_angle_alpha 35.445808
_cell_angle_beta 142.575497
_cell_angle_gamma 118.807744
_cell_volume 614.937336
_symmetry_space_group_name_H-M "P -1"
_symmetry_group_IT_number 2
_symmetry_cell_setting 'triclinic'
loop_
_space_group_symop_operation_xyz
x,y,z
-x,-y,-z
loop_
_atom_site_type_symbol
_atom_site_label
_atom_site_fract_x
_atom_site_fract_y
_atom_site_fract_z
Si Si1 0.809469 0.848783 0.519505
Si Si2 0.250339 0.111139 0.825855
Si Si3 0.669868 0.263226 0.871664
Si Si4 0.084655 0.187843 0.565192
Si Si5 0.114792 0.197296 0.962603
Si Si6 0.367214 0.897096 0.523390
Si Si7 0.973766 0.536130 0.893770
O O1 0.770151 0.862607 0.414025
O O2 0.945036 0.497219 0.732682
O O3 0.621480 0.014127 0.424160
O O4 0.955759 0.006622 0.550181
O O5 0.207403 0.081620 0.735394
O O6 0.090081 0.458954 0.641150
O O7 0.500000 0.000000 0.000000
O O8 0.219469 0.897841 0.945091
O O9 0.443348 0.544634 0.677273
O O10 0.796373 0.423498 0.840136
O O11 0.696837 0.005185 0.924622
O O12 0.159523 0.325864 0.008424
O O13 0.000000 0.000000 0.000000
O O14 0.500000 0.000000 0.500000
O O15 0.129258 0.118560 0.304848
O O16 0.000000 0.500000 0.000000
#
# Coordination Sequence:
#
# PCOD9086270 Si02
#       7
#     2   2   2   2   2   2   2
#     4  10  19  40  64  91 126 167 216 260 316 389
#     4  11  23  41  60  95 127 165 219 267 322 377
#     4  10  19  36  57  82 118 160 196 258 315 369
#     4  10  23  40  66  91 126 176 215 262 324 380
#     4   9  18  34  58  86 121 156 200 255 309 377
#     4   9  19  35  58  86 125 157 200 260 320 369
#     4   9  19  34  58  88 112 155 206 247 312 381
#
# _framework density 22.766548
#
# number of rings (size 3 to 8) (size 9 to 14) (size 15 to 20)
#    0.000    2.286    1.429    1.714    4.000    0.000 
#    0.000   10.000    0.000    0.000    0.000    0.000 
#    0.000    0.000    0.000    0.000    0.000    0.000 
#
# Total GULP energy -78018.547835 kJ/mol
# GULP energy per Si atom -5572.753417 kJ/mol
# Density = 2.271473 g / cm^3
# Si number density = 22.766548 Si / 1000 Ang^3
#
#
#
# Elastic Constant Matrix: (Units=GPa)
#
#
# Indices 1 2 3 4 5 6 
#
# 1 121.6845 53.2529 46.6904 -0.1919 -14.1681 -51.6224
# 2 53.2529 109.0024 83.3860 -6.3434 3.1362 -59.5578
# 3 46.6904 83.3860 146.7464 -18.6178 -14.9344 -36.4155
# 4 -0.1919 -6.3434 -18.6178 42.2208 -5.0665 1.1307
# 5 -14.1681 3.1362 -14.9344 -5.0665 36.4891 -3.3615
# 6 -51.6224 -59.5578 -36.4155 1.1307 -3.3615 66.1312
#
#
#
# Elastic Compliance Matrix: (Units=1/GPa)
#
#
# Indices 1 2 3 4 5 6 
#
# 1 0.013787 -0.000957 -0.000806 0.000023 0.006008 0.009761
# 2 -0.000957 0.029908 -0.013097 -0.002620 -0.006946 0.018668
# 3 -0.000806 -0.013097 0.015019 0.005641 0.007386 -0.003875
# 4 0.000023 -0.002620 0.005641 0.026516 0.006283 0.000631
# 5 0.006008 -0.006946 0.007386 0.006283 0.034613 0.004153
# 6 0.009761 0.018668 -0.003875 0.000631 0.004153 0.037620
#
#
# Mechanical properties :
#
#
# Convention : Reuss Voigt Hill
#
# Bulk Modulus (GPa) = 34.49026 82.67688 58.58357
# Shear Modulus (GPa) = 25.40030 41.90850 33.65440
#
# Velocity S-wave (km/s) = 3.34381 4.29510 3.84896
# Velocity P-wave (km/s) = 5.48548 7.80968 6.74839
#
# Compressibility (1/GPa) = 0.02899369
#
# Stress axis : x y z
#
# Youngs Moduli (GPa) = 72.53404 33.43557 66.58263
#
# Poissons Ratio (x) = 0.03199 0.05368
# Poissons Ratio (y) = 0.06939 0.87204
# Poissons Ratio (z) = 0.05848 0.43791
#
# Static dielectric constant tensor:
#      x y z
#    x 1.995900 -0.030080 0.071390 
#    y -0.030080 1.935740 -0.021380 
#    z 0.071390 -0.021380 1.870840 
# 
# From -- ./inp_files/327035.got.cif
#   From: 2010.05.17/outbox.cif.g08.bks.cpg/sg2_164_cif.got.tgz:327035.got - 2010.06.03 11:33:40.
