data_PCOD9086483
_publ_section_title
;
Structure prediction by ZEFSAII (Michael W. Deem and Ramdas Pophale) SiO2 
 PCOD9086483
Probable space group: P -1
;
_chemical_formula_sum "Si O2"
_cell_formula_units_Z 16
_cell_length_a 25.297705
_cell_length_b 14.869766
_cell_length_c 13.771019
_cell_angle_alpha 29.119943
_cell_angle_beta 158.182935
_cell_angle_gamma 160.812280
_cell_volume 632.531876
_symmetry_space_group_name_H-M "P -1"
_symmetry_group_IT_number 2
_symmetry_cell_setting 'triclinic'
loop_
_space_group_symop_operation_xyz
x,y,z
-x,-y,-z
loop_
_atom_site_type_symbol
_atom_site_label
_atom_site_fract_x
_atom_site_fract_y
_atom_site_fract_z
Si Si1 0.783891 0.684376 0.407360
Si Si2 0.980306 0.266296 0.390094
Si Si3 0.966988 0.739535 0.039946
Si Si4 0.354615 0.931683 0.597017
Si Si5 0.396699 0.524272 0.218404
Si Si6 0.474477 0.300848 0.931363
Si Si7 0.761125 0.150466 0.300920
Si Si8 0.825414 0.502165 0.839727
O O1 0.584386 0.620043 0.155287
O O2 0.801116 0.536742 0.654968
O O3 0.819285 0.641855 0.400035
O O4 0.000000 0.000000 0.500000
O O5 0.938309 0.205399 0.491318
O O6 0.759894 0.985722 0.232268
O O7 0.977696 0.474894 0.147246
O O8 0.834141 0.420527 0.132369
O O9 0.206740 0.914762 0.294337
O O10 0.848367 0.732421 0.929297
O O11 0.909526 0.741464 0.830589
O O12 0.243520 0.840039 0.599959
O O13 0.588828 0.230096 0.725170
O O14 0.388996 0.757785 0.776169
O O15 0.500000 0.500000 0.500000
O O16 0.430527 0.503456 0.184651
O O17 0.539324 0.851167 0.166552
#
# Coordination Sequence:
#
# PCOD9086483 Si02
#       8
#     2   2   2   2   2   2   2   2
#     4  10  19  37  61  88 115 160 207 242 309 357
#     4   8  18  32  59  84 112 160 203 241 292 352
#     4  11  21  36  62  90 123 160 198 245 299 370
#     4  11  21  37  61  95 120 157 202 243 307 355
#     4  11  20  33  55  88 124 159 192 243 305 352
#     4   9  19  31  53  85 120 149 194 251 291 354
#     4  10  19  36  58  88 125 154 200 243 288 366
#     4  10  20  36  63  91 120 152 202 260 294 358
#
# _framework density 25.295168
#
# number of rings (size 3 to 8) (size 9 to 14) (size 15 to 20)
#    0.000    2.000    2.500    2.625    0.000    0.000 
#    0.000    1.875    0.000   22.500    0.000    0.000 
#    0.000    0.000    0.000    0.000    0.000    0.000 
#
# Total GULP energy -89211.165408 kJ/mol
# GULP energy per Si atom -5575.697838 kJ/mol
# Density = 2.523760 g / cm^3
# Si number density = 25.295168 Si / 1000 Ang^3
#
#
#
# Elastic Constant Matrix: (Units=GPa)
#
#
# Indices 1 2 3 4 5 6 
#
# 1 149.9703 13.1352 45.4380 18.6492 50.4187 32.7834
# 2 13.1352 37.4401 19.3523 -0.0661 -1.2942 -4.0627
# 3 45.4380 19.3523 109.5966 25.5235 22.5652 1.6369
# 4 18.6492 -0.0661 25.5235 31.8411 3.4842 -0.6486
# 5 50.4187 -1.2942 22.5652 3.4842 38.5354 8.5096
# 6 32.7834 -4.0627 1.6369 -0.6486 8.5096 31.8062
#
#
#
# Elastic Compliance Matrix: (Units=1/GPa)
#
#
# Indices 1 2 3 4 5 6 
#
# 1 0.019016 -0.009423 0.000646 -0.009655 -0.021316 -0.015331
# 2 -0.009423 0.035971 -0.008187 0.010744 0.014941 0.010950
# 3 0.000646 -0.008187 0.014703 -0.011245 -0.008628 -0.000390
# 4 -0.009655 0.010744 -0.011245 0.044808 0.013494 0.009206
# 5 -0.021316 0.014941 -0.008628 0.013494 0.056053 0.009602
# 6 -0.015331 0.010950 -0.000390 0.009206 0.009602 0.046280
#
#
# Mechanical properties :
#
#
# Convention : Reuss Voigt Hill
#
# Bulk Modulus (GPa) = 27.96233 50.31755 39.13994
# Shear Modulus (GPa) = 19.03471 35.04197 27.03834
#
# Velocity S-wave (km/s) = 2.74616 3.72603 3.27297
# Velocity P-wave (km/s) = 4.59713 6.20052 5.45802
#
# Compressibility (1/GPa) = 0.03576240
#
# Stress axis : x y z
#
# Youngs Moduli (GPa) = 52.58832 27.80043 68.01300
#
# Poissons Ratio (x) = 0.26196 -0.04397
# Poissons Ratio (y) = 0.49554 0.55682
# Poissons Ratio (z) = -0.03400 0.22760
#
# Static dielectric constant tensor:
#      x y z
#    x 4.206600 1.087950 -0.222500 
#    y 1.087950 2.654650 -0.299760 
#    z -0.222500 -0.299760 2.141230 
# 
# From -- ./inp_files/544324.got.cif
#   From: 2010.05.17/outbox.cif.g08.bks.cpg/sg2_273_cif.got.tgz:544324.got - 2010.06.03 11:33:40.
