data_PCOD9086312
_publ_section_title
;
Structure prediction by ZEFSAII (Michael W. Deem and Ramdas Pophale) SiO2 
 PCOD9086312
Probable space group: P -1
;
_chemical_formula_sum "Si O2"
_cell_formula_units_Z 12
_cell_length_a 12.741961
_cell_length_b 16.800032
_cell_length_c 7.449769
_cell_angle_alpha 82.171855
_cell_angle_beta 110.167346
_cell_angle_gamma 155.737645
_cell_volume 545.620731
_symmetry_space_group_name_H-M "P -1"
_symmetry_group_IT_number 2
_symmetry_cell_setting 'triclinic'
loop_
_space_group_symop_operation_xyz
x,y,z
-x,-y,-z
loop_
_atom_site_type_symbol
_atom_site_label
_atom_site_fract_x
_atom_site_fract_y
_atom_site_fract_z
Si Si1 0.790842 0.980621 0.724441
Si Si2 0.153877 0.494643 0.653842
Si Si3 0.482122 0.172736 0.769308
Si Si4 0.223541 0.151985 0.750191
Si Si5 0.909596 0.386202 0.199422
Si Si6 0.271460 0.413924 0.972863
O O1 0.474886 0.737960 0.686607
O O2 0.723709 0.972960 0.486424
O O3 0.025862 0.063785 0.811728
O O4 0.957018 0.157403 0.891306
O O5 0.060568 0.503105 0.733355
O O6 0.201676 0.441338 0.790470
O O7 0.922111 0.339202 0.396870
O O8 0.327503 0.129915 0.833071
O O9 0.786642 0.420435 0.798057
O O10 0.618849 0.190518 0.958032
O O11 0.521080 0.405183 0.810410
O O12 0.000000 0.000000 0.500000
O O13 0.500000 0.500000 0.000000
#
# Coordination Sequence:
#
# PCOD9086312 Si02
#       6
#     2   2   2   2   2   2
#     4   9  20  34  59  84 110 142 183 228 276 320
#     4  10  19  36  57  86 108 143 189 225 268 326
#     4   9  16  34  57  81 107 153 183 214 279 326
#     4   9  17  32  57  81 105 143 180 221 275 326
#     4   9  18  32  59  79 110 152 184 218 268 328
#     4  10  20  35  56  83 113 143 178 230 277 326
#
# _framework density 21.993302
#
# number of rings (size 3 to 8) (size 9 to 14) (size 15 to 20)
#    0.000    2.667    1.667    0.000    0.000    2.667 
#    0.000    8.333   11.000   20.000    0.000    0.000 
#    0.000    0.000    0.000    0.000    0.000    0.000 
#
# Total GULP energy -66832.953342 kJ/mol
# GULP energy per Si atom -5569.412778 kJ/mol
# Density = 2.194324 g / cm^3
# Si number density = 21.993302 Si / 1000 Ang^3
#
#
#
# Elastic Constant Matrix: (Units=GPa)
#
#
# Indices 1 2 3 4 5 6 
#
# 1 81.6588 29.2666 26.7406 -4.4421 17.3557 -1.4469
# 2 29.2666 53.7224 20.6549 4.6140 -4.9137 -4.1621
# 3 26.7406 20.6549 110.4513 1.2509 6.3992 -2.2988
# 4 -4.4421 4.6140 1.2509 35.0784 -6.5533 1.1347
# 5 17.3557 -4.9137 6.3992 -6.5533 33.4011 -0.2347
# 6 -1.4469 -4.1621 -2.2988 1.1347 -0.2347 19.0942
#
#
#
# Elastic Compliance Matrix: (Units=1/GPa)
#
#
# Indices 1 2 3 4 5 6 
#
# 1 0.019225 -0.010965 -0.002028 0.001971 -0.010838 -0.001428
# 2 -0.010965 0.027239 -0.002856 -0.003230 0.009654 0.005073
# 3 -0.002028 -0.002856 0.010177 -0.000523 -0.001415 0.000463
# 4 0.001971 -0.003230 -0.000523 0.030116 0.004493 -0.002352
# 5 -0.010838 0.009654 -0.001415 0.004493 0.038153 0.001315
# 6 -0.001428 0.005073 0.000463 -0.002352 0.001315 0.053581
#
#
# Mechanical properties :
#
#
# Convention : Reuss Voigt Hill
#
# Bulk Modulus (GPa) = 40.09250 44.35075 42.22162
# Shear Modulus (GPa) = 22.88287 28.79277 25.83782
#
# Velocity S-wave (km/s) = 3.22910 3.62216 3.43126
# Velocity P-wave (km/s) = 5.67201 6.14025 5.91077
#
# Compressibility (1/GPa) = 0.02494232
#
# Stress axis : x y z
#
# Youngs Moduli (GPa) = 52.01458 36.71182 98.26553
#
# Poissons Ratio (x) = 0.40254 0.19930
# Poissons Ratio (y) = 0.57033 0.28068
# Poissons Ratio (z) = 0.10550 0.10486
#
# Static dielectric constant tensor:
#      x y z
#    x 1.852520 0.004250 0.023970 
#    y 0.004250 1.828760 -0.016290 
#    z 0.023970 -0.016290 1.909950 
# 
# From -- ./inp_files/35959.got.cif
#   From: 2010.05.17/outbox.cif.g08.bks.cpg/sg2_18_cif.got.tgz:35959.got - 2010.06.03 11:33:40.
