data_PCOD9086274
_publ_section_title
;
Structure prediction by ZEFSAII (Michael W. Deem and Ramdas Pophale) SiO2 
 PCOD9086274
Probable space group: P -1
;
_chemical_formula_sum "Si O2"
_cell_formula_units_Z 13
_cell_length_a 7.255600
_cell_length_b 19.790459
_cell_length_c 9.236014
_cell_angle_alpha 143.038618
_cell_angle_beta 67.023790
_cell_angle_gamma 136.273597
_cell_volume 492.194063
_symmetry_space_group_name_H-M "P -1"
_symmetry_group_IT_number 2
_symmetry_cell_setting 'triclinic'
loop_
_space_group_symop_operation_xyz
x,y,z
-x,-y,-z
loop_
_atom_site_type_symbol
_atom_site_label
_atom_site_fract_x
_atom_site_fract_y
_atom_site_fract_z
Si Si1 0.986437 0.450806 0.675678
Si Si2 0.437626 0.069068 0.874301
Si Si3 0.935109 0.946970 0.630266
Si Si4 0.999000 0.207129 0.219356
Si Si5 0.599077 0.265413 0.769299
Si Si6 0.500000 0.000000 0.500000
Si Si7 0.491421 0.324685 0.448649
O O1 0.790742 0.362548 0.731525
O O2 0.819933 0.472840 0.665171
O O3 0.953581 0.316769 0.377270
O O4 0.306296 0.614298 0.922186
O O5 0.694035 0.111813 0.788231
O O6 0.490626 0.215308 0.159570
O O7 0.243291 0.003684 0.664769
O O8 0.258738 0.933670 0.824677
O O9 0.739009 0.858753 0.394679
O O10 0.726795 0.803074 0.571947
O O11 0.985977 0.096482 0.924534
O O12 0.312851 0.340269 0.437816
O O13 0.672688 0.172837 0.644910
#
# Coordination Sequence:
#
# PCOD9086274 Si02
#       7
#     2   2   2   2   2   1   2
#     4  10  19  36  57  83 110 135 180 232 266 312
#     4   9  18  33  53  83 107 140 183 219 263 325
#     4   8  17  34  56  80 105 136 187 229 253 314
#     4   9  16  33  61  83 102 137 183 231 269 298
#     4  10  22  35  51  83 112 142 177 216 272 324
#     4  12  22  34  52  76 118 150 170 210 274 332
#     4   8  17  32  57  85 106 132 184 233 263 307
#
# _framework density 26.412345999999999
#
# number of rings (size 3 to 8) (size 9 to 14) (size 15 to 20)
#    0.000    2.769    1.538    1.846    2.154    2.462 
#    2.769    3.846    0.000    1.846    0.000    0.000 
#    0.000    0.000    0.000    0.000    0.000    0.000 
#
# Total GULP energy -72441.304563 kJ/mol
# GULP energy per Si atom -5572.408043 kJ/mol
# Density = 2.635223 g / cm^3
# Si number density = 26.412346 Si / 1000 Ang^3
#
#
#
# Elastic Constant Matrix: (Units=GPa)
#
#
# Indices 1 2 3 4 5 6 
#
# 1 128.3020 24.6951 44.4791 -6.2602 33.2115 -16.4390
# 2 24.6951 76.0242 21.2698 -10.0047 8.0045 14.1952
# 3 44.4791 21.2698 100.7884 -1.5042 16.1788 8.7278
# 4 -6.2602 -10.0047 -1.5042 22.3712 1.7012 -5.3865
# 5 33.2115 8.0045 16.1788 1.7012 47.0832 -6.7317
# 6 -16.4390 14.1952 8.7278 -5.3865 -6.7317 31.6365
#
#
#
# Elastic Compliance Matrix: (Units=1/GPa)
#
#
# Indices 1 2 3 4 5 6 
#
# 1 0.013002 -0.003385 -0.004817 0.004439 -0.005796 0.009127
# 2 -0.003385 0.016911 -0.001014 0.004590 -0.001536 -0.008613
# 3 -0.004817 -0.001014 0.013064 -0.002336 -0.001753 -0.006423
# 4 0.004439 0.004590 -0.002336 0.050202 -0.003685 0.008655
# 5 -0.005796 -0.001536 -0.001753 -0.003685 0.026786 0.003233
# 6 0.009127 -0.008613 -0.006423 0.008655 0.003233 0.044149
#
#
# Mechanical properties :
#
#
# Convention : Reuss Voigt Hill
#
# Bulk Modulus (GPa) = 40.74276 54.00030 47.37153
# Shear Modulus (GPa) = 26.21511 34.52955 30.37233
#
# Velocity S-wave (km/s) = 3.15387 3.61962 3.39474
# Velocity P-wave (km/s) = 5.35926 6.16103 5.77408
#
# Compressibility (1/GPa) = 0.02454424
#
# Stress axis : x y z
#
# Youngs Moduli (GPa) = 76.91135 59.13314 76.54440
#
# Poissons Ratio (x) = 0.20019 0.36873
# Poissons Ratio (y) = 0.26038 0.07761
# Poissons Ratio (z) = 0.37049 0.05996
#
# Static dielectric constant tensor:
#      x y z
#    x 2.167260 0.061370 0.010980 
#    y 0.061370 2.093810 0.001170 
#    z 0.010980 0.001170 2.299840 
# 
# From -- ./inp_files/144987.got.cif
#   From: 2010.05.17/outbox.cif.g08.bks.cpg/sg2_73_cif.got.tgz:144987.got - 2010.06.03 11:33:40.
