data_PCOD9086023
_publ_section_title
;
Structure prediction by ZEFSAII (Michael W. Deem and Ramdas Pophale) SiO2 
 PCOD9086023
Probable space group: P -1
;
_chemical_formula_sum "Si O2"
_cell_formula_units_Z 16
_cell_length_a 16.132440
_cell_length_b 18.870956
_cell_length_c 9.985546
_cell_angle_alpha 151.405580
_cell_angle_beta 32.851502
_cell_angle_gamma 154.203465
_cell_volume 614.976368
_symmetry_space_group_name_H-M "P -1"
_symmetry_group_IT_number 2
_symmetry_cell_setting 'triclinic'
loop_
_space_group_symop_operation_xyz
x,y,z
-x,-y,-z
loop_
_atom_site_type_symbol
_atom_site_label
_atom_site_fract_x
_atom_site_fract_y
_atom_site_fract_z
Si Si1 0.880841 0.928483 0.705419
Si Si2 0.232476 0.673285 0.987230
Si Si3 0.751579 0.705134 0.260967
Si Si4 0.604669 0.199911 0.463097
Si Si5 0.609073 0.445111 0.641432
Si Si6 0.229246 0.138775 0.956533
Si Si7 0.779572 0.408718 0.836747
Si Si8 0.162948 0.817834 0.083522
O O1 0.741469 0.811385 0.575407
O O2 0.773351 0.865553 0.885974
O O3 0.022823 0.154177 0.861399
O O4 0.034108 0.883008 0.406585
O O5 0.328491 0.599117 0.652046
O O6 0.259198 0.829437 0.113093
O O7 0.287952 0.702445 0.115917
O O8 0.000000 0.500000 0.000000
O O9 0.622305 0.678278 0.269374
O O10 0.685128 0.507409 0.080967
O O11 0.658628 0.374559 0.584093
O O12 0.731726 0.278456 0.557919
O O13 0.667602 0.097211 0.117520
O O14 0.378332 0.100595 0.642717
O O15 0.697370 0.660356 0.866133
O O16 0.000000 0.000000 0.000000
O O17 0.000032 0.599425 0.888351
#
# Coordination Sequence:
#
# PCOD9086023 Si02
#       8
#     2   2   2   2   2   2   2   2
#     4  10  23  42  67  95 136 174 215 272 328 391
#     4   9  19  36  61  95 127 167 222 266 320 383
#     4  10  21  39  67  96 127 172 225 265 323 392
#     4  11  23  38  65  99 131 170 220 272 334 392
#     4  11  22  39  63  93 129 173 225 262 328 397
#     4  12  25  39  61  96 137 171 220 275 335 373
#     4  10  19  35  67  97 130 165 223 277 317 386
#     4   9  20  42  63  96 133 173 219 260 335 392
#
# _framework density 26.01726
#
# number of rings (size 3 to 8) (size 9 to 14) (size 15 to 20)
#    0.000    1.750    1.250    3.750    3.500    1.000 
#    0.000    6.875    0.000    6.750    0.000    0.000 
#    0.000    0.000    0.000    0.000    0.000    0.000 
#
# Total GULP energy -89460.394409 kJ/mol
# GULP energy per Si atom -5591.274651 kJ/mol
# Density = 2.595804 g / cm^3
# Si number density = 26.017260 Si / 1000 Ang^3
#
#
#
# Elastic Constant Matrix: (Units=GPa)
#
#
# Indices 1 2 3 4 5 6 
#
# 1 171.2737 35.8023 69.5794 -12.1667 35.3563 -16.9422
# 2 35.8023 82.4608 52.7571 -19.2303 11.4820 7.2045
# 3 69.5794 52.7571 145.2498 -26.2467 3.0116 -26.9054
# 4 -12.1667 -19.2303 -26.2467 35.3188 -6.1585 5.6395
# 5 35.3563 11.4820 3.0116 -6.1585 54.6924 -13.1695
# 6 -16.9422 7.2045 -26.9054 5.6395 -13.1695 39.5257
#
#
#
# Elastic Compliance Matrix: (Units=1/GPa)
#
#
# Indices 1 2 3 4 5 6 
#
# 1 0.008640 -0.000525 -0.004200 -0.001284 -0.005564 -0.000731
# 2 -0.000525 0.021240 -0.008642 0.005956 -0.006068 -0.012850
# 3 -0.004200 -0.008642 0.014795 0.004211 0.006975 0.011569
# 4 -0.001284 0.005956 0.004211 0.035164 0.002605 -0.002919
# 5 -0.005564 -0.006068 0.006975 0.002605 0.025887 0.011722
# 6 -0.000731 -0.012850 0.011569 -0.002919 0.011722 0.039526
#
#
# Mechanical properties :
#
#
# Convention : Reuss Voigt Hill
#
# Bulk Modulus (GPa) = 55.73696 79.47354 67.60525
# Shear Modulus (GPa) = 28.09533 41.96374 35.02954
#
# Velocity S-wave (km/s) = 3.28971 4.02047 3.67331
# Velocity P-wave (km/s) = 5.99159 7.22254 6.63567
#
# Compressibility (1/GPa) = 0.01794142
#
# Stress axis : x y z
#
# Youngs Moduli (GPa) = 115.74394 47.08057 67.59102
#
# Poissons Ratio (x) = 0.02471 0.28390
# Poissons Ratio (y) = 0.06074 0.58410
# Poissons Ratio (z) = 0.48615 0.40686
#
# Static dielectric constant tensor:
#      x y z
#    x 2.864910 1.038960 -1.531920 
#    y 1.038960 3.445190 -1.922500 
#    z -1.531920 -1.922500 4.902490 
# 
# From -- ./inp_files/318143.got.cif
#   From: 2010.05.17/outbox.cif.g08.bks.cpg/sg2_160_cif.got.tgz:318143.got - 2010.06.03 11:33:40.
