data_PCOD9086619
_publ_section_title
;
Structure prediction by ZEFSAII (Michael W. Deem and Ramdas Pophale) SiO2 
 PCOD9086619
Probable space group: P -1
;
_chemical_formula_sum "Si O2"
_cell_formula_units_Z 16
_cell_length_a 10.394905
_cell_length_b 12.102365
_cell_length_c 8.237316
_cell_angle_alpha 95.035033
_cell_angle_beta 120.044671
_cell_angle_gamma 62.846921
_cell_volume 784.741408
_symmetry_space_group_name_H-M "P -1"
_symmetry_group_IT_number 2
_symmetry_cell_setting 'triclinic'
loop_
_space_group_symop_operation_xyz
x,y,z
-x,-y,-z
loop_
_atom_site_type_symbol
_atom_site_label
_atom_site_fract_x
_atom_site_fract_y
_atom_site_fract_z
Si Si1 0.625384 0.718612 0.486591
Si Si2 0.184424 0.184792 0.207161
Si Si3 0.246660 0.036806 0.757033
Si Si4 0.302854 0.936130 0.418998
Si Si5 0.462562 0.187818 0.907587
Si Si6 0.072067 0.815628 0.189013
Si Si7 0.197361 0.373964 0.977770
Si Si8 0.825946 0.458146 0.716605
O O1 0.790248 0.739400 0.617140
O O2 0.486936 0.815002 0.538390
O O3 0.533950 0.770153 0.266710
O O4 0.687991 0.572818 0.540549
O O5 0.216134 0.257049 0.086860
O O6 0.306713 0.039742 0.312707
O O7 0.012892 0.187494 0.037722
O O8 0.349122 0.116083 0.827138
O O9 0.075620 0.114731 0.760955
O O10 0.233161 0.000999 0.557944
O O11 0.362000 0.908374 0.912490
O O12 0.180452 0.887280 0.262283
O O13 0.358147 0.315793 0.958520
O O14 0.182771 0.670308 0.295609
O O15 0.186125 0.482539 0.103899
O O16 0.018044 0.421695 0.780803
#
# Coordination Sequence:
#
# PCOD9086619 Si02
#       8
#     2   2   2   2   2   2   2   2
#     4  11  23  36  61  91 115 151 199 242 284 335
#     4  10  19  36  59  87 113 143 194 240 287 333
#     4  11  22  37  59  87 118 153 190 240 297 343
#     4  12  24  37  60  89 121 153 192 240 288 352
#     4  11  21  36  63  89 116 146 192 254 293 328
#     4  11  23  41  59  84 123 160 187 230 298 351
#     4   9  18  36  60  87 114 150 191 244 290 334
#     4   9  19  37  58  83 116 153 198 230 283 349
#
# _framework density 20.388881000000001
#
# number of rings (size 3 to 8) (size 9 to 14) (size 15 to 20)
#    0.000    1.500    3.750    4.125    3.500    1.000 
#    0.000    0.000    0.000    1.500    0.000    0.000 
#    0.000    0.000    0.000    0.000    0.000    0.000 
#
# Total GULP energy -89247.693633 kJ/mol
# GULP energy per Si atom -5577.980852 kJ/mol
# Density = 2.034247 g / cm^3
# Si number density = 20.388881 Si / 1000 Ang^3
#
#
#
# Elastic Constant Matrix: (Units=GPa)
#
#
# Indices 1 2 3 4 5 6 
#
# 1 32.4616 25.5189 -1.6943 2.7119 3.1896 -5.3998
# 2 25.5189 112.4822 14.7854 -14.1421 -1.7316 -10.4517
# 3 -1.6943 14.7854 54.0858 -4.2611 2.0243 -0.6464
# 4 2.7119 -14.1421 -4.2611 39.6075 4.7962 1.4430
# 5 3.1896 -1.7316 2.0243 4.7962 18.2591 4.2021
# 6 -5.3998 -10.4517 -0.6464 1.4430 4.2021 19.4946
#
#
#
# Elastic Compliance Matrix: (Units=1/GPa)
#
#
# Indices 1 2 3 4 5 6 
#
# 1 0.041652 -0.009968 0.004076 -0.005161 -0.009324 0.008720
# 2 -0.009968 0.012478 -0.003384 0.004490 0.001387 0.003186
# 3 0.004076 -0.003384 0.019770 0.001058 -0.003659 0.000681
# 4 -0.005161 0.004490 0.001058 0.028062 -0.006225 0.000277
# 5 -0.009324 0.001387 -0.003659 -0.006225 0.061989 -0.014861
# 6 0.008720 0.003186 0.000681 0.000277 -0.014861 0.058625
#
#
# Mechanical properties :
#
#
# Convention : Reuss Voigt Hill
#
# Bulk Modulus (GPa) = 18.06659 30.69441 24.38050
# Shear Modulus (GPa) = 19.26219 26.16690 22.71455
#
# Velocity S-wave (km/s) = 3.07700 3.58633 3.34138
# Velocity P-wave (km/s) = 4.63725 5.67769 5.18364
#
# Compressibility (1/GPa) = 0.05535078
#
# Stress axis : x y z
#
# Youngs Moduli (GPa) = 24.00839 80.13945 50.58111
#
# Poissons Ratio (x) = 0.79880 -0.20618
# Poissons Ratio (y) = 0.23931 0.17114
# Poissons Ratio (z) = -0.09786 0.27115
#
# Static dielectric constant tensor:
#      x y z
#    x 1.728530 -0.027370 -0.004430 
#    y -0.027370 1.735980 0.009190 
#    z -0.004430 0.009190 1.767680 
# 
# From -- ./inp_files/262737.got.cif
#   From: 2010.05.17/outbox.cif.g08.bks.cpg/sg2_132_cif.got.tgz:262737.got - 2010.06.03 11:33:40.
