data_PCOD9086352
_publ_section_title
;
Structure prediction by ZEFSAII (Michael W. Deem and Ramdas Pophale) SiO2 
 PCOD9086352
Probable space group: P -1
;
_chemical_formula_sum "Si O2"
_cell_formula_units_Z 16
_cell_length_a 15.663286
_cell_length_b 19.561568
_cell_length_c 7.664435
_cell_angle_alpha 139.375770
_cell_angle_beta 34.710454
_cell_angle_gamma 148.697302
_cell_volume 681.930726
_symmetry_space_group_name_H-M "P -1"
_symmetry_group_IT_number 2
_symmetry_cell_setting 'triclinic'
loop_
_space_group_symop_operation_xyz
x,y,z
-x,-y,-z
loop_
_atom_site_type_symbol
_atom_site_label
_atom_site_fract_x
_atom_site_fract_y
_atom_site_fract_z
Si Si1 0.467485 0.458584 0.269268
Si Si2 0.817445 0.723404 0.153928
Si Si3 0.895191 0.432954 0.804139
Si Si4 0.873694 0.939287 0.265549
Si Si5 0.878341 0.285726 0.210535
Si Si6 0.289736 0.566624 0.561619
Si Si7 0.511898 0.828667 0.471136
Si Si8 0.745481 0.825766 0.788016
O O1 0.500000 0.500000 0.500000
O O2 0.689036 0.563108 0.040288
O O3 0.378508 0.503259 0.374331
O O4 0.320342 0.299369 0.221089
O O5 0.841274 0.802890 0.097610
O O6 0.710083 0.763812 0.535288
O O7 0.010621 0.766294 0.002630
O O8 0.836762 0.346032 0.560393
O O9 0.975614 0.583495 0.904085
O O10 0.076940 0.457420 0.635353
O O11 0.737509 0.372097 0.100922
O O12 0.680541 0.918005 0.502769
O O13 0.029493 0.051172 0.354810
O O14 0.000000 0.000000 0.000000
O O15 0.673554 0.178390 0.255150
O O16 0.411484 0.679167 0.427985
O O17 0.618881 0.859913 0.163737
#
# Coordination Sequence:
#
# PCOD9086352 Si02
#       8
#     2   2   2   2   2   2   2   2
#     4  10  21  33  61  95 124 148 213 253 305 358
#     4  11  22  40  65  93 126 161 212 258 315 364
#     4   9  20  34  57  86 136 162 195 248 329 367
#     4  10  22  44  61  88 124 170 211 258 305 373
#     4  10  22  37  60  92 128 161 203 259 313 368
#     4  10  19  36  57  91 126 165 201 253 309 373
#     4  10  22  39  63  91 123 165 212 250 311 376
#     4  10  23  39  64  90 126 167 208 255 311 370
#
# _framework density 23.462795
#
# number of rings (size 3 to 8) (size 9 to 14) (size 15 to 20)
#    0.000    2.000    1.250    1.875    8.750    2.500 
#    0.000    3.125    0.000    0.000    0.000    0.000 
#    0.000    0.000    0.000    0.000    0.000    0.000 
#
# Total GULP energy -89152.745626 kJ/mol
# GULP energy per Si atom -5572.046602 kJ/mol
# Density = 2.340939 g / cm^3
# Si number density = 23.462795 Si / 1000 Ang^3
#
#
#
# Elastic Constant Matrix: (Units=GPa)
#
#
# Indices 1 2 3 4 5 6 
#
# 1 117.2998 21.1890 24.4776 -16.8081 -24.3506 -4.8077
# 2 21.1890 75.7577 10.9652 -20.0794 -2.1366 15.7578
# 3 24.4776 10.9652 61.0234 -16.6766 -1.4479 -4.4807
# 4 -16.8081 -20.0794 -16.6766 22.5539 6.2958 -0.9578
# 5 -24.3506 -2.1366 -1.4479 6.2958 46.6374 -13.7204
# 6 -4.8077 15.7578 -4.4807 -0.9578 -13.7204 33.1747
#
#
#
# Elastic Compliance Matrix: (Units=1/GPa)
#
#
# Indices 1 2 3 4 5 6 
#
# 1 0.011834 -0.003502 -0.003050 0.001610 0.007506 0.006117
# 2 -0.003502 0.021525 0.001679 0.019254 -0.007192 -0.012923
# 3 -0.003050 0.001679 0.021715 0.016078 -0.002707 0.001038
# 4 0.001610 0.019254 0.016078 0.077214 -0.010849 -0.008998
# 5 0.007506 -0.007192 -0.002707 -0.010849 0.031352 0.016792
# 6 0.006117 -0.012923 0.001038 -0.008998 0.016792 0.043994
#
#
# Mechanical properties :
#
#
# Convention : Reuss Voigt Hill
#
# Bulk Modulus (GPa) = 22.06199 40.81604 31.43902
# Shear Modulus (GPa) = 21.50645 33.63648 27.57146
#
# Velocity S-wave (km/s) = 3.03086 3.79041 3.43171
# Velocity P-wave (km/s) = 4.65527 6.04898 5.39730
#
# Compressibility (1/GPa) = 0.04532682
#
# Stress axis : x y z
#
# Youngs Moduli (GPa) = 84.50237 46.45784 46.05193
#
# Poissons Ratio (x) = 0.16271 0.14047
# Poissons Ratio (y) = 0.29596 -0.07733
# Poissons Ratio (z) = 0.25775 -0.07801
#
# Static dielectric constant tensor:
#      x y z
#    x 1.965040 0.103000 0.052230 
#    y 0.103000 1.959050 0.023880 
#    z 0.052230 0.023880 1.968870 
# 
# From -- ./inp_files/337871.got.cif
#   From: 2010.05.17/outbox.cif.g08.bks.cpg/sg2_169_cif.got.tgz:337871.got - 2010.06.03 11:33:40.
