data_PCOD9086977
_publ_section_title
;
Structure prediction by ZEFSAII (Michael W. Deem and Ramdas Pophale) SiO2 
 PCOD9086977
Probable space group: P -1
;
_chemical_formula_sum "Si O2"
_cell_formula_units_Z 16
_cell_length_a 14.334038
_cell_length_b 7.581270
_cell_length_c 10.409176
_cell_angle_alpha 52.610714
_cell_angle_beta 57.208821
_cell_angle_gamma 80.486755
_cell_volume 732.518828
_symmetry_space_group_name_H-M "P -1"
_symmetry_group_IT_number 2
_symmetry_cell_setting 'triclinic'
loop_
_space_group_symop_operation_xyz
x,y,z
-x,-y,-z
loop_
_atom_site_type_symbol
_atom_site_label
_atom_site_fract_x
_atom_site_fract_y
_atom_site_fract_z
Si Si1 0.010787 0.918405 0.245671
Si Si2 0.210682 0.830380 0.282787
Si Si3 0.159695 0.141413 0.814165
Si Si4 0.432730 0.740985 0.178256
Si Si5 0.084133 0.731213 0.689253
Si Si6 0.334485 0.376675 0.948479
Si Si7 0.845540 0.371185 0.032893
Si Si8 0.371613 0.514929 0.573816
O O1 0.911866 0.790261 0.280127
O O2 0.100129 0.788699 0.292505
O O3 0.955006 0.038713 0.345648
O O4 0.085784 0.121917 0.008541
O O5 0.309479 0.707678 0.217612
O O6 0.163126 0.766481 0.489839
O O7 0.270063 0.106581 0.113056
O O8 0.282890 0.308321 0.661874
O O9 0.168729 0.883832 0.896598
O O10 0.530173 0.604887 0.130370
O O11 0.392483 0.718861 0.367039
O O12 0.500000 0.000000 0.000000
O O13 0.145301 0.665533 0.801380
O O14 0.968514 0.537812 0.836606
O O15 0.249725 0.515802 0.012289
O O16 0.334092 0.491135 0.758239
O O17 0.500000 0.500000 0.500000
#
# Coordination Sequence:
#
# PCOD9086977 Si02
#       8
#     2   2   2   2   2   2   2   2
#     4  10  20  35  59  86 128 158 191 243 300 358
#     4  11  19  34  62  88 122 154 206 247 289 353
#     4  10  21  37  57  90 124 155 196 248 298 365
#     4   9  21  35  57  88 111 146 204 252 285 342
#     4  10  20  34  58  88 119 165 199 241 299 356
#     4  10  19  36  61  87 113 159 207 244 286 349
#     4  10  20  35  58  87 124 158 200 242 298 361
#     4  10  19  38  64  82 109 159 206 245 290 354
#
# _framework density 21.842444
#
# number of rings (size 3 to 8) (size 9 to 14) (size 15 to 20)
#    0.000    2.000    2.500    1.125    0.000    3.000 
#    0.000    5.000    0.000    0.750    0.000    0.000 
#    0.000    0.000    0.000    0.000    0.000    0.000 
#
# Total GULP energy -89119.828469 kJ/mol
# GULP energy per Si atom -5569.989279 kJ/mol
# Density = 2.179273 g / cm^3
# Si number density = 21.842444 Si / 1000 Ang^3
#
#
#
# Elastic Constant Matrix: (Units=GPa)
#
#
# Indices 1 2 3 4 5 6 
#
# 1 162.2330 42.7062 21.5860 17.9588 -43.0704 -41.3664
# 2 42.7062 50.2024 1.1607 10.8511 -14.4860 -22.8534
# 3 21.5860 1.1607 100.4562 10.3554 -12.1754 2.5881
# 4 17.9588 10.8511 10.3554 13.1416 -3.5527 -3.8958
# 5 -43.0704 -14.4860 -12.1754 -3.5527 28.8269 3.6315
# 6 -41.3664 -22.8534 2.5881 -3.8958 3.6315 37.5465
#
#
#
# Elastic Compliance Matrix: (Units=1/GPa)
#
#
# Indices 1 2 3 4 5 6 
#
# 1 0.018103 0.003192 0.000196 -0.015589 0.024562 0.017882
# 2 0.003192 0.038726 0.003473 -0.027229 0.019553 0.022133
# 3 0.000196 0.003473 0.011680 -0.010856 0.005653 -0.000148
# 4 -0.015589 -0.027229 -0.010856 0.116208 -0.024903 -0.018534
# 5 0.024562 0.019553 0.005653 -0.024903 0.076935 0.028547
# 6 0.017882 0.022133 -0.000148 -0.018534 0.028547 0.055132
#
#
# Mechanical properties :
#
#
# Convention : Reuss Voigt Hill
#
# Bulk Modulus (GPa) = 12.16055 49.31082 30.73568
# Shear Modulus (GPa) = 15.12982 32.39891 23.76436
#
# Velocity S-wave (km/s) = 2.63474 3.85554 3.30205
# Velocity P-wave (km/s) = 3.85166 6.51498 5.35165
#
# Compressibility (1/GPa) = 0.08223314
#
# Stress axis : x y z
#
# Youngs Moduli (GPa) = 55.23824 25.82216 85.61469
#
# Poissons Ratio (x) = -0.08243 -0.01680
# Poissons Ratio (y) = -0.17633 -0.29735
# Poissons Ratio (z) = -0.01084 -0.08968
#
# Static dielectric constant tensor:
#      x y z
#    x 1.794010 -0.123110 0.040390 
#    y -0.123110 1.815590 0.098160 
#    z 0.040390 0.098160 1.932290 
# 
# From -- ./inp_files/446780.got.cif
#   From: 2010.05.17/outbox.cif.g08.bks.cpg/sg2_224_cif.got.tgz:446780.got - 2010.06.03 11:33:40.
