data_PCOD9086040
_publ_section_title
;
Structure prediction by ZEFSAII (Michael W. Deem and Ramdas Pophale) SiO2 
 PCOD9086040
Probable space group: P -1
;
_chemical_formula_sum "Si O2"
_cell_formula_units_Z 14
_cell_length_a 9.367102
_cell_length_b 10.807859
_cell_length_c 7.746014
_cell_angle_alpha 106.112628
_cell_angle_beta 127.709488
_cell_angle_gamma 87.661337
_cell_volume 587.382411
_symmetry_space_group_name_H-M "P -1"
_symmetry_group_IT_number 2
_symmetry_cell_setting 'triclinic'
loop_
_space_group_symop_operation_xyz
x,y,z
-x,-y,-z
loop_
_atom_site_type_symbol
_atom_site_label
_atom_site_fract_x
_atom_site_fract_y
_atom_site_fract_z
Si Si1 0.908354 0.755213 0.944862
Si Si2 0.739681 0.559511 0.293277
Si Si3 0.038423 0.506340 0.252786
Si Si4 0.169187 0.800188 0.459316
Si Si5 0.578124 0.863062 0.820669
Si Si6 0.477435 0.714744 0.033729
Si Si7 0.834717 0.140557 0.119774
O O1 0.015722 0.823960 0.218644
O O2 0.996551 0.833043 0.873713
O O3 0.950235 0.606655 0.920566
O O4 0.693394 0.757312 0.791684
O O5 0.888202 0.565153 0.553807
O O6 0.639364 0.683840 0.261002
O O7 0.844590 0.542163 0.184577
O O8 0.594408 0.426844 0.159642
O O9 0.170736 0.644821 0.391369
O O10 0.376938 0.867763 0.599454
O O11 0.122964 0.832160 0.635397
O O12 0.543498 0.821667 0.978901
O O13 0.714540 0.998457 0.957912
O O14 0.300271 0.759524 0.001755
#
# Coordination Sequence:
#
# PCOD9086040 Si02
#       7
#     2   2   2   2   2   2   2
#     4  12  26  42  68 104 134 181 225 270 343 401
#     4  10  19  35  70  97 131 172 222 271 336 404
#     4  11  20  41  63  98 144 171 212 287 340 397
#     4  11  24  45  69  99 136 177 225 281 336 393
#     4  11  25  45  67  99 138 178 230 276 326 403
#     4  10  19  39  66 100 124 174 227 267 333 396
#     4  11  23  48  71  92 141 180 222 281 329 396
#
# _framework density 23.834555999999999
#
# number of rings (size 3 to 8) (size 9 to 14) (size 15 to 20)
#    0.000    1.143    4.286    4.286    0.000    2.857 
#    0.000    5.714    0.000    0.000    0.000    0.000 
#    0.000    0.000    0.000    0.000    0.000    0.000 
#
# Total GULP energy -78267.114814 kJ/mol
# GULP energy per Si atom -5590.508201 kJ/mol
# Density = 2.378031 g / cm^3
# Si number density = 23.834556 Si / 1000 Ang^3
#
#
#
# Elastic Constant Matrix: (Units=GPa)
#
#
# Indices 1 2 3 4 5 6 
#
# 1 89.8615 -12.1004 15.2469 -8.5548 3.3805 -3.2814
# 2 -12.1004 35.4573 -5.0389 7.9656 4.3104 2.0522
# 3 15.2469 -5.0389 71.2266 -2.0117 -3.7799 3.7552
# 4 -8.5548 7.9656 -2.0117 38.0418 -2.6034 17.5227
# 5 3.3805 4.3104 -3.7799 -2.6034 24.0458 3.6220
# 6 -3.2814 2.0522 3.7552 17.5227 3.6220 37.3594
#
#
#
# Elastic Compliance Matrix: (Units=1/GPa)
#
#
# Indices 1 2 3 4 5 6 
#
# 1 0.012332 0.003859 -0.002522 0.001271 -0.002805 0.000800
# 2 0.003859 0.032068 0.000686 -0.007607 -0.007428 0.002797
# 3 -0.002522 0.000686 0.014991 0.001602 0.003187 -0.002826
# 4 0.001271 -0.007607 0.001602 0.036990 0.008118 -0.017768
# 5 -0.002805 -0.007428 0.003187 0.008118 0.045962 -0.008422
# 6 0.000800 0.002797 -0.002826 -0.017768 -0.008422 0.036118
#
#
# Mechanical properties :
#
#
# Convention : Reuss Voigt Hill
#
# Bulk Modulus (GPa) = 15.76367 21.41785 18.59076
# Shear Modulus (GPa) = 25.56763 33.11859 29.34311
#
# Velocity S-wave (km/s) = 3.27878 3.73167 3.51253
# Velocity P-wave (km/s) = 4.57843 5.25097 4.92619
#
# Compressibility (1/GPa) = 0.06343701
#
# Stress axis : x y z
#
# Youngs Moduli (GPa) = 81.09313 31.18421 66.70459
#
# Poissons Ratio (x) = -0.12034 0.16822
# Poissons Ratio (y) = -0.31294 -0.04576
# Poissons Ratio (z) = 0.20450 -0.02139
#
# Static dielectric constant tensor:
#      x y z
#    x 1.945870 0.004610 -0.051380 
#    y 0.004610 1.956240 -0.025280 
#    z -0.051380 -0.025280 2.000770 
# 
# From -- ./inp_files/182873.got.cif
#   From: 2010.05.17/outbox.cif.g08.bks.cpg/sg2_92_cif.got.tgz:182873.got - 2010.06.03 11:33:40.
