data_PCOD9086269
_publ_section_title
;
Structure prediction by ZEFSAII (Michael W. Deem and Ramdas Pophale) SiO2 
 PCOD9086269
Probable space group: P -1
;
_chemical_formula_sum "Si O2"
_cell_formula_units_Z 14
_cell_length_a 10.701129
_cell_length_b 12.355989
_cell_length_c 8.727433
_cell_angle_alpha 141.726874
_cell_angle_beta 93.263542
_cell_angle_gamma 79.103003
_cell_volume 693.907112
_symmetry_space_group_name_H-M "P -1"
_symmetry_group_IT_number 2
_symmetry_cell_setting 'triclinic'
loop_
_space_group_symop_operation_xyz
x,y,z
-x,-y,-z
loop_
_atom_site_type_symbol
_atom_site_label
_atom_site_fract_x
_atom_site_fract_y
_atom_site_fract_z
Si Si1 0.653695 0.163869 0.399388
Si Si2 0.475950 0.301613 0.281669
Si Si3 0.356704 0.674022 0.103451
Si Si4 0.678428 0.021781 0.776122
Si Si5 0.646466 0.689224 0.204292
Si Si6 0.133589 0.040385 0.009687
Si Si7 0.750767 0.761399 0.988473
O O1 0.521063 0.228923 0.372276
O O2 0.670563 0.287204 0.676484
O O3 0.770985 0.134880 0.255341
O O4 0.667937 0.964278 0.243097
O O5 0.500000 0.500000 0.500000
O O6 0.567265 0.150883 0.013434
O O7 0.333150 0.315529 0.227104
O O8 0.278703 0.831611 0.167404
O O9 0.507497 0.683306 0.112656
O O10 0.331411 0.478212 0.862763
O O11 0.640916 0.873629 0.499024
O O12 0.788283 0.926943 0.797518
O O13 0.749841 0.668054 0.048699
O O14 0.131008 0.193681 0.049526
O O15 0.000000 0.000000 0.000000
#
# Coordination Sequence:
#
# PCOD9086269 Si02
#       7
#     2   2   2   2   2   2   2
#     4   9  20  34  57  82 120 147 193 239 281 351
#     4  11  21  31  52  88 122 153 184 231 297 353
#     4  11  21  34  57  91 126 154 184 223 299 367
#     4  11  21  38  59  85 122 149 196 241 286 355
#     4  11  22  34  57  89 128 157 178 229 296 365
#     4   9  22  40  63  81 105 161 210 247 287 326
#     4  10  19  36  57  82 118 153 191 237 287 346
#
# _framework density 20.175611
#
# number of rings (size 3 to 8) (size 9 to 14) (size 15 to 20)
#    0.857    0.857    2.857    2.571    4.000    0.000 
#    0.000    2.857    0.000   15.429    0.000    0.000 
#    0.000    0.000    0.000    0.000    0.000    0.000 
#
# Total GULP energy -77961.178466 kJ/mol
# GULP energy per Si atom -5568.655605 kJ/mol
# Density = 2.012969 g / cm^3
# Si number density = 20.175611 Si / 1000 Ang^3
#
#
#
# Elastic Constant Matrix: (Units=GPa)
#
#
# Indices 1 2 3 4 5 6 
#
# 1 76.9573 16.8250 18.6448 -9.0089 5.8015 33.7728
# 2 16.8250 104.1663 34.1613 2.0670 1.9138 27.1945
# 3 18.6448 34.1613 78.0272 11.2218 5.3343 17.3525
# 4 -9.0089 2.0670 11.2218 37.3052 11.2232 0.1349
# 5 5.8015 1.9138 5.3343 11.2232 12.0556 2.7533
# 6 33.7728 27.1945 17.3525 0.1349 2.7533 25.3851
#
#
#
# Elastic Compliance Matrix: (Units=1/GPa)
#
#
# Indices 1 2 3 4 5 6 
#
# 1 0.044382 0.010945 -0.001371 0.017926 -0.023795 -0.067349
# 2 0.010945 0.016777 -0.003702 0.003873 -0.003117 -0.029686
# 3 -0.001371 -0.003702 0.016759 -0.005108 -0.000128 -0.005625
# 4 0.017926 0.003873 -0.005108 0.046209 -0.045473 -0.019819
# 5 -0.023795 -0.003117 -0.000128 -0.045473 0.132499 0.020955
# 6 -0.067349 -0.029686 -0.005625 -0.019819 0.020955 0.162475
#
#
# Mechanical properties :
#
#
# Convention : Reuss Voigt Hill
#
# Bulk Modulus (GPa) = 11.15304 44.26813 27.71058
# Shear Modulus (GPa) = 11.43529 27.58385 19.50957
#
# Velocity S-wave (km/s) = 2.38331 3.70156 3.11302
# Velocity P-wave (km/s) = 3.62126 6.34490 5.16582
#
# Compressibility (1/GPa) = 0.08966163
#
# Stress axis : x y z
#
# Youngs Moduli (GPa) = 22.53167 59.60619 59.66970
#
# Poissons Ratio (x) = -0.65239 0.08178
# Poissons Ratio (y) = -0.24661 0.22092
# Poissons Ratio (z) = 0.03088 0.22069
#
# Static dielectric constant tensor:
#      x y z
#    x 1.731590 0.060320 -0.032290 
#    y 0.060320 1.820620 -0.005520 
#    z -0.032290 -0.005520 1.758730 
# 
# From -- ./inp_files/255564.got.cif
#   From: 2010.05.17/outbox.cif.g08.bks.cpg/sg2_128_cif.got.tgz:255564.got - 2010.06.03 11:33:40.
