data_PCOD9086588
_publ_section_title
;
Structure prediction by ZEFSAII (Michael W. Deem and Ramdas Pophale) SiO2 
 PCOD9086588
Probable space group: P -1
;
_chemical_formula_sum "Si O2"
_cell_formula_units_Z 16
_cell_length_a 7.192579
_cell_length_b 19.965433
_cell_length_c 20.895455
_cell_angle_alpha 21.174533
_cell_angle_beta 135.876560
_cell_angle_gamma 124.905633
_cell_volume 696.011980
_symmetry_space_group_name_H-M "P -1"
_symmetry_group_IT_number 2
_symmetry_cell_setting 'triclinic'
loop_
_space_group_symop_operation_xyz
x,y,z
-x,-y,-z
loop_
_atom_site_type_symbol
_atom_site_label
_atom_site_fract_x
_atom_site_fract_y
_atom_site_fract_z
Si Si1 0.776535 0.418875 0.594156
Si Si2 0.361223 0.650335 0.619457
Si Si3 0.914598 0.372249 0.290454
Si Si4 0.214283 0.182381 0.740122
Si Si5 0.646564 0.771400 0.018362
Si Si6 0.543786 0.790219 0.363867
Si Si7 0.451615 0.763087 0.837035
Si Si8 0.121690 0.209448 0.357774
O O1 0.500000 0.500000 0.500000
O O2 0.816083 0.620463 0.401980
O O3 0.725626 0.272245 0.660128
O O4 0.036255 0.295346 0.814738
O O5 0.227646 0.667485 0.643680
O O6 0.430206 0.423813 0.812777
O O7 0.653205 0.686730 0.668640
O O8 0.111867 0.802015 0.374506
O O9 0.217727 0.375557 0.386415
O O10 0.992201 0.212137 0.395288
O O11 0.693859 0.583524 0.019883
O O12 0.319236 0.213756 0.667881
O O13 0.500000 0.000000 0.000000
O O14 0.610078 0.785019 0.921272
O O15 0.492509 0.994145 0.809454
O O16 0.173418 0.703768 0.833333
O O17 0.309562 0.987961 0.575658
#
# Coordination Sequence:
#
# PCOD9086588 Si02
#       8
#     2   2   2   2   2   2   2   2
#     4   9  18  33  56  83 111 160 205 238 308 369
#     4   9  22  40  63  88 128 162 204 255 311 363
#     4  10  21  42  62  88 128 163 202 257 305 370
#     4   9  19  37  56  82 125 156 199 262 299 358
#     4  10  19  38  57  84 123 160 202 257 300 374
#     4  10  19  36  59  85 114 166 204 241 312 371
#     4  10  22  39  65  90 125 159 209 261 305 366
#     4  11  22  42  63  96 121 162 211 257 311 366
#
# _framework density 22.988111
#
# number of rings (size 3 to 8) (size 9 to 14) (size 15 to 20)
#    0.000    2.250    1.250    3.000    0.000    5.000 
#    9.000    3.750    0.000    0.000    0.000    0.000 
#    0.000    0.000    0.000    0.000    0.000    0.000 
#
# Total GULP energy -89082.968412 kJ/mol
# GULP energy per Si atom -5567.685526 kJ/mol
# Density = 2.293579 g / cm^3
# Si number density = 22.988111 Si / 1000 Ang^3
#
#
#
# Elastic Constant Matrix: (Units=GPa)
#
#
# Indices 1 2 3 4 5 6 
#
# 1 47.3219 32.5976 5.5261 -11.0677 4.0341 2.4164
# 2 32.5976 152.1466 38.5121 -11.0772 10.1183 18.7316
# 3 5.5261 38.5121 109.2646 7.9369 22.5949 8.5152
# 4 -11.0677 -11.0772 7.9369 37.6539 -2.4589 6.8406
# 5 4.0341 10.1183 22.5949 -2.4589 15.0505 5.2348
# 6 2.4164 18.7316 8.5152 6.8406 5.2348 39.4760
#
#
#
# Elastic Compliance Matrix: (Units=1/GPa)
#
#
# Indices 1 2 3 4 5 6 
#
# 1 0.026277 -0.005203 0.000914 0.005696 -0.004062 0.000215
# 2 -0.005203 0.009059 -0.003218 0.002671 0.001966 -0.004010
# 3 0.000914 -0.003218 0.015141 -0.005736 -0.022510 0.002184
# 4 0.005696 0.002671 -0.005736 0.032508 0.013305 -0.007776
# 5 -0.004062 0.001966 -0.022510 0.013305 0.106437 -0.012249
# 6 0.000215 -0.004010 0.002184 -0.007776 -0.012249 0.029722
#
#
# Mechanical properties :
#
#
# Convention : Reuss Voigt Hill
#
# Bulk Modulus (GPa) = 28.19752 51.33386 39.76569
# Shear Modulus (GPa) = 20.32694 33.90924 27.11809
#
# Velocity S-wave (km/s) = 2.97684 3.84484 3.43834
# Velocity P-wave (km/s) = 4.91001 6.48764 5.75316
#
# Compressibility (1/GPa) = 0.03546411
#
# Stress axis : x y z
#
# Youngs Moduli (GPa) = 38.05681 110.38443 66.04401
#
# Poissons Ratio (x) = 0.57431 -0.06039
# Poissons Ratio (y) = 0.19800 0.21254
# Poissons Ratio (z) = -0.03480 0.35523
#
# Static dielectric constant tensor:
#      x y z
#    x 1.911280 0.035170 -0.004130 
#    y 0.035170 1.916700 0.001240 
#    z -0.004130 0.001240 1.991590 
# 
# From -- ./inp_files/608562.got.cif
#   From: 2010.05.17/outbox.cif.g08.bks.cpg/sg2_305_cif.got.tgz:608562.got - 2010.06.03 11:33:40.
