data_PCOD9086463
_publ_section_title
;
Structure prediction by ZEFSAII (Michael W. Deem and Ramdas Pophale) SiO2 
 PCOD9086463
Probable space group: P -1
;
_chemical_formula_sum "Si O2"
_cell_formula_units_Z 12
_cell_length_a 16.689707
_cell_length_b 5.395960
_cell_length_c 9.492011
_cell_angle_alpha 54.030389
_cell_angle_beta 135.577308
_cell_angle_gamma 102.963138
_cell_volume 454.600093
_symmetry_space_group_name_H-M "P -1"
_symmetry_group_IT_number 2
_symmetry_cell_setting 'triclinic'
loop_
_space_group_symop_operation_xyz
x,y,z
-x,-y,-z
loop_
_atom_site_type_symbol
_atom_site_label
_atom_site_fract_x
_atom_site_fract_y
_atom_site_fract_z
Si Si1 0.091511 0.744761 0.404760
Si Si2 0.105852 0.639979 0.125864
Si Si3 0.381784 0.823892 0.043660
Si Si4 0.748040 0.688081 0.036464
Si Si5 0.690650 0.961418 0.420106
Si Si6 0.413615 0.802605 0.507846
O O1 0.111670 0.619017 0.310601
O O2 0.126138 0.499867 0.662177
O O3 0.196342 0.906838 0.496698
O O4 0.955429 0.005229 0.138658
O O5 0.237665 0.408904 0.317773
O O6 0.000000 0.500000 0.000000
O O7 0.516175 0.565814 0.329270
O O8 0.299631 0.589587 0.997616
O O9 0.333885 0.097289 0.010408
O O10 0.370444 0.999358 0.821201
O O11 0.720041 0.973752 0.789213
O O12 0.598952 0.178913 0.346739
O O13 0.500000 0.000000 0.500000
#
# Coordination Sequence:
#
# PCOD9086463 Si02
#       6
#     2   2   2   2   2   2
#     4   9  18  34  58  88 109 148 191 241 290 341
#     4   9  17  33  60  84 111 140 194 243 289 338
#     4  10  20  38  58  84 113 158 200 237 278 341
#     4  10  20  38  58  85 118 154 189 241 293 341
#     4  10  19  36  58  87 114 153 197 239 278 345
#     4  10  22  39  55  84 121 158 191 235 290 339
#
# _framework density 26.396826999999998
#
# number of rings (size 3 to 8) (size 9 to 14) (size 15 to 20)
#    0.000    2.333    1.667    1.000    0.000    0.000 
#   12.000    5.833    0.000    9.000    0.000    0.000 
#    0.000    0.000    0.000    0.000    0.000    0.000 
#
# Total GULP energy -67076.598671 kJ/mol
# GULP energy per Si atom -5589.716556 kJ/mol
# Density = 2.633675 g / cm^3
# Si number density = 26.396827 Si / 1000 Ang^3
#
#
#
# Elastic Constant Matrix: (Units=GPa)
#
#
# Indices 1 2 3 4 5 6 
#
# 1 36.1418 21.5433 10.5822 -1.4865 10.1820 15.3505
# 2 21.5433 82.4268 28.1680 10.4143 6.9216 4.9047
# 3 10.5822 28.1680 167.3864 9.6654 18.2715 8.3129
# 4 -1.4865 10.4143 9.6654 49.0368 -5.9459 -1.6908
# 5 10.1820 6.9216 18.2715 -5.9459 54.8618 5.6989
# 6 15.3505 4.9047 8.3129 -1.6908 5.6989 36.8000
#
#
#
# Elastic Compliance Matrix: (Units=1/GPa)
#
#
# Indices 1 2 3 4 5 6 
#
# 1 0.041326 -0.009849 0.000179 0.002221 -0.004673 -0.015140
# 2 -0.009849 0.015635 -0.001932 -0.003169 -0.000087 0.002329
# 3 0.000179 -0.001932 0.006628 -0.001171 -0.002014 -0.001056
# 4 0.002221 -0.003169 -0.001171 0.021702 0.002694 0.000341
# 5 -0.004673 -0.000087 -0.002014 0.002694 0.020129 -0.000577
# 6 -0.015140 0.002329 -0.001056 0.000341 -0.000577 0.033523
#
#
# Mechanical properties :
#
#
# Convention : Reuss Voigt Hill
#
# Bulk Modulus (GPa) = 24.76206 45.17134 34.96670
# Shear Modulus (GPa) = 28.47234 43.18382 35.82808
#
# Velocity S-wave (km/s) = 3.28781 4.04907 3.68813
# Velocity P-wave (km/s) = 4.87996 6.24576 5.60462
#
# Compressibility (1/GPa) = 0.04038436
#
# Stress axis : x y z
#
# Youngs Moduli (GPa) = 24.19796 63.95744 150.87682
#
# Poissons Ratio (x) = 0.62994 -0.02696
# Poissons Ratio (y) = 0.23833 0.29145
# Poissons Ratio (z) = -0.00432 0.12355
#
# Static dielectric constant tensor:
#      x y z
#    x 2.037530 0.081460 0.001760 
#    y 0.081460 2.115750 -0.055820 
#    z 0.001760 -0.055820 2.107180 
# 
# From -- ./inp_files/88521.got.cif
#   From: 2010.05.17/outbox.cif.g08.bks.cpg/sg2_45_cif.got.tgz:88521.got - 2010.06.03 11:33:40.
