data_PCOD9086669
_publ_section_title
;
Structure prediction by ZEFSAII (Michael W. Deem and Ramdas Pophale) SiO2 
 PCOD9086669
Probable space group: P -1
;
_chemical_formula_sum "Si O2"
_cell_formula_units_Z 16
_cell_length_a 10.886598
_cell_length_b 11.397994
_cell_length_c 14.176386
_cell_angle_alpha 121.417979
_cell_angle_beta 137.716090
_cell_angle_gamma 90.077677
_cell_volume 746.084386
_symmetry_space_group_name_H-M "P -1"
_symmetry_group_IT_number 2
_symmetry_cell_setting 'triclinic'
loop_
_space_group_symop_operation_xyz
x,y,z
-x,-y,-z
loop_
_atom_site_type_symbol
_atom_site_label
_atom_site_fract_x
_atom_site_fract_y
_atom_site_fract_z
Si Si1 0.873890 0.124269 0.572439
Si Si2 0.664373 0.742640 0.230148
Si Si3 0.908541 0.373055 0.025068
Si Si4 0.570902 0.674486 0.807096
Si Si5 0.859588 0.401827 0.573951
Si Si6 0.285738 0.503660 0.758617
Si Si7 0.133393 0.928043 0.234184
Si Si8 0.596427 0.361307 0.698277
O O1 0.821996 0.242691 0.544457
O O2 0.874881 0.133898 0.689427
O O3 0.131078 0.195407 0.706652
O O4 0.688591 0.911480 0.345187
O O5 0.722022 0.667102 0.317191
O O6 0.410249 0.590807 0.968015
O O7 0.973895 0.414261 0.189116
O O8 0.169412 0.546627 0.197582
O O9 0.837775 0.186395 0.867767
O O10 0.706498 0.376370 0.870051
O O11 0.394570 0.657185 0.624515
O O12 0.456904 0.648811 0.834616
O O13 0.547158 0.497206 0.714279
O O14 0.860362 0.854105 0.034373
O O15 0.018659 0.435923 0.587577
O O16 0.360479 0.148631 0.450895
#
# Coordination Sequence:
#
# PCOD9086669 Si02
#       8
#     2   2   2   2   2   2   2   2
#     4  10  19  36  59  93 119 152 204 259 299 352
#     4   9  19  33  63  92 115 151 209 255 300 354
#     4  10  23  42  63  94 120 158 209 257 304 357
#     4  11  23  42  61  91 129 165 201 244 311 372
#     4  11  24  40  59  86 132 169 198 247 303 369
#     4  10  20  38  62  89 122 162 200 252 308 356
#     4  11  22  40  69  91 123 157 206 262 304 358
#     4  10  22  41  68  92 118 158 206 262 305 358
#
# _framework density 21.445295999999999
#
# number of rings (size 3 to 8) (size 9 to 14) (size 15 to 20)
#    0.000    1.750    1.250    3.750    5.250    2.000 
#    2.250    1.875    0.000    0.000    0.000    0.000 
#    0.000    0.000    0.000    0.000    0.000    0.000 
#
# Total GULP energy -89408.307583 kJ/mol
# GULP energy per Si atom -5588.019224 kJ/mol
# Density = 2.139649 g / cm^3
# Si number density = 21.445296 Si / 1000 Ang^3
#
#
#
# Elastic Constant Matrix: (Units=GPa)
#
#
# Indices 1 2 3 4 5 6 
#
# 1 68.1384 31.4673 32.3413 -4.2680 4.4489 -14.3368
# 2 31.4673 55.9978 66.2615 -8.6891 4.9532 -18.0972
# 3 32.3413 66.2615 135.2243 3.9092 11.4019 -24.8056
# 4 -4.2680 -8.6891 3.9092 38.4066 0.0416 10.2806
# 5 4.4489 4.9532 11.4019 0.0416 38.1764 -0.8876
# 6 -14.3368 -18.0972 -24.8056 10.2806 -0.8876 25.0200
#
#
#
# Elastic Compliance Matrix: (Units=1/GPa)
#
#
# Indices 1 2 3 4 5 6 
#
# 1 0.020690 -0.013435 0.002952 -0.002676 -0.001405 0.006115
# 2 -0.013435 0.058473 -0.025163 0.013143 0.001580 0.004304
# 3 0.002952 -0.025163 0.021087 -0.009724 -0.003174 0.008280
# 4 -0.002676 0.013143 -0.009724 0.033862 0.001113 -0.015542
# 5 -0.001405 0.001580 -0.003174 0.001113 0.027046 -0.002306
# 6 0.006115 0.004304 0.008280 -0.015542 -0.002306 0.061098
#
#
# Mechanical properties :
#
#
# Convention : Reuss Voigt Hill
#
# Bulk Modulus (GPa) = 34.53157 57.72232 46.12695
# Shear Modulus (GPa) = 16.49081 28.93998 22.71539
#
# Velocity S-wave (km/s) = 2.77604 3.67751 3.25810
# Velocity P-wave (km/s) = 5.13929 6.70870 5.97574
#
# Compressibility (1/GPa) = 0.02895900
#
# Stress axis : x y z
#
# Youngs Moduli (GPa) = 48.33326 17.10193 47.42291
#
# Poissons Ratio (x) = 0.22976 -0.14001
# Poissons Ratio (y) = 0.64933 1.19330
# Poissons Ratio (z) = -0.14269 0.43034
#
# Static dielectric constant tensor:
#      x y z
#    x 1.868420 0.009500 0.014460 
#    y 0.009500 1.764670 0.028950 
#    z 0.014460 0.028950 1.786920 
# 
# From -- ./inp_files/519865.got.cif
#   From: 2010.05.17/outbox.cif.g08.bks.cpg/sg2_260_cif.got.tgz:519865.got - 2010.06.03 11:33:40.
