data_PCOD9086133
_publ_section_title
;
Structure prediction by ZEFSAII (Michael W. Deem and Ramdas Pophale) SiO2 
 PCOD9086133
Probable space group: P -1
;
_chemical_formula_sum "Si O2"
_cell_formula_units_Z 16
_cell_length_a 8.566654
_cell_length_b 9.939906
_cell_length_c 13.183677
_cell_angle_alpha 86.750259
_cell_angle_beta 116.219011
_cell_angle_gamma 138.319636
_cell_volume 595.300090
_symmetry_space_group_name_H-M "P -1"
_symmetry_group_IT_number 2
_symmetry_cell_setting 'triclinic'
loop_
_space_group_symop_operation_xyz
x,y,z
-x,-y,-z
loop_
_atom_site_type_symbol
_atom_site_label
_atom_site_fract_x
_atom_site_fract_y
_atom_site_fract_z
Si Si1 0.939485 0.008985 0.309579
Si Si2 0.856078 0.239177 0.473326
Si Si3 0.580093 0.033895 0.179848
Si Si4 0.554446 0.772003 0.948297
Si Si5 0.968372 0.326340 0.855659
Si Si6 0.672833 0.668508 0.404526
Si Si7 0.350681 0.711133 0.407988
Si Si8 0.807008 0.914056 0.810979
O O1 0.712837 0.758179 0.300138
O O2 0.204342 0.134356 0.306749
O O3 0.773844 0.028050 0.209139
O O4 0.086025 0.147426 0.448665
O O5 0.728665 0.174325 0.324595
O O6 0.777109 0.317406 0.519125
O O7 0.194960 0.400633 0.570636
O O8 0.654689 0.987347 0.469753
O O9 0.550139 0.139550 0.092628
O O10 0.250691 0.771863 0.113374
O O11 0.315929 0.546162 0.955516
O O12 0.886238 0.959827 0.069906
O O13 0.570864 0.734611 0.836650
O O14 0.872245 0.359497 0.733137
O O15 0.869131 0.111374 0.818208
O O16 0.408316 0.592754 0.386927
#
# Coordination Sequence:
#
# PCOD9086133 Si02
#       8
#     2   2   2   2   2   2   2   2
#     4  10  17  33  56  86 110 146 189 227 283 341
#     4   9  16  27  49  83 113 146 187 222 275 342
#     4   9  19  35  57  80 113 148 183 233 282 331
#     4  10  22  39  55  82 112 145 192 237 277 338
#     4  10  19  36  57  82 111 143 188 239 277 335
#     4  10  16  29  53  89 113 141 191 232 273 348
#     4  10  16  26  54  83 107 148 184 224 280 337
#     4  10  22  37  61  79 108 152 186 235 288 332
#
# _framework density 26.877199999999998
#
# number of rings (size 3 to 8) (size 9 to 14) (size 15 to 20)
#    0.000    2.250    5.000    1.125    5.250    0.500 
#    0.000    2.500    0.000    1.500    0.000    0.000 
#    0.000    0.000    0.000    0.000    0.000    0.000 
#
# Total GULP energy -89272.200981 kJ/mol
# GULP energy per Si atom -5579.512561 kJ/mol
# Density = 2.681603 g / cm^3
# Si number density = 26.877200 Si / 1000 Ang^3
#
#
#
# Elastic Constant Matrix: (Units=GPa)
#
#
# Indices 1 2 3 4 5 6 
#
# 1 138.6143 57.6643 42.1303 -57.6590 -9.0000 -3.8069
# 2 57.6643 75.7798 16.9599 33.1839 16.8067 27.4049
# 3 42.1303 16.9599 63.5636 -12.1969 19.7157 -7.8439
# 4 -57.6590 33.1839 -12.1969 -44.8022 -43.5460 -21.9565
# 5 -9.0000 16.8067 19.7157 -43.5460 29.4566 -35.3348
# 6 -3.8069 27.4049 -7.8439 -21.9565 -35.3348 25.2849
#
#
#
# Elastic Compliance Matrix: (Units=1/GPa)
#
#
# Indices 1 2 3 4 5 6 
#
# 1 0.007888 -0.000718 -0.004747 -0.001370 -0.004634 -0.007174
# 2 -0.000718 0.010996 -0.002418 0.007056 0.003579 -0.001648
# 3 -0.004747 -0.002418 0.022667 0.003646 -0.006898 0.002463
# 4 -0.001370 0.007056 0.003646 0.010457 -0.016861 -0.021205
# 5 -0.004634 0.003579 -0.006898 -0.016861 0.022827 0.010542
# 6 -0.007174 -0.001648 0.002463 -0.021205 0.010542 0.037339
#
#
# Mechanical properties :
#
#
# Convention : Reuss Voigt Hill
#
# Bulk Modulus (GPa) = 38.78170 56.82964 47.80567
# Shear Modulus (GPa) = 36.62064 12.73475 24.67770
#
# Velocity S-wave (km/s) = 3.69523 2.17909 3.03341
# Velocity P-wave (km/s) = 5.71549 5.24607 5.48581
#
# Compressibility (1/GPa) = 0.02578536
#
# Stress axis : x y z
#
# Youngs Moduli (GPa) = 126.77934 90.94238 44.11671
#
# Poissons Ratio (x) = 0.06525 0.20944
# Poissons Ratio (y) = 0.09097 0.10667
# Poissons Ratio (z) = 0.60187 0.21988
#
# Static dielectric constant tensor:
#      x y z
#    x 2.258780 -0.009170 -0.012390 
#    y -0.009170 2.187950 0.067680 
#    z -0.012390 0.067680 2.150130 
# 
# From -- ./inp_files/500364.got.cif
#   From: 2010.05.17/outbox.cif.g08.bks.cpg/sg2_251_cif.got.tgz:500364.got - 2010.06.03 11:33:40.
