data_PCOD9086116
_publ_section_title
;
Structure prediction by ZEFSAII (Michael W. Deem and Ramdas Pophale) SiO2 
 PCOD9086116
Probable space group: P -1
;
_chemical_formula_sum "Si O2"
_cell_formula_units_Z 16
_cell_length_a 12.490674
_cell_length_b 5.259528
_cell_length_c 12.640891
_cell_angle_alpha 101.660443
_cell_angle_beta 120.800130
_cell_angle_gamma 61.581706
_cell_volume 626.409322
_symmetry_space_group_name_H-M "P -1"
_symmetry_group_IT_number 2
_symmetry_cell_setting 'triclinic'
loop_
_space_group_symop_operation_xyz
x,y,z
-x,-y,-z
loop_
_atom_site_type_symbol
_atom_site_label
_atom_site_fract_x
_atom_site_fract_y
_atom_site_fract_z
Si Si1 0.224724 0.676394 0.679879
Si Si2 0.870622 0.749891 0.396364
Si Si3 0.680658 0.880584 0.909278
Si Si4 0.031232 0.093200 0.267027
Si Si5 0.327055 0.979707 0.451139
Si Si6 0.056354 0.355916 0.827474
Si Si7 0.477720 0.449803 0.106067
Si Si8 0.612704 0.638105 0.650699
O O1 0.246924 0.352118 0.642193
O O2 0.369926 0.673222 0.777866
O O3 0.112916 0.780339 0.728275
O O4 0.156562 0.919550 0.576529
O O5 0.894486 0.710824 0.277014
O O6 0.000000 0.500000 0.500000
O O7 0.586857 0.773156 0.925533
O O8 0.686650 0.709630 0.791089
O O9 0.617252 0.220489 0.877597
O O10 0.820513 0.790687 0.039562
O O11 0.006247 0.298998 0.171164
O O12 0.162324 0.096370 0.393506
O O13 0.053240 0.773376 0.224721
O O14 0.445094 0.833949 0.587411
O O15 0.360166 0.693437 0.371545
O O16 0.348139 0.234253 0.424118
O O17 0.500000 0.500000 0.000000
#
# Coordination Sequence:
#
# PCOD9086116 Si02
#       8
#     2   2   2   2   2   2   2   2
#     4  10  21  37  55  90 123 163 217 255 310 371
#     4  10  19  36  55  77 117 169 208 252 308 355
#     4  12  24  43  66  95 134 171 225 269 322 381
#     4  10  20  39  64  91 125 168 204 265 326 384
#     4  10  21  44  72  92 130 160 217 264 345 391
#     4  10  21  38  59  89 127 166 208 263 319 375
#     4  12  23  40  64  91 131 183 219 258 317 379
#     4  10  23  43  69  99 121 169 211 279 322 395
#
# _framework density 25.542403
#
# number of rings (size 3 to 8) (size 9 to 14) (size 15 to 20)
#    0.000    1.500    0.000    6.750    0.000    0.000 
#   13.500    3.750    0.000    0.000    0.000    0.000 
#    0.000    0.000    0.000    0.000    0.000    0.000 
#
# Total GULP energy -89441.495016 kJ/mol
# GULP energy per Si atom -5590.093438 kJ/mol
# Density = 2.548427 g / cm^3
# Si number density = 25.542403 Si / 1000 Ang^3
#
#
#
# Elastic Constant Matrix: (Units=GPa)
#
#
# Indices 1 2 3 4 5 6 
#
# 1 68.8794 28.7463 29.1013 -11.6180 20.6788 20.4428
# 2 28.7463 137.9801 -0.4341 -14.8816 -3.1506 27.5562
# 3 29.1013 -0.4341 103.1577 -14.2964 14.6925 -6.6695
# 4 -11.6180 -14.8816 -14.2964 40.0787 0.3723 2.2046
# 5 20.6788 -3.1506 14.6925 0.3723 37.7399 6.8052
# 6 20.4428 27.5562 -6.6695 2.2046 6.8052 54.3406
#
#
#
# Elastic Compliance Matrix: (Units=1/GPa)
#
#
# Indices 1 2 3 4 5 6 
#
# 1 0.023927 -0.003412 -0.005155 0.004299 -0.010205 -0.006800
# 2 -0.003412 0.009075 0.000725 0.002816 0.002988 -0.003718
# 3 -0.005155 0.000725 0.012117 0.002941 -0.002447 0.003246
# 4 0.004299 0.002816 0.002941 0.028510 -0.002920 -0.003475
# 5 -0.010205 0.002988 -0.002447 -0.002920 0.033694 -0.002077
# 6 -0.006800 -0.003718 0.003246 -0.003475 -0.002077 0.023645
#
#
# Mechanical properties :
#
#
# Convention : Reuss Voigt Hill
#
# Bulk Modulus (GPa) = 33.97282 47.20491 40.58887
# Shear Modulus (GPa) = 31.95622 43.27209 37.61416
#
# Velocity S-wave (km/s) = 3.54093 4.12044 3.84163
# Velocity P-wave (km/s) = 5.48152 6.41549 5.96681
#
# Compressibility (1/GPa) = 0.02943530
#
# Stress axis : x y z
#
# Youngs Moduli (GPa) = 41.79370 110.19284 82.52821
#
# Poissons Ratio (x) = 0.37602 0.42541
# Poissons Ratio (y) = 0.14262 -0.05985
# Poissons Ratio (z) = 0.21543 -0.07991
#
# Static dielectric constant tensor:
#      x y z
#    x 2.062670 -0.028260 -0.252670 
#    y -0.028260 2.099880 0.454580 
#    z -0.252670 0.454580 1.468320 
# 
# From -- ./inp_files/525869.got.cif
#   From: 2010.05.17/outbox.cif.g08.bks.cpg/sg2_263_cif.got.tgz:525869.got - 2010.06.03 11:33:40.
