data_PCOD9086700
_publ_section_title
;
Structure prediction by ZEFSAII (Michael W. Deem and Ramdas Pophale) SiO2 
 PCOD9086700
Probable space group: P -1
;
_chemical_formula_sum "Si O2"
_cell_formula_units_Z 12
_cell_length_a 16.868669
_cell_length_b 5.134823
_cell_length_c 8.462330
_cell_angle_alpha 90.013299
_cell_angle_beta 43.878070
_cell_angle_gamma 83.906407
_cell_volume 502.039689
_symmetry_space_group_name_H-M "P -1"
_symmetry_group_IT_number 2
_symmetry_cell_setting 'triclinic'
loop_
_space_group_symop_operation_xyz
x,y,z
-x,-y,-z
loop_
_atom_site_type_symbol
_atom_site_label
_atom_site_fract_x
_atom_site_fract_y
_atom_site_fract_z
Si Si1 0.481802 0.032330 0.711055
Si Si2 0.250651 0.830596 0.999950
Si Si3 0.803573 0.385023 0.246555
Si Si4 0.926203 0.847968 0.969809
Si Si5 0.061575 0.726076 0.485242
Si Si6 0.429039 0.494327 0.263621
O O1 0.357469 0.948196 0.916717
O O2 0.565553 0.806111 0.684984
O O3 0.500000 0.000000 0.500000
O O4 0.502781 0.322113 0.725550
O O5 0.265303 0.638527 0.823768
O O6 0.189312 0.697577 0.229477
O O7 0.166402 0.075879 0.042728
O O8 0.706496 0.384625 0.519949
O O9 0.868741 0.636791 0.151047
O O10 0.905441 0.133667 0.083906
O O11 0.039427 0.739017 0.703985
O O12 0.000000 0.500000 0.500000
O O13 0.000000 0.000000 0.500000
O O14 0.500000 0.500000 0.000000
#
# Coordination Sequence:
#
# PCOD9086700 Si02
#       6
#     2   2   2   2   2   2
#     4  12  23  38  63  85 113 150 196 245 283 331
#     4   9  20  28  53  81 111 136 184 229 286 316
#     4  10  18  32  52  74 106 141 188 219 273 328
#     4   9  17  29  48  80 112 137 173 228 287 326
#     4  10  16  27  45  76 119 136 165 225 296 325
#     4  12  26  41  56  83 119 157 193 233 289 348
#
# _framework density 23.902491999999999
#
# number of rings (size 3 to 8) (size 9 to 14) (size 15 to 20)
#    1.000    0.667    3.333    3.000    2.333    0.000 
#    0.000    0.000    0.000    0.000    0.000    7.000 
#    0.000    0.000    0.000    0.000    0.000    0.000 
#
# Total GULP energy -66969.681572 kJ/mol
# GULP energy per Si atom -5580.806798 kJ/mol
# Density = 2.384809 g / cm^3
# Si number density = 23.902492 Si / 1000 Ang^3
#
#
#
# Elastic Constant Matrix: (Units=GPa)
#
#
# Indices 1 2 3 4 5 6 
#
# 1 -139.3124 -104.8364 -47.8619 -19.3706 136.9790 -41.2044
# 2 -104.8364 39.8446 -14.9018 -32.3592 87.2675 -14.0941
# 3 -47.8619 -14.9018 174.5726 -25.3527 63.9288 -5.7933
# 4 -19.3706 -32.3592 -25.3527 34.8141 26.9781 -10.6493
# 5 136.9790 87.2675 63.9288 26.9781 -47.3301 37.7527
# 6 -41.2044 -14.0941 -5.7933 -10.6493 37.7527 25.8031
#
#
#
# Elastic Compliance Matrix: (Units=1/GPa)
#
#
# Indices 1 2 3 4 5 6 
#
# 1 0.012367 -0.005079 -0.003101 -0.010853 0.011750 -0.005393
# 2 -0.005079 0.009787 -0.000711 0.003496 0.001476 -0.003641
# 3 -0.003101 -0.000711 0.005748 0.002756 -0.001511 -0.000702
# 4 -0.010853 0.003496 0.002756 0.030454 -0.002614 0.001591
# 5 0.011750 0.001476 -0.001511 -0.002614 0.012251 0.000227
# 6 -0.005393 -0.003641 -0.000702 0.001591 0.000227 0.028321
#
#
# Mechanical properties :
#
#
# Convention : Reuss Voigt Hill
#
# Bulk Modulus (GPa) = 98.80529 -28.89949 34.95290
# Shear Modulus (GPa) = 41.63826 18.83774 30.23800
#
# Velocity S-wave (km/s) = 4.17826 2.81037 3.56062
# Velocity P-wave (km/s) = 8.04386 1.25933 5.61773
#
# Compressibility (1/GPa) = 0.01012092
#
# Stress axis : x y z
#
# Youngs Moduli (GPa) = 80.86151 102.17463 173.98470
#
# Poissons Ratio (x) = 0.51890 0.53954
# Poissons Ratio (y) = 0.41066 0.12365
# Poissons Ratio (z) = 0.25076 0.07261
#
# Static dielectric constant tensor:
#      x y z
#    x 2.102750 -0.016630 -0.081520 
#    y -0.016630 1.841610 0.067870 
#    z -0.081520 0.067870 1.981880 
# 
# From -- ./inp_files/323639.got.cif
#   From: 2010.05.17/outbox.cif.g08.bks.cpg/sg2_162_cif.got.tgz:323639.got - 2010.06.03 11:33:40.
