data_PCOD9086796
_publ_section_title
;
Structure prediction by ZEFSAII (Michael W. Deem and Ramdas Pophale) SiO2 
 PCOD9086796
Probable space group: P -1
;
_chemical_formula_sum "Si O2"
_cell_formula_units_Z 16
_cell_length_a 8.853589
_cell_length_b 13.828480
_cell_length_c 15.788215
_cell_angle_alpha 70.914532
_cell_angle_beta 107.630702
_cell_angle_gamma 47.511072
_cell_volume 888.607574
_symmetry_space_group_name_H-M "P -1"
_symmetry_group_IT_number 2
_symmetry_cell_setting 'triclinic'
loop_
_space_group_symop_operation_xyz
x,y,z
-x,-y,-z
loop_
_atom_site_type_symbol
_atom_site_label
_atom_site_fract_x
_atom_site_fract_y
_atom_site_fract_z
Si Si1 0.692842 0.286787 0.592687
Si Si2 0.189506 0.253119 0.134629
Si Si3 0.121582 0.002446 0.593633
Si Si4 0.856119 0.684629 0.176353
Si Si5 0.678965 0.002304 0.134694
Si Si6 0.743843 0.560671 0.844557
Si Si7 0.169262 0.404440 0.466871
Si Si8 0.553236 0.968550 0.418237
O O1 0.500000 0.500000 0.500000
O O2 0.455906 0.324216 0.549165
O O3 0.855322 0.182287 0.560033
O O4 0.992036 0.125797 0.752790
O O5 0.121220 0.399987 0.126143
O O6 0.481523 0.099953 0.161464
O O7 0.262484 0.135242 0.256178
O O8 0.900918 0.395116 0.983286
O O9 0.273391 0.022239 0.578899
O O10 0.387969 0.780979 0.740486
O O11 0.000000 0.000000 0.500000
O O12 0.770796 0.840371 0.159684
O O13 0.149758 0.527493 0.206570
O O14 0.955915 0.558297 0.307549
O O15 0.563004 0.817836 0.027540
O O16 0.271909 0.232188 0.515716
O O17 0.000000 0.500000 0.500000
O O18 0.500000 0.000000 0.500000
#
# Coordination Sequence:
#
# PCOD9086796 Si02
#       8
#     2   2   2   2   2   2   2   2
#     4  12  22  39  62  88 117 155 207 252 290 341
#     4   9  17  34  57  83 114 150 194 238 285 342
#     4  11  22  38  61  90 116 151 203 251 287 343
#     4  10  20  35  59  90 118 155 198 244 296 346
#     4  10  19  36  60  88 116 151 207 256 279 338
#     4   9  17  32  58  89 108 143 197 246 278 335
#     4  12  24  39  60  86 120 160 193 242 311 366
#     4  11  21  36  56  87 122 153 185 233 302 358
#
# _framework density 18.005697999999999
#
# number of rings (size 3 to 8) (size 9 to 14) (size 15 to 20)
#    0.000    1.500    3.750    4.500    0.000    0.000 
#    0.000    0.625    2.750    1.500    0.000    0.000 
#    0.000    0.000    0.000    0.000    0.000    0.000 
#
# Total GULP energy -89089.859790 kJ/mol
# GULP energy per Si atom -5568.116237 kJ/mol
# Density = 1.796472 g / cm^3
# Si number density = 18.005698 Si / 1000 Ang^3
#
#
#
# Elastic Constant Matrix: (Units=GPa)
#
#
# Indices 1 2 3 4 5 6 
#
# 1 64.9614 34.8838 42.6349 -0.9356 1.7323 -2.0470
# 2 34.8838 162.7056 54.9457 -0.1996 -12.4153 -1.3422
# 3 42.6349 54.9457 154.0886 6.8486 -18.8771 -3.9266
# 4 -0.9356 -0.1996 6.8486 34.8085 -1.6986 -3.5550
# 5 1.7323 -12.4153 -18.8771 -1.6986 32.5799 0.3552
# 6 -2.0470 -1.3422 -3.9266 -3.5550 0.3552 32.1065
#
#
#
# Elastic Compliance Matrix: (Units=1/GPa)
#
#
# Indices 1 2 3 4 5 6 
#
# 1 0.020712 -0.003033 -0.005341 0.001409 -0.005286 0.000755
# 2 -0.003033 0.007495 -0.001593 0.000372 0.002115 -0.000057
# 3 -0.005341 -0.001593 0.009226 -0.001678 0.004930 0.000481
# 4 0.001409 0.000372 -0.001678 0.029450 0.000596 0.003154
# 5 -0.005286 0.002115 0.004930 0.000596 0.034668 0.000037
# 6 0.000755 -0.000057 0.000481 0.003154 0.000037 0.031600
#
#
# Mechanical properties :
#
#
# Convention : Reuss Voigt Hill
#
# Bulk Modulus (GPa) = 57.13453 71.85383 64.49418
# Shear Modulus (GPa) = 31.46293 36.51840 33.99066
#
# Velocity S-wave (km/s) = 4.18471 4.50839 4.34956
# Velocity P-wave (km/s) = 7.42626 8.19107 7.81802
#
# Compressibility (1/GPa) = 0.01750255
#
# Stress axis : x y z
#
# Youngs Moduli (GPa) = 48.28038 133.41476 108.38750
#
# Poissons Ratio (x) = 0.40459 0.57885
# Poissons Ratio (y) = 0.14641 0.17262
# Poissons Ratio (z) = 0.25784 0.21247
#
# Static dielectric constant tensor:
#      x y z
#    x 1.618500 0.008200 0.062730 
#    y 0.008200 1.611390 0.015900 
#    z 0.062730 0.015900 1.740870 
# 
# From -- ./inp_files/504097.got.cif
#   From: 2010.05.17/outbox.cif.g08.bks.cpg/sg2_253_cif.got.tgz:504097.got - 2010.06.03 11:33:40.
