data_PCOD9086344
_publ_section_title
;
Structure prediction by ZEFSAII (Michael W. Deem and Ramdas Pophale) SiO2 
 PCOD9086344
Probable space group: P -1
;
_chemical_formula_sum "Si O2"
_cell_formula_units_Z 16
_cell_length_a 27.101881
_cell_length_b 12.813524
_cell_length_c 7.030409
_cell_angle_alpha 45.997392
_cell_angle_beta 45.705902
_cell_angle_gamma 28.504826
_cell_volume 810.178483
_symmetry_space_group_name_H-M "P -1"
_symmetry_group_IT_number 2
_symmetry_cell_setting 'triclinic'
loop_
_space_group_symop_operation_xyz
x,y,z
-x,-y,-z
loop_
_atom_site_type_symbol
_atom_site_label
_atom_site_fract_x
_atom_site_fract_y
_atom_site_fract_z
Si Si1 0.288497 0.091438 0.230859
Si Si2 0.877367 0.592891 0.055006
Si Si3 0.171805 0.454983 0.369545
Si Si4 0.350999 0.383594 0.929072
Si Si5 0.473326 0.025617 0.757944
Si Si6 0.891368 0.873337 0.891378
Si Si7 0.951414 0.923902 0.293937
Si Si8 0.247763 0.839133 0.736284
O O1 0.198311 0.281906 0.080491
O O2 0.238140 0.215526 0.411453
O O3 0.301340 0.899744 0.439800
O O4 0.393332 0.018290 0.009819
O O5 0.872456 0.759803 0.956727
O O6 0.834171 0.549580 0.383053
O O7 0.000149 0.345764 0.009036
O O8 0.052052 0.651896 0.363104
O O9 0.235573 0.493894 0.083491
O O10 0.413472 0.259136 0.720523
O O11 0.330600 0.575337 0.819711
O O12 0.420172 0.179100 0.150684
O O13 0.500000 0.000000 0.500000
O O14 0.913161 0.968308 0.560975
O O15 0.799517 0.062260 0.049066
O O16 0.855016 0.031651 0.282285
O O17 0.000000 0.000000 0.000000
#
# Coordination Sequence:
#
# PCOD9086344 Si02
#       8
#     2   2   2   2   2   2   2   2
#     4  11  22  37  66  88 117 160 203 249 303 354
#     4  10  19  36  57  89 121 165 204 240 277 352
#     4  10  20  38  60  87 121 167 198 240 293 357
#     4  10  23  42  63  87 122 151 196 259 308 357
#     4  10  23  46  67  88 110 156 205 251 311 373
#     4  10  22  35  58  87 129 164 203 237 289 349
#     4  11  22  38  56  87 132 166 200 239 290 353
#     4  12  23  39  60  94 126 158 197 251 302 354
#
# _framework density 19.748735
#
# number of rings (size 3 to 8) (size 9 to 14) (size 15 to 20)
#    0.000    1.500    3.750    1.500    0.000    3.000 
#    2.250    0.625    0.000    0.000    0.000    0.000 
#    0.000    0.000    0.000    0.000    0.000    0.000 
#
# Total GULP energy -89300.431159 kJ/mol
# GULP energy per Si atom -5581.276947 kJ/mol
# Density = 1.970379 g / cm^3
# Si number density = 19.748735 Si / 1000 Ang^3
#
#
#
# Elastic Constant Matrix: (Units=GPa)
#
#
# Indices 1 2 3 4 5 6 
#
# 1 46.3843 15.6687 1.3348 6.8046 0.9659 -0.4954
# 2 15.6687 97.8860 36.3355 16.0875 -2.1879 20.7573
# 3 1.3348 36.3355 75.1090 12.6380 6.5914 15.0437
# 4 6.8046 16.0875 12.6380 23.8323 6.7371 -2.6390
# 5 0.9659 -2.1879 6.5914 6.7371 29.3522 -3.3009
# 6 -0.4954 20.7573 15.0437 -2.6390 -3.3009 32.5040
#
#
#
# Elastic Compliance Matrix: (Units=1/GPa)
#
#
# Indices 1 2 3 4 5 6 
#
# 1 0.023616 -0.004105 0.002080 -0.004824 -0.000263 0.001600
# 2 -0.004105 0.015995 -0.004762 -0.009030 0.003519 -0.008449
# 3 0.002080 -0.004762 0.018306 -0.006742 -0.003698 -0.006323
# 4 -0.004824 -0.009030 -0.006742 0.057429 -0.010789 0.012380
# 5 -0.000263 0.003519 -0.003698 -0.010789 0.037921 0.002435
# 6 0.001600 -0.008449 -0.006323 0.012380 0.002435 0.040364
#
#
# Mechanical properties :
#
#
# Convention : Reuss Voigt Hill
#
# Bulk Modulus (GPa) = 22.55111 36.22859 29.38985
# Shear Modulus (GPa) = 22.52402 28.20707 25.36554
#
# Velocity S-wave (km/s) = 3.38084 3.78338 3.58776
# Velocity P-wave (km/s) = 5.16564 6.12127 5.66365
#
# Compressibility (1/GPa) = 0.04434371
#
# Stress axis : x y z
#
# Youngs Moduli (GPa) = 42.34423 62.51886 54.62672
#
# Poissons Ratio (x) = 0.25663 -0.11364
# Poissons Ratio (y) = 0.17382 0.26014
# Poissons Ratio (z) = -0.08809 0.29773
#
# Static dielectric constant tensor:
#      x y z
#    x 1.698360 0.020440 -0.019060 
#    y 0.020440 1.689970 -0.008690 
#    z -0.019060 -0.008690 1.726940 
# 
# From -- ./inp_files/101551.got.cif
#   From: 2010.05.17/outbox.cif.g08.bks.cpg/sg2_51_cif.got.tgz:101551.got - 2010.06.03 11:33:40.
