data_PCOD9086059
_publ_section_title
;
Structure prediction by ZEFSAII (Michael W. Deem and Ramdas Pophale) SiO2 
 PCOD9086059
Probable space group: P -1
;
_chemical_formula_sum "Si O2"
_cell_formula_units_Z 16
_cell_length_a 8.739301
_cell_length_b 7.648545
_cell_length_c 9.498440
_cell_angle_alpha 106.368851
_cell_angle_beta 86.457933
_cell_angle_gamma 73.070419
_cell_volume 575.569208
_symmetry_space_group_name_H-M "P -1"
_symmetry_group_IT_number 2
_symmetry_cell_setting 'triclinic'
loop_
_space_group_symop_operation_xyz
x,y,z
-x,-y,-z
loop_
_atom_site_type_symbol
_atom_site_label
_atom_site_fract_x
_atom_site_fract_y
_atom_site_fract_z
Si Si1 0.881601 0.406476 0.311883
Si Si2 0.654497 0.548779 0.114938
Si Si3 0.828366 0.996948 0.253797
Si Si4 0.661734 0.473853 0.576481
Si Si5 0.224414 0.963280 0.428005
Si Si6 0.554677 0.888389 0.742826
Si Si7 0.118271 0.322874 0.040544
Si Si8 0.686184 0.181591 0.879602
O O1 0.750319 0.555902 0.252355
O O2 0.822256 0.485299 0.487555
O O3 0.051888 0.357982 0.210590
O O4 0.851968 0.201412 0.275226
O O5 0.465452 0.663114 0.158053
O O6 0.714218 0.646987 0.003506
O O7 0.708356 0.320277 0.029135
O O8 0.868932 0.933136 0.403271
O O9 0.634706 0.030841 0.259481
O O10 0.896971 0.859702 0.085170
O O11 0.500000 0.500000 0.500000
O O12 0.708518 0.255773 0.573621
O O13 0.604596 0.663177 0.717716
O O14 0.170040 0.918111 0.261645
O O15 0.353412 0.065087 0.391265
O O16 0.621395 0.006424 0.881437
O O17 0.000000 0.500000 0.000000
#
# Coordination Sequence:
#
# PCOD9086059 Si02
#       8
#     2   2   2   2   2   2   2   2
#     4  10  22  33  55  80 113 138 177 231 264 327
#     4  10  19  36  52  76 110 147 187 208 272 323
#     4  11  19  33  53  82 108 138 176 229 278 308
#     4  11  19  31  54  87 107 136 176 232 280 303
#     4   9  20  31  53  78 112 135 175 222 273 321
#     4  10  20  31  55  82 110 139 170 227 276 318
#     4  10  21  34  55  76 106 146 182 220 267 323
#     4   9  20  33  54  77 110 149 175 223 263 328
#
# _framework density 27.798568
#
# number of rings (size 3 to 8) (size 9 to 14) (size 15 to 20)
#    0.750    1.250    3.750    1.500    3.500    0.000 
#    0.000    1.875    0.000    9.750    0.000    0.000 
#    0.000    0.000    0.000    0.000    0.000    0.000 
#
# Total GULP energy -89317.693979 kJ/mol
# GULP energy per Si atom -5582.355874 kJ/mol
# Density = 2.773530 g / cm^3
# Si number density = 27.798568 Si / 1000 Ang^3
#
#
#
# Elastic Constant Matrix: (Units=GPa)
#
#
# Indices 1 2 3 4 5 6 
#
# 1 52.4137 10.0375 39.3275 -7.1384 -23.3778 5.0355
# 2 10.0375 117.5287 17.8209 15.2600 5.3752 10.3930
# 3 39.3275 17.8209 146.6662 0.2073 -16.0272 6.1705
# 4 -7.1384 15.2600 0.2073 59.3091 14.7780 1.4137
# 5 -23.3778 5.3752 -16.0272 14.7780 54.9723 -0.8517
# 6 5.0355 10.3930 6.1705 1.4137 -0.8517 35.0113
#
#
#
# Elastic Compliance Matrix: (Units=1/GPa)
#
#
# Indices 1 2 3 4 5 6 
#
# 1 0.029301 -0.002003 -0.006388 0.001542 0.010344 -0.002304
# 2 -0.002003 0.009337 -0.000648 -0.002240 -0.001388 -0.002312
# 3 -0.006388 -0.000648 0.008630 -0.000630 0.000026 -0.000384
# 4 0.001542 -0.002240 -0.000630 0.018715 -0.004345 -0.000307
# 5 0.010344 -0.001388 0.000026 -0.004345 0.023896 -0.000324
# 6 -0.002304 -0.002312 -0.000384 -0.000307 -0.000324 0.029652
#
#
# Mechanical properties :
#
#
# Convention : Reuss Voigt Hill
#
# Bulk Modulus (GPa) = 34.26137 50.10895 42.18516
# Shear Modulus (GPa) = 33.93509 46.48671 40.21090
#
# Velocity S-wave (km/s) = 3.49771 4.09378 3.80743
# Velocity P-wave (km/s) = 5.35384 6.35690 5.87681
#
# Compressibility (1/GPa) = 0.02918739
#
# Stress axis : x y z
#
# Youngs Moduli (GPa) = 34.12857 107.10288 115.87676
#
# Poissons Ratio (x) = 0.21456 0.74026
# Poissons Ratio (y) = 0.06837 0.07514
# Poissons Ratio (z) = 0.21802 0.06945
#
# Static dielectric constant tensor:
#      x y z
#    x 2.253280 -0.023890 0.032380 
#    y -0.023890 2.126110 -0.060530 
#    z 0.032380 -0.060530 2.296420 
# 
# From -- ./inp_files/415401.got.cif
#   From: 2010.05.17/outbox.cif.g08.bks.cpg/sg2_208_cif.got.tgz:415401.got - 2010.06.03 11:33:40.
