data_PCOD9086611
_publ_section_title
;
Structure prediction by ZEFSAII (Michael W. Deem and Ramdas Pophale) SiO2 
 PCOD9086611
Probable space group: P -1
;
_chemical_formula_sum "Si O2"
_cell_formula_units_Z 14
_cell_length_a 6.693377
_cell_length_b 10.225843
_cell_length_c 10.572808
_cell_angle_alpha 60.544906
_cell_angle_beta 75.947919
_cell_angle_gamma 114.309298
_cell_volume 475.345607
_symmetry_space_group_name_H-M "P -1"
_symmetry_group_IT_number 2
_symmetry_cell_setting 'triclinic'
loop_
_space_group_symop_operation_xyz
x,y,z
-x,-y,-z
loop_
_atom_site_type_symbol
_atom_site_label
_atom_site_fract_x
_atom_site_fract_y
_atom_site_fract_z
Si Si1 0.986695 0.167387 0.957131
Si Si2 0.054426 0.197240 0.355486
Si Si3 0.777925 0.332369 0.783710
Si Si4 0.465795 0.434380 0.388491
Si Si5 0.725968 0.452302 0.004134
Si Si6 0.628865 0.122306 0.267317
Si Si7 0.658723 0.269395 0.565138
O O1 0.274144 0.383280 0.811317
O O2 0.825733 0.177720 0.866246
O O3 0.828681 0.140014 0.120820
O O4 0.000000 0.000000 0.000000
O O5 0.209874 0.339715 0.385793
O O6 0.243343 0.359264 0.132805
O O7 0.785032 0.148168 0.358679
O O8 0.000000 0.000000 0.500000
O O9 0.688934 0.355445 0.919493
O O10 0.601659 0.282135 0.713533
O O11 0.066611 0.528709 0.610719
O O12 0.500000 0.500000 0.500000
O O13 0.461380 0.254517 0.504573
O O14 0.551437 0.263886 0.209452
O O15 0.000000 0.500000 0.000000
O O16 0.365842 0.917610 0.357120
#
# Coordination Sequence:
#
# PCOD9086611 Si02
#       7
#     2   2   2   2   2   2   2
#     4  10  22  37  59  92 125 157 205 255 303 359
#     4  11  22  39  64  91 121 165 201 248 308 364
#     4   9  20  37  59  87 121 156 204 251 302 362
#     4  11  22  37  63  90 125 161 202 252 304 360
#     4   9  20  38  59  83 120 157 197 247 300 362
#     4  10  21  40  62  86 123 162 204 250 304 365
#     4  10  19  36  59  86 118 156 203 248 300 355
#
# _framework density 29.452255999999998
#
# number of rings (size 3 to 8) (size 9 to 14) (size 15 to 20)
#    0.000    2.000    1.429    1.714    0.000    4.000 
#    0.000    2.857    3.143    1.714    0.000    0.000 
#    0.000    0.000    0.000    0.000    0.000    0.000 
#
# Total GULP energy -78080.413298 kJ/mol
# GULP energy per Si atom -5577.172378 kJ/mol
# Density = 2.938522 g / cm^3
# Si number density = 29.452256 Si / 1000 Ang^3
#
#
#
# Elastic Constant Matrix: (Units=GPa)
#
#
# Indices 1 2 3 4 5 6 
#
# 1 116.2202 46.8564 77.6509 2.6921 45.2069 11.0301
# 2 46.8564 153.9739 84.7677 17.3012 17.6224 17.3125
# 3 77.6509 84.7677 178.6954 3.3347 40.6281 4.4673
# 4 2.6921 17.3012 3.3347 71.3872 -6.6613 12.1297
# 5 45.2069 17.6224 40.6281 -6.6613 92.5293 -2.4678
# 6 11.0301 17.3125 4.4673 12.1297 -2.4678 55.4294
#
#
#
# Elastic Compliance Matrix: (Units=1/GPa)
#
#
# Indices 1 2 3 4 5 6 
#
# 1 0.014103 -0.000983 -0.004511 -0.000136 -0.004794 -0.002319
# 2 -0.000983 0.009384 -0.004005 -0.001679 0.000277 -0.002033
# 3 -0.004511 -0.004005 0.009699 0.000363 -0.001233 0.001233
# 4 -0.000136 -0.001679 0.000363 0.014977 0.001233 -0.002700
# 5 -0.004794 0.000277 -0.001233 0.001233 0.013762 0.001310
# 6 -0.002319 -0.002033 0.001233 -0.002700 0.001310 0.019687
#
#
# Mechanical properties :
#
#
# Convention : Reuss Voigt Hill
#
# Bulk Modulus (GPa) = 70.48864 96.38218 83.43541
# Shear Modulus (GPa) = 47.46474 59.84347 53.65410
#
# Velocity S-wave (km/s) = 4.01881 4.51253 4.27281
# Velocity P-wave (km/s) = 6.74682 7.74251 7.26175
#
# Compressibility (1/GPa) = 0.01418668
#
# Stress axis : x y z
#
# Youngs Moduli (GPa) = 70.90686 106.56034 103.10188
#
# Poissons Ratio (x) = 0.10478 0.46514
# Poissons Ratio (y) = 0.06972 0.41293
# Poissons Ratio (z) = 0.31990 0.42679
#
# Static dielectric constant tensor:
#      x y z
#    x 2.576600 -0.042660 -0.218740 
#    y -0.042660 2.401520 -0.257600 
#    z -0.218740 -0.257600 2.763670 
# 
# From -- ./inp_files/215140.got.cif
#   From: 2010.05.17/outbox.cif.g08.bks.cpg/sg2_108_cif.got.tgz:215140.got - 2010.06.03 11:33:40.
