data_PCOD9086829
_publ_section_title
;
Structure prediction by ZEFSAII (Michael W. Deem and Ramdas Pophale) SiO2 
 PCOD9086829
Probable space group: P -1
;
_chemical_formula_sum "Si O2"
_cell_formula_units_Z 16
_cell_length_a 19.108290
_cell_length_b 8.262301
_cell_length_c 8.696142
_cell_angle_alpha 120.040790
_cell_angle_beta 48.187446
_cell_angle_gamma 130.625994
_cell_volume 771.263182
_symmetry_space_group_name_H-M "P -1"
_symmetry_group_IT_number 2
_symmetry_cell_setting 'triclinic'
loop_
_space_group_symop_operation_xyz
x,y,z
-x,-y,-z
loop_
_atom_site_type_symbol
_atom_site_label
_atom_site_fract_x
_atom_site_fract_y
_atom_site_fract_z
Si Si1 0.771855 0.617880 0.251435
Si Si2 0.012059 0.795261 0.442052
Si Si3 0.199236 0.647079 0.477625
Si Si4 0.006601 0.028385 0.822752
Si Si5 0.372848 0.547310 0.325280
Si Si6 0.783138 0.965224 0.159313
Si Si7 0.782273 0.255272 0.865896
Si Si8 0.621675 0.836071 0.048948
O O1 0.876779 0.765949 0.273442
O O2 0.672474 0.505520 0.460116
O O3 0.758380 0.770075 0.219175
O O4 0.793711 0.451817 0.044874
O O5 0.124153 0.801138 0.255579
O O6 0.913212 0.569835 0.431312
O O7 0.002926 0.823530 0.651971
O O8 0.000000 0.000000 0.500000
O O9 0.296181 0.610457 0.373145
O O10 0.209666 0.696659 0.304212
O O11 0.205478 0.840027 0.661187
O O12 0.000000 0.000000 0.000000
O O13 0.899381 0.038018 0.945093
O O14 0.496547 0.732264 0.224805
O O15 0.365135 0.338340 0.154825
O O16 0.693329 0.893642 0.125768
O O17 0.669310 0.050945 0.980651
#
# Coordination Sequence:
#
# PCOD9086829 Si02
#       8
#     2   2   2   2   2   2   2   2
#     4  11  23  41  66  96 130 168 212 262 318 378
#     4  12  24  40  65  95 132 168 206 256 317 379
#     4  12  24  41  66  96 130 168 212 258 315 379
#     4  10  19  36  60  89 126 160 199 248 306 369
#     4  11  25  45  66  91 125 166 215 268 320 375
#     4  11  23  41  66  96 130 168 212 262 318 378
#     4  12  24  41  66  96 130 168 212 258 315 379
#     4  11  25  45  66  91 125 166 215 268 320 375
#
# _framework density 20.745189
#
# number of rings (size 3 to 8) (size 9 to 14) (size 15 to 20)
#    0.000    0.750    0.000   10.125    0.000    3.000 
#    0.000    3.750    0.000    0.000    0.000    0.000 
#    0.000    0.000    0.000    0.000    0.000    0.000 
#
# Total GULP energy -89520.111529 kJ/mol
# GULP energy per Si atom -5595.006971 kJ/mol
# Density = 2.069797 g / cm^3
# Si number density = 20.745189 Si / 1000 Ang^3
#
#
#
# Elastic Constant Matrix: (Units=GPa)
#
#
# Indices 1 2 3 4 5 6 
#
# 1 41.1888 9.5511 -2.0543 -8.1513 10.6188 1.0721
# 2 9.5511 95.1904 16.8020 -1.1114 -4.8950 7.2832
# 3 -2.0543 16.8020 91.1352 3.1175 -1.7488 6.0408
# 4 -8.1513 -1.1114 3.1175 42.4860 1.1613 3.9170
# 5 10.6188 -4.8950 -1.7488 1.1613 35.2540 -4.4057
# 6 1.0721 7.2832 6.0408 3.9170 -4.4057 39.9781
#
#
#
# Elastic Compliance Matrix: (Units=1/GPa)
#
#
# Indices 1 2 3 4 5 6 
#
# 1 0.028749 -0.003336 0.001011 0.005792 -0.009505 -0.001931
# 2 -0.003336 0.011426 -0.002039 -0.000124 0.002317 -0.001416
# 3 0.001011 -0.002039 0.011477 -0.000572 -0.000168 -0.001352
# 4 0.005792 -0.000124 -0.000572 0.025029 -0.002968 -0.002826
# 5 -0.009505 0.002317 -0.000168 -0.002968 0.032100 0.003687
# 6 -0.001931 -0.001416 -0.001352 -0.002826 0.003687 0.026211
#
#
# Mechanical properties :
#
#
# Convention : Reuss Voigt Hill
#
# Bulk Modulus (GPa) = 23.29752 30.67911 26.98832
# Shear Modulus (GPa) = 31.63944 37.09133 34.36538
#
# Velocity S-wave (km/s) = 3.90955 4.23300 4.07449
# Velocity P-wave (km/s) = 5.62442 6.22187 5.93068
#
# Compressibility (1/GPa) = 0.04292302
#
# Stress axis : x y z
#
# Youngs Moduli (GPa) = 34.78328 87.51933 87.12755
#
# Poissons Ratio (x) = 0.29200 -0.08805
# Poissons Ratio (y) = 0.11605 0.17767
# Poissons Ratio (z) = -0.03515 0.17846
#
# Static dielectric constant tensor:
#      x y z
#    x 1.781810 -0.016630 0.052980 
#    y -0.016630 1.749760 -0.016820 
#    z 0.052980 -0.016820 1.769570 
# 
# From -- ./inp_files/327797.got.cif
#   From: 2010.05.17/outbox.cif.g08.bks.cpg/sg2_164_cif.got.tgz:327797.got - 2010.06.03 11:33:40.
