data_PCOD9086659
_publ_section_title
;
Structure prediction by ZEFSAII (Michael W. Deem and Ramdas Pophale) SiO2 
 PCOD9086659
Probable space group: P -1
;
_chemical_formula_sum "Si O2"
_cell_formula_units_Z 16
_cell_length_a 9.223513
_cell_length_b 22.010992
_cell_length_c 14.356591
_cell_angle_alpha 19.485675
_cell_angle_beta 129.938050
_cell_angle_gamma 131.852379
_cell_volume 723.206939
_symmetry_space_group_name_H-M "P -1"
_symmetry_group_IT_number 2
_symmetry_cell_setting 'triclinic'
loop_
_space_group_symop_operation_xyz
x,y,z
-x,-y,-z
loop_
_atom_site_type_symbol
_atom_site_label
_atom_site_fract_x
_atom_site_fract_y
_atom_site_fract_z
Si Si1 0.712481 0.139788 0.410469
Si Si2 0.973712 0.986544 0.394796
Si Si3 0.078543 0.623453 0.262072
Si Si4 0.395825 0.192436 0.423798
Si Si5 0.532461 0.670049 0.340835
Si Si6 0.611067 0.909379 0.861955
Si Si7 0.271785 0.504110 0.797633
Si Si8 0.462612 0.560432 0.165134
O O1 0.872037 0.111349 0.445198
O O2 0.500000 0.000000 0.500000
O O3 0.759097 0.066863 0.636142
O O4 0.677764 0.347063 0.089098
O O5 0.753751 0.863006 0.473602
O O6 0.000000 0.000000 0.500000
O O7 0.985663 0.181169 0.063733
O O8 0.311010 0.673489 0.273480
O O9 0.000000 0.500000 0.500000
O O10 0.953865 0.503803 0.299575
O O11 0.605605 0.310043 0.372312
O O12 0.427702 0.003561 0.663807
O O13 0.310587 0.328293 0.125406
O O14 0.500000 0.500000 0.500000
O O15 0.630152 0.613843 0.555191
O O16 0.645378 0.845976 0.072071
O O17 0.560930 0.725758 0.040224
O O18 0.376151 0.487985 0.765325
#
# Coordination Sequence:
#
# PCOD9086659 Si02
#       8
#     2   2   2   2   2   2   2   2
#     4  10  20  32  59  87 119 155 205 267 297 352
#     4  12  23  38  64  97 121 164 225 260 298 385
#     4  12  23  38  63  96 126 164 216 262 309 378
#     4  11  23  40  63  95 133 164 209 267 327 368
#     4  10  22  34  60  93 123 159 209 267 303 365
#     4  10  19  37  60  88 118 165 211 247 309 375
#     4  11  23  39  63  96 133 165 205 271 327 368
#     4  10  19  36  59  91 120 162 211 253 307 366
#
# _framework density 22.123681999999999
#
# number of rings (size 3 to 8) (size 9 to 14) (size 15 to 20)
#    0.000    1.250    5.000    3.000    3.500    0.000 
#    0.000    3.125    5.500    3.000    0.000    0.000 
#    0.000    0.000    0.000    0.000    0.000    0.000 
#
# Total GULP energy -89175.744511 kJ/mol
# GULP energy per Si atom -5573.484032 kJ/mol
# Density = 2.207333 g / cm^3
# Si number density = 22.123682 Si / 1000 Ang^3
#
#
#
# Elastic Constant Matrix: (Units=GPa)
#
#
# Indices 1 2 3 4 5 6 
#
# 1 93.0543 -4.9510 15.2019 0.2477 -10.4675 -17.9842
# 2 -4.9510 30.5221 9.1322 5.4661 -7.9138 -0.3523
# 3 15.2019 9.1322 113.3520 22.6642 -40.2299 -19.1114
# 4 0.2477 5.4661 22.6642 11.8187 -9.9106 -0.5919
# 5 -10.4675 -7.9138 -40.2299 -9.9106 49.5917 4.2117
# 6 -17.9842 -0.3523 -19.1114 -0.5919 4.2117 15.7453
#
#
#
# Elastic Compliance Matrix: (Units=1/GPa)
#
#
# Indices 1 2 3 4 5 6 
#
# 1 0.014588 0.003290 0.003109 -0.003678 0.003746 0.019370
# 2 0.003290 0.037063 0.003138 -0.018845 0.004846 0.006391
# 3 0.003109 0.003138 0.024525 -0.037850 0.011024 0.029019
# 4 -0.003678 -0.018845 -0.037850 0.165804 0.002467 -0.044992
# 5 0.003746 0.004846 0.011024 0.002467 0.030337 0.009746
# 6 0.019370 0.006391 0.029019 -0.044992 0.009746 0.116702
#
#
# Mechanical properties :
#
#
# Convention : Reuss Voigt Hill
#
# Bulk Modulus (GPa) = 10.49855 30.63272 20.56563
# Shear Modulus (GPa) = 12.44725 29.93417 21.19071
#
# Velocity S-wave (km/s) = 2.37454 3.68236 3.09824
# Velocity P-wave (km/s) = 3.50337 5.65295 4.70263
#
# Compressibility (1/GPa) = 0.09525124
#
# Stress axis : x y z
#
# Youngs Moduli (GPa) = 68.54820 26.98120 40.77409
#
# Poissons Ratio (x) = -0.08876 -0.12679
# Poissons Ratio (y) = -0.22551 -0.12795
# Poissons Ratio (z) = -0.21315 -0.08467
#
# Static dielectric constant tensor:
#      x y z
#    x 2.015080 0.333830 -0.117310 
#    y 0.333830 2.511110 -0.108490 
#    z -0.117310 -0.108490 1.928960 
# 
# From -- ./inp_files/320326.got.cif
#   From: 2010.05.17/outbox.cif.g08.bks.cpg/sg2_161_cif.got.tgz:320326.got - 2010.06.03 11:33:40.
