data_PCOD9086461
_publ_section_title
;
Structure prediction by ZEFSAII (Michael W. Deem and Ramdas Pophale) SiO2 
 PCOD9086461
Probable space group: P -1
;
_chemical_formula_sum "Si O2"
_cell_formula_units_Z 14
_cell_length_a 9.428308
_cell_length_b 7.423877
_cell_length_c 10.360705
_cell_angle_alpha 118.994347
_cell_angle_beta 109.817703
_cell_angle_gamma 93.692186
_cell_volume 573.219808
_symmetry_space_group_name_H-M "P -1"
_symmetry_group_IT_number 2
_symmetry_cell_setting 'triclinic'
loop_
_space_group_symop_operation_xyz
x,y,z
-x,-y,-z
loop_
_atom_site_type_symbol
_atom_site_label
_atom_site_fract_x
_atom_site_fract_y
_atom_site_fract_z
Si Si1 0.513723 0.933451 0.128971
Si Si2 0.286384 0.470206 0.906314
Si Si3 0.655428 0.613330 0.390286
Si Si4 0.711923 0.513189 0.806210
Si Si5 0.988566 0.564017 0.737253
Si Si6 0.646434 0.022937 0.651778
Si Si7 0.825166 0.250069 0.382551
O O1 0.415706 0.022717 0.237124
O O2 0.692808 0.029279 0.260492
O O3 0.436067 0.680591 0.027342
O O4 0.500000 0.000000 0.000000
O O5 0.302843 0.357192 0.737739
O O6 0.132279 0.554014 0.868070
O O7 0.273847 0.372155 0.011021
O O8 0.465757 0.529385 0.314209
O O9 0.718230 0.837392 0.560988
O O10 0.729699 0.429209 0.397257
O O11 0.848801 0.621944 0.788697
O O12 0.734441 0.274630 0.755856
O O13 0.920937 0.328145 0.568679
O O14 0.060443 0.717799 0.693212
O O15 0.500000 0.000000 0.500000
#
# Coordination Sequence:
#
# PCOD9086461 Si02
#       7
#     2   2   2   2   2   2   2
#     4  11  19  37  59  84 113 151 193 235 280 339
#     4  10  21  38  61  85 114 150 193 238 285 335
#     4  10  19  36  58  87 113 147 197 239 272 341
#     4  10  20  35  58  85 114 149 190 240 288 333
#     4  10  20  36  57  85 116 154 186 230 290 353
#     4   9  20  34  56  83 113 148 189 234 284 334
#     4  10  21  36  60  85 115 154 191 230 287 345
#
# _framework density 24.423442999999999
#
# number of rings (size 3 to 8) (size 9 to 14) (size 15 to 20)
#    0.000    2.000    2.857    2.571    0.000    2.286 
#    0.000    2.857    0.000   24.000    0.000    0.000 
#    0.000    0.000    0.000    0.000    0.000    0.000 
#
# Total GULP energy -78327.691488 kJ/mol
# GULP energy per Si atom -5594.835106 kJ/mol
# Density = 2.436785 g / cm^3
# Si number density = 24.423443 Si / 1000 Ang^3
#
#
#
# Elastic Constant Matrix: (Units=GPa)
#
#
# Indices 1 2 3 4 5 6 
#
# 1 147.1032 24.7424 32.5290 -0.8619 -19.0109 12.0654
# 2 24.7424 70.9478 25.1255 8.0825 -8.6865 -4.6520
# 3 32.5290 25.1255 129.8361 4.6292 -15.8635 6.8836
# 4 -0.8619 8.0825 4.6292 34.3567 -0.8071 -3.7788
# 5 -19.0109 -8.6865 -15.8635 -0.8071 54.7674 -8.4878
# 6 12.0654 -4.6520 6.8836 -3.7788 -8.4878 28.7284
#
#
#
# Elastic Compliance Matrix: (Units=1/GPa)
#
#
# Indices 1 2 3 4 5 6 
#
# 1 0.007910 -0.002404 -0.001194 0.000646 0.001583 -0.002873
# 2 -0.002404 0.016688 -0.002541 -0.003118 0.001715 0.004417
# 3 -0.001194 -0.002541 0.008787 -0.000768 0.001455 -0.001687
# 4 0.000646 -0.003118 -0.000768 0.030362 0.000505 0.003551
# 5 0.001583 0.001715 0.001455 0.000505 0.020337 0.005339
# 6 -0.002873 0.004417 -0.001687 0.003551 0.005339 0.039179
#
#
# Mechanical properties :
#
#
# Convention : Reuss Voigt Hill
#
# Bulk Modulus (GPa) = 47.37435 56.96455 52.16945
# Shear Modulus (GPa) = 35.06890 41.26985 38.16938
#
# Velocity S-wave (km/s) = 3.79340 4.11513 3.95754
# Velocity P-wave (km/s) = 6.21496 6.77890 6.50304
#
# Compressibility (1/GPa) = 0.02110847
#
# Stress axis : x y z
#
# Youngs Moduli (GPa) = 126.41760 59.92419 113.79973
#
# Poissons Ratio (x) = 0.14406 0.13587
# Poissons Ratio (y) = 0.30390 0.28911
# Poissons Ratio (z) = 0.15094 0.15224
#
# Static dielectric constant tensor:
#      x y z
#    x 1.970910 -0.042190 -0.025590 
#    y -0.042190 1.991310 0.032480 
#    z -0.025590 0.032480 1.983450 
# 
# From -- ./inp_files/380662.got.cif
#   From: 2010.05.17/outbox.cif.g08.bks.cpg/sg2_191_cif.got.tgz:380662.got - 2010.06.03 11:33:40.
