data_PCOD9086604
_publ_section_title
;
Structure prediction by ZEFSAII (Michael W. Deem and Ramdas Pophale) SiO2 
 PCOD9086604
Probable space group: P -1
;
_chemical_formula_sum "Si O2"
_cell_formula_units_Z 16
_cell_length_a 8.905330
_cell_length_b 9.326954
_cell_length_c 22.200737
_cell_angle_alpha 52.411102
_cell_angle_beta 116.085838
_cell_angle_gamma 73.379851
_cell_volume 823.232945
_symmetry_space_group_name_H-M "P -1"
_symmetry_group_IT_number 2
_symmetry_cell_setting 'triclinic'
loop_
_space_group_symop_operation_xyz
x,y,z
-x,-y,-z
loop_
_atom_site_type_symbol
_atom_site_label
_atom_site_fract_x
_atom_site_fract_y
_atom_site_fract_z
Si Si1 0.095134 0.122766 0.154500
Si Si2 0.388258 0.394111 0.488636
Si Si3 0.553479 0.918827 0.720819
Si Si4 0.551240 0.429955 0.398300
Si Si5 0.681294 0.420081 0.106795
Si Si6 0.301742 0.555609 0.203116
Si Si7 0.932257 0.876602 0.360914
Si Si8 0.768138 0.159577 0.998771
O O1 0.257529 0.172225 0.168209
O O2 0.935966 0.271761 0.151753
O O3 0.323221 0.774581 0.281648
O O4 0.892517 0.227252 0.040299
O O5 0.500000 0.500000 0.500000
O O6 0.463772 0.331175 0.448402
O O7 0.080722 0.664378 0.383898
O O8 0.505290 0.130812 0.614459
O O9 0.674150 0.654979 0.771373
O O10 0.275763 0.082628 0.656463
O O11 0.529587 0.396766 0.333439
O O12 0.834605 0.263860 0.514901
O O13 0.477373 0.706370 0.038958
O O14 0.782939 0.178097 0.231663
O O15 0.500000 0.500000 0.000000
O O16 0.319115 0.693706 0.119176
O O17 0.016670 0.818188 0.118621
#
# Coordination Sequence:
#
# PCOD9086604 Si02
#       8
#     2   2   2   2   2   2   2   2
#     4  10  19  36  65  87 114 153 199 243 297 342
#     4  10  19  36  59  86 116 154 190 245 300 342
#     4  12  22  35  59  97 118 148 198 255 288 343
#     4  10  20  38  62  83 119 166 188 232 302 359
#     4  10  19  37  63  89 109 157 200 237 289 358
#     4  10  22  38  59  86 123 156 197 236 296 353
#     4  11  20  35  61  94 119 146 200 250 286 345
#     4   9  20  41  60  83 117 163 194 236 297 356
#
# _framework density 19.435568
#
# number of rings (size 3 to 8) (size 9 to 14) (size 15 to 20)
#    0.000    1.750    5.000    1.125    0.000    1.500 
#    0.000    0.625    0.000    0.000    0.000    0.000 
#    0.000    0.000    0.000    0.000    0.000    0.000 
#
# Total GULP energy -89119.555945 kJ/mol
# GULP energy per Si atom -5569.972247 kJ/mol
# Density = 1.939133 g / cm^3
# Si number density = 19.435568 Si / 1000 Ang^3
#
#
#
# Elastic Constant Matrix: (Units=GPa)
#
#
# Indices 1 2 3 4 5 6 
#
# 1 86.9794 34.2957 31.2014 1.5216 16.1658 -12.6808
# 2 34.2957 49.5557 11.1212 3.8288 12.7970 -5.5234
# 3 31.2014 11.1212 71.6280 18.0226 12.9343 -3.6382
# 4 1.5216 3.8288 18.0226 38.7623 -10.0027 0.0199
# 5 16.1658 12.7970 12.9343 -10.0027 25.8484 -4.9111
# 6 -12.6808 -5.5234 -3.6382 0.0199 -4.9111 20.7737
#
#
#
# Elastic Compliance Matrix: (Units=1/GPa)
#
#
# Indices 1 2 3 4 5 6 
#
# 1 0.019694 -0.011389 -0.007343 0.003736 -0.000099 0.007681
# 2 -0.011389 0.031192 0.004773 -0.008525 -0.014231 -0.001179
# 3 -0.007343 0.004773 0.022766 -0.014743 -0.015410 -0.002855
# 4 0.003736 -0.008525 -0.014743 0.039886 0.025339 0.003384
# 5 -0.000099 -0.014231 -0.015410 0.025339 0.064983 0.008795
# 6 0.007681 -0.001179 -0.002855 0.003384 0.008795 0.054089
#
#
# Mechanical properties :
#
#
# Convention : Reuss Voigt Hill
#
# Bulk Modulus (GPa) = 21.86502 40.15553 31.01028
# Shear Modulus (GPa) = 18.13088 25.84652 21.98870
#
# Velocity S-wave (km/s) = 3.05761 3.65068 3.36722
# Velocity P-wave (km/s) = 4.87234 6.20287 5.57742
#
# Compressibility (1/GPa) = 0.04573515
#
# Stress axis : x y z
#
# Youngs Moduli (GPa) = 50.77565 32.05919 43.92538
#
# Poissons Ratio (x) = 0.36512 0.32253
# Poissons Ratio (y) = 0.57828 -0.20965
# Poissons Ratio (z) = 0.37283 -0.15302
#
# Static dielectric constant tensor:
#      x y z
#    x 1.698810 -0.030990 0.018570 
#    y -0.030990 1.712410 0.011270 
#    z 0.018570 0.011270 1.746770 
# 
# From -- ./inp_files/205959.got.cif
#   From: 2010.05.17/outbox.cif.g08.bks.cpg/sg2_103_cif.got.tgz:205959.got - 2010.06.03 11:33:40.
