data_PCOD9086505
_publ_section_title
;
Structure prediction by ZEFSAII (Michael W. Deem and Ramdas Pophale) SiO2 
 PCOD9086505
Probable space group: P -1
;
_chemical_formula_sum "Si O2"
_cell_formula_units_Z 14
_cell_length_a 19.931521
_cell_length_b 15.117934
_cell_length_c 8.033328
_cell_angle_alpha 38.447991
_cell_angle_beta 45.503256
_cell_angle_gamma 20.520287
_cell_volume 521.677921
_symmetry_space_group_name_H-M "P -1"
_symmetry_group_IT_number 2
_symmetry_cell_setting 'triclinic'
loop_
_space_group_symop_operation_xyz
x,y,z
-x,-y,-z
loop_
_atom_site_type_symbol
_atom_site_label
_atom_site_fract_x
_atom_site_fract_y
_atom_site_fract_z
Si Si1 0.692991 0.148707 0.171546
Si Si2 0.104401 0.988893 0.662905
Si Si3 0.836319 0.183872 0.653570
Si Si4 0.431960 0.426468 0.733628
Si Si5 0.088841 0.539563 0.926984
Si Si6 0.749851 0.772215 0.208181
Si Si7 0.212086 0.287114 0.413258
O O1 0.825398 0.013863 0.298907
O O2 0.664976 0.016846 0.399160
O O3 0.500000 0.500000 0.000000
O O4 0.800143 0.069114 0.937903
O O5 0.901805 0.172041 0.729617
O O6 0.068629 0.146144 0.341022
O O7 0.263138 0.662333 0.816923
O O8 0.648797 0.491726 0.433054
O O9 0.000000 0.000000 0.500000
O O10 0.500000 0.500000 0.500000
O O11 0.591408 0.103932 0.981103
O O12 0.963442 0.562376 0.138360
O O13 0.247929 0.319595 0.829103
O O14 0.193975 0.420148 0.096710
O O15 0.728763 0.727602 0.489839
O O16 0.000000 0.500000 0.500000
#
# Coordination Sequence:
#
# PCOD9086505 Si02
#       7
#     2   2   2   2   2   2   2
#     4  12  24  40  69 100 123 168 232 280 311 382
#     4  11  22  41  61  92 133 170 209 270 336 395
#     4  10  25  40  62  95 134 175 208 266 347 396
#     4  11  20  37  64  91 123 165 221 270 315 376
#     4  10  21  36  61  92 132 170 210 270 333 392
#     4  10  19  36  58  91 126 165 221 273 314 378
#     4  10  22  36  60  98 128 164 217 270 326 382
#
# _framework density 26.836480999999999
#
# number of rings (size 3 to 8) (size 9 to 14) (size 15 to 20)
#    0.000    1.429    1.429    5.571    8.000    0.000 
#    0.000    0.714    0.000    0.857    0.000    0.000 
#    0.000    0.000    0.000    0.000    0.000    0.000 
#
# Total GULP energy -78266.110816 kJ/mol
# GULP energy per Si atom -5590.436487 kJ/mol
# Density = 2.677540 g / cm^3
# Si number density = 26.836481 Si / 1000 Ang^3
#
#
#
# Elastic Constant Matrix: (Units=GPa)
#
#
# Indices 1 2 3 4 5 6 
#
# 1 89.5379 32.6114 47.9079 4.6076 39.5535 14.6428
# 2 32.6114 86.2208 55.3268 -18.3699 9.1754 26.3863
# 3 47.9079 55.3268 168.1386 -1.3679 37.3918 25.0514
# 4 4.6076 -18.3699 -1.3679 42.0436 8.0077 -4.4259
# 5 39.5535 9.1754 37.3918 8.0077 55.6086 8.2049
# 6 14.6428 26.3863 25.0514 -4.4259 8.2049 38.3625
#
#
#
# Elastic Compliance Matrix: (Units=1/GPa)
#
#
# Indices 1 2 3 4 5 6 
#
# 1 0.019085 -0.005775 -0.000904 -0.002496 -0.011576 -0.000534
# 2 -0.005775 0.020783 -0.004686 0.007848 0.004025 -0.008986
# 3 -0.000904 -0.004686 0.008890 -0.001012 -0.004201 -0.001456
# 4 -0.002496 0.007848 -0.001012 0.028010 -0.002882 0.000063
# 5 -0.011576 0.004025 -0.004201 -0.002882 0.029112 -0.002165
# 6 -0.000534 -0.008986 -0.001456 0.000063 -0.002165 0.033873
#
#
# Mechanical properties :
#
#
# Convention : Reuss Voigt Hill
#
# Bulk Modulus (GPa) = 38.41881 68.39883 53.40882
# Shear Modulus (GPa) = 29.21289 41.07300 35.14295
#
# Velocity S-wave (km/s) = 3.30290 3.91639 3.62266
# Velocity P-wave (km/s) = 5.37517 6.78185 6.11907
#
# Compressibility (1/GPa) = 0.02602892
#
# Stress axis : x y z
#
# Youngs Moduli (GPa) = 52.39751 48.11645 112.48910
#
# Poissons Ratio (x) = 0.27785 0.10170
# Poissons Ratio (y) = 0.30258 0.52708
# Poissons Ratio (z) = 0.04737 0.22546
#
# Static dielectric constant tensor:
#      x y z
#    x 2.253170 -0.015060 -0.008260 
#    y -0.015060 2.211770 0.044470 
#    z -0.008260 0.044470 2.114280 
# 
# From -- ./inp_files/354752.got.cif
#   From: 2010.05.17/outbox.cif.g08.bks.cpg/sg2_178_cif.got.tgz:354752.got - 2010.06.03 11:33:40.
