data_PCOD9086409
_publ_section_title
;
Structure prediction by ZEFSAII (Michael W. Deem and Ramdas Pophale) SiO2 
 PCOD9086409
Probable space group: P -1
;
_chemical_formula_sum "Si O2"
_cell_formula_units_Z 12
_cell_length_a 9.138780
_cell_length_b 12.286443
_cell_length_c 12.213330
_cell_angle_alpha 31.943129
_cell_angle_beta 47.914769
_cell_angle_gamma 62.553568
_cell_volume 517.765936
_symmetry_space_group_name_H-M "P -1"
_symmetry_group_IT_number 2
_symmetry_cell_setting 'triclinic'
loop_
_space_group_symop_operation_xyz
x,y,z
-x,-y,-z
loop_
_atom_site_type_symbol
_atom_site_label
_atom_site_fract_x
_atom_site_fract_y
_atom_site_fract_z
Si Si1 0.744113 0.062698 0.406958
Si Si2 0.670144 0.039309 0.695885
Si Si3 0.087016 0.933294 0.224977
Si Si4 0.363710 0.665596 0.934144
Si Si5 0.372822 0.328091 0.624340
Si Si6 0.723880 0.357815 0.763829
O O1 0.815593 0.075303 0.485972
O O2 0.516957 0.902973 0.670551
O O3 0.866280 0.943028 0.368643
O O4 0.750422 0.291186 0.154886
O O5 0.788526 0.087022 0.709936
O O6 0.527757 0.197912 0.616468
O O7 0.124572 0.759218 0.270570
O O8 0.192457 0.160058 0.921908
O O9 0.500000 0.500000 0.000000
O O10 0.231293 0.608573 0.158693
O O11 0.500000 0.500000 0.500000
O O12 0.492387 0.194761 0.012578
O O13 0.289818 0.439472 0.471654
#
# Coordination Sequence:
#
# PCOD9086409 Si02
#       6
#     2   2   2   2   2   2
#     4  10  23  39  58  82 113 148 185 232 279 325
#     4  10  19  36  58  83 117 148 176 224 284 335
#     4  11  21  35  57  90 116 140 181 231 282 331
#     4  10  22  43  60  76 108 152 196 228 272 327
#     4  11  18  34  57  83 116 147 179 217 274 337
#     4  10  20  36  60  83 110 151 185 224 275 332
#
# _framework density 23.176496
#
# number of rings (size 3 to 8) (size 9 to 14) (size 15 to 20)
#    0.000    1.667    3.333    2.500    0.000    3.333 
#    0.000    2.500    0.000    0.000    0.000    0.000 
#    0.000    0.000    0.000    0.000    0.000    0.000 
#
# Total GULP energy -67095.315137 kJ/mol
# GULP energy per Si atom -5591.276261 kJ/mol
# Density = 2.312375 g / cm^3
# Si number density = 23.176496 Si / 1000 Ang^3
#
#
#
# Elastic Constant Matrix: (Units=GPa)
#
#
# Indices 1 2 3 4 5 6 
#
# 1 66.9318 20.4883 58.1123 8.4632 27.6365 -5.6796
# 2 20.4883 97.4638 65.3603 25.5976 30.8479 -5.7979
# 3 58.1123 65.3603 158.9109 15.7864 50.5521 -4.2351
# 4 8.4632 25.5976 15.7864 42.9242 1.1089 4.5062
# 5 27.6365 30.8479 50.5521 1.1089 38.6868 3.4794
# 6 -5.6796 -5.7979 -4.2351 4.5062 3.4794 25.5741
#
#
#
# Elastic Compliance Matrix: (Units=1/GPa)
#
#
# Indices 1 2 3 4 5 6 
#
# 1 0.027225 0.006438 -0.006047 -0.007606 -0.017380 0.010209
# 2 0.006438 0.020799 -0.004235 -0.012736 -0.016174 0.009888
# 3 -0.006047 -0.004235 0.013681 -0.001213 -0.010287 0.001576
# 4 -0.007606 -0.012736 -0.001213 0.033763 0.017384 -0.013091
# 5 -0.017380 -0.016174 -0.010287 0.017384 0.066019 -0.021275
# 6 0.010209 0.009888 0.001576 -0.013091 -0.021275 0.049073
#
#
# Mechanical properties :
#
#
# Convention : Reuss Voigt Hill
#
# Bulk Modulus (GPa) = 18.51278 67.91423 43.21351
# Shear Modulus (GPa) = 21.16361 33.39339 27.27850
#
# Velocity S-wave (km/s) = 3.02512 3.79994 3.43445
# Velocity P-wave (km/s) = 4.49520 6.97276 5.86627
#
# Compressibility (1/GPa) = 0.05401674
#
# Stress axis : x y z
#
# Youngs Moduli (GPa) = 36.73148 48.07840 73.09246
#
# Poissons Ratio (x) = -0.30954 0.44201
# Poissons Ratio (y) = -0.23649 0.30956
# Poissons Ratio (z) = 0.22213 0.20362
#
# Static dielectric constant tensor:
#      x y z
#    x 1.917950 0.035840 0.016240 
#    y 0.035840 1.877210 0.022860 
#    z 0.016240 0.022860 1.870750 
# 
# From -- ./inp_files/395037.got.cif
#   From: 2010.05.17/outbox.cif.g08.bks.cpg/sg2_198_cif.got.tgz:395037.got - 2010.06.03 11:33:40.
