data_PCOD9086216
_publ_section_title
;
Structure prediction by ZEFSAII (Michael W. Deem and Ramdas Pophale) SiO2 
 PCOD9086216
Probable space group: P -1
;
_chemical_formula_sum "Si O2"
_cell_formula_units_Z 15
_cell_length_a 12.426451
_cell_length_b 18.534613
_cell_length_c 14.581611
_cell_angle_alpha 147.847569
_cell_angle_beta 151.424974
_cell_angle_gamma 29.031078
_cell_volume 733.268931
_symmetry_space_group_name_H-M "P -1"
_symmetry_group_IT_number 2
_symmetry_cell_setting 'triclinic'
loop_
_space_group_symop_operation_xyz
x,y,z
-x,-y,-z
loop_
_atom_site_type_symbol
_atom_site_label
_atom_site_fract_x
_atom_site_fract_y
_atom_site_fract_z
Si Si1 0.526888 0.369013 0.172222
Si Si2 0.500000 0.500000 0.500000
Si Si3 0.793115 0.910104 0.158026
Si Si4 0.686966 0.240746 0.447975
Si Si5 0.440212 0.904872 0.474487
Si Si6 0.183029 0.207752 0.743144
Si Si7 0.332338 0.683682 0.273873
Si Si8 0.916910 0.921862 0.775029
O O1 0.510181 0.450508 0.343990
O O2 0.465845 0.497410 0.184971
O O3 0.817342 0.221001 0.220126
O O4 0.318841 0.310470 0.947426
O O5 0.429080 0.357100 0.325514
O O6 0.796065 0.852912 0.202089
O O7 0.018597 0.768879 0.116300
O O8 0.843579 0.056055 0.346773
O O9 0.500000 0.000000 0.000000
O O10 0.657717 0.255803 0.550522
O O11 0.862213 0.306507 0.597266
O O12 0.447772 0.758278 0.372432
O O13 0.723542 0.868583 0.614841
O O14 0.319888 0.059056 0.617161
O O15 0.250102 0.956917 0.300348
O O16 0.000000 0.000000 0.000000
#
# Coordination Sequence:
#
# PCOD9086216 Si02
#       8
#     2   1   2   2   2   2   2   2
#     4  11  24  41  66  97 137 174 217 275 329 401
#     4  10  22  36  60  94 138 168 206 266 340 386
#     4  11  21  32  60  97 131 174 219 262 325 404
#     4  10  19  36  56  90 131 170 210 261 322 400
#     4  11  22  43  73  93 125 176 224 286 321 387
#     4  11  20  37  65  90 131 175 216 266 329 391
#     4  10  22  40  60  94 134 168 215 273 335 381
#     4  11  25  44  72  99 123 175 236 269 334 398
#
# _framework density 20.456343
#
# number of rings (size 3 to 8) (size 9 to 14) (size 15 to 20)
#    0.000    1.333    4.000    2.400    1.867    6.400 
#    0.000    0.667    0.000    0.000    0.000    0.000 
#    0.000    0.000    0.000    0.000    0.000    0.000 
#
# Total GULP energy -83508.622852 kJ/mol
# GULP energy per Si atom -5567.241523 kJ/mol
# Density = 2.040978 g / cm^3
# Si number density = 20.456343 Si / 1000 Ang^3
#
#
#
# Elastic Constant Matrix: (Units=GPa)
#
#
# Indices 1 2 3 4 5 6 
#
# 1 101.8446 30.3975 47.5112 2.1531 24.8183 20.6659
# 2 30.3975 70.5489 37.6738 4.5908 19.8211 19.3277
# 3 47.5112 37.6738 90.6335 -2.1788 14.4406 13.8018
# 4 2.1531 4.5908 -2.1788 29.1911 1.1966 5.0244
# 5 24.8183 19.8211 14.4406 1.1966 32.3592 8.5361
# 6 20.6659 19.3277 13.8018 5.0244 8.5361 47.7229
#
#
#
# Elastic Compliance Matrix: (Units=1/GPa)
#
#
# Indices 1 2 3 4 5 6 
#
# 1 0.015429 -0.000066 -0.006283 -0.000694 -0.008088 -0.003318
# 2 -0.000066 0.021972 -0.006994 -0.002753 -0.008874 -0.004970
# 3 -0.006283 -0.006994 0.017072 0.002768 0.001361 0.000081
# 4 -0.000694 -0.002753 0.002768 0.035480 0.000519 -0.003213
# 5 -0.008088 -0.008874 0.001361 0.000519 0.042150 -0.000891
# 6 -0.003318 -0.004970 0.000081 -0.003213 -0.000891 0.024878
#
#
# Mechanical properties :
#
#
# Convention : Reuss Voigt Hill
#
# Bulk Modulus (GPa) = 35.98975 54.91023 45.44999
# Shear Modulus (GPa) = 25.91639 31.68428 28.80034
#
# Velocity S-wave (km/s) = 3.56323 3.93984 3.75626
# Velocity P-wave (km/s) = 5.87882 6.89909 6.40928
#
# Compressibility (1/GPa) = 0.02778569
#
# Stress axis : x y z
#
# Youngs Moduli (GPa) = 64.81493 45.51293 58.57652
#
# Poissons Ratio (x) = 0.00301 0.36805
# Poissons Ratio (y) = 0.00428 0.40968
# Poissons Ratio (z) = 0.40725 0.31831
#
# Static dielectric constant tensor:
#      x y z
#    x 1.706850 -0.014700 0.060890 
#    y -0.014700 1.338860 0.191340 
#    z 0.060890 0.191340 1.849710 
# 
# From -- ./inp_files/523337.got.cif
#   From: 2010.05.17/outbox.cif.g08.bks.cpg/sg2_262_cif.got.tgz:523337.got - 2010.06.03 11:33:40.
