data_PCOD9086729
_publ_section_title
;
Structure prediction by ZEFSAII (Michael W. Deem and Ramdas Pophale) SiO2 
 PCOD9086729
Probable space group: P -1
;
_chemical_formula_sum "Si O2"
_cell_formula_units_Z 16
_cell_length_a 11.190857
_cell_length_b 11.358782
_cell_length_c 11.093954
_cell_angle_alpha 111.307875
_cell_angle_beta 144.991277
_cell_angle_gamma 88.183700
_cell_volume 653.809193
_symmetry_space_group_name_H-M "P -1"
_symmetry_group_IT_number 2
_symmetry_cell_setting 'triclinic'
loop_
_space_group_symop_operation_xyz
x,y,z
-x,-y,-z
loop_
_atom_site_type_symbol
_atom_site_label
_atom_site_fract_x
_atom_site_fract_y
_atom_site_fract_z
Si Si1 0.474121 0.405133 0.299720
Si Si2 0.771598 0.546609 0.200507
Si Si3 0.145299 0.196678 0.792111
Si Si4 0.080897 0.369618 0.152162
Si Si5 0.389227 0.655196 0.212121
Si Si6 0.307746 0.023616 0.707322
Si Si7 0.839823 0.174244 0.247235
Si Si8 0.912919 0.875920 0.779102
O O1 0.262345 0.359252 0.204077
O O2 0.743071 0.468971 0.590004
O O3 0.473889 0.541984 0.285336
O O4 0.379962 0.260005 0.091555
O O5 0.853921 0.661560 0.202233
O O6 0.971944 0.652155 0.505080
O O7 0.500000 0.500000 0.000000
O O8 0.724341 0.400817 0.036546
O O9 0.211547 0.130402 0.708963
O O10 0.885253 0.086355 0.588836
O O11 0.034145 0.245701 0.163409
O O12 0.831496 0.353500 0.898647
O O13 0.630902 0.807194 0.488163
O O14 0.248352 0.912378 0.730289
O O15 0.586248 0.122200 0.952935
O O16 0.960115 0.103201 0.237441
O O17 0.000000 0.000000 0.000000
#
# Coordination Sequence:
#
# PCOD9086729 Si02
#       8
#     2   2   2   2   2   2   2   2
#     4   9  20  38  60  87 120 149 200 249 281 355
#     4  10  19  36  60  85 115 150 184 248 304 344
#     4   9  19  35  57  85 112 150 196 240 298 345
#     4  10  22  39  59  89 114 160 199 234 302 348
#     4  10  21  40  61  87 119 151 198 245 300 352
#     4   9  20  37  58  84 112 155 199 244 292 347
#     4  10  21  39  57  85 120 152 201 243 293 352
#     4  11  25  41  57  87 124 158 197 244 291 360
#
# _framework density 24.471969999999999
#
# number of rings (size 3 to 8) (size 9 to 14) (size 15 to 20)
#    0.000    2.250    1.250    0.375    3.500    2.500 
#    2.250    1.250    0.000    0.000    0.000    0.000 
#    0.000    0.000    0.000    0.000    0.000    0.000 
#
# Total GULP energy -89099.095744 kJ/mol
# GULP energy per Si atom -5568.693484 kJ/mol
# Density = 2.441627 g / cm^3
# Si number density = 24.471970 Si / 1000 Ang^3
#
#
#
# Elastic Constant Matrix: (Units=GPa)
#
#
# Indices 1 2 3 4 5 6 
#
# 1 58.7222 7.2144 48.1257 14.4265 4.9813 -6.6386
# 2 7.2144 47.3011 40.1518 9.4304 3.8560 1.8172
# 3 48.1257 40.1518 242.8647 10.4386 16.4362 -27.1639
# 4 14.4265 9.4304 10.4386 29.0233 -14.6796 4.5022
# 5 4.9813 3.8560 16.4362 -14.6796 38.7641 1.8687
# 6 -6.6386 1.8172 -27.1639 4.5022 1.8687 22.6724
#
#
#
# Elastic Compliance Matrix: (Units=1/GPa)
#
#
# Indices 1 2 3 4 5 6 
#
# 1 0.025607 0.003053 -0.003242 -0.018665 -0.009667 0.007872
# 2 0.003053 0.027475 -0.004916 -0.010327 -0.004723 -0.004758
# 3 -0.003242 -0.004916 0.006808 -0.002139 -0.003190 0.008289
# 4 -0.018665 -0.010327 -0.002139 0.067025 0.030826 -0.023050
# 5 -0.009667 -0.004723 -0.003190 0.030826 0.041297 -0.015800
# 6 0.007872 -0.004758 0.008289 -0.023050 -0.015800 0.062603
#
#
# Mechanical properties :
#
#
# Convention : Reuss Voigt Hill
#
# Bulk Modulus (GPa) = 20.12880 59.98576 40.05728
# Shear Modulus (GPa) = 19.41116 34.98504 27.19810
#
# Velocity S-wave (km/s) = 2.81944 3.78510 3.33738
# Velocity P-wave (km/s) = 4.34074 6.60817 5.59062
#
# Compressibility (1/GPa) = 0.04968007
#
# Stress axis : x y z
#
# Youngs Moduli (GPa) = 39.05227 36.39634 146.89351
#
# Poissons Ratio (x) = -0.11113 0.47623
# Poissons Ratio (y) = -0.11924 0.72215
# Poissons Ratio (z) = 0.12661 0.17893
#
# Static dielectric constant tensor:
#      x y z
#    x 2.084190 0.068870 -0.121690 
#    y 0.068870 1.966980 -0.008610 
#    z -0.121690 -0.008610 2.093880 
# 
# From -- ./inp_files/454380.got.cif
#   From: 2010.05.17/outbox.cif.g08.bks.cpg/sg2_228_cif.got.tgz:454380.got - 2010.06.03 11:33:40.
