data_PCOD9086874
_publ_section_title
;
Structure prediction by ZEFSAII (Michael W. Deem and Ramdas Pophale) SiO2 
 PCOD9086874
Probable space group: P -1
;
_chemical_formula_sum "Si O2"
_cell_formula_units_Z 16
_cell_length_a 11.358529
_cell_length_b 18.110819
_cell_length_c 8.139302
_cell_angle_alpha 56.044793
_cell_angle_beta 114.053815
_cell_angle_gamma 145.305037
_cell_volume 785.792243
_symmetry_space_group_name_H-M "P -1"
_symmetry_group_IT_number 2
_symmetry_cell_setting 'triclinic'
loop_
_space_group_symop_operation_xyz
x,y,z
-x,-y,-z
loop_
_atom_site_type_symbol
_atom_site_label
_atom_site_fract_x
_atom_site_fract_y
_atom_site_fract_z
Si Si1 0.046070 0.930015 0.196126
Si Si2 0.048828 0.326623 0.272022
Si Si3 0.361213 0.007727 0.472007
Si Si4 0.415500 0.079197 0.775483
Si Si5 0.191113 0.135862 0.548748
Si Si6 0.889942 0.654553 0.349658
Si Si7 0.160404 0.757131 0.069099
Si Si8 0.560421 0.569233 0.770805
O O1 0.896883 0.855707 0.361623
O O2 0.979441 0.804484 0.219744
O O3 0.283730 0.038794 0.256841
O O4 0.000000 0.000000 0.000000
O O5 0.073899 0.371672 0.419107
O O6 0.265429 0.400058 0.248257
O O7 0.858046 0.154060 0.398013
O O8 0.963932 0.333539 0.055686
O O9 0.458554 0.100169 0.577483
O O10 0.500000 0.000000 0.500000
O O11 0.305175 0.111184 0.711570
O O12 0.631504 0.186915 0.858674
O O13 0.261152 0.912234 0.929602
O O14 0.336357 0.277790 0.348001
O O15 0.000000 0.000000 0.500000
O O16 0.646467 0.532287 0.327653
O O17 0.008936 0.671663 0.246175
O O18 0.500000 0.500000 0.000000
#
# Coordination Sequence:
#
# PCOD9086874 Si02
#       8
#     2   2   2   2   2   2   2   2
#     4  11  23  36  62  98 132 165 207 277 335 382
#     4  10  20  38  58  90 123 159 213 271 304 379
#     4  10  19  36  60  92 127 167 212 262 330 383
#     4  10  20  35  64  88 133 164 212 266 325 384
#     4  12  23  42  61  95 134 162 210 277 333 380
#     4  11  22  39  63  92 129 165 223 263 321 385
#     4  10  20  38  61  98 119 174 214 262 319 401
#     4  12  24  40  68  93 124 179 218 267 328 392
#
# _framework density 20.361615
#
# number of rings (size 3 to 8) (size 9 to 14) (size 15 to 20)
#    0.000    1.250    5.000    3.375    1.750    2.000 
#    0.000    0.625    0.000    0.750    0.000    0.000 
#    0.000    0.000    0.000    0.000    0.000    0.000 
#
# Total GULP energy -89224.293997 kJ/mol
# GULP energy per Si atom -5576.518375 kJ/mol
# Density = 2.031527 g / cm^3
# Si number density = 20.361615 Si / 1000 Ang^3
#
#
#
# Elastic Constant Matrix: (Units=GPa)
#
#
# Indices 1 2 3 4 5 6 
#
# 1 91.4469 12.0445 37.7170 20.5243 4.5698 31.1644
# 2 12.0445 100.9486 47.4318 32.7464 -2.9310 22.4526
# 3 37.7170 47.4318 100.9661 23.2476 -7.4969 15.0563
# 4 20.5243 32.7464 23.2476 37.6744 0.4369 3.8647
# 5 4.5698 -2.9310 -7.4969 0.4369 32.1240 4.8589
# 6 31.1644 22.4526 15.0563 3.8647 4.8589 33.1337
#
#
#
# Elastic Compliance Matrix: (Units=1/GPa)
#
#
# Indices 1 2 3 4 5 6 
#
# 1 0.024940 0.011514 -0.007002 -0.016592 0.000050 -0.026150
# 2 0.011514 0.023153 -0.007300 -0.019741 0.002250 -0.021230
# 3 -0.007002 -0.007300 0.015589 0.000096 0.003371 0.003943
# 4 -0.016592 -0.019741 0.000096 0.050302 -0.003674 0.023611
# 5 0.000050 0.002250 0.003371 -0.003674 0.033308 -0.007559
# 6 -0.026150 -0.021230 0.003943 0.023611 -0.007559 0.065725
#
#
# Mechanical properties :
#
#
# Convention : Reuss Voigt Hill
#
# Bulk Modulus (GPa) = 17.20950 54.19426 35.70188
# Shear Modulus (GPa) = 21.01172 33.66432 27.33802
#
# Velocity S-wave (km/s) = 3.21585 4.07052 3.66816
# Velocity P-wave (km/s) = 4.71796 6.98325 5.95924
#
# Compressibility (1/GPa) = 0.05810746
#
# Stress axis : x y z
#
# Youngs Moduli (GPa) = 40.09596 43.19080 64.14592
#
# Poissons Ratio (x) = -0.49732 0.44916
# Poissons Ratio (y) = -0.46168 0.46826
# Poissons Ratio (z) = 0.28076 0.31529
#
# Static dielectric constant tensor:
#      x y z
#    x 1.740070 0.014500 -0.007420 
#    y 0.014500 1.725110 0.042610 
#    z -0.007420 0.042610 1.820600 
# 
# From -- ./inp_files/282916.got.cif
#   From: 2010.05.17/outbox.cif.g08.bks.cpg/sg2_142_cif.got.tgz:282916.got - 2010.06.03 11:33:40.
