data_PCOD9086235
_publ_section_title
;
Structure prediction by ZEFSAII (Michael W. Deem and Ramdas Pophale) SiO2 
 PCOD9086235
Probable space group: P -1
;
_chemical_formula_sum "Si O2"
_cell_formula_units_Z 16
_cell_length_a 8.777457
_cell_length_b 8.069571
_cell_length_c 12.178825
_cell_angle_alpha 96.465828
_cell_angle_beta 107.311461
_cell_angle_gamma 68.984601
_cell_volume 768.757673
_symmetry_space_group_name_H-M "P -1"
_symmetry_group_IT_number 2
_symmetry_cell_setting 'triclinic'
loop_
_space_group_symop_operation_xyz
x,y,z
-x,-y,-z
loop_
_atom_site_type_symbol
_atom_site_label
_atom_site_fract_x
_atom_site_fract_y
_atom_site_fract_z
Si Si1 0.923871 0.112221 0.382241
Si Si2 0.149269 0.316660 0.485864
Si Si3 0.747913 0.511933 0.662754
Si Si4 0.934220 0.653370 0.905059
Si Si5 0.268741 0.471427 0.876777
Si Si6 0.408041 0.180794 0.059201
Si Si7 0.100319 0.223692 0.700790
Si Si8 0.577464 0.366771 0.270877
O O1 0.744058 0.266313 0.369884
O O2 0.059346 0.204245 0.387064
O O3 0.890242 0.972779 0.281558
O O4 0.000000 0.000000 0.500000
O O5 0.281066 0.365738 0.442424
O O6 0.197164 0.220707 0.605489
O O7 0.000000 0.500000 0.500000
O O8 0.837103 0.593711 0.781579
O O9 0.575326 0.510494 0.678455
O O10 0.898445 0.329999 0.653359
O O11 0.780765 0.808917 0.940674
O O12 0.115882 0.648779 0.896941
O O13 0.000000 0.500000 0.000000
O O14 0.176992 0.335449 0.803774
O O15 0.366874 0.523593 0.802963
O O16 0.381601 0.355028 0.989725
O O17 0.511831 0.219975 0.186990
O O18 0.500000 0.000000 0.000000
#
# Coordination Sequence:
#
# PCOD9086235 Si02
#       8
#     2   2   2   2   2   2   2   2
#     4  10  20  35  54  78 107 141 182 226 272 319
#     4   9  17  34  56  76 102 143 183 216 264 326
#     4   9  18  33  53  77 106 142 185 224 265 322
#     4   8  16  31  53  74 102 144 179 209 262 329
#     4  10  19  36  57  79 110 150 182 212 268 340
#     4  10  20  35  56  84 112 138 177 233 276 311
#     4   9  18  35  55  77 105 141 182 227 268 319
#     4  11  21  35  55  81 111 147 182 223 271 324
#
# _framework density 20.812801
#
# number of rings (size 3 to 8) (size 9 to 14) (size 15 to 20)
#    0.000    2.500    0.000    3.375    0.000    0.000 
#    0.000   18.125    0.000    0.000    0.000    0.000 
#    0.000    0.000    0.000    0.000    0.000    0.000 
#
# Total GULP energy -89090.657657 kJ/mol
# GULP energy per Si atom -5568.166104 kJ/mol
# Density = 2.076543 g / cm^3
# Si number density = 20.812801 Si / 1000 Ang^3
#
#
#
# Elastic Constant Matrix: (Units=GPa)
#
#
# Indices 1 2 3 4 5 6 
#
# 1 109.4182 31.3670 23.0996 -1.5588 -27.6292 -17.9270
# 2 31.3670 63.3581 6.7572 10.1650 -2.8917 -8.3296
# 3 23.0996 6.7572 64.3433 -3.7198 -3.0870 -8.8149
# 4 -1.5588 10.1650 -3.7198 29.0089 -1.9762 5.2542
# 5 -27.6292 -2.8917 -3.0870 -1.9762 39.8164 5.3673
# 6 -17.9270 -8.3296 -8.8149 5.2542 5.3673 33.1132
#
#
#
# Elastic Compliance Matrix: (Units=1/GPa)
#
#
# Indices 1 2 3 4 5 6 
#
# 1 0.014610 -0.006397 -0.003512 0.002561 0.009058 0.003491
# 2 -0.006397 0.020629 -0.000041 -0.008509 -0.003864 0.003691
# 3 -0.003512 -0.000041 0.017188 0.001453 -0.001394 0.002659
# 4 0.002561 -0.008509 0.001453 0.039387 0.004211 -0.007299
# 5 0.009058 -0.003864 -0.001394 0.004211 0.031520 -0.002216
# 6 0.003491 0.003691 0.002659 -0.007299 -0.002216 0.035243
#
#
# Mechanical properties :
#
#
# Convention : Reuss Voigt Hill
#
# Bulk Modulus (GPa) = 30.74498 39.95190 35.34844
# Shear Modulus (GPa) = 26.41012 32.11409 29.26211
#
# Velocity S-wave (km/s) = 3.56608 3.93236 3.75369
# Velocity P-wave (km/s) = 5.63561 6.31312 5.98396
#
# Compressibility (1/GPa) = 0.03252564
#
# Stress axis : x y z
#
# Youngs Moduli (GPa) = 68.44502 48.47561 58.17877
#
# Poissons Ratio (x) = 0.31010 0.20435
# Poissons Ratio (y) = 0.43785 0.00241
# Poissons Ratio (z) = 0.24041 0.00201
#
# Static dielectric constant tensor:
#      x y z
#    x 1.787720 -0.002000 0.011640 
#    y -0.002000 1.772620 0.010890 
#    z 0.011640 0.010890 1.822470 
# 
# From -- ./inp_files/208479.got.cif
#   From: 2010.05.17/outbox.cif.g08.bks.cpg/sg2_105_cif.got.tgz:208479.got - 2010.06.03 11:33:40.
