data_PCOD9086234
_publ_section_title
;
Structure prediction by ZEFSAII (Michael W. Deem and Ramdas Pophale) SiO2 
 PCOD9086234
Probable space group: P -1
;
_chemical_formula_sum "Si O2"
_cell_formula_units_Z 16
_cell_length_a 6.597099
_cell_length_b 14.287382
_cell_length_c 7.016877
_cell_angle_alpha 87.577118
_cell_angle_beta 109.372924
_cell_angle_gamma 102.268217
_cell_volume 609.396255
_symmetry_space_group_name_H-M "P -1"
_symmetry_group_IT_number 2
_symmetry_cell_setting 'triclinic'
loop_
_space_group_symop_operation_xyz
x,y,z
-x,-y,-z
loop_
_atom_site_type_symbol
_atom_site_label
_atom_site_fract_x
_atom_site_fract_y
_atom_site_fract_z
Si Si1 0.425889 0.202469 0.807574
Si Si2 0.900001 0.721111 0.511613
Si Si3 0.355414 0.906944 0.865237
Si Si4 0.797482 0.445281 0.737607
Si Si5 0.809746 0.403538 0.172008
Si Si6 0.701968 0.128685 0.572493
Si Si7 0.431146 0.371949 0.319343
Si Si8 0.968378 0.980391 0.267719
O O1 0.299087 0.286605 0.705466
O O2 0.547856 0.172712 0.659915
O O3 0.227135 0.112578 0.805524
O O4 0.598379 0.191285 0.027933
O O5 0.747447 0.719897 0.656069
O O6 0.047166 0.650733 0.644686
O O7 0.089715 0.797172 0.459448
O O8 0.405701 0.912422 0.655870
O O9 0.109740 0.924115 0.828192
O O10 0.500000 0.000000 0.000000
O O11 0.634093 0.390798 0.532578
O O12 0.690848 0.538645 0.729781
O O13 0.053516 0.486475 0.761345
O O14 0.808128 0.390585 0.944160
O O15 0.559721 0.377328 0.163189
O O16 0.812430 0.051524 0.723833
O O17 0.000000 0.000000 0.500000
#
# Coordination Sequence:
#
# PCOD9086234 Si02
#       8
#     2   2   2   2   2   2   2   2
#     4  10  20  36  54  74 106 142 172 213 265 312
#     4  10  22  37  52  78 110 142 182 216 251 321
#     4   9  19  35  56  81 102 129 178 222 259 319
#     4   9  20  34  56  86 107 134 182 223 257 317
#     4  10  19  36  57  79 110 143 175 217 268 307
#     4  10  20  37  55  74 108 142 170 217 270 311
#     4  10  19  36  57  79 110 141 174 221 268 304
#     4   8  17  33  52  78 102 123 168 218 256 313
#
# _framework density 26.255493999999999
#
# number of rings (size 3 to 8) (size 9 to 14) (size 15 to 20)
#    0.000    2.500    0.000    1.500    0.000    6.000 
#    0.000   12.500    0.000    0.000    0.000    0.000 
#    0.000    0.000    0.000    0.000    0.000    0.000 
#
# Total GULP energy -89119.202851 kJ/mol
# GULP energy per Si atom -5569.950178 kJ/mol
# Density = 2.619574 g / cm^3
# Si number density = 26.255494 Si / 1000 Ang^3
#
#
#
# Elastic Constant Matrix: (Units=GPa)
#
#
# Indices 1 2 3 4 5 6 
#
# 1 147.0510 47.2182 38.3282 -21.4581 -6.6248 16.3581
# 2 47.2182 39.1200 21.9662 -7.5520 8.3981 8.1894
# 3 38.3282 21.9662 131.6259 -10.7297 17.6627 -9.9960
# 4 -21.4581 -7.5520 -10.7297 30.3334 -13.0682 -2.7004
# 5 -6.6248 8.3981 17.6627 -13.0682 36.4215 -13.4882
# 6 16.3581 8.1894 -9.9960 -2.7004 -13.4882 39.1107
#
#
#
# Elastic Compliance Matrix: (Units=1/GPa)
#
#
# Indices 1 2 3 4 5 6 
#
# 1 0.015091 -0.018100 -0.002008 0.011095 0.012648 0.002093
# 2 -0.018100 0.054578 -0.002619 -0.011589 -0.023774 -0.013527
# 3 -0.002008 -0.002619 0.009260 0.000029 -0.003267 0.002630
# 4 0.011095 -0.011589 0.000029 0.050331 0.026602 0.010443
# 5 0.012648 -0.023774 -0.003267 0.026602 0.053450 0.019123
# 6 0.002093 -0.013527 0.002630 0.010443 0.019123 0.035514
#
#
# Mechanical properties :
#
#
# Convention : Reuss Voigt Hill
#
# Bulk Modulus (GPa) = 29.87290 59.20245 44.53768
# Shear Modulus (GPa) = 18.19264 35.19208 26.69236
#
# Velocity S-wave (km/s) = 2.63517 3.66508 3.19194
# Velocity P-wave (km/s) = 4.54547 6.36459 5.53034
#
# Compressibility (1/GPa) = 0.03347515
#
# Stress axis : x y z
#
# Youngs Moduli (GPa) = 66.26250 18.32243 107.99550
#
# Poissons Ratio (x) = 0.33163 0.21684
# Poissons Ratio (y) = 1.19933 0.28289
# Poissons Ratio (z) = 0.13305 0.04799
#
# Static dielectric constant tensor:
#      x y z
#    x 1.856410 -0.141630 0.003760 
#    y -0.141630 2.088720 -0.031210 
#    z 0.003760 -0.031210 2.108220 
# 
# From -- ./inp_files/137531.got.cif
#   From: 2010.05.17/outbox.cif.g08.bks.cpg/sg2_69_cif.got.tgz:137531.got - 2010.06.03 11:33:40.
