data_PCOD9086048
_publ_section_title
;
Structure prediction by ZEFSAII (Michael W. Deem and Ramdas Pophale) SiO2 
 PCOD9086048
Probable space group: P -1
;
_chemical_formula_sum "Si O2"
_cell_formula_units_Z 16
_cell_length_a 10.332689
_cell_length_b 10.196990
_cell_length_c 13.457533
_cell_angle_alpha 91.809012
_cell_angle_beta 149.520093
_cell_angle_gamma 76.202557
_cell_volume 653.459689
_symmetry_space_group_name_H-M "P -1"
_symmetry_group_IT_number 2
_symmetry_cell_setting 'triclinic'
loop_
_space_group_symop_operation_xyz
x,y,z
-x,-y,-z
loop_
_atom_site_type_symbol
_atom_site_label
_atom_site_fract_x
_atom_site_fract_y
_atom_site_fract_z
Si Si1 0.185951 0.328636 0.435809
Si Si2 0.216141 0.838193 0.108982
Si Si3 0.775778 0.415365 0.611215
Si Si4 0.974274 0.022832 0.194736
Si Si5 0.936955 0.166447 0.381819
Si Si6 0.515267 0.782264 0.574062
Si Si7 0.549813 0.031808 0.148594
Si Si8 0.940624 0.656876 0.011037
O O1 0.459160 0.202501 0.662233
O O2 0.184494 0.486903 0.446012
O O3 0.940943 0.306531 0.332588
O O4 0.256613 0.299252 0.363172
O O5 0.176294 0.713376 0.140880
O O6 0.000000 0.000000 0.000000
O O7 0.144641 0.832717 0.945958
O O8 0.500000 0.500000 0.500000
O O9 0.701823 0.283397 0.531845
O O10 0.037255 0.365627 0.857571
O O11 0.296893 0.925921 0.381515
O O12 0.993195 0.056881 0.322884
O O13 0.753678 0.956115 0.015121
O O14 0.646077 0.163112 0.226399
O O15 0.183496 0.097675 0.625353
O O16 0.682571 0.776471 0.784144
O O17 0.500000 0.000000 0.000000
O O18 0.000000 0.500000 0.000000
#
# Coordination Sequence:
#
# PCOD9086048 Si02
#       8
#     2   2   2   2   2   2   2   2
#     4  11  19  34  54  80 116 146 187 225 273 330
#     4  12  22  33  53  84 124 155 181 229 283 333
#     4  10  19  36  50  74 113 154 191 230 261 324
#     4  11  22  34  56  83 117 146 181 234 283 331
#     4  10  21  35  58  83 107 142 186 232 280 343
#     4  11  22  35  53  83 118 156 186 221 279 335
#     4   9  20  40  56  79 109 142 182 229 293 336
#     4  12  21  34  53  72 113 161 197 220 266 336
#
# _framework density 24.485063
#
# number of rings (size 3 to 8) (size 9 to 14) (size 15 to 20)
#    0.000    1.250    7.500    0.750    1.750    2.000 
#    0.000    0.000    0.000    0.750    0.000    8.750 
#    0.000    0.000    0.000    0.000    0.000    0.000 
#
# Total GULP energy -89125.772045 kJ/mol
# GULP energy per Si atom -5570.360753 kJ/mol
# Density = 2.442933 g / cm^3
# Si number density = 24.485063 Si / 1000 Ang^3
#
#
#
# Elastic Constant Matrix: (Units=GPa)
#
#
# Indices 1 2 3 4 5 6 
#
# 1 54.1196 19.2941 22.6796 -3.0410 -9.3327 29.0121
# 2 19.2941 98.8831 23.7648 8.2310 3.8805 47.1024
# 3 22.6796 23.7648 165.7685 -0.4734 -19.4352 13.0103
# 4 -3.0410 8.2310 -0.4734 39.7456 8.7235 -0.6197
# 5 -9.3327 3.8805 -19.4352 8.7235 36.9685 3.5091
# 6 29.0121 47.1024 13.0103 -0.6197 3.5091 42.8772
#
#
#
# Elastic Compliance Matrix: (Units=1/GPa)
#
#
# Indices 1 2 3 4 5 6 
#
# 1 0.037608 0.010989 -0.002451 -0.002478 0.011218 -0.037728
# 2 0.010989 0.025652 -0.001974 -0.005880 0.003793 -0.035411
# 3 -0.002451 -0.001974 0.006906 -0.000369 0.003167 0.001467
# 4 -0.002478 -0.005880 -0.000369 0.028017 -0.007694 0.009282
# 5 0.011218 0.003793 0.003167 -0.007694 0.034450 -0.015648
# 6 -0.037728 -0.035411 0.001467 0.009282 -0.015648 0.088721
#
#
# Mechanical properties :
#
#
# Convention : Reuss Voigt Hill
#
# Bulk Modulus (GPa) = 12.00589 50.02758 31.01674
# Shear Modulus (GPa) = 21.18732 40.78710 30.98721
#
# Velocity S-wave (km/s) = 2.94482 4.08584 3.56132
# Velocity P-wave (km/s) = 4.05914 6.53721 5.44112
#
# Compressibility (1/GPa) = 0.08329243
#
# Stress axis : x y z
#
# Youngs Moduli (GPa) = 26.59036 38.98374 144.80270
#
# Poissons Ratio (x) = -0.42838 0.35497
# Poissons Ratio (y) = -0.29220 0.28581
# Poissons Ratio (z) = 0.06518 0.07695
#
# Static dielectric constant tensor:
#      x y z
#    x 2.125050 0.013160 -0.006030 
#    y 0.013160 2.161070 0.009200 
#    z -0.006030 0.009200 1.960200 
# 
# From -- ./inp_files/518922.got.cif
#   From: 2010.05.17/outbox.cif.g08.bks.cpg/sg2_260_cif.got.tgz:518922.got - 2010.06.03 11:33:40.
