data_PCOD9086017
_publ_section_title
;
Structure prediction by ZEFSAII (Michael W. Deem and Ramdas Pophale) SiO2 
 PCOD9086017
Probable space group: P -1
;
_chemical_formula_sum "Si O2"
_cell_formula_units_Z 16
_cell_length_a 14.934800
_cell_length_b 8.958769
_cell_length_c 21.636188
_cell_angle_alpha 141.446662
_cell_angle_beta 151.166507
_cell_angle_gamma 38.810924
_cell_volume 826.325007
_symmetry_space_group_name_H-M "P -1"
_symmetry_group_IT_number 2
_symmetry_cell_setting 'triclinic'
loop_
_space_group_symop_operation_xyz
x,y,z
-x,-y,-z
loop_
_atom_site_type_symbol
_atom_site_label
_atom_site_fract_x
_atom_site_fract_y
_atom_site_fract_z
Si Si1 0.588031 0.098161 0.144266
Si Si2 0.518120 0.087311 0.398445
Si Si3 0.657225 0.588054 0.162932
Si Si4 0.872835 0.816718 0.875181
Si Si5 0.055753 0.374698 0.747064
Si Si6 0.354226 0.588353 0.524049
Si Si7 0.772076 0.531003 0.357777
Si Si8 0.598821 0.841746 0.825980
O O1 0.675658 0.328815 0.262227
O O2 0.411305 0.155358 0.105630
O O3 0.773511 0.870346 0.206949
O O4 0.500000 0.000000 0.000000
O O5 0.331015 0.054592 0.240696
O O6 0.431541 0.287460 0.464684
O O7 0.606446 0.252669 0.459371
O O8 0.662509 0.812281 0.407704
O O9 0.843859 0.499161 0.202384
O O10 0.724536 0.515998 0.250578
O O11 0.550424 0.888374 0.197723
O O12 0.500000 0.500000 0.000000
O O13 0.800321 0.789305 0.892545
O O14 0.970598 0.554519 0.812645
O O15 0.000000 0.000000 0.000000
O O16 0.878727 0.321431 0.586196
O O17 0.484660 0.649208 0.675332
O O18 0.000000 0.500000 0.500000
#
# Coordination Sequence:
#
# PCOD9086017 Si02
#       8
#     2   2   2   2   2   2   2   2
#     4  11  26  41  60  89 138 175 200 259 335 389
#     4   9  19  36  59  93 120 158 197 278 310 368
#     4  11  22  39  63  91 126 165 220 267 309 380
#     4  10  19  35  67  93 115 155 228 267 299 361
#     4  10  22  36  65  90 116 161 215 260 305 381
#     4   9  17  36  65  89 115 148 219 261 316 351
#     4  12  24  39  65  97 134 170 214 265 331 387
#     4  10  21  39  66  87 119 168 209 257 318 378
#
# _framework density 19.362842000000001
#
# number of rings (size 3 to 8) (size 9 to 14) (size 15 to 20)
#    0.000    1.750    2.500    3.750    3.500    1.000 
#    0.000    1.250    5.500    0.000    0.000    0.000 
#    0.000    0.000    0.000    0.000    0.000    0.000 
#
# Total GULP energy -89068.352915 kJ/mol
# GULP energy per Si atom -5566.772057 kJ/mol
# Density = 1.931877 g / cm^3
# Si number density = 19.362842 Si / 1000 Ang^3
#
#
#
# Elastic Constant Matrix: (Units=GPa)
#
#
# Indices 1 2 3 4 5 6 
#
# 1 134.6329 18.2773 41.2719 2.4180 3.8438 -5.6678
# 2 18.2773 87.8291 15.1428 7.3305 3.3678 -6.6858
# 3 41.2719 15.1428 113.1606 6.0346 19.7455 2.2199
# 4 2.4180 7.3305 6.0346 17.6112 -5.2530 0.5426
# 5 3.8438 3.3678 19.7455 -5.2530 38.3672 -3.7944
# 6 -5.6678 -6.6858 2.2199 0.5426 -3.7944 22.0633
#
#
#
# Elastic Compliance Matrix: (Units=1/GPa)
#
#
# Indices 1 2 3 4 5 6 
#
# 1 0.008651 -0.001157 -0.003309 0.000734 0.001277 0.002406
# 2 -0.001157 0.012512 -0.000898 -0.005110 -0.000867 0.003561
# 3 -0.003309 -0.000898 0.011649 -0.005030 -0.006600 -0.003306
# 4 0.000734 -0.005110 -0.005030 0.064031 0.011689 -0.000418
# 5 0.001277 -0.000867 -0.006600 0.011689 0.031590 0.005875
# 6 0.002406 0.003561 -0.003306 -0.000418 0.005875 0.048375
#
#
# Mechanical properties :
#
#
# Convention : Reuss Voigt Hill
#
# Bulk Modulus (GPa) = 45.28413 53.88960 49.58687
# Shear Modulus (GPa) = 25.65435 33.00370 29.32903
#
# Velocity S-wave (km/s) = 3.64390 4.13302 3.89615
# Velocity P-wave (km/s) = 6.41420 7.11812 6.77531
#
# Compressibility (1/GPa) = 0.02208279
#
# Stress axis : x y z
#
# Youngs Moduli (GPa) = 115.59601 79.92187 85.84397
#
# Poissons Ratio (x) = 0.09245 0.28410
# Poissons Ratio (y) = 0.13371 0.07713
# Poissons Ratio (z) = 0.38256 0.07181
#
# Static dielectric constant tensor:
#      x y z
#    x 1.806140 -0.031060 -0.039930 
#    y -0.031060 1.647570 -0.021090 
#    z -0.039930 -0.021090 1.732290 
# 
# From -- ./inp_files/597459.got.cif
#   From: 2010.05.17/outbox.cif.g08.bks.cpg/sg2_299_cif.got.tgz:597459.got - 2010.06.03 11:33:40.
