data_PCOD9086250
_publ_section_title
;
Structure prediction by ZEFSAII (Michael W. Deem and Ramdas Pophale) SiO2 
 PCOD9086250
Probable space group: P -1
;
_chemical_formula_sum "Si O2"
_cell_formula_units_Z 12
_cell_length_a 7.764334
_cell_length_b 9.533001
_cell_length_c 11.410780
_cell_angle_alpha 141.759632
_cell_angle_beta 87.470427
_cell_angle_gamma 80.797532
_cell_volume 495.730542
_symmetry_space_group_name_H-M "P -1"
_symmetry_group_IT_number 2
_symmetry_cell_setting 'triclinic'
loop_
_space_group_symop_operation_xyz
x,y,z
-x,-y,-z
loop_
_atom_site_type_symbol
_atom_site_label
_atom_site_fract_x
_atom_site_fract_y
_atom_site_fract_z
Si Si1 0.116295 0.649358 0.656839
Si Si2 0.966494 0.176061 0.956319
Si Si3 0.800412 0.174312 0.533649
Si Si4 0.367353 0.769042 0.164384
Si Si5 0.427092 0.261884 0.502943
Si Si6 0.903449 0.673944 0.276452
O O1 0.051226 0.747556 0.854761
O O2 0.313387 0.455211 0.540684
O O3 0.000000 0.500000 0.500000
O O4 0.093923 0.902999 0.760848
O O5 0.005938 0.409008 0.058247
O O6 0.773253 0.192984 0.914216
O O7 0.742463 0.191958 0.684707
O O8 0.616388 0.297784 0.552718
O O9 0.967509 0.276001 0.592690
O O10 0.868876 0.890493 0.330033
O O11 0.454963 0.983800 0.290316
O O12 0.500000 0.500000 0.000000
O O13 0.292703 0.306689 0.649876
#
# Coordination Sequence:
#
# PCOD9086250 Si02
#       6
#     2   2   2   2   2   2
#     4  10  19  36  57  81 108 153 193 229 283 326
#     4  10  20  33  56  85 110 144 195 233 273 342
#     4  10  20  35  58  85 118 151 180 229 289 339
#     4  11  19  31  55  88 116 144 185 233 282 339
#     4  10  19  36  59  81 115 150 189 232 276 338
#     4   9  19  36  56  85 115 147 185 231 283 338
#
# _framework density 24.206700999999999
#
# number of rings (size 3 to 8) (size 9 to 14) (size 15 to 20)
#    0.000    2.000    1.667    5.000    0.000    0.667 
#    0.000    2.500    0.000    4.000    0.000    0.000 
#    0.000    0.000    0.000    0.000    0.000    0.000 
#
# Total GULP energy -67012.908378 kJ/mol
# GULP energy per Si atom -5584.409031 kJ/mol
# Density = 2.415161 g / cm^3
# Si number density = 24.206701 Si / 1000 Ang^3
#
#
#
# Elastic Constant Matrix: (Units=GPa)
#
#
# Indices 1 2 3 4 5 6 
#
# 1 86.9079 48.7719 33.1928 5.5646 -3.4881 -44.5979
# 2 48.7719 151.6889 60.9825 30.5563 5.2783 -25.5320
# 3 33.1928 60.9825 182.3667 31.1721 -2.3442 -13.6714
# 4 5.5646 30.5563 31.1721 68.1671 -3.3547 -1.8121
# 5 -3.4881 5.2783 -2.3442 -3.3547 26.2925 -0.7275
# 6 -44.5979 -25.5320 -13.6714 -1.8121 -0.7275 54.2044
#
#
#
# Elastic Compliance Matrix: (Units=1/GPa)
#
#
# Indices 1 2 3 4 5 6 
#
# 1 0.023372 -0.004468 -0.001706 0.001544 0.004507 0.016807
# 2 -0.004468 0.009568 -0.001860 -0.003220 -0.003084 0.000213
# 3 -0.001706 -0.001860 0.006732 -0.002100 0.000461 -0.000646
# 4 0.001544 -0.003220 -0.002100 0.017083 0.002839 -0.000167
# 5 0.004507 -0.003084 0.000461 0.002839 0.039737 0.003000
# 6 0.016807 0.000213 -0.000646 -0.000167 0.003000 0.032250
#
#
# Mechanical properties :
#
#
# Convention : Reuss Voigt Hill
#
# Bulk Modulus (GPa) = 42.36160 78.53977 60.45068
# Shear Modulus (GPa) = 32.74858 48.26722 40.50790
#
# Velocity S-wave (km/s) = 3.68213 4.47022 4.09518
# Velocity P-wave (km/s) = 5.96786 7.69154 6.88386
#
# Compressibility (1/GPa) = 0.02360628
#
# Stress axis : x y z
#
# Youngs Moduli (GPa) = 42.78573 104.51049 148.53627
#
# Poissons Ratio (x) = 0.46693 0.25339
# Poissons Ratio (y) = 0.19116 0.27624
# Poissons Ratio (z) = 0.07299 0.19436
#
# Static dielectric constant tensor:
#      x y z
#    x 1.922690 0.048360 -0.018090 
#    y 0.048360 2.059730 -0.041940 
#    z -0.018090 -0.041940 2.018030 
# 
# From -- ./inp_files/249667.got.cif
#   From: 2010.05.17/outbox.cif.g08.bks.cpg/sg2_125_cif.got.tgz:249667.got - 2010.06.03 11:33:40.
