data_PCOD9086135
_publ_section_title
;
Structure prediction by ZEFSAII (Michael W. Deem and Ramdas Pophale) SiO2 
 PCOD9086135
Probable space group: P -1
;
_chemical_formula_sum "Si O2"
_cell_formula_units_Z 16
_cell_length_a 14.796956
_cell_length_b 15.496190
_cell_length_c 5.275168
_cell_angle_alpha 92.020547
_cell_angle_beta 134.580319
_cell_angle_gamma 103.643134
_cell_volume 801.220796
_symmetry_space_group_name_H-M "P -1"
_symmetry_group_IT_number 2
_symmetry_cell_setting 'triclinic'
loop_
_space_group_symop_operation_xyz
x,y,z
-x,-y,-z
loop_
_atom_site_type_symbol
_atom_site_label
_atom_site_fract_x
_atom_site_fract_y
_atom_site_fract_z
Si Si1 0.288491 0.415962 0.180537
Si Si2 0.896207 0.554183 0.759355
Si Si3 0.632761 0.111346 0.533685
Si Si4 0.431439 0.282708 0.670563
Si Si5 0.263707 0.629100 0.839563
Si Si6 0.452249 0.098303 0.676180
Si Si7 0.155094 0.694120 0.124516
Si Si8 0.471504 0.419773 0.145490
O O1 0.163579 0.422958 0.094025
O O2 0.335794 0.338213 0.405079
O O3 0.320219 0.391974 0.956576
O O4 0.401167 0.521517 0.425099
O O5 0.783705 0.477266 0.359696
O O6 0.000000 0.500000 0.000000
O O7 0.991690 0.649075 0.824794
O O8 0.554644 0.116835 0.639769
O O9 0.773202 0.198216 0.793805
O O10 0.642316 0.009834 0.535850
O O11 0.538847 0.113646 0.108133
O O12 0.379085 0.172890 0.538366
O O13 0.574659 0.320852 0.809848
O O14 0.480024 0.325751 0.048411
O O15 0.216265 0.678452 0.515125
O O16 0.193823 0.639320 0.964925
O O17 0.500000 0.500000 0.000000
#
# Coordination Sequence:
#
# PCOD9086135 Si02
#       8
#     2   2   2   2   2   2   2   2
#     4  10  21  36  52  81 112 148 192 232 281 333
#     4  10  23  39  55  80 115 156 193 228 273 338
#     4  10  19  36  55  87 113 145 185 229 293 337
#     4  11  20  33  56  81 114 149 181 242 286 337
#     4  11  22  35  57  84 114 148 193 225 284 331
#     4  10  21  33  58  84 117 141 180 242 287 342
#     4  11  21  38  57  82 115 154 186 231 272 346
#     4   9  20  34  53  76 108 144 183 233 274 328
#
# _framework density 19.969529000000001
#
# number of rings (size 3 to 8) (size 9 to 14) (size 15 to 20)
#    0.000    1.750    3.750    0.375    3.500    3.000 
#    9.000    0.000    0.000    0.750    0.000    0.875 
#    0.000    0.000    0.000    0.000    0.000    0.000 
#
# Total GULP energy -89174.068944 kJ/mol
# GULP energy per Si atom -5573.379309 kJ/mol
# Density = 1.992408 g / cm^3
# Si number density = 19.969529 Si / 1000 Ang^3
#
#
#
# Elastic Constant Matrix: (Units=GPa)
#
#
# Indices 1 2 3 4 5 6 
#
# 1 156.1553 38.0666 14.2118 0.7243 -4.7631 3.1687
# 2 38.0666 153.8632 24.4376 28.1541 4.0125 -5.9969
# 3 14.2118 24.4376 30.4228 -5.0536 -8.1481 6.6295
# 4 0.7243 28.1541 -5.0536 32.3899 8.0612 3.4959
# 5 -4.7631 4.0125 -8.1481 8.0612 35.1986 1.0532
# 6 3.1687 -5.9969 6.6295 3.4959 1.0532 36.1188
#
#
#
# Elastic Compliance Matrix: (Units=1/GPa)
#
#
# Indices 1 2 3 4 5 6 
#
# 1 0.006985 -0.001766 -0.001325 0.001106 0.000610 -0.000788
# 2 -0.001766 0.011184 -0.011719 -0.011660 -0.001716 0.005342
# 3 -0.001325 -0.011719 0.051170 0.017272 0.009440 -0.013169
# 4 0.001106 -0.011660 0.017272 0.045887 -0.004748 -0.009506
# 5 0.000610 -0.001716 0.009440 -0.004748 0.032037 -0.002546
# 6 -0.000788 0.005342 -0.013169 -0.009506 -0.002546 0.032054
#
#
# Mechanical properties :
#
#
# Convention : Reuss Voigt Hill
#
# Bulk Modulus (GPa) = 25.17817 54.87479 40.02648
# Shear Modulus (GPa) = 22.50464 38.32313 30.41389
#
# Velocity S-wave (km/s) = 3.36065 4.38548 3.90682
# Velocity P-wave (km/s) = 5.26253 7.29261 6.35911
#
# Compressibility (1/GPa) = 0.03971694
#
# Stress axis : x y z
#
# Youngs Moduli (GPa) = 143.17272 89.41253 19.54281
#
# Poissons Ratio (x) = 0.15795 0.02590
# Poissons Ratio (y) = 0.25291 0.22902
# Poissons Ratio (z) = 0.18972 1.04784
#
# Static dielectric constant tensor:
#      x y z
#    x 1.768200 0.007170 -0.045150 
#    y 0.007170 1.767360 -0.088030 
#    z -0.045150 -0.088030 1.894460 
# 
# From -- ./inp_files/97234.got.cif
#   From: 2010.05.17/outbox.cif.g08.bks.cpg/sg2_49_cif.got.tgz:97234.got - 2010.06.03 11:33:40.
