data_PCOD9086377
_publ_section_title
;
Structure prediction by ZEFSAII (Michael W. Deem and Ramdas Pophale) SiO2 
 PCOD9086377
Probable space group: P -1
;
_chemical_formula_sum "Si O2"
_cell_formula_units_Z 14
_cell_length_a 8.463308
_cell_length_b 7.779032
_cell_length_c 18.774595
_cell_angle_alpha 122.500489
_cell_angle_beta 131.236490
_cell_angle_gamma 35.341134
_cell_volume 537.665384
_symmetry_space_group_name_H-M "P -1"
_symmetry_group_IT_number 2
_symmetry_cell_setting 'triclinic'
loop_
_space_group_symop_operation_xyz
x,y,z
-x,-y,-z
loop_
_atom_site_type_symbol
_atom_site_label
_atom_site_fract_x
_atom_site_fract_y
_atom_site_fract_z
Si Si1 0.868587 0.129125 0.408946
Si Si2 0.441301 0.302972 0.943908
Si Si3 0.866277 0.527281 0.889504
Si Si4 0.640033 0.774325 0.668730
Si Si5 0.736109 0.111561 0.140683
Si Si6 0.344203 0.346676 0.771902
Si Si7 0.507013 0.232022 0.534555
O O1 0.573547 0.192161 0.330651
O O2 0.742999 0.446953 0.433099
O O3 0.000000 0.000000 0.500000
O O4 0.154216 0.908942 0.391776
O O5 0.531182 0.175604 0.862409
O O6 0.086948 0.496419 0.895839
O O7 0.500000 0.500000 0.000000
O O8 0.623194 0.125470 0.030760
O O9 0.505061 0.805507 0.855070
O O10 0.947549 0.231956 0.834255
O O11 0.000000 0.500000 0.000000
O O12 0.571975 0.715951 0.560771
O O13 0.002707 0.507680 0.720933
O O14 0.514146 0.095232 0.706324
O O15 0.707576 0.375787 0.195232
O O16 0.500000 0.000000 0.500000
#
# Coordination Sequence:
#
# PCOD9086377 Si02
#       7
#     2   2   2   2   2   2   2
#     4  10  20  39  65  89 117 156 195 237 293 364
#     4   9  20  37  58  82 110 151 202 237 277 343
#     4  10  19  36  58  80 105 143 195 250 289 336
#     4  11  22  40  60  86 120 154 192 239 299 352
#     4  10  21  38  58  81 114 156 196 238 292 345
#     4  11  23  38  57  85 119 155 191 244 293 342
#     4  11  22  40  66  93 118 155 201 245 292 362
#
# _framework density 26.038499999999999
#
# number of rings (size 3 to 8) (size 9 to 14) (size 15 to 20)
#    0.000    1.714    0.000    7.286    0.000    3.429 
#    0.000   20.714    0.000    0.000    0.000    0.000 
#    0.000    0.000    0.000    0.000    0.000    0.000 
#
# Total GULP energy -78267.445866 kJ/mol
# GULP energy per Si atom -5590.531848 kJ/mol
# Density = 2.597924 g / cm^3
# Si number density = 26.038500 Si / 1000 Ang^3
#
#
#
# Elastic Constant Matrix: (Units=GPa)
#
#
# Indices 1 2 3 4 5 6 
#
# 1 73.1984 3.1585 -9.3111 -4.0092 15.3259 11.2855
# 2 3.1585 150.3088 8.8934 25.6784 8.3635 -2.8793
# 3 -9.3111 8.8934 54.8522 15.3535 -0.2230 -1.5296
# 4 -4.0092 25.6784 15.3535 30.1485 2.3965 12.3495
# 5 15.3259 8.3635 -0.2230 2.3965 29.7213 7.5381
# 6 11.2855 -2.8793 -1.5296 12.3495 7.5381 40.0777
#
#
#
# Elastic Compliance Matrix: (Units=1/GPa)
#
#
# Indices 1 2 3 4 5 6 
#
# 1 0.016417 -0.000921 0.001446 0.004746 -0.007384 -0.004707
# 2 -0.000921 0.008426 0.001247 -0.009501 -0.002200 0.004254
# 3 0.001446 0.001247 0.022419 -0.014311 -0.001081 0.005151
# 4 0.004746 -0.009501 -0.014311 0.057486 0.000658 -0.020403
# 5 -0.007384 -0.002200 -0.001081 0.000658 0.039469 -0.005746
# 6 -0.004707 0.004254 0.005151 -0.020403 -0.005746 0.034147
#
#
# Mechanical properties :
#
#
# Convention : Reuss Voigt Hill
#
# Bulk Modulus (GPa) = 19.68250 31.53789 25.61020
# Shear Modulus (GPa) = 26.07512 38.36408 32.21960
#
# Velocity S-wave (km/s) = 3.16793 3.84260 3.52146
# Velocity P-wave (km/s) = 4.57783 5.64143 5.13723
#
# Compressibility (1/GPa) = 0.05080656
#
# Stress axis : x y z
#
# Youngs Moduli (GPa) = 60.91239 118.68631 44.60487
#
# Poissons Ratio (x) = 0.10927 -0.06451
# Poissons Ratio (y) = 0.05608 -0.05561
# Poissons Ratio (z) = -0.08810 -0.14797
#
# Static dielectric constant tensor:
#      x y z
#    x 2.076300 0.058720 -0.000230 
#    y 0.058720 2.020910 -0.022120 
#    z -0.000230 -0.022120 2.099430 
# 
# From -- ./inp_files/588147.got.cif
#   From: 2010.05.17/outbox.cif.g08.bks.cpg/sg2_295_cif.got.tgz:588147.got - 2010.06.03 11:33:40.
