data_PCOD9086112
_publ_section_title
;
Structure prediction by ZEFSAII (Michael W. Deem and Ramdas Pophale) SiO2 
 PCOD9086112
Probable space group: P -1
;
_chemical_formula_sum "Si O2"
_cell_formula_units_Z 16
_cell_length_a 12.690634
_cell_length_b 8.674926
_cell_length_c 15.462202
_cell_angle_alpha 102.706942
_cell_angle_beta 24.014489
_cell_angle_gamma 100.949859
_cell_volume 675.530720
_symmetry_space_group_name_H-M "P -1"
_symmetry_group_IT_number 2
_symmetry_cell_setting 'triclinic'
loop_
_space_group_symop_operation_xyz
x,y,z
-x,-y,-z
loop_
_atom_site_type_symbol
_atom_site_label
_atom_site_fract_x
_atom_site_fract_y
_atom_site_fract_z
Si Si1 0.521761 0.473237 0.254918
Si Si2 0.082710 0.459728 0.834483
Si Si3 0.890760 0.071125 0.324158
Si Si4 0.558809 0.289939 0.494849
Si Si5 0.741886 0.841615 0.551480
Si Si6 0.464198 0.036737 0.929148
Si Si7 0.021832 0.630166 0.586529
Si Si8 0.804228 0.313749 0.717202
O O1 0.503742 0.609812 0.358209
O O2 0.442832 0.307587 0.335579
O O3 0.292743 0.527665 0.370108
O O4 0.803078 0.453251 0.999046
O O5 0.272051 0.304225 0.668783
O O6 0.247737 0.602082 0.691073
O O7 0.000000 0.500000 0.000000
O O8 0.712621 0.128566 0.384334
O O9 0.952285 0.235283 0.346615
O O10 0.733617 0.961984 0.493254
O O11 0.185024 0.002930 0.091043
O O12 0.030895 0.769200 0.340037
O O13 0.663222 0.938354 0.708161
O O14 0.545910 0.219469 0.884070
O O15 0.500000 0.000000 0.000000
O O16 0.020643 0.708913 0.503697
O O17 0.808368 0.501707 0.750035
#
# Coordination Sequence:
#
# PCOD9086112 Si02
#       8
#     2   2   2   2   2   2   2   2
#     4   9  20  36  60  84 110 149 183 228 280 327
#     4   9  18  37  63  88 113 138 173 224 285 337
#     4  11  22  36  55  82 112 146 185 232 277 327
#     4   9  20  37  62  89 110 138 182 228 276 336
#     4  11  22  39  54  77 120 150 187 234 275 322
#     4  12  23  34  56  79 110 161 195 222 278 333
#     4   9  19  35  55  79 110 145 186 243 271 309
#     4  10  19  36  55  75 110 151 192 231 276 314
#
# _framework density 23.685081
#
# number of rings (size 3 to 8) (size 9 to 14) (size 15 to 20)
#    0.000    2.000    2.500    1.125    1.750    2.500 
#    2.250    0.625    0.000    7.500    0.000    0.000 
#    0.000    0.000    0.000    0.000    0.000    0.000 
#
# Total GULP energy -89287.901624 kJ/mol
# GULP energy per Si atom -5580.493852 kJ/mol
# Density = 2.363117 g / cm^3
# Si number density = 23.685081 Si / 1000 Ang^3
#
#
#
# Elastic Constant Matrix: (Units=GPa)
#
#
# Indices 1 2 3 4 5 6 
#
# 1 45.7807 11.5067 22.7104 8.7995 -3.4075 -15.9868
# 2 11.5067 79.6504 32.2479 -1.9486 -3.6012 -22.2106
# 3 22.7104 32.2479 111.1916 -1.7026 -25.4403 -20.6121
# 4 8.7995 -1.9486 -1.7026 25.7979 2.1568 0.5348
# 5 -3.4075 -3.6012 -25.4403 2.1568 31.4863 0.6896
# 6 -15.9868 -22.2106 -20.6121 0.5348 0.6896 50.0854
#
#
#
# Elastic Compliance Matrix: (Units=1/GPa)
#
#
# Indices 1 2 3 4 5 6 
#
# 1 0.028709 -0.000566 -0.004551 -0.010277 -0.000088 0.007150
# 2 -0.000566 0.015566 -0.003768 0.001140 -0.001517 0.005180
# 3 -0.004551 -0.003768 0.013785 0.001286 0.010074 0.002397
# 4 -0.010277 0.001140 0.001286 0.042729 -0.002812 -0.002663
# 5 -0.000088 -0.001517 0.010074 -0.002812 0.039845 0.002926
# 6 0.007150 0.005180 0.002397 -0.002663 0.002926 0.025520
#
#
# Mechanical properties :
#
#
# Convention : Reuss Voigt Hill
#
# Bulk Modulus (GPa) = 24.82123 41.06141 32.94132
# Shear Modulus (GPa) = 25.33507 32.81777 29.07642
#
# Velocity S-wave (km/s) = 3.27412 3.72639 3.50755
# Velocity P-wave (km/s) = 4.97952 5.99071 5.50837
#
# Compressibility (1/GPa) = 0.04028809
#
# Stress axis : x y z
#
# Youngs Moduli (GPa) = 34.83216 64.24236 72.54378
#
# Poissons Ratio (x) = 0.03637 0.33018
# Poissons Ratio (y) = 0.01972 0.27336
# Poissons Ratio (z) = 0.15854 0.24208
#
# Static dielectric constant tensor:
#      x y z
#    x 2.000640 -0.019070 -0.087570 
#    y -0.019070 1.914930 0.046820 
#    z -0.087570 0.046820 1.965370 
# 
# From -- ./inp_files/44581.got.cif
#   From: 2010.05.17/outbox.cif.g08.bks.cpg/sg2_23_cif.got.tgz:44581.got - 2010.06.03 11:33:40.
