data_PCOD9086472
_publ_section_title
;
Structure prediction by ZEFSAII (Michael W. Deem and Ramdas Pophale) SiO2 
 PCOD9086472
Probable space group: P -1
;
_chemical_formula_sum "Si O2"
_cell_formula_units_Z 16
_cell_length_a 11.207539
_cell_length_b 17.998852
_cell_length_c 8.174535
_cell_angle_alpha 122.965579
_cell_angle_beta 90.587820
_cell_angle_gamma 40.334039
_cell_volume 597.393694
_symmetry_space_group_name_H-M "P -1"
_symmetry_group_IT_number 2
_symmetry_cell_setting 'triclinic'
loop_
_space_group_symop_operation_xyz
x,y,z
-x,-y,-z
loop_
_atom_site_type_symbol
_atom_site_label
_atom_site_fract_x
_atom_site_fract_y
_atom_site_fract_z
Si Si1 0.863322 0.712105 0.572610
Si Si2 0.604739 0.106826 0.157673
Si Si3 0.727589 0.102089 0.680204
Si Si4 0.447873 0.572739 0.407178
Si Si5 0.116331 0.581825 0.754964
Si Si6 0.178856 0.358669 0.992127
Si Si7 0.994468 0.785878 0.484797
Si Si8 0.919112 0.030306 0.259506
O O1 0.562997 0.869114 0.765537
O O2 0.917658 0.734898 0.440036
O O3 0.970307 0.691937 0.709606
O O4 0.063989 0.494106 0.302002
O O5 0.367498 0.342014 0.445339
O O6 0.846826 0.983234 0.128292
O O7 0.753672 0.986169 0.844016
O O8 0.750110 0.141081 0.560524
O O9 0.968182 0.868027 0.429785
O O10 0.472226 0.206382 0.787125
O O11 0.783074 0.135033 0.869385
O O12 0.500000 0.500000 0.500000
O O13 0.725754 0.437895 0.201538
O O14 0.212875 0.807754 0.668206
O O15 0.303087 0.593401 0.324808
O O16 0.886985 0.695559 0.010924
O O17 0.000000 0.500000 0.000000
#
# Coordination Sequence:
#
# PCOD9086472 Si02
#       8
#     2   2   2   2   2   2   2   2
#     4  11  21  36  56  86 124 150 191 247 293 338
#     4  10  20  36  56  88 116 153 205 237 285 348
#     4  10  20  40  63  86 117 157 200 232 291 356
#     4  10  19  36  58  87 121 148 192 248 292 333
#     4  10  20  36  59  85 118 155 194 244 284 343
#     4  11  22  38  62  88 113 158 198 233 288 356
#     4  11  22  35  59  88 117 159 190 244 297 339
#     4   9  21  38  64  85 116 158 198 243 283 346
#
# _framework density 26.783007999999999
#
# number of rings (size 3 to 8) (size 9 to 14) (size 15 to 20)
#    0.000    1.750    1.250    5.625    0.000    5.500 
#    0.000    3.750    0.000    4.500    0.000    0.000 
#    0.000    0.000    0.000    0.000    0.000    0.000 
#
# Total GULP energy -89383.524198 kJ/mol
# GULP energy per Si atom -5586.470262 kJ/mol
# Density = 2.672205 g / cm^3
# Si number density = 26.783008 Si / 1000 Ang^3
#
#
#
# Elastic Constant Matrix: (Units=GPa)
#
#
# Indices 1 2 3 4 5 6 
#
# 1 202.2506 46.2749 43.0647 1.6534 -57.0375 -10.2018
# 2 46.2749 133.4164 15.1766 13.0293 -10.2300 -11.8885
# 3 43.0647 15.1766 45.6647 9.3553 -7.4026 -1.6162
# 4 1.6534 13.0293 9.3553 30.0434 -2.4510 -3.7713
# 5 -57.0375 -10.2300 -7.4026 -2.4510 49.7326 -2.2554
# 6 -10.2018 -11.8885 -1.6162 -3.7713 -2.2554 47.5361
#
#
#
# Elastic Compliance Matrix: (Units=1/GPa)
#
#
# Indices 1 2 3 4 5 6 
#
# 1 0.010031 -0.001985 -0.007859 0.003863 0.010216 0.002180
# 2 -0.001985 0.008632 -0.000357 -0.003399 -0.000657 0.001420
# 3 -0.007859 -0.000357 0.030496 -0.009543 -0.005096 -0.001738
# 4 0.003863 -0.003399 -0.009543 0.038234 0.004326 0.002893
# 5 0.010216 -0.000657 -0.005096 0.004326 0.031311 0.003684
# 6 0.002180 0.001420 -0.001738 0.002893 0.003684 0.022205
#
#
# Mechanical properties :
#
#
# Convention : Reuss Voigt Hill
#
# Bulk Modulus (GPa) = 34.77228 65.59602 50.18415
# Shear Modulus (GPa) = 29.25746 43.91679 36.58712
#
# Velocity S-wave (km/s) = 3.30872 4.05375 3.70003
# Velocity P-wave (km/s) = 5.25433 6.81581 6.08536
#
# Compressibility (1/GPa) = 0.02875854
#
# Stress axis : x y z
#
# Youngs Moduli (GPa) = 99.68842 115.84141 32.79131
#
# Poissons Ratio (x) = 0.22995 0.25769
# Poissons Ratio (y) = 0.19788 0.01171
# Poissons Ratio (z) = 0.78341 0.04135
#
# Static dielectric constant tensor:
#      x y z
#    x 2.154280 0.003010 0.020780 
#    y 0.003010 2.111170 0.010580 
#    z 0.020780 0.010580 2.177360 
# 
# From -- ./inp_files/274384.got.cif
#   From: 2010.05.17/outbox.cif.g08.bks.cpg/sg2_138_cif.got.tgz:274384.got - 2010.06.03 11:33:40.
