data_PCOD9086870
_publ_section_title
;
Structure prediction by ZEFSAII (Michael W. Deem and Ramdas Pophale) SiO2 
 PCOD9086870
Probable space group: P -1
;
_chemical_formula_sum "Si O2"
_cell_formula_units_Z 16
_cell_length_a 10.617263
_cell_length_b 12.234540
_cell_length_c 6.207232
_cell_angle_alpha 106.934577
_cell_angle_beta 70.741394
_cell_angle_gamma 122.397321
_cell_volume 636.033751
_symmetry_space_group_name_H-M "P -1"
_symmetry_group_IT_number 2
_symmetry_cell_setting 'triclinic'
loop_
_space_group_symop_operation_xyz
x,y,z
-x,-y,-z
loop_
_atom_site_type_symbol
_atom_site_label
_atom_site_fract_x
_atom_site_fract_y
_atom_site_fract_z
Si Si1 0.560129 0.232851 0.072951
Si Si2 0.288866 0.623163 0.536848
Si Si3 0.343920 0.882283 0.429372
Si Si4 0.188173 0.368881 0.275646
Si Si5 0.955815 0.111072 0.019393
Si Si6 0.417122 0.331740 0.848721
Si Si7 0.169122 0.202538 0.576307
Si Si8 0.747847 0.991378 0.747059
O O1 0.686993 0.352068 0.208241
O O2 0.429947 0.121269 0.227081
O O3 0.627923 0.162918 0.846818
O O4 0.471770 0.281849 0.992579
O O5 0.287880 0.751770 0.524404
O O6 0.163799 0.490688 0.419047
O O7 0.440703 0.618137 0.365817
O O8 0.500000 0.000000 0.500000
O O9 0.227599 0.931560 0.447922
O O10 0.225371 0.326432 0.461182
O O11 0.042086 0.239079 0.191884
O O12 0.325884 0.401682 0.043917
O O13 0.018910 0.167699 0.774413
O O14 0.778894 0.046773 0.008813
O O15 0.000000 0.000000 0.000000
O O16 0.285065 0.222140 0.714969
O O17 0.161179 0.089411 0.367740
#
# Coordination Sequence:
#
# PCOD9086870 Si02
#       8
#     2   2   2   2   2   2   2   2
#     4  11  21  39  61  93 125 156 204 256 318 369
#     4  11  23  39  59  89 129 167 204 254 310 372
#     4  11  24  41  63  95 124 159 210 260 309 368
#     4  11  23  39  59  89 129 167 204 254 310 372
#     4  11  24  41  63  95 124 159 210 260 309 368
#     4  10  19  36  60  92 124 162 203 252 313 372
#     4  11  21  39  61  93 125 156 204 256 318 369
#     4  12  20  40  64  90 122 160 202 260 312 362
#
# _framework density 25.155897
#
# number of rings (size 3 to 8) (size 9 to 14) (size 15 to 20)
#    0.000    1.000    5.000    2.625    0.000    6.000 
#    0.000    0.625    0.000    1.500    0.000    0.000 
#    0.000    0.000    0.000    0.000    0.000    0.000 
#
# Total GULP energy -89299.968128 kJ/mol
# GULP energy per Si atom -5581.248008 kJ/mol
# Density = 2.509864 g / cm^3
# Si number density = 25.155897 Si / 1000 Ang^3
#
#
#
# Elastic Constant Matrix: (Units=GPa)
#
#
# Indices 1 2 3 4 5 6 
#
# 1 49.9668 18.4255 6.8322 5.3506 30.1515 -12.9973
# 2 18.4255 107.7173 32.3624 29.3256 25.0442 -14.7462
# 3 6.8322 32.3624 107.3344 19.0425 26.7760 -2.8481
# 4 5.3506 29.3256 19.0425 50.4465 12.2326 3.9556
# 5 30.1515 25.0442 26.7760 12.2326 54.8212 -9.2734
# 6 -12.9973 -14.7462 -2.8481 3.9556 -9.2734 20.3756
#
#
#
# Elastic Compliance Matrix: (Units=1/GPa)
#
#
# Indices 1 2 3 4 5 6 
#
# 1 0.034001 -0.000323 0.002862 -0.001448 -0.017208 0.014305
# 2 -0.000323 0.013834 -0.002110 -0.007604 -0.001687 0.010220
# 3 0.002862 -0.002110 0.011583 -0.001993 -0.005886 -0.000374
# 4 -0.001448 -0.007604 -0.001993 0.026923 -0.003015 -0.013304
# 5 -0.017208 -0.001687 -0.005886 -0.003015 0.032416 0.002318
# 6 0.014305 0.010220 -0.000374 -0.013304 0.002318 0.069185
#
#
# Mechanical properties :
#
#
# Convention : Reuss Voigt Hill
#
# Bulk Modulus (GPa) = 16.58997 42.25098 29.42048
# Shear Modulus (GPa) = 24.13442 38.95521 31.54482
#
# Velocity S-wave (km/s) = 3.10077 3.93943 3.54499
# Velocity P-wave (km/s) = 4.40782 6.12571 5.33635
#
# Compressibility (1/GPa) = 0.06027740
#
# Stress axis : x y z
#
# Youngs Moduli (GPa) = 29.41116 72.28668 86.33655
#
# Poissons Ratio (x) = 0.02331 -0.24712
# Poissons Ratio (y) = 0.00949 0.18213
# Poissons Ratio (z) = -0.08418 0.15249
#
# Static dielectric constant tensor:
#      x y z
#    x 2.187140 0.105910 -0.022450 
#    y 0.105910 2.114710 0.057510 
#    z -0.022450 0.057510 2.034130 
# 
# From -- ./inp_files/71792.got.cif
#   From: 2010.05.17/outbox.cif.g08.bks.cpg/sg2_36_cif.got.tgz:71792.got - 2010.06.03 11:33:40.
