data_PCOD9086034
_publ_section_title
;
Structure prediction by ZEFSAII (Michael W. Deem and Ramdas Pophale) SiO2 
 PCOD9086034
Probable space group: P -1
;
_chemical_formula_sum "Si O2"
_cell_formula_units_Z 14
_cell_length_a 9.586317
_cell_length_b 12.252914
_cell_length_c 8.166689
_cell_angle_alpha 123.827293
_cell_angle_beta 92.756712
_cell_angle_gamma 50.522066
_cell_volume 540.609446
_symmetry_space_group_name_H-M "P -1"
_symmetry_group_IT_number 2
_symmetry_cell_setting 'triclinic'
loop_
_space_group_symop_operation_xyz
x,y,z
-x,-y,-z
loop_
_atom_site_type_symbol
_atom_site_label
_atom_site_fract_x
_atom_site_fract_y
_atom_site_fract_z
Si Si1 0.151992 0.937190 0.820961
Si Si2 0.105215 0.286901 0.439408
Si Si3 0.048879 0.277714 0.037347
Si Si4 0.207358 0.503105 0.103103
Si Si5 0.519220 0.096452 0.217357
Si Si6 0.226280 0.791848 0.383489
Si Si7 0.573707 0.089982 0.659588
O O1 0.369967 0.852871 0.807555
O O2 0.213681 0.783980 0.571617
O O3 0.007499 0.151283 0.915131
O O4 0.000000 0.000000 0.000000
O O5 0.043824 0.312209 0.263463
O O6 0.923965 0.434302 0.684942
O O7 0.295048 0.262245 0.422399
O O8 0.229802 0.080328 0.357635
O O9 0.400888 0.275641 0.916403
O O10 0.918849 0.436516 0.022669
O O11 0.272593 0.611688 0.181623
O O12 0.714643 0.898643 0.157366
O O13 0.500000 0.000000 0.000000
O O14 0.367369 0.823907 0.380912
O O15 0.000000 0.000000 0.500000
O O16 0.500000 0.000000 0.500000
#
# Coordination Sequence:
#
# PCOD9086034 Si02
#       7
#     2   2   2   2   2   2   2
#     4  10  19  35  69 112 145 199 254 308 387 454
#     4  11  22  46  78 112 154 204 262 320 393 461
#     4   9  21  42  72 114 153 201 254 324 386 456
#     4  12  26  48  82 114 154 211 258 321 397 467
#     4   8  18  36  66 109 152 199 249 316 381 452
#     4  12  22  46  75 113 155 203 256 323 386 463
#     4  12  29  50  79 117 156 204 266 322 392 470
#
# _framework density 25.896701
#
# number of rings (size 3 to 8) (size 9 to 14) (size 15 to 20)
#    0.857    0.571    2.857    2.143    2.000    0.571 
#    0.000    3.571    0.000    3.429    0.000    0.000 
#    0.000    0.000    0.000    0.000    0.000    0.000 
#
# Total GULP energy -77940.004024 kJ/mol
# GULP energy per Si atom -5567.143145 kJ/mol
# Density = 2.583776 g / cm^3
# Si number density = 25.896701 Si / 1000 Ang^3
#
#
#
# Elastic Constant Matrix: (Units=GPa)
#
#
# Indices 1 2 3 4 5 6 
#
# 1 124.0395 24.7072 89.1319 2.6037 -6.7173 33.7770
# 2 24.7072 83.1845 53.5241 1.3267 0.5147 22.3135
# 3 89.1319 53.5241 199.9409 -5.0555 -22.9341 7.4342
# 4 2.6037 1.3267 -5.0555 52.8871 0.9606 -1.8383
# 5 -6.7173 0.5147 -22.9341 0.9606 57.3163 1.8840
# 6 33.7770 22.3135 7.4342 -1.8383 1.8840 45.3054
#
#
#
# Elastic Compliance Matrix: (Units=1/GPa)
#
#
# Indices 1 2 3 4 5 6 
#
# 1 0.016694 0.003810 -0.008130 -0.002132 -0.000867 -0.013039
# 2 0.003810 0.017839 -0.006336 -0.001574 -0.001875 -0.010573
# 3 -0.008130 -0.006336 0.010436 0.001760 0.003006 0.007416
# 4 -0.002132 -0.001574 0.001760 0.019319 0.000051 0.002858
# 5 -0.000867 -0.001875 0.003006 0.000051 0.018554 0.000307
# 6 -0.013039 -0.010573 0.007416 0.002858 0.000307 0.035887
#
#
# Mechanical properties :
#
#
# Convention : Reuss Voigt Hill
#
# Bulk Modulus (GPa) = 42.27214 82.43237 62.35225
# Shear Modulus (GPa) = 33.80052 47.08852 40.44452
#
# Velocity S-wave (km/s) = 3.61668 4.26880 3.95620
# Velocity P-wave (km/s) = 5.81372 7.49648 6.70808
#
# Compressibility (1/GPa) = 0.02365624
#
# Stress axis : x y z
#
# Youngs Moduli (GPa) = 59.90295 56.05610 95.82605
#
# Poissons Ratio (x) = -0.21357 0.77910
# Poissons Ratio (y) = -0.22822 0.60713
# Poissons Ratio (z) = 0.48703 0.35516
#
# Static dielectric constant tensor:
#      x y z
#    x 2.080290 -0.043230 0.160160 
#    y -0.043230 2.011560 0.159300 
#    z 0.160160 0.159300 1.806180 
# 
# From -- ./inp_files/172731.got.cif
#   From: 2010.05.17/outbox.cif.g08.bks.cpg/sg2_87_cif.got.tgz:172731.got - 2010.06.03 11:33:40.
