data_PCOD9086994
_publ_section_title
;
Structure prediction by ZEFSAII (Michael W. Deem and Ramdas Pophale) SiO2 
 PCOD9086994
Probable space group: P -1
;
_chemical_formula_sum "Si O2"
_cell_formula_units_Z 16
_cell_length_a 14.998684
_cell_length_b 19.789319
_cell_length_c 9.858233
_cell_angle_alpha 64.884532
_cell_angle_beta 127.377411
_cell_angle_gamma 158.164062
_cell_volume 763.157069
_symmetry_space_group_name_H-M "P -1"
_symmetry_group_IT_number 2
_symmetry_cell_setting 'triclinic'
loop_
_space_group_symop_operation_xyz
x,y,z
-x,-y,-z
loop_
_atom_site_type_symbol
_atom_site_label
_atom_site_fract_x
_atom_site_fract_y
_atom_site_fract_z
Si Si1 0.599913 0.222375 0.743069
Si Si2 0.286130 0.532560 0.715158
Si Si3 0.340691 0.668354 0.025098
Si Si4 0.719941 0.526160 0.928311
Si Si5 0.698467 0.621153 0.217811
Si Si6 0.423354 0.955591 0.126812
Si Si7 0.684568 0.903786 0.670678
Si Si8 0.318333 0.758916 0.680106
O O1 0.482164 0.068808 0.719922
O O2 0.488228 0.209341 0.537131
O O3 0.970181 0.442861 0.897600
O O4 0.507314 0.189133 0.836833
O O5 0.237198 0.427439 0.668544
O O6 0.609457 0.777030 0.779018
O O7 0.022243 0.430134 0.524487
O O8 0.243266 0.478380 0.876733
O O9 0.370090 0.720651 0.859093
O O10 0.438823 0.643450 0.144306
O O11 0.519234 0.476482 0.786456
O O12 0.058687 0.744267 0.991852
O O13 0.500000 0.500000 0.000000
O O14 0.978371 0.853126 0.255210
O O15 0.586247 0.115054 0.239156
O O16 0.500000 0.000000 0.000000
O O17 0.526745 0.869545 0.648737
#
# Coordination Sequence:
#
# PCOD9086994 Si02
#       8
#     2   2   2   2   2   2   2   2
#     4  10  21  37  58  94 127 160 201 260 323 373
#     4  11  22  38  64  97 130 161 207 270 321 365
#     4  10  19  36  61  87 128 162 198 252 317 377
#     4  10  22  41  59  87 130 165 212 261 310 378
#     4  10  24  43  59  92 130 170 213 261 310 375
#     4  11  22  36  61  92 124 163 205 259 320 377
#     4  12  23  39  66  97 128 164 213 263 320 371
#     4  12  20  36  62  98 122 158 205 264 321 370
#
# _framework density 20.965541000000002
#
# number of rings (size 3 to 8) (size 9 to 14) (size 15 to 20)
#    0.000    1.250    3.750    4.125    0.000    3.500 
#    2.250    0.625    0.000    5.250    0.000    0.000 
#    0.000    0.000    0.000    0.000    0.000    0.000 
#
# Total GULP energy -89200.235381 kJ/mol
# GULP energy per Si atom -5575.014711 kJ/mol
# Density = 2.091782 g / cm^3
# Si number density = 20.965541 Si / 1000 Ang^3
#
#
#
# Elastic Constant Matrix: (Units=GPa)
#
#
# Indices 1 2 3 4 5 6 
#
# 1 108.9842 41.8688 23.3777 9.9655 -7.5394 0.8529
# 2 41.8688 86.1189 8.5757 -0.3651 0.4889 5.2541
# 3 23.3777 8.5757 30.9786 -10.5249 -9.7969 9.8321
# 4 9.9655 -0.3651 -10.5249 24.5534 -0.1508 -6.5231
# 5 -7.5394 0.4889 -9.7969 -0.1508 26.5822 1.5632
# 6 0.8529 5.2541 9.8321 -6.5231 1.5632 34.1454
#
#
#
# Elastic Compliance Matrix: (Units=1/GPa)
#
#
# Indices 1 2 3 4 5 6 
#
# 1 0.016178 -0.006477 -0.016154 -0.012836 -0.001487 0.002860
# 2 -0.006477 0.014686 0.002214 0.003241 -0.001151 -0.002064
# 3 -0.016154 0.002214 0.065199 0.031018 0.020389 -0.013719
# 4 -0.012836 0.003241 0.031018 0.059851 0.007956 0.001960
# 5 -0.001487 -0.001151 0.020389 0.007956 0.045143 -0.006204
# 6 0.002860 -0.002064 -0.013719 0.001960 -0.006204 0.034141
#
#
# Mechanical properties :
#
#
# Convention : Reuss Voigt Hill
#
# Bulk Modulus (GPa) = 18.10666 41.52512 29.81589
# Shear Modulus (GPa) = 16.98125 27.20683 22.09404
#
# Velocity S-wave (km/s) = 2.84907 3.60626 3.24979
# Velocity P-wave (km/s) = 4.41339 6.09832 5.32295
#
# Compressibility (1/GPa) = 0.05522830
#
# Stress axis : x y z
#
# Youngs Moduli (GPa) = 61.81377 68.08981 15.33771
#
# Poissons Ratio (x) = 0.44101 0.24777
# Poissons Ratio (y) = 0.40037 -0.03396
# Poissons Ratio (z) = 0.99857 -0.15076
#
# Static dielectric constant tensor:
#      x y z
#    x 1.823060 -0.078670 0.018940 
#    y -0.078670 1.895800 -0.013710 
#    z 0.018940 -0.013710 1.766580 
# 
# From -- ./inp_files/319332.got.cif
#   From: 2010.05.17/outbox.cif.g08.bks.cpg/sg2_160_cif.got.tgz:319332.got - 2010.06.03 11:33:40.
