data_PCOD9086849
_publ_section_title
;
Structure prediction by ZEFSAII (Michael W. Deem and Ramdas Pophale) SiO2 
 PCOD9086849
Probable space group: P -1
;
_chemical_formula_sum "Si O2"
_cell_formula_units_Z 14
_cell_length_a 9.329071
_cell_length_b 10.581136
_cell_length_c 11.861352
_cell_angle_alpha 124.528766
_cell_angle_beta 144.095970
_cell_angle_gamma 57.984676
_cell_volume 559.525986
_symmetry_space_group_name_H-M "P -1"
_symmetry_group_IT_number 2
_symmetry_cell_setting 'triclinic'
loop_
_space_group_symop_operation_xyz
x,y,z
-x,-y,-z
loop_
_atom_site_type_symbol
_atom_site_label
_atom_site_fract_x
_atom_site_fract_y
_atom_site_fract_z
Si Si1 0.141645 0.741654 0.933740
Si Si2 0.260710 0.579258 0.708081
Si Si3 0.693134 0.686224 0.730976
Si Si4 0.223222 0.993912 0.291884
Si Si5 0.001280 0.147096 0.715450
Si Si6 0.673673 0.135111 0.277125
Si Si7 0.648241 0.399001 0.711607
O O1 0.295214 0.639919 0.886745
O O2 0.971301 0.643445 0.847181
O O3 0.241275 0.850279 0.143833
O O4 0.941865 0.862038 0.798202
O O5 0.274188 0.732577 0.713893
O O6 0.494563 0.454598 0.753807
O O7 0.000000 0.500000 0.500000
O O8 0.597889 0.835117 0.821803
O O9 0.631287 0.551686 0.703192
O O10 0.528305 0.700614 0.520503
O O11 0.102073 0.967431 0.320839
O O12 0.500000 0.000000 0.500000
O O13 0.859506 0.162385 0.513217
O O14 0.924011 0.307755 0.816569
O O15 0.265937 0.047402 0.807362
#
# Coordination Sequence:
#
# PCOD9086849 Si02
#       7
#     2   2   2   2   2   2   2
#     4  11  23  41  68  99 129 178 225 265 337 402
#     4  11  20  35  63  99 132 176 219 268 329 405
#     4   9  17  35  58  92 125 173 218 259 319 405
#     4  11  24  42  68  95 133 172 223 283 334 383
#     4  10  19  36  60  90 127 173 221 269 324 386
#     4   9  19  34  62  91 126 174 224 263 329 386
#     4   9  18  32  62  89 132 176 212 262 333 382
#
# _framework density 25.021179
#
# number of rings (size 3 to 8) (size 9 to 14) (size 15 to 20)
#    0.000    2.000    2.857    2.571    0.000    0.000 
#    0.000    2.143   12.571    0.000    0.000    0.000 
#    0.000    0.000    0.000    0.000    0.000    0.000 
#
# Total GULP energy -78079.008653 kJ/mol
# GULP energy per Si atom -5577.072047 kJ/mol
# Density = 2.496423 g / cm^3
# Si number density = 25.021179 Si / 1000 Ang^3
#
#
#
# Elastic Constant Matrix: (Units=GPa)
#
#
# Indices 1 2 3 4 5 6 
#
# 1 160.1665 45.0837 24.6850 5.0945 -27.0047 -41.0321
# 2 45.0837 98.6521 -5.7298 -10.1175 -7.0028 -49.5034
# 3 24.6850 -5.7298 60.1906 -6.1637 -9.6542 -7.7380
# 4 5.0945 -10.1175 -6.1637 25.6709 -8.1132 -3.1926
# 5 -27.0047 -7.0028 -9.6542 -8.1132 30.0983 4.3102
# 6 -41.0321 -49.5034 -7.7380 -3.1926 4.3102 70.6041
#
#
#
# Elastic Compliance Matrix: (Units=1/GPa)
#
#
# Indices 1 2 3 4 5 6 
#
# 1 0.009188 -0.002747 -0.002879 -0.001393 0.005923 0.002674
# 2 -0.002747 0.020837 0.007459 0.014398 0.006641 0.014076
# 3 -0.002879 0.007459 0.021911 0.012242 0.008624 0.005986
# 4 -0.001393 0.014398 0.012242 0.055417 0.019253 0.011958
# 5 0.005923 0.006641 0.008624 0.019253 0.047031 0.007043
# 6 0.002674 0.014076 0.005986 0.011958 0.007043 0.026354
#
#
# Mechanical properties :
#
#
# Convention : Reuss Voigt Hill
#
# Bulk Modulus (GPa) = 17.98449 49.67634 33.83041
# Shear Modulus (GPa) = 25.56185 42.27266 33.91726
#
# Velocity S-wave (km/s) = 3.19973 4.11478 3.68576
# Velocity P-wave (km/s) = 4.56665 6.51706 5.62701
#
# Compressibility (1/GPa) = 0.05560347
#
# Stress axis : x y z
#
# Youngs Moduli (GPa) = 108.83403 47.99239 45.63967
#
# Poissons Ratio (x) = 0.13183 0.13138
# Poissons Ratio (y) = 0.29895 -0.34044
# Poissons Ratio (z) = 0.31328 -0.35799
#
# Static dielectric constant tensor:
#      x y z
#    x 2.488050 0.424060 1.864210 
#    y 0.424060 2.482920 1.671560 
#    z 1.864210 1.671560 8.723970 
# 
# From -- ./inp_files/391214.got.cif
#   From: 2010.05.17/outbox.cif.g08.bks.cpg/sg2_196_cif.got.tgz:391214.got - 2010.06.03 11:33:40.
