data_PCOD9086889
_publ_section_title
;
Structure prediction by ZEFSAII (Michael W. Deem and Ramdas Pophale) SiO2 
 PCOD9086889
Probable space group: P -1
;
_chemical_formula_sum "Si O2"
_cell_formula_units_Z 16
_cell_length_a 9.933211
_cell_length_b 8.437234
_cell_length_c 13.250610
_cell_angle_alpha 53.960482
_cell_angle_beta 50.089854
_cell_angle_gamma 51.553474
_cell_volume 633.109973
_symmetry_space_group_name_H-M "P -1"
_symmetry_group_IT_number 2
_symmetry_cell_setting 'triclinic'
loop_
_space_group_symop_operation_xyz
x,y,z
-x,-y,-z
loop_
_atom_site_type_symbol
_atom_site_label
_atom_site_fract_x
_atom_site_fract_y
_atom_site_fract_z
Si Si1 0.655052 0.359201 0.269804
Si Si2 0.901767 0.864801 0.330053
Si Si3 0.523755 0.315223 0.136964
Si Si4 0.868070 0.192611 0.560229
Si Si5 0.338146 0.346784 0.560700
Si Si6 0.362893 0.069925 0.179585
Si Si7 0.233189 0.245566 0.970007
Si Si8 0.847011 0.867372 0.140355
O O1 0.517442 0.389001 0.227288
O O2 0.531522 0.363757 0.426924
O O3 0.736742 0.540028 0.149323
O O4 0.811429 0.119393 0.284728
O O5 0.732824 0.776811 0.444752
O O6 0.978178 0.804257 0.200925
O O7 0.041455 0.782947 0.386188
O O8 0.372725 0.214683 0.214143
O O9 0.733063 0.121276 0.099702
O O10 0.500000 0.500000 0.000000
O O11 0.811984 0.413154 0.447600
O O12 0.694296 0.125068 0.694287
O O13 0.000000 0.000000 0.500000
O O14 0.317361 0.219699 0.715668
O O15 0.577037 0.964322 0.071429
O O16 0.219772 0.212729 0.107904
O O17 0.083349 0.227685 0.966966
#
# Coordination Sequence:
#
# PCOD9086889 Si02
#       8
#     2   2   2   2   2   2   2   2
#     4  11  20  36  69  94 119 162 204 269 305 357
#     4   9  23  40  58  90 129 159 207 249 312 376
#     4  10  19  36  60  95 125 153 199 260 313 357
#     4  12  26  42  62  88 130 170 203 251 315 378
#     4  10  22  41  61  91 122 164 211 255 307 363
#     4  10  22  38  60  95 122 161 208 254 305 370
#     4  10  19  38  65  92 120 153 214 261 304 352
#     4   8  21  35  60  87 125 157 200 256 302 364
#
# _framework density 25.272072000000001
#
# number of rings (size 3 to 8) (size 9 to 14) (size 15 to 20)
#    0.750    1.250    2.500    0.750    3.500    1.500 
#    0.000    1.250    0.000    0.000    0.000    0.000 
#    0.000    0.000    0.000    0.000    0.000    0.000 
#
# Total GULP energy -89419.548545 kJ/mol
# GULP energy per Si atom -5588.721784 kJ/mol
# Density = 2.521455 g / cm^3
# Si number density = 25.272072 Si / 1000 Ang^3
#
#
#
# Elastic Constant Matrix: (Units=GPa)
#
#
# Indices 1 2 3 4 5 6 
#
# 1 115.9230 13.9813 19.1267 2.8713 26.2446 28.1835
# 2 13.9813 81.9100 25.7591 -24.9111 5.5130 13.0586
# 3 19.1267 25.7591 95.9747 -24.6958 5.8819 -3.3688
# 4 2.8713 -24.9111 -24.6958 48.9667 6.9869 2.7268
# 5 26.2446 5.5130 5.8819 6.9869 32.6485 0.8216
# 6 28.1835 13.0586 -3.3688 2.7268 0.8216 26.2857
#
#
#
# Elastic Compliance Matrix: (Units=1/GPa)
#
#
# Indices 1 2 3 4 5 6 
#
# 1 0.016395 0.002676 -0.003470 0.001549 -0.012856 -0.019112
# 2 0.002676 0.017950 -0.003102 0.009019 -0.006228 -0.012925
# 3 -0.003470 -0.003102 0.013516 0.005136 -0.000384 0.006473
# 4 0.001549 0.009019 0.005136 0.029362 -0.009770 -0.008223
# 5 -0.012856 -0.006228 -0.000384 -0.009770 0.043761 0.016475
# 6 -0.019112 -0.012925 0.006473 -0.008223 0.016475 0.066124
#
#
# Mechanical properties :
#
#
# Convention : Reuss Voigt Hill
#
# Bulk Modulus (GPa) = 24.95750 45.72687 35.34219
# Shear Modulus (GPa) = 24.00894 37.24288 30.62591
#
# Velocity S-wave (km/s) = 3.08558 3.84302 3.48494
# Velocity P-wave (km/s) = 4.75304 6.15019 5.49619
#
# Compressibility (1/GPa) = 0.04006812
#
# Stress axis : x y z
#
# Youngs Moduli (GPa) = 60.99453 55.71032 73.98681
#
# Poissons Ratio (x) = -0.14908 0.25673
# Poissons Ratio (y) = -0.16322 0.22953
# Poissons Ratio (z) = 0.21165 0.17283
#
# Static dielectric constant tensor:
#      x y z
#    x 2.106470 -0.022310 -0.017770 
#    y -0.022310 1.961720 0.066290 
#    z -0.017770 0.066290 1.994440 
# 
# From -- ./inp_files/515039.got.cif
#   From: 2010.05.17/outbox.cif.g08.bks.cpg/sg2_258_cif.got.tgz:515039.got - 2010.06.03 11:33:40.
