data_PCOD9086875
_publ_section_title
;
Structure prediction by ZEFSAII (Michael W. Deem and Ramdas Pophale) SiO2 
 PCOD9086875
Probable space group: P -1
;
_chemical_formula_sum "Si O2"
_cell_formula_units_Z 16
_cell_length_a 14.233090
_cell_length_b 8.920113
_cell_length_c 13.622165
_cell_angle_alpha 136.275748
_cell_angle_beta 43.979405
_cell_angle_gamma 145.015926
_cell_volume 648.941679
_symmetry_space_group_name_H-M "P -1"
_symmetry_group_IT_number 2
_symmetry_cell_setting 'triclinic'
loop_
_space_group_symop_operation_xyz
x,y,z
-x,-y,-z
loop_
_atom_site_type_symbol
_atom_site_label
_atom_site_fract_x
_atom_site_fract_y
_atom_site_fract_z
Si Si1 0.619815 0.159738 0.601480
Si Si2 0.672399 0.796024 0.713462
Si Si3 0.904599 0.820799 0.175794
Si Si4 0.902070 0.436543 0.853567
Si Si5 0.285162 0.148722 0.508978
Si Si6 0.628720 0.734539 0.197711
Si Si7 0.914297 0.625980 0.465575
Si Si8 0.769011 0.618276 0.866820
O O1 0.451734 0.107338 0.657838
O O2 0.791552 0.366170 0.505447
O O3 0.654691 0.346064 0.758760
O O4 0.608815 0.904109 0.524791
O O5 0.617256 0.726836 0.607958
O O6 0.519772 0.573374 0.794474
O O7 0.825071 0.770838 0.593222
O O8 0.749768 0.108740 0.826919
O O9 0.792427 0.726806 0.314113
O O10 0.796384 0.853348 0.192855
O O11 0.928929 0.608455 0.010691
O O12 0.087590 0.125186 0.188165
O O13 0.852540 0.554602 0.859731
O O14 0.061893 0.462949 0.700269
O O15 0.107490 0.844393 0.466803
O O16 0.673589 0.711389 0.042644
#
# Coordination Sequence:
#
# PCOD9086875 Si02
#       8
#     2   2   2   2   2   2   2   2
#     4  11  20  37  66  93 116 163 212 251 290 357
#     4  10  22  40  64  89 122 165 206 244 299 369
#     4  11  24  38  62  94 128 156 197 261 311 350
#     4  10  19  36  60  93 117 163 200 246 304 359
#     4  11  20  38  65  91 120 160 208 246 301 367
#     4  10  24  39  60  92 128 159 198 254 307 358
#     4  10  19  37  64  89 121 157 212 248 287 365
#     4  11  20  39  64  92 121 160 207 252 300 360
#
# _framework density 24.655531
#
# number of rings (size 3 to 8) (size 9 to 14) (size 15 to 20)
#    0.000    1.500    3.750    4.500    0.000    3.000 
#    0.000    3.750    0.000    1.500    0.000    0.875 
#    0.000    0.000    0.000    0.000    0.000    0.000 
#
# Total GULP energy -89635.063498 kJ/mol
# GULP energy per Si atom -5602.191469 kJ/mol
# Density = 2.459941 g / cm^3
# Si number density = 24.655531 Si / 1000 Ang^3
#
#
#
# Elastic Constant Matrix: (Units=GPa)
#
#
# Indices 1 2 3 4 5 6 
#
# 1 57.0800 10.7731 0.5717 1.0050 -9.8072 -7.0177
# 2 10.7731 95.2471 28.4828 -2.7222 -9.7312 -6.2185
# 3 0.5717 28.4828 138.5665 4.7846 6.6884 4.0279
# 4 1.0050 -2.7222 4.7846 41.3505 2.2915 -3.4580
# 5 -9.8072 -9.7312 6.6884 2.2915 33.4343 2.6925
# 6 -7.0177 -6.2185 4.0279 -3.4580 2.6925 22.9491
#
#
#
# Elastic Compliance Matrix: (Units=1/GPa)
#
#
# Indices 1 2 3 4 5 6 
#
# 1 0.019226 -0.001308 -0.000177 -0.000394 0.004925 0.004918
# 2 -0.001308 0.012056 -0.002768 0.001224 0.003342 0.003145
# 3 -0.000177 -0.002768 0.007995 -0.001158 -0.002207 -0.002123
# 4 -0.000394 0.001224 -0.001158 0.024859 -0.001582 0.004346
# 5 0.004925 0.003342 -0.002207 -0.001582 0.032982 -0.001309
# 6 0.004918 0.003145 -0.002123 0.004346 -0.001309 0.047112
#
#
# Mechanical properties :
#
#
# Convention : Reuss Voigt Hill
#
# Bulk Modulus (GPa) = 32.49977 41.17208 36.83593
# Shear Modulus (GPa) = 30.67607 36.28450 33.48028
#
# Velocity S-wave (km/s) = 3.53113 3.84038 3.68900
# Velocity P-wave (km/s) = 5.46217 6.03323 5.75479
#
# Compressibility (1/GPa) = 0.03076945
#
# Stress axis : x y z
#
# Youngs Moduli (GPa) = 52.01332 82.94333 125.08391
#
# Poissons Ratio (x) = 0.10853 0.02219
# Poissons Ratio (y) = 0.06806 0.34621
# Poissons Ratio (z) = 0.00923 0.22957
#
# Static dielectric constant tensor:
#      x y z
#    x 2.016210 0.008610 0.030660 
#    y 0.008610 1.924500 0.002240 
#    z 0.030660 0.002240 1.955550 
# 
# From -- ./inp_files/530220.got.cif
#   From: 2010.05.17/outbox.cif.g08.bks.cpg/sg2_266_cif.got.tgz:530220.got - 2010.06.03 11:33:40.
