data_PCOD9086091
_publ_section_title
;
Structure prediction by ZEFSAII (Michael W. Deem and Ramdas Pophale) SiO2 
 PCOD9086091
Probable space group: P -1
;
_chemical_formula_sum "Si O2"
_cell_formula_units_Z 16
_cell_length_a 15.299729
_cell_length_b 8.063925
_cell_length_c 4.988738
_cell_angle_alpha 88.584385
_cell_angle_beta 104.400524
_cell_angle_gamma 85.362638
_cell_volume 593.559686
_symmetry_space_group_name_H-M "P -1"
_symmetry_group_IT_number 2
_symmetry_cell_setting 'triclinic'
loop_
_space_group_symop_operation_xyz
x,y,z
-x,-y,-z
loop_
_atom_site_type_symbol
_atom_site_label
_atom_site_fract_x
_atom_site_fract_y
_atom_site_fract_z
Si Si1 0.907883 0.052296 0.586611
Si Si2 0.347304 0.990594 0.075274
Si Si3 0.605881 0.434171 0.260859
Si Si4 0.742312 0.846505 0.520222
Si Si5 0.482316 0.713518 0.302926
Si Si6 0.771025 0.278438 0.121348
Si Si7 0.018696 0.648441 0.205924
Si Si8 0.847802 0.570819 0.292520
O O1 0.846975 0.154621 0.315576
O O2 0.936161 0.183019 0.830127
O O3 0.839928 0.921992 0.642545
O O4 0.000000 0.000000 0.500000
O O5 0.448781 0.902917 0.194892
O O6 0.314814 0.135677 0.250559
O O7 0.287189 0.835189 0.100841
O O8 0.317939 0.046140 0.752801
O O9 0.582430 0.625572 0.325187
O O10 0.549185 0.325946 0.422144
O O11 0.707098 0.351216 0.316620
O O12 0.571746 0.401885 0.935051
O O13 0.774296 0.672929 0.412309
O O14 0.806853 0.451523 0.044376
O O15 0.085290 0.556279 0.479155
O O16 0.916351 0.697351 0.228458
O O17 0.000000 0.500000 0.000000
#
# Coordination Sequence:
#
# PCOD9086091 Si02
#       8
#     2   2   2   2   2   2   2   2
#     4  10  19  36  54  79 111 145 188 234 278 331
#     4  10  21  37  58  85 112 145 186 234 279 334
#     4   9  17  31  54  86 112 145 179 231 277 329
#     4  11  23  38  57  82 115 150 189 230 283 333
#     4   9  16  31  56  83 116 140 182 228 280 327
#     4   9  20  36  55  82 113 147 187 234 278 335
#     4  10  22  37  57  77 106 148 195 240 280 332
#     4  10  22  39  53  79 113 150 190 234 287 334
#
# _framework density 26.956009000000002
#
# number of rings (size 3 to 8) (size 9 to 14) (size 15 to 20)
#    0.000    2.250    1.250    2.250    3.500    0.000 
#    2.250    3.125    0.000    1.500    0.000    0.000 
#    0.000    0.000    0.000    0.000    0.000    0.000 
#
# Total GULP energy -89398.967275 kJ/mol
# GULP energy per Si atom -5587.435455 kJ/mol
# Density = 2.689466 g / cm^3
# Si number density = 26.956009 Si / 1000 Ang^3
#
#
#
# Elastic Constant Matrix: (Units=GPa)
#
#
# Indices 1 2 3 4 5 6 
#
# 1 96.8444 38.5672 11.1454 -13.9693 1.1986 -43.7501
# 2 38.5672 93.1583 7.5001 16.2458 11.1295 -22.7171
# 3 11.1454 7.5001 78.3236 1.1113 -4.8869 3.1588
# 4 -13.9693 16.2458 1.1113 43.2524 -1.9381 4.1594
# 5 1.1986 11.1295 -4.8869 -1.9381 21.7455 6.2391
# 6 -43.7501 -22.7171 3.1588 4.1594 6.2391 65.0376
#
#
#
# Elastic Compliance Matrix: (Units=1/GPa)
#
#
# Indices 1 2 3 4 5 6 
#
# 1 0.018843 -0.006350 -0.002629 0.007533 -0.000624 0.010163
# 2 -0.006350 0.017186 -0.001407 -0.009271 -0.010566 0.003406
# 3 -0.002629 -0.001407 0.013721 -0.000127 0.004910 -0.003389
# 4 0.007533 -0.009271 -0.000127 0.029429 0.007134 -0.000731
# 5 -0.000624 -0.010566 0.004910 0.007134 0.056090 -0.010186
# 6 0.010163 0.003406 -0.003389 -0.000731 -0.010186 0.024591
#
#
# Mechanical properties :
#
#
# Convention : Reuss Voigt Hill
#
# Bulk Modulus (GPa) = 34.50892 42.52797 38.51844
# Shear Modulus (GPa) = 26.27549 40.08135 33.17842
#
# Velocity S-wave (km/s) = 3.12549 3.86024 3.51213
# Velocity P-wave (km/s) = 5.08475 5.97324 5.54682
#
# Compressibility (1/GPa) = 0.02897802
#
# Stress axis : x y z
#
# Youngs Moduli (GPa) = 53.07061 58.18595 72.87975
#
# Poissons Ratio (x) = 0.36948 0.19160
# Poissons Ratio (y) = 0.33700 0.10256
# Poissons Ratio (z) = 0.13952 0.08188
#
# Static dielectric constant tensor:
#      x y z
#    x 2.314320 0.010030 0.051030 
#    y 0.010030 2.140660 0.032750 
#    z 0.051030 0.032750 2.067560 
# 
# From -- ./inp_files/44701.got.cif
#   From: 2010.05.17/outbox.cif.g08.bks.cpg/sg2_23_cif.got.tgz:44701.got - 2010.06.03 11:33:40.
