data_PCOD9086632
_publ_section_title
;
Structure prediction by ZEFSAII (Michael W. Deem and Ramdas Pophale) SiO2 
 PCOD9086632
Probable space group: P -1
;
_chemical_formula_sum "Si O2"
_cell_formula_units_Z 14
_cell_length_a 7.217028
_cell_length_b 8.595471
_cell_length_c 11.919295
_cell_angle_alpha 87.349739
_cell_angle_beta 88.037350
_cell_angle_gamma 124.948109
_cell_volume 603.747641
_symmetry_space_group_name_H-M "P -1"
_symmetry_group_IT_number 2
_symmetry_cell_setting 'triclinic'
loop_
_space_group_symop_operation_xyz
x,y,z
-x,-y,-z
loop_
_atom_site_type_symbol
_atom_site_label
_atom_site_fract_x
_atom_site_fract_y
_atom_site_fract_z
Si Si1 0.014372 0.368412 0.919406
Si Si2 0.866547 0.660156 0.516386
Si Si3 0.183153 0.024086 0.087812
Si Si4 0.477813 0.686556 0.603537
Si Si5 0.265161 0.914140 0.329993
Si Si6 0.495793 0.449526 0.148938
Si Si7 0.203078 0.559881 0.258445
O O1 0.806552 0.149069 0.950999
O O2 0.996155 0.445033 0.798250
O O3 0.257759 0.404400 0.912701
O O4 0.000000 0.500000 0.000000
O O5 0.691711 0.719828 0.528664
O O6 0.740111 0.460359 0.458925
O O7 0.891740 0.604312 0.642290
O O8 0.082636 0.810624 0.435834
O O9 0.152242 0.956450 0.224808
O O10 0.373920 0.247052 0.094281
O O11 0.000000 0.000000 0.000000
O O12 0.471720 0.585485 0.721542
O O13 0.527701 0.885195 0.633481
O O14 0.337590 0.773643 0.298749
O O15 0.344123 0.530220 0.164914
#
# Coordination Sequence:
#
# PCOD9086632 Si02
#       7
#     2   2   2   2   2   2   2
#     4  11  24  43  66  91 121 159 204 253 305 362
#     4  10  19  36  59  87 125 159 199 252 298 354
#     4  10  22  40  63  91 121 160 205 247 304 363
#     4   9  19  35  59  88 120 163 201 242 305 359
#     4  10  20  36  58  88 123 158 204 250 294 359
#     4  10  22  43  63  87 126 160 199 255 305 360
#     4  10  22  39  62  92 123 162 204 247 306 362
#
# _framework density 23.188499
#
# number of rings (size 3 to 8) (size 9 to 14) (size 15 to 20)
#    0.000    2.000    0.000    3.429    0.000    3.429 
#    0.000   11.429    0.000    0.000    0.000    0.000 
#    0.000    0.000    0.000    0.000    0.000    0.000 
#
# Total GULP energy -78034.421614 kJ/mol
# GULP energy per Si atom -5573.887258 kJ/mol
# Density = 2.313572 g / cm^3
# Si number density = 23.188499 Si / 1000 Ang^3
#
#
#
# Elastic Constant Matrix: (Units=GPa)
#
#
# Indices 1 2 3 4 5 6 
#
# 1 74.2750 25.0293 8.1383 -5.6791 -11.3201 -6.2451
# 2 25.0293 103.4457 25.9774 8.8865 -12.9410 -10.6342
# 3 8.1383 25.9774 80.9308 -4.9382 12.8905 0.7058
# 4 -5.6791 8.8865 -4.9382 37.1066 -11.7226 -0.1307
# 5 -11.3201 -12.9410 12.8905 -11.7226 34.4382 7.2570
# 6 -6.2451 -10.6342 0.7058 -0.1307 7.2570 24.1803
#
#
#
# Elastic Compliance Matrix: (Units=1/GPa)
#
#
# Indices 1 2 3 4 5 6 
#
# 1 0.016042 -0.003123 -0.001281 0.004947 0.006048 0.001018
# 2 -0.003123 0.012660 -0.004540 -0.002955 0.003625 0.003789
# 3 -0.001281 -0.004540 0.015177 0.000534 -0.007519 -0.000511
# 4 0.004947 -0.002955 0.000534 0.032275 0.012034 -0.003475
# 5 0.006048 0.003625 -0.007519 0.012034 0.041178 -0.008917
# 6 0.001018 0.003789 -0.000511 -0.003475 -0.008917 0.045958
#
#
# Mechanical properties :
#
#
# Convention : Reuss Voigt Hill
#
# Bulk Modulus (GPa) = 38.47726 41.88240 40.17983
# Shear Modulus (GPa) = 26.33767 32.44545 29.39156
#
# Velocity S-wave (km/s) = 3.37383 3.74465 3.56407
# Velocity P-wave (km/s) = 5.63970 6.06609 5.85678
#
# Compressibility (1/GPa) = 0.02598938
#
# Stress axis : x y z
#
# Youngs Moduli (GPa) = 62.33602 78.99026 65.88918
#
# Poissons Ratio (x) = 0.24672 0.08440
# Poissons Ratio (y) = 0.19470 0.29916
# Poissons Ratio (z) = 0.07985 0.35864
#
# Static dielectric constant tensor:
#      x y z
#    x 1.898780 0.005290 0.037690 
#    y 0.005290 1.887160 0.040360 
#    z 0.037690 0.040360 1.967200 
# 
# From -- ./inp_files/51570.got.cif
#   From: 2010.05.17/outbox.cif.g08.bks.cpg/sg2_26_cif.got.tgz:51570.got - 2010.06.03 11:33:40.
