data_PCOD9086431
_publ_section_title
;
Structure prediction by ZEFSAII (Michael W. Deem and Ramdas Pophale) SiO2 
 PCOD9086431
Probable space group: P -1
;
_chemical_formula_sum "Si O2"
_cell_formula_units_Z 14
_cell_length_a 10.702868
_cell_length_b 9.736204
_cell_length_c 13.863414
_cell_angle_alpha 42.044557
_cell_angle_beta 131.051619
_cell_angle_gamma 126.192605
_cell_volume 714.328833
_symmetry_space_group_name_H-M "P -1"
_symmetry_group_IT_number 2
_symmetry_cell_setting 'triclinic'
loop_
_space_group_symop_operation_xyz
x,y,z
-x,-y,-z
loop_
_atom_site_type_symbol
_atom_site_label
_atom_site_fract_x
_atom_site_fract_y
_atom_site_fract_z
Si Si1 0.467932 0.165712 0.612202
Si Si2 0.029296 0.492066 0.362461
Si Si3 0.394665 0.391039 0.638535
Si Si4 0.794180 0.050815 0.751129
Si Si5 0.450595 0.454821 0.851803
Si Si6 0.718307 0.165033 0.445898
Si Si7 0.782761 0.606561 0.047825
O O1 0.440103 0.216834 0.682001
O O2 0.487955 0.385124 0.449191
O O3 0.642463 0.088141 0.724092
O O4 0.321178 0.993051 0.580424
O O5 0.206518 0.421441 0.499389
O O6 0.064406 0.736715 0.281925
O O7 0.892767 0.334001 0.437571
O O8 0.935885 0.494484 0.211014
O O9 0.410766 0.352458 0.780401
O O10 0.721718 0.044959 0.609538
O O11 0.846886 0.836542 0.917373
O O12 0.422109 0.692139 0.699495
O O13 0.321061 0.371337 0.916703
O O14 0.640530 0.471739 0.977205
#
# Coordination Sequence:
#
# PCOD9086431 Si02
#       7
#     2   2   2   2   2   2   2
#     4  10  20  34  60  86 109 146 194 229 266 334
#     4  10  22  35  56  86 119 140 181 238 286 321
#     4  10  21  38  58  83 114 150 187 226 275 336
#     4  11  19  35  58  89 108 146 189 236 271 328
#     4  10  19  36  58  85 110 147 189 227 275 330
#     4  11  19  34  63  86 107 142 195 236 268 323
#     4  10  21  32  58  87 116 141 183 236 284 321
#
# _framework density 19.598817
#
# number of rings (size 3 to 8) (size 9 to 14) (size 15 to 20)
#    0.000    1.714    4.286    2.143    2.000    0.571 
#    0.000    0.714    0.000   13.714    0.000    0.000 
#    0.000    0.000    0.000    0.000    0.000    0.000 
#
# Total GULP energy -78110.778920 kJ/mol
# GULP energy per Si atom -5579.341351 kJ/mol
# Density = 1.955421 g / cm^3
# Si number density = 19.598817 Si / 1000 Ang^3
#
#
#
# Elastic Constant Matrix: (Units=GPa)
#
#
# Indices 1 2 3 4 5 6 
#
# 1 35.9956 42.8285 34.6866 14.5803 -3.3945 3.0540
# 2 42.8285 91.5503 31.0545 21.2990 -3.2051 9.1914
# 3 34.6866 31.0545 111.8622 20.1471 -10.1550 -3.9100
# 4 14.5803 21.2990 20.1471 31.2652 3.9116 -8.6868
# 5 -3.3945 -3.2051 -10.1550 3.9116 17.0991 4.8622
# 6 3.0540 9.1914 -3.9100 -8.6868 4.8622 36.0314
#
#
#
# Elastic Compliance Matrix: (Units=1/GPa)
#
#
# Indices 1 2 3 4 5 6 
#
# 1 0.085462 -0.031843 -0.015557 -0.009854 0.005114 -0.003875
# 2 -0.031843 0.027358 0.004133 -0.008964 0.005216 -0.006696
# 3 -0.015557 0.004133 0.014377 -0.005985 0.007784 -0.000669
# 4 -0.009854 -0.008964 -0.005985 0.055015 -0.025218 0.019139
# 5 0.005114 0.005216 0.007784 -0.025218 0.075765 -0.017223
# 6 -0.003875 -0.006696 -0.000669 0.019139 -0.017223 0.036656
#
#
# Mechanical properties :
#
#
# Convention : Reuss Voigt Hill
#
# Bulk Modulus (GPa) = 24.59193 50.72748 37.65971
# Shear Modulus (GPa) = 12.66717 25.60170 19.13443
#
# Velocity S-wave (km/s) = 2.54505 3.61818 3.12798
# Velocity P-wave (km/s) = 4.60557 6.58742 5.68354
#
# Compressibility (1/GPa) = 0.04066375
#
# Stress axis : x y z
#
# Youngs Moduli (GPa) = 11.70110 36.55257 69.55388
#
# Poissons Ratio (x) = 1.16394 1.08203
# Poissons Ratio (y) = 0.37260 -0.28746
# Poissons Ratio (z) = 0.18203 -0.15107
#
# Static dielectric constant tensor:
#      x y z
#    x 1.691880 0.034240 -0.004850 
#    y 0.034240 1.708670 0.025400 
#    z -0.004850 0.025400 1.717100 
# 
# From -- ./inp_files/159764.got.cif
#   From: 2010.05.17/outbox.cif.g08.bks.cpg/sg2_80_cif.got.tgz:159764.got - 2010.06.03 11:33:40.
