data_PCOD9086117
_publ_section_title
;
Structure prediction by ZEFSAII (Michael W. Deem and Ramdas Pophale) SiO2 
 PCOD9086117
Probable space group: P -1
;
_chemical_formula_sum "Si O2"
_cell_formula_units_Z 15
_cell_length_a 9.484263
_cell_length_b 16.821515
_cell_length_c 17.204712
_cell_angle_alpha 157.282460
_cell_angle_beta 60.870843
_cell_angle_gamma 103.126258
_cell_volume 697.394107
_symmetry_space_group_name_H-M "P -1"
_symmetry_group_IT_number 2
_symmetry_cell_setting 'triclinic'
loop_
_space_group_symop_operation_xyz
x,y,z
-x,-y,-z
loop_
_atom_site_type_symbol
_atom_site_label
_atom_site_fract_x
_atom_site_fract_y
_atom_site_fract_z
Si Si1 0.910755 0.166264 0.462604
Si Si2 0.512937 0.200349 0.574440
Si Si3 0.945609 0.863397 0.767534
Si Si4 0.837857 0.451722 0.141877
Si Si5 0.500000 0.000000 0.000000
Si Si6 0.365797 0.446318 0.378309
Si Si7 0.709847 0.482323 0.364927
Si Si8 0.768644 0.600835 0.022614
O O1 0.707383 0.196749 0.520783
O O2 0.975667 0.237436 0.432710
O O3 0.846658 0.358806 0.725909
O O4 0.092796 0.846109 0.146765
O O5 0.378261 0.331220 0.650600
O O6 0.354796 0.375687 0.847485
O O7 0.609483 0.892168 0.283937
O O8 0.144985 0.661729 0.589661
O O9 0.739495 0.904339 0.880234
O O10 0.871321 0.165367 0.061489
O O11 0.810665 0.523125 0.305054
O O12 0.026995 0.431683 0.038636
O O13 0.513259 0.135438 0.033427
O O14 0.500791 0.539353 0.438990
O O15 0.350013 0.360249 0.395246
#
# Coordination Sequence:
#
# PCOD9086117 Si02
#       8
#     2   2   2   2   1   2   2   2
#     4  10  22  38  60  87 119 151 196 242 286 350
#     4  10  21  40  60  86 119 154 193 237 296 350
#     4  10  20  37  56  78 113 148 188 232 287 335
#     4  10  21  38  59  86 119 152 193 245 286 345
#     4  10  22  34  50  82 110 142 186 236 268 340
#     4  10  19  36  55  78 109 151 183 234 283 337
#     4   9  20  35  56  79 108 143 196 230 279 341
#     4  10  22  38  59  89 119 151 194 241 289 355
#
# _framework density 21.508644
#
# number of rings (size 3 to 8) (size 9 to 14) (size 15 to 20)
#    0.000    2.133    0.000    2.400    1.867    1.600 
#    2.400    0.000    0.000    0.000    0.000    0.000 
#    0.000    0.000    0.000    0.000    0.000    0.000 
#
# Total GULP energy -83645.789815 kJ/mol
# GULP energy per Si atom -5576.385988 kJ/mol
# Density = 2.145969 g / cm^3
# Si number density = 21.508644 Si / 1000 Ang^3
#
#
#
# Elastic Constant Matrix: (Units=GPa)
#
#
# Indices 1 2 3 4 5 6 
#
# 1 53.8115 23.0170 15.9878 25.2167 -17.2432 -3.1870
# 2 23.0170 69.2995 18.5590 -2.1884 -5.2694 -1.9991
# 3 15.9878 18.5590 72.6635 2.6688 11.3644 -13.7205
# 4 25.2167 -2.1884 2.6688 38.1146 -16.0595 -15.6352
# 5 -17.2432 -5.2694 11.3644 -16.0595 33.9947 0.8280
# 6 -3.1870 -1.9991 -13.7205 -15.6352 0.8280 23.4658
#
#
#
# Elastic Compliance Matrix: (Units=1/GPa)
#
#
# Indices 1 2 3 4 5 6 
#
# 1 0.047850 -0.014148 -0.012110 -0.040114 0.007877 -0.028793
# 2 -0.014148 0.020647 -0.001566 0.016302 0.004014 0.009642
# 3 -0.012110 -0.001566 0.021216 0.009617 -0.009358 0.017365
# 4 -0.040114 0.016302 0.009617 0.083377 0.016976 0.056518
# 5 0.007877 0.004014 -0.009358 0.016976 0.045044 0.005662
# 6 -0.028793 0.009642 0.017365 0.056518 0.005662 0.087137
#
#
# Mechanical properties :
#
#
# Convention : Reuss Voigt Hill
#
# Bulk Modulus (GPa) = 29.35698 34.54469 31.95083
# Shear Modulus (GPa) = 13.43097 28.32908 20.88002
#
# Velocity S-wave (km/s) = 2.50160 3.63313 3.11910
# Velocity P-wave (km/s) = 4.69282 5.80476 5.27815
#
# Compressibility (1/GPa) = 0.03406345
#
# Stress axis : x y z
#
# Youngs Moduli (GPa) = 20.89871 48.43347 47.13464
#
# Poissons Ratio (x) = 0.68524 0.57081
# Poissons Ratio (y) = 0.29567 0.07383
# Poissons Ratio (z) = 0.25309 0.07587
#
# Static dielectric constant tensor:
#      x y z
#    x 1.751820 0.017460 0.039250 
#    y 0.017460 1.801330 -0.013580 
#    z 0.039250 -0.013580 1.834430 
# 
# From -- ./inp_files/55496.got.cif
#   From: 2010.05.17/outbox.cif.g08.bks.cpg/sg2_28_cif.got.tgz:55496.got - 2010.06.03 11:33:40.
