data_PCOD9086565
_publ_section_title
;
Structure prediction by ZEFSAII (Michael W. Deem and Ramdas Pophale) SiO2 
 PCOD9086565
Probable space group: P -1
;
_chemical_formula_sum "Si O2"
_cell_formula_units_Z 16
_cell_length_a 11.246213
_cell_length_b 9.118357
_cell_length_c 14.772753
_cell_angle_alpha 70.138691
_cell_angle_beta 128.423300
_cell_angle_gamma 67.478136
_cell_volume 660.136079
_symmetry_space_group_name_H-M "P -1"
_symmetry_group_IT_number 2
_symmetry_cell_setting 'triclinic'
loop_
_space_group_symop_operation_xyz
x,y,z
-x,-y,-z
loop_
_atom_site_type_symbol
_atom_site_label
_atom_site_fract_x
_atom_site_fract_y
_atom_site_fract_z
Si Si1 0.543006 0.674431 0.579799
Si Si2 0.976696 0.487068 0.885082
Si Si3 0.823417 0.160381 0.747830
Si Si4 0.652604 0.256981 0.340327
Si Si5 0.730438 0.066645 0.906392
Si Si6 0.577074 0.682546 0.956981
Si Si7 0.887127 0.349013 0.347376
Si Si8 0.332053 0.180625 0.793632
O O1 0.694418 0.709028 0.660811
O O2 0.695063 0.439197 0.628487
O O3 0.256787 0.890861 0.358551
O O4 0.524065 0.617254 0.682886
O O5 0.172651 0.432234 0.935474
O O6 0.000000 0.500000 0.000000
O O7 0.075877 0.230140 0.969512
O O8 0.710850 0.179779 0.782250
O O9 0.123554 0.947773 0.947694
O O10 0.792684 0.307324 0.389333
O O11 0.505777 0.357740 0.155432
O O12 0.860059 0.944502 0.508962
O O13 0.491664 0.171237 0.810772
O O14 0.670271 0.534128 0.126802
O O15 0.342823 0.002384 0.790104
O O16 0.907985 0.513531 0.353881
O O17 0.500000 0.000000 0.000000
#
# Coordination Sequence:
#
# PCOD9086565 Si02
#       8
#     2   2   2   2   2   2   2   2
#     4  10  20  37  59  86 122 154 193 253 304 364
#     4  10  19  36  59  83 118 156 194 240 309 367
#     4   9  19  36  58  88 117 149 199 248 303 365
#     4  11  22  40  62  91 127 157 206 256 306 361
#     4   9  18  35  60  86 112 155 200 244 302 364
#     4  10  21  41  64  88 124 164 200 255 308 367
#     4  10  23  41  60  90 120 162 214 251 301 359
#     4   9  19  39  63  86 119 160 209 250 300 361
#
# _framework density 24.237428000000001
#
# number of rings (size 3 to 8) (size 9 to 14) (size 15 to 20)
#    0.000    2.250    1.250    1.125    0.000    1.500 
#   18.000    1.250    0.000    0.000    0.000    0.000 
#    0.000    0.000    0.000    0.000    0.000    0.000 
#
# Total GULP energy -89257.830358 kJ/mol
# GULP energy per Si atom -5578.614397 kJ/mol
# Density = 2.418226 g / cm^3
# Si number density = 24.237428 Si / 1000 Ang^3
#
#
#
# Elastic Constant Matrix: (Units=GPa)
#
#
# Indices 1 2 3 4 5 6 
#
# 1 57.5172 15.2518 5.0459 -9.7615 2.7386 11.3095
# 2 15.2518 116.8509 44.3259 0.8281 4.4555 6.7765
# 3 5.0459 44.3259 76.7378 4.6174 -1.3302 16.3330
# 4 -9.7615 0.8281 4.6174 50.3429 10.5576 5.6173
# 5 2.7386 4.4555 -1.3302 10.5576 18.8253 3.5424
# 6 11.3095 6.7765 16.3330 5.6173 3.5424 24.7615
#
#
#
# Elastic Compliance Matrix: (Units=1/GPa)
#
#
# Indices 1 2 3 4 5 6 
#
# 1 0.021360 -0.002897 0.002256 0.005975 -0.003485 -0.011308
# 2 -0.002897 0.011668 -0.007365 0.000310 -0.003682 0.003445
# 3 0.002256 -0.007365 0.020032 -0.001074 0.005845 -0.012821
# 4 0.005975 0.000310 -0.001074 0.024640 -0.013760 -0.005727
# 5 -0.003485 -0.003682 0.005845 -0.013760 0.064000 -0.007290
# 6 -0.011308 0.003445 -0.012821 -0.005727 -0.007290 0.055406
#
#
# Mechanical properties :
#
#
# Convention : Reuss Voigt Hill
#
# Bulk Modulus (GPa) = 26.99255 42.26146 34.62700
# Shear Modulus (GPa) = 22.17599 31.21812 26.69706
#
# Velocity S-wave (km/s) = 3.02809 3.59278 3.32246
# Velocity P-wave (km/s) = 4.83598 5.88940 5.38850
#
# Compressibility (1/GPa) = 0.03704726
#
# Stress axis : x y z
#
# Youngs Moduli (GPa) = 46.81657 85.70144 49.91993
#
# Poissons Ratio (x) = 0.24831 -0.11262
# Poissons Ratio (y) = 0.13565 0.36767
# Poissons Ratio (z) = -0.10562 0.63120
#
# Static dielectric constant tensor:
#      x y z
#    x 1.898730 0.007620 0.066180 
#    y 0.007620 2.003130 -0.040090 
#    z 0.066180 -0.040090 2.080830 
# 
# From -- ./inp_files/515414.got.cif
#   From: 2010.05.17/outbox.cif.g08.bks.cpg/sg2_258_cif.got.tgz:515414.got - 2010.06.03 11:33:40.
