data_PCOD9086209
_publ_section_title
;
Structure prediction by ZEFSAII (Michael W. Deem and Ramdas Pophale) SiO2 
 PCOD9086209
Probable space group: P -1
;
_chemical_formula_sum "Si O2"
_cell_formula_units_Z 16
_cell_length_a 7.627790
_cell_length_b 8.475613
_cell_length_c 12.954488
_cell_angle_alpha 95.295419
_cell_angle_beta 90.125299
_cell_angle_gamma 125.463156
_cell_volume 677.625637
_symmetry_space_group_name_H-M "P -1"
_symmetry_group_IT_number 2
_symmetry_cell_setting 'triclinic'
loop_
_space_group_symop_operation_xyz
x,y,z
-x,-y,-z
loop_
_atom_site_type_symbol
_atom_site_label
_atom_site_fract_x
_atom_site_fract_y
_atom_site_fract_z
Si Si1 0.508605 0.408554 0.599516
Si Si2 0.211869 0.750538 0.956303
Si Si3 0.100130 0.325170 0.715675
Si Si4 0.978845 0.091199 0.899950
Si Si5 0.704784 0.706479 0.784478
Si Si6 0.338707 0.768054 0.744809
Si Si7 0.376465 0.844634 0.329253
Si Si8 0.711124 0.415506 0.889511
O O1 0.500000 0.500000 0.500000
O O2 0.281947 0.323469 0.653462
O O3 0.694998 0.589697 0.679001
O O4 0.569281 0.256117 0.589614
O O5 0.298560 0.847991 0.852578
O O6 0.971065 0.563735 0.914122
O O7 0.188589 0.868375 0.052351
O O8 0.356650 0.692250 0.007602
O O9 0.152109 0.540438 0.712515
O O10 0.116905 0.276202 0.833075
O O11 0.851687 0.182263 0.669343
O O12 0.919821 0.917125 0.813110
O O13 0.000000 0.000000 0.000000
O O14 0.530631 0.749786 0.772222
O O15 0.651359 0.563131 0.871082
O O16 0.426651 0.929658 0.667810
O O17 0.355554 0.729524 0.215544
#
# Coordination Sequence:
#
# PCOD9086209 Si02
#       8
#     2   2   2   2   2   2   2   2
#     4  10  26  49  74 102 128 172 239 294 356 417
#     4  11  20  34  58  89 138 175 230 257 313 398
#     4  11  23  47  68  98 149 176 223 298 336 396
#     4  12  23  38  65 100 142 191 226 264 335 413
#     4  10  22  40  62  92 135 168 228 278 331 403
#     4  11  23  39  64  99 134 187 228 274 330 409
#     4  11  22  43  70  97 134 178 225 280 355 405
#     4  10  19  36  56  88 128 183 220 270 316 393
#
# _framework density 23.61186
#
# number of rings (size 3 to 8) (size 9 to 14) (size 15 to 20)
#    0.000    1.250    5.000    0.750    1.750    3.000 
#    2.250    3.125    0.000    0.000    0.000    0.000 
#    0.000    0.000    0.000    0.000    0.000    0.000 
#
# Total GULP energy -89168.307127 kJ/mol
# GULP energy per Si atom -5573.019195 kJ/mol
# Density = 2.355812 g / cm^3
# Si number density = 23.611860 Si / 1000 Ang^3
#
#
#
# Elastic Constant Matrix: (Units=GPa)
#
#
# Indices 1 2 3 4 5 6 
#
# 1 46.6026 17.4600 18.9216 -21.3116 8.7151 -24.2764
# 2 17.4600 110.1076 28.8815 -20.3002 11.0540 -7.4262
# 3 18.9216 28.8815 67.8340 -30.4138 17.3678 -9.3668
# 4 -21.3116 -20.3002 -30.4138 29.5130 -13.1033 6.8721
# 5 8.7151 11.0540 17.3678 -13.1033 28.3573 -9.4070
# 6 -24.2764 -7.4262 -9.3668 6.8721 -9.4070 31.9014
#
#
#
# Elastic Compliance Matrix: (Units=1/GPa)
#
#
# Indices 1 2 3 4 5 6 
#
# 1 0.057549 -0.001343 0.006284 0.043270 0.012111 0.039576
# 2 -0.001343 0.010645 -0.002378 0.003659 -0.000665 -0.000226
# 3 0.006284 -0.002378 0.029105 0.030291 -0.003059 0.005346
# 4 0.043270 0.003659 0.030291 0.102842 0.023333 0.027401
# 5 0.012111 -0.000665 -0.003059 0.023333 0.050430 0.018008
# 6 0.039576 -0.000226 0.005346 0.027401 0.018008 0.062388
#
#
# Mechanical properties :
#
#
# Convention : Reuss Voigt Hill
#
# Bulk Modulus (GPa) = 9.76341 39.45225 24.60783
# Shear Modulus (GPa) = 14.62096 28.57309 21.59702
#
# Velocity S-wave (km/s) = 2.49111 3.48245 3.02763
# Velocity P-wave (km/s) = 3.52394 5.73715 4.76093
#
# Compressibility (1/GPa) = 0.10242327
#
# Stress axis : x y z
#
# Youngs Moduli (GPa) = 17.37649 93.94226 34.35892
#
# Poissons Ratio (x) = 0.12616 -0.21589
# Poissons Ratio (y) = 0.02334 0.08171
# Poissons Ratio (z) = -0.10919 0.22341
#
# Static dielectric constant tensor:
#      x y z
#    x 1.937300 0.032520 0.035600 
#    y 0.032520 2.111620 -0.013080 
#    z 0.035600 -0.013080 1.900220 
# 
# From -- ./inp_files/382350.got.cif
#   From: 2010.05.17/outbox.cif.g08.bks.cpg/sg2_192_cif.got.tgz:382350.got - 2010.06.03 11:33:40.
