data_PCOD9086131
_publ_section_title
;
Structure prediction by ZEFSAII (Michael W. Deem and Ramdas Pophale) SiO2 
 PCOD9086131
Probable space group: P -1
;
_chemical_formula_sum "Si O2"
_cell_formula_units_Z 16
_cell_length_a 9.192848
_cell_length_b 14.081158
_cell_length_c 11.005681
_cell_angle_alpha 147.735074
_cell_angle_beta 123.319466
_cell_angle_gamma 61.755509
_cell_volume 635.386505
_symmetry_space_group_name_H-M "P -1"
_symmetry_group_IT_number 2
_symmetry_cell_setting 'triclinic'
loop_
_space_group_symop_operation_xyz
x,y,z
-x,-y,-z
loop_
_atom_site_type_symbol
_atom_site_label
_atom_site_fract_x
_atom_site_fract_y
_atom_site_fract_z
Si Si1 0.328714 0.207923 0.952972
Si Si2 0.931905 0.845018 0.436628
Si Si3 0.137761 0.389527 0.276115
Si Si4 0.511506 0.477626 0.776400
Si Si5 0.789345 0.221593 0.203540
Si Si6 0.225002 0.475890 0.845700
Si Si7 0.942279 0.064346 0.893266
Si Si8 0.338802 0.819288 0.636388
O O1 0.158007 0.168628 0.749425
O O2 0.381598 0.012674 0.813634
O O3 0.275393 0.331264 0.175193
O O4 0.454209 0.330568 0.062350
O O5 0.818257 0.715606 0.327641
O O6 0.135638 0.787079 0.470162
O O7 0.913820 0.031628 0.701979
O O8 0.186399 0.566883 0.561871
O O9 0.958955 0.436397 0.174723
O O10 0.087633 0.215333 0.138940
O O11 0.340535 0.471014 0.772609
O O12 0.534243 0.327820 0.522496
O O13 0.664812 0.437418 0.901927
O O14 0.667002 0.190566 0.230329
O O15 0.777652 0.128260 0.965745
O O16 0.967052 0.118136 0.217203
#
# Coordination Sequence:
#
# PCOD9086131 Si02
#       8
#     2   2   2   2   2   2   2   2
#     4  11  21  33  56  91 111 141 184 227 288 330
#     4  10  19  36  55  85 114 139 185 233 275 329
#     4  12  19  35  60  86 111 144 186 235 276 327
#     4  10  22  38  52  77 125 150 183 221 272 346
#     4  10  20  36  55  86 112 144 184 230 285 318
#     4  10  21  37  54  82 114 158 180 221 281 330
#     4  10  21  34  54  87 114 141 183 237 274 328
#     4  11  19  35  58  84 108 149 176 235 282 324
#
# _framework density 25.181522999999999
#
# number of rings (size 3 to 8) (size 9 to 14) (size 15 to 20)
#    0.000    1.500    6.250    1.500    1.750    2.000 
#    2.250    1.875    0.000    1.500    0.000    0.000 
#    0.000    0.000    0.000    0.000    0.000    0.000 
#
# Total GULP energy -89550.613948 kJ/mol
# GULP energy per Si atom -5596.913372 kJ/mol
# Density = 2.512421 g / cm^3
# Si number density = 25.181523 Si / 1000 Ang^3
#
#
#
# Elastic Constant Matrix: (Units=GPa)
#
#
# Indices 1 2 3 4 5 6 
#
# 1 131.6760 49.9474 55.7032 3.1459 -23.4408 23.2975
# 2 49.9474 65.2839 38.9130 0.6743 -2.5150 21.5523
# 3 55.7032 38.9130 134.2342 5.0810 -24.0825 7.0804
# 4 3.1459 0.6743 5.0810 35.8455 0.9617 3.8960
# 5 -23.4408 -2.5150 -24.0825 0.9617 51.8278 -5.0163
# 6 23.2975 21.5523 7.0804 3.8960 -5.0163 41.2889
#
#
#
# Elastic Compliance Matrix: (Units=1/GPa)
#
#
# Indices 1 2 3 4 5 6 
#
# 1 0.012414 -0.007283 -0.002176 -0.000503 0.004038 -0.002292
# 2 -0.007283 0.027180 -0.005394 0.002129 -0.005491 -0.010021
# 3 -0.002176 -0.005394 0.010536 -0.001619 0.003958 0.002870
# 4 -0.000503 0.002129 -0.001619 0.028553 -0.001741 -0.003455
# 5 0.004038 -0.005491 0.003958 -0.001741 0.023003 0.002868
# 6 -0.002292 -0.010021 0.002870 -0.003455 0.002868 0.030926
#
#
# Mechanical properties :
#
#
# Convention : Reuss Voigt Hill
#
# Bulk Modulus (GPa) = 48.96250 68.92459 58.94355
# Shear Modulus (GPa) = 29.56376 38.23447 33.89912
#
# Velocity S-wave (km/s) = 3.43012 3.90083 3.67303
# Velocity P-wave (km/s) = 5.93074 6.90791 6.43789
#
# Compressibility (1/GPa) = 0.02042379
#
# Stress axis : x y z
#
# Youngs Moduli (GPa) = 80.55558 36.79199 94.91202
#
# Poissons Ratio (x) = 0.26797 0.20650
# Poissons Ratio (y) = 0.58672 0.51194
# Poissons Ratio (z) = 0.17526 0.19845
#
# Static dielectric constant tensor:
#      x y z
#    x 1.995260 -0.006080 0.026800 
#    y -0.006080 2.068590 -0.042570 
#    z 0.026800 -0.042570 2.003840 
# 
# From -- ./inp_files/272062.got.cif
#   From: 2010.05.17/outbox.cif.g08.bks.cpg/sg2_137_cif.got.tgz:272062.got - 2010.06.03 11:33:40.
