data_PCOD9086518
_publ_section_title
;
Structure prediction by ZEFSAII (Michael W. Deem and Ramdas Pophale) SiO2 
 PCOD9086518
Probable space group: P -1
;
_chemical_formula_sum "Si O2"
_cell_formula_units_Z 16
_cell_length_a 9.078271
_cell_length_b 10.850735
_cell_length_c 11.873527
_cell_angle_alpha 132.881187
_cell_angle_beta 55.869496
_cell_angle_gamma 134.401878
_cell_volume 604.204852
_symmetry_space_group_name_H-M "P -1"
_symmetry_group_IT_number 2
_symmetry_cell_setting 'triclinic'
loop_
_space_group_symop_operation_xyz
x,y,z
-x,-y,-z
loop_
_atom_site_type_symbol
_atom_site_label
_atom_site_fract_x
_atom_site_fract_y
_atom_site_fract_z
Si Si1 0.688295 0.401035 0.475160
Si Si2 0.531504 0.172977 0.956843
Si Si3 0.071482 0.983161 0.623704
Si Si4 0.035930 0.716217 0.105916
Si Si5 0.593269 0.728649 0.699191
Si Si6 0.188542 0.698659 0.415587
Si Si7 0.194313 0.062816 0.875133
Si Si8 0.253976 0.454764 0.050509
O O1 0.582216 0.530114 0.626023
O O2 0.579156 0.312097 0.346069
O O3 0.683919 0.274386 0.506796
O O4 0.938655 0.551920 0.448556
O O5 0.727805 0.148175 0.870296
O O6 0.359934 0.033244 0.852832
O O7 0.635940 0.398737 0.008809
O O8 0.431000 0.169316 0.116574
O O9 0.825894 0.844084 0.617720
O O10 0.203508 0.889052 0.465259
O O11 0.100830 0.198888 0.728668
O O12 0.109202 0.966937 0.731301
O O13 0.000000 0.500000 0.000000
O O14 0.984910 0.703664 0.987701
O O15 0.252126 0.581229 0.231991
O O16 0.320258 0.299108 0.948911
O O17 0.000000 0.000000 0.000000
#
# Coordination Sequence:
#
# PCOD9086518 Si02
#       8
#     2   2   2   2   2   2   2   2
#     4   9  20  33  58  90 131 167 209 261 321 376
#     4  11  21  38  64  91 128 166 210 259 324 384
#     4  10  22  39  60  92 127 162 214 272 312 374
#     4   9  21  41  61  90 126 167 211 257 326 381
#     4  10  19  36  58  95 129 161 213 269 316 376
#     4  10  20  38  61  89 130 168 212 257 320 379
#     4  11  22  38  60  96 129 164 215 267 317 373
#     4  10  22  40  64  93 128 174 208 256 323 389
#
# _framework density 26.481085
#
# number of rings (size 3 to 8) (size 9 to 14) (size 15 to 20)
#    0.000    2.000    1.250    1.875    3.500    1.500 
#    0.000    3.125    0.000    6.000    0.000    0.000 
#    0.000    0.000    0.000    0.000    0.000    0.000 
#
# Total GULP energy -89277.974628 kJ/mol
# GULP energy per Si atom -5579.873414 kJ/mol
# Density = 2.642081 g / cm^3
# Si number density = 26.481085 Si / 1000 Ang^3
#
#
#
# Elastic Constant Matrix: (Units=GPa)
#
#
# Indices 1 2 3 4 5 6 
#
# 1 232.4472 27.7881 52.4539 13.6871 14.2056 -13.5411
# 2 27.7881 90.6013 5.5438 9.2489 -8.8629 -15.6848
# 3 52.4539 5.5438 90.4043 4.8230 4.6596 -8.6137
# 4 13.6871 9.2489 4.8230 25.6811 -9.4779 -8.2882
# 5 14.2056 -8.8629 4.6596 -9.4779 47.5671 18.0875
# 6 -13.5411 -15.6848 -8.6137 -8.2882 18.0875 42.2935
#
#
#
# Elastic Compliance Matrix: (Units=1/GPa)
#
#
# Indices 1 2 3 4 5 6 
#
# 1 0.005444 -0.001274 -0.002685 -0.002462 -0.002606 0.001355
# 2 -0.001274 0.012324 0.000392 -0.002417 0.000864 0.003399
# 3 -0.002685 0.000392 0.012947 -0.000921 -0.001480 0.002375
# 4 -0.002462 -0.002417 -0.000921 0.045427 0.008065 0.003581
# 5 -0.002606 0.000864 -0.001480 0.008065 0.027972 -0.011197
# 6 0.001355 0.003399 0.002375 0.003581 -0.011197 0.031313
#
#
# Mechanical properties :
#
#
# Convention : Reuss Voigt Hill
#
# Bulk Modulus (GPa) = 42.41064 65.00271 53.70668
# Shear Modulus (GPa) = 33.23974 44.95280 39.09627
#
# Velocity S-wave (km/s) = 3.54676 4.12460 3.84654
# Velocity P-wave (km/s) = 5.72913 6.87628 6.32875
#
# Compressibility (1/GPa) = 0.02357899
#
# Stress axis : x y z
#
# Youngs Moduli (GPa) = 183.70203 81.14314 77.23660
#
# Poissons Ratio (x) = 0.10339 0.20742
# Poissons Ratio (y) = 0.23407 -0.03026
# Poissons Ratio (z) = 0.49333 -0.03179
#
# Static dielectric constant tensor:
#      x y z
#    x 2.405150 -0.170060 -0.090130 
#    y -0.170060 2.419690 0.201920 
#    z -0.090130 0.201920 2.102790 
# 
# From -- ./inp_files/393059.got.cif
#   From: 2010.05.17/outbox.cif.g08.bks.cpg/sg2_197_cif.got.tgz:393059.got - 2010.06.03 11:33:40.
