data_PCOD9086665
_publ_section_title
;
Structure prediction by ZEFSAII (Michael W. Deem and Ramdas Pophale) SiO2 
 PCOD9086665
Probable space group: P -1
;
_chemical_formula_sum "Si O2"
_cell_formula_units_Z 12
_cell_length_a 7.432547
_cell_length_b 13.129348
_cell_length_c 7.498380
_cell_angle_alpha 71.547562
_cell_angle_beta 58.638517
_cell_angle_gamma 102.431298
_cell_volume 523.427671
_symmetry_space_group_name_H-M "P -1"
_symmetry_group_IT_number 2
_symmetry_cell_setting 'triclinic'
loop_
_space_group_symop_operation_xyz
x,y,z
-x,-y,-z
loop_
_atom_site_type_symbol
_atom_site_label
_atom_site_fract_x
_atom_site_fract_y
_atom_site_fract_z
Si Si1 0.336613 0.519819 0.829239
Si Si2 0.995669 0.102554 0.819742
Si Si3 0.157833 0.446573 0.354384
Si Si4 0.861315 0.169049 0.523156
Si Si5 0.887098 0.749658 0.008913
Si Si6 0.507320 0.760089 0.430508
O O1 0.609407 0.540292 0.665227
O O2 0.325946 0.628116 0.668824
O O3 0.268436 0.516824 0.072748
O O4 0.165606 0.387452 0.914147
O O5 0.274014 0.180558 0.576458
O O6 0.844605 0.075757 0.735500
O O7 0.948549 0.186441 0.940088
O O8 0.000000 0.000000 0.000000
O O9 0.000000 0.500000 0.500000
O O10 0.997149 0.303981 0.468363
O O11 0.611953 0.155949 0.592184
O O12 0.008669 0.176601 0.266079
O O13 0.638851 0.746532 0.194617
#
# Coordination Sequence:
#
# PCOD9086665 Si02
#       6
#     2   2   2   2   2   2
#     4  10  19  36  59  91 131 158 197 245 300 365
#     4  10  24  45  63  87 123 159 209 264 299 353
#     4  10  20  33  60  95 127 165 193 240 306 370
#     4  11  22  41  63  92 121 163 204 245 313 360
#     4   9  22  40  62  92 126 158 200 254 297 364
#     4  10  22  39  63  92 123 159 202 250 300 368
#
# _framework density 22.925803999999999
#
# number of rings (size 3 to 8) (size 9 to 14) (size 15 to 20)
#    1.000    1.000    1.667    1.500    0.000    8.000 
#    3.000    0.833    0.000    0.000    0.000    0.000 
#    0.000    0.000    0.000    0.000    0.000    0.000 
#
# Total GULP energy -67013.431528 kJ/mol
# GULP energy per Si atom -5584.452627 kJ/mol
# Density = 2.287362 g / cm^3
# Si number density = 22.925804 Si / 1000 Ang^3
#
#
#
# Elastic Constant Matrix: (Units=GPa)
#
#
# Indices 1 2 3 4 5 6 
#
# 1 70.7921 15.6320 16.5162 9.3066 18.1274 -26.2493
# 2 15.6320 19.5534 27.9418 5.0704 0.5078 -14.7754
# 3 16.5162 27.9418 106.8408 14.5675 26.0573 -23.6640
# 4 9.3066 5.0704 14.5675 32.6692 -9.1581 1.0412
# 5 18.1274 0.5078 26.0573 -9.1581 37.5196 -2.1478
# 6 -26.2493 -14.7754 -23.6640 1.0412 -2.1478 29.2137
#
#
#
# Elastic Compliance Matrix: (Units=1/GPa)
#
#
# Indices 1 2 3 4 5 6 
#
# 1 0.053741 -0.036211 0.031796 -0.040834 -0.054480 0.053178
# 2 -0.036211 0.144367 -0.047833 0.024507 0.055024 0.004905
# 3 0.031796 -0.047833 0.042199 -0.035814 -0.050697 0.036109
# 4 -0.040834 0.024507 -0.035814 0.072603 0.059040 -0.051553
# 5 -0.054480 0.055024 -0.050697 0.059040 0.098584 -0.057044
# 6 0.053178 0.004905 0.036109 -0.051553 -0.057044 0.111387
#
#
# Mechanical properties :
#
#
# Convention : Reuss Voigt Hill
#
# Bulk Modulus (GPa) = 7.36322 35.26292 21.31307
# Shear Modulus (GPa) = 7.43330 29.02025 18.22678
#
# Velocity S-wave (km/s) = 1.80260 3.56172 2.82269
# Velocity P-wave (km/s) = 2.74795 5.68587 4.46544
#
# Compressibility (1/GPa) = 0.13581018
#
# Stress axis : x y z
#
# Youngs Moduli (GPa) = 18.60788 6.92678 23.69697
#
# Poissons Ratio (x) = 0.25083 -0.75347
# Poissons Ratio (y) = 0.67382 1.13350
# Poissons Ratio (z) = -0.59165 0.33133
#
# Static dielectric constant tensor:
#      x y z
#    x 1.899480 0.021010 -0.011590 
#    y 0.021010 1.902430 -0.049970 
#    z -0.011590 -0.049970 1.868910 
# 
# From -- ./inp_files/165834.got.cif
#   From: 2010.05.17/outbox.cif.g08.bks.cpg/sg2_83_cif.got.tgz:165834.got - 2010.06.03 11:33:40.
