data_PCOD9086612
_publ_section_title
;
Structure prediction by ZEFSAII (Michael W. Deem and Ramdas Pophale) SiO2 
 PCOD9086612
Probable space group: P -1
;
_chemical_formula_sum "Si O2"
_cell_formula_units_Z 16
_cell_length_a 9.784062
_cell_length_b 15.602115
_cell_length_c 12.016994
_cell_angle_alpha 59.607503
_cell_angle_beta 101.315186
_cell_angle_gamma 141.061245
_cell_volume 926.274307
_symmetry_space_group_name_H-M "P -1"
_symmetry_group_IT_number 2
_symmetry_cell_setting 'triclinic'
loop_
_space_group_symop_operation_xyz
x,y,z
-x,-y,-z
loop_
_atom_site_type_symbol
_atom_site_label
_atom_site_fract_x
_atom_site_fract_y
_atom_site_fract_z
Si Si1 0.027883 0.983918 0.332303
Si Si2 0.831033 0.761277 0.646415
Si Si3 0.150274 0.763078 0.646613
Si Si4 0.514782 0.569507 0.070921
Si Si5 0.441007 0.050421 0.045457
Si Si6 0.806662 0.427513 0.928620
Si Si7 0.031146 0.940557 0.946414
Si Si8 0.350746 0.983079 0.328240
O O1 0.137587 0.133865 0.327114
O O2 0.913899 0.970439 0.217025
O O3 0.223805 0.016983 0.302568
O O4 0.849394 0.822650 0.488813
O O5 0.602778 0.567246 0.764391
O O6 0.045727 0.805062 0.655942
O O7 0.212524 0.826277 0.487951
O O8 0.954003 0.568121 0.763936
O O9 0.387389 0.866834 0.678557
O O10 0.365836 0.587211 0.036271
O O11 0.500000 0.500000 0.000000
O O12 0.783987 0.745900 0.018107
O O13 0.362790 0.967496 0.209633
O O14 0.650136 0.247729 0.976231
O O15 0.500000 0.000000 0.000000
O O16 0.232616 0.986633 0.992223
O O17 0.000000 0.500000 0.000000
O O18 0.000000 0.000000 0.000000
#
# Coordination Sequence:
#
# PCOD9086612 Si02
#       8
#     2   2   2   2   2   2   2   2
#     4  10  19  36  59  86 120 151 192 241 293 345
#     4   9  20  35  58  91 115 148 197 244 287 342
#     4   9  20  35  62  84 117 150 197 246 286 340
#     4  11  22  37  62  90 117 153 201 244 286 348
#     4  12  27  41  60  86 123 162 196 238 303 357
#     4  11  22  39  60  89 118 153 203 245 286 343
#     4  12  23  41  60  86 123 160 192 242 300 355
#     4  10  19  38  57  87 115 157 194 238 294 344
#
# _framework density 17.273501
#
# number of rings (size 3 to 8) (size 9 to 14) (size 15 to 20)
#    0.000    1.500    5.000    0.000    3.500    0.000 
#    0.000    2.500    0.000    0.000    0.000    0.000 
#    0.000    0.000    0.000    0.000    0.000    0.000 
#
# Total GULP energy -89230.836169 kJ/mol
# GULP energy per Si atom -5576.927261 kJ/mol
# Density = 1.723419 g / cm^3
# Si number density = 17.273501 Si / 1000 Ang^3
#
#
#
# Elastic Constant Matrix: (Units=GPa)
#
#
# Indices 1 2 3 4 5 6 
#
# 1 120.5437 66.2542 57.8274 11.8515 -3.8462 -3.2724
# 2 66.2542 123.2070 63.6681 2.2854 0.0422 0.3169
# 3 57.8274 63.6681 143.1567 11.9195 0.8701 -0.8644
# 4 11.8515 2.2854 11.9195 33.8702 -0.9849 1.1834
# 5 -3.8462 0.0422 0.8701 -0.9849 23.4252 8.2810
# 6 -3.2724 0.3169 -0.8644 1.1834 8.2810 35.6231
#
#
#
# Elastic Compliance Matrix: (Units=1/GPa)
#
#
# Indices 1 2 3 4 5 6 
#
# 1 0.012988 -0.005652 -0.002466 -0.003274 0.001787 0.000877
# 2 -0.005652 0.013033 -0.003716 0.002417 -0.000465 -0.000697
# 3 -0.002466 -0.003716 0.009841 -0.002391 -0.000990 0.000355
# 4 -0.003274 0.002417 -0.002391 0.031454 0.001496 -0.001773
# 5 0.001787 -0.000465 -0.000990 0.001496 0.046904 -0.010809
# 6 0.000877 -0.000697 0.000355 -0.001773 -0.010809 0.030739
#
#
# Mechanical properties :
#
#
# Convention : Reuss Voigt Hill
#
# Bulk Modulus (GPa) = 82.00118 84.71188 83.35653
# Shear Modulus (GPa) = 28.95347 31.86089 30.40718
#
# Velocity S-wave (km/s) = 4.09856 4.29942 4.20019
# Velocity P-wave (km/s) = 8.36498 8.59038 8.47843
#
# Compressibility (1/GPa) = 0.01219495
#
# Stress axis : x y z
#
# Youngs Moduli (GPa) = 76.99497 76.72693 101.61430
#
# Poissons Ratio (x) = 0.43368 0.25053
# Poissons Ratio (y) = 0.43519 0.37759
# Poissons Ratio (z) = 0.18983 0.28511
#
# Static dielectric constant tensor:
#      x y z
#    x 1.576080 -0.009400 -0.002450 
#    y -0.009400 1.544480 -0.007760 
#    z -0.002450 -0.007760 1.619050 
# 
# From -- ./inp_files/239957.got.cif
#   From: 2010.05.17/outbox.cif.g08.bks.cpg/sg2_120_cif.got.tgz:239957.got - 2010.06.03 11:33:40.
