data_PCOD9086780
_publ_section_title
;
Structure prediction by ZEFSAII (Michael W. Deem and Ramdas Pophale) SiO2 
 PCOD9086780
Probable space group: P -1
;
_chemical_formula_sum "Si O2"
_cell_formula_units_Z 14
_cell_length_a 18.765485
_cell_length_b 5.294056
_cell_length_c 8.262491
_cell_angle_alpha 78.502120
_cell_angle_beta 46.239046
_cell_angle_gamma 64.768360
_cell_volume 530.515352
_symmetry_space_group_name_H-M "P -1"
_symmetry_group_IT_number 2
_symmetry_cell_setting 'triclinic'
loop_
_space_group_symop_operation_xyz
x,y,z
-x,-y,-z
loop_
_atom_site_type_symbol
_atom_site_label
_atom_site_fract_x
_atom_site_fract_y
_atom_site_fract_z
Si Si1 0.914623 0.952172 0.904656
Si Si2 0.030874 0.365643 0.647491
Si Si3 0.478042 0.556641 0.281870
Si Si4 0.730185 0.936922 0.393523
Si Si5 0.229931 0.961966 0.207050
Si Si6 0.619049 0.658511 0.824376
Si Si7 0.613972 0.995407 0.265472
O O1 0.006063 0.637770 0.764812
O O2 0.960320 0.189892 0.825068
O O3 0.838546 0.034944 0.849983
O O4 0.845961 0.930397 0.170380
O O5 0.000000 0.500000 0.500000
O O6 0.149678 0.135225 0.451656
O O7 0.452691 0.376715 0.206136
O O8 0.571428 0.337037 0.272656
O O9 0.360566 0.745135 0.506800
O O10 0.529934 0.757028 0.095051
O O11 0.693324 0.802657 0.617779
O O12 0.697069 0.822708 0.295677
O O13 0.298508 0.652481 0.207412
O O14 0.313072 0.095705 0.999376
O O15 0.500000 0.000000 0.500000
#
# Coordination Sequence:
#
# PCOD9086780 Si02
#       7
#     2   2   2   2   2   2   2
#     4  10  23  40  69  93 119 158 212 263 303 354
#     4  10  20  42  66  93 121 157 210 260 304 360
#     4  10  21  37  58  81 122 163 199 244 301 373
#     4  11  22  37  59  89 119 159 203 257 305 359
#     4   9  20  38  60  90 118 161 200 249 306 368
#     4  10  21  39  55  85 125 159 200 241 311 375
#     4  10  19  36  60  87 119 154 200 251 298 361
#
# _framework density 26.389434999999999
#
# number of rings (size 3 to 8) (size 9 to 14) (size 15 to 20)
#    0.000    2.000    1.429    2.571    2.000    1.143 
#    7.714    2.857    0.000    0.000    0.000    0.000 
#    0.000    0.000    0.000    0.000    0.000    0.000 
#
# Total GULP energy -78196.036657 kJ/mol
# GULP energy per Si atom -5585.431190 kJ/mol
# Density = 2.632937 g / cm^3
# Si number density = 26.389435 Si / 1000 Ang^3
#
#
#
# Elastic Constant Matrix: (Units=GPa)
#
#
# Indices 1 2 3 4 5 6 
#
# 1 71.4033 11.1069 0.9271 -16.7921 -15.2984 2.1491
# 2 11.1069 98.3506 53.5283 -8.6322 -0.7977 1.8648
# 3 0.9271 53.5283 209.6998 -18.1831 -17.0268 1.3207
# 4 -16.7921 -8.6322 -18.1831 59.6353 4.3579 -9.9083
# 5 -15.2984 -0.7977 -17.0268 4.3579 30.4977 -5.1875
# 6 2.1491 1.8648 1.3207 -9.9083 -5.1875 23.5167
#
#
#
# Elastic Compliance Matrix: (Units=1/GPa)
#
#
# Indices 1 2 3 4 5 6 
#
# 1 0.017432 -0.002451 0.001713 0.004823 0.009391 0.002609
# 2 -0.002451 0.012274 -0.003350 0.000087 -0.002993 -0.001185
# 3 0.001713 -0.003350 0.006101 0.001792 0.004167 0.001441
# 4 0.004823 0.000087 0.001792 0.019917 0.001985 0.008281
# 5 0.009391 -0.002993 0.004167 0.001985 0.041000 0.009025
# 6 0.002609 -0.001185 0.001441 0.008281 0.009025 0.047777
#
#
# Mechanical properties :
#
#
# Convention : Reuss Voigt Hill
#
# Bulk Modulus (GPa) = 36.19242 56.73093 46.46168
# Shear Modulus (GPa) = 30.88589 43.65603 37.27096
#
# Velocity S-wave (km/s) = 3.42481 4.07172 3.76219
# Velocity P-wave (km/s) = 5.42066 6.60677 6.04289
#
# Compressibility (1/GPa) = 0.02763009
#
# Stress axis : x y z
#
# Youngs Moduli (GPa) = 57.36677 81.47543 163.90800
#
# Poissons Ratio (x) = 0.19968 -0.28074
# Poissons Ratio (y) = 0.14059 0.54912
# Poissons Ratio (z) = -0.09826 0.27295
#
# Static dielectric constant tensor:
#      x y z
#    x 2.323920 0.002820 0.122520 
#    y 0.002820 2.066180 0.001690 
#    z 0.122520 0.001690 2.157500 
# 
# From -- ./inp_files/97341.got.cif
#   From: 2010.05.17/outbox.cif.g08.bks.cpg/sg2_49_cif.got.tgz:97341.got - 2010.06.03 11:33:40.
