data_PCOD9086929
_publ_section_title
;
Structure prediction by ZEFSAII (Michael W. Deem and Ramdas Pophale) SiO2 
 PCOD9086929
Probable space group: P -1
;
_chemical_formula_sum "Si O2"
_cell_formula_units_Z 14
_cell_length_a 8.478669
_cell_length_b 5.463261
_cell_length_c 21.242129
_cell_angle_alpha 103.827830
_cell_angle_beta 43.819646
_cell_angle_gamma 113.168442
_cell_volume 624.783040
_symmetry_space_group_name_H-M "P -1"
_symmetry_group_IT_number 2
_symmetry_cell_setting 'triclinic'
loop_
_space_group_symop_operation_xyz
x,y,z
-x,-y,-z
loop_
_atom_site_type_symbol
_atom_site_label
_atom_site_fract_x
_atom_site_fract_y
_atom_site_fract_z
Si Si1 0.849636 0.067220 0.349566
Si Si2 0.036929 0.770844 0.432849
Si Si3 0.567312 0.610065 0.895826
Si Si4 0.700715 0.260899 0.526587
Si Si5 0.786437 0.241439 0.070997
Si Si6 0.136415 0.223954 0.064018
Si Si7 0.119338 0.673026 0.267328
O O1 0.572951 0.920824 0.403261
O O2 0.989737 0.859027 0.282195
O O3 0.839572 0.115107 0.431311
O O4 0.958058 0.360062 0.305712
O O5 0.203578 0.670713 0.426349
O O6 0.771845 0.547645 0.489473
O O7 0.165909 0.802150 0.331050
O O8 0.000000 0.000000 0.500000
O O9 0.469113 0.723137 0.869966
O O10 0.784360 0.794171 0.888055
O O11 0.651663 0.363579 0.834861
O O12 0.331252 0.502958 0.001580
O O13 0.870100 0.212785 0.117040
O O14 0.000000 0.500000 0.000000
O O15 0.811595 0.002763 0.006432
#
# Coordination Sequence:
#
# PCOD9086929 Si02
#       7
#     2   2   2   2   2   2   2
#     4  10  22  39  59  85 117 155 201 246 296 355
#     4  10  19  36  61  84 116 157 202 242 298 356
#     4  10  21  37  60  86 119 158 195 251 301 354
#     4   9  20  36  61  83 111 158 204 244 290 359
#     4   9  18  36  61  87 111 149 199 243 294 361
#     4   9  19  38  63  86 113 157 204 238 297 367
#     4  11  24  39  57  89 123 155 195 251 303 350
#
# _framework density 22.407778
#
# number of rings (size 3 to 8) (size 9 to 14) (size 15 to 20)
#    0.000    2.286    1.429    0.429    4.000    1.714 
#    2.571    2.857    0.000    0.000    0.000    0.000 
#    0.000    0.000    0.000    0.000    0.000    0.000 
#
# Total GULP energy -77942.736531 kJ/mol
# GULP energy per Si atom -5567.338324 kJ/mol
# Density = 2.235678 g / cm^3
# Si number density = 22.407778 Si / 1000 Ang^3
#
#
#
# Elastic Constant Matrix: (Units=GPa)
#
#
# Indices 1 2 3 4 5 6 
#
# 1 130.7100 38.2604 32.3511 9.1994 -11.1509 18.2506
# 2 38.2604 77.1641 19.6554 10.5560 -7.2961 -0.2900
# 3 32.3511 19.6554 65.1189 9.4355 -9.6408 3.8232
# 4 9.1994 10.5560 9.4355 31.8509 -8.3646 -0.7224
# 5 -11.1509 -7.2961 -9.6408 -8.3646 26.2399 13.1165
# 6 18.2506 -0.2900 3.8232 -0.7224 13.1165 28.8865
#
#
#
# Elastic Compliance Matrix: (Units=1/GPa)
#
#
# Indices 1 2 3 4 5 6 
#
# 1 0.011871 -0.004541 -0.002735 0.000892 0.008592 -0.011063
# 2 -0.004541 0.016234 -0.002575 -0.003608 -0.001491 0.003959
# 3 -0.002735 -0.002575 0.018971 -0.002447 0.006141 -0.003658
# 4 0.000892 -0.003608 -0.002447 0.036245 0.012568 -0.005076
# 5 0.008592 -0.001491 0.006141 0.012568 0.065430 -0.035651
# 6 -0.011063 0.003959 -0.003658 -0.005076 -0.035651 0.058193
#
#
# Mechanical properties :
#
#
# Convention : Reuss Voigt Hill
#
# Bulk Modulus (GPa) = 36.52858 50.39185 43.46022
# Shear Modulus (GPa) = 21.20712 29.57723 25.39217
#
# Velocity S-wave (km/s) = 3.07973 3.63706 3.36993
# Velocity P-wave (km/s) = 5.38363 6.33837 5.88041
#
# Compressibility (1/GPa) = 0.02737582
#
# Stress axis : x y z
#
# Youngs Moduli (GPa) = 84.23576 61.59863 52.71270
#
# Poissons Ratio (x) = 0.27971 0.14416
# Poissons Ratio (y) = 0.38250 0.13572
# Poissons Ratio (z) = 0.23037 0.15859
#
# Static dielectric constant tensor:
#      x y z
#    x 1.962800 -0.064600 -0.013660 
#    y -0.064600 1.894610 -0.027330 
#    z -0.013660 -0.027330 1.824180 
# 
# From -- ./inp_files/36383.got.cif
#   From: 2010.05.17/outbox.cif.g08.bks.cpg/sg2_19_cif.got.tgz:36383.got - 2010.06.03 11:33:40.
