data_PCOD9086863
_publ_section_title
;
Structure prediction by ZEFSAII (Michael W. Deem and Ramdas Pophale) SiO2 
 PCOD9086863
Probable space group: P -1
;
_chemical_formula_sum "Si O2"
_cell_formula_units_Z 16
_cell_length_a 9.176292
_cell_length_b 7.114210
_cell_length_c 10.876952
_cell_angle_alpha 86.222110
_cell_angle_beta 107.103465
_cell_angle_gamma 96.329213
_cell_volume 674.111946
_symmetry_space_group_name_H-M "P -1"
_symmetry_group_IT_number 2
_symmetry_cell_setting 'triclinic'
loop_
_space_group_symop_operation_xyz
x,y,z
-x,-y,-z
loop_
_atom_site_type_symbol
_atom_site_label
_atom_site_fract_x
_atom_site_fract_y
_atom_site_fract_z
Si Si1 0.555548 0.707634 0.444806
Si Si2 0.945656 0.051390 0.825511
Si Si3 0.890336 0.374250 0.385238
Si Si4 0.494891 0.239942 0.070502
Si Si5 0.639344 0.575311 0.208813
Si Si6 0.769357 0.279736 0.605689
Si Si7 0.247211 0.922948 0.000784
Si Si8 0.835214 0.718559 0.676020
O O1 0.500000 0.500000 0.500000
O O2 0.615147 0.684835 0.322951
O O3 0.399281 0.803987 0.393922
O O4 0.695772 0.787866 0.560581
O O5 0.901326 0.156945 0.688261
O O6 0.860389 0.153806 0.910031
O O7 0.863491 0.835745 0.803007
O O8 0.124033 0.038308 0.893604
O O9 0.806379 0.502578 0.264589
O O10 0.767551 0.287107 0.456724
O O11 0.000000 0.500000 0.500000
O O12 0.999762 0.241142 0.351541
O O13 0.402911 0.320219 0.929846
O O14 0.664779 0.208518 0.062757
O O15 0.518346 0.387962 0.179643
O O16 0.394191 0.048955 0.086806
O O17 0.804295 0.489156 0.668808
#
# Coordination Sequence:
#
# PCOD9086863 Si02
#       8
#     2   2   2   2   2   2   2   2
#     4  10  19  36  60  91 131 156 203 259 306 381
#     4  11  24  42  64  88 134 163 214 262 324 369
#     4  10  19  36  60  91 131 156 203 259 306 381
#     4  10  24  40  68  88 122 174 212 264 314 358
#     4  11  20  38  68  96 122 165 218 252 318 381
#     4  10  22  38  61  93 125 169 201 258 318 376
#     4  10  24  46  56  90 126 166 216 276 294 376
#     4  10  22  38  61  93 125 169 201 258 318 376
#
# _framework density 23.734929999999999
#
# number of rings (size 3 to 8) (size 9 to 14) (size 15 to 20)
#    0.000    1.750    3.750    1.500    7.000    1.000 
#    0.000    3.750    0.000    0.000    0.000    0.000 
#    0.000    0.000    0.000    0.000    0.000    0.000 
#
# Total GULP energy -89253.566129 kJ/mol
# GULP energy per Si atom -5578.347883 kJ/mol
# Density = 2.368091 g / cm^3
# Si number density = 23.734930 Si / 1000 Ang^3
#
#
#
# Elastic Constant Matrix: (Units=GPa)
#
#
# Indices 1 2 3 4 5 6 
#
# 1 95.4858 17.0588 40.7600 7.8233 26.8925 -16.7339
# 2 17.0588 41.5607 5.6845 -1.1295 10.0534 -12.1898
# 3 40.7600 5.6845 76.9146 -11.1908 24.5421 -9.3831
# 4 7.8233 -1.1295 -11.1908 33.6713 -6.0658 7.5810
# 5 26.8925 10.0534 24.5421 -6.0658 31.7630 0.6260
# 6 -16.7339 -12.1898 -9.3831 7.5810 0.6260 20.7905
#
#
#
# Elastic Compliance Matrix: (Units=1/GPa)
#
#
# Indices 1 2 3 4 5 6 
#
# 1 0.023899 0.002756 -0.005765 -0.016651 -0.020323 0.024933
# 2 0.002756 0.034837 0.004188 -0.007717 -0.018619 0.027908
# 3 -0.005765 0.004188 0.020943 0.005013 -0.011783 0.005794
# 4 -0.016651 -0.007717 0.005013 0.046465 0.022196 -0.033276
# 5 -0.020323 -0.018619 -0.011783 0.022196 0.068769 -0.042757
# 6 0.024933 0.027908 0.005794 -0.033276 -0.042757 0.100566
#
#
# Mechanical properties :
#
#
# Convention : Reuss Voigt Hill
#
# Bulk Modulus (GPa) = 12.18976 37.88529 25.03753
# Shear Modulus (GPa) = 15.60222 27.27549 21.43885
#
# Velocity S-wave (km/s) = 2.56667 3.39362 3.00869
# Velocity P-wave (km/s) = 3.73238 5.59929 4.75829
#
# Compressibility (1/GPa) = 0.08203609
#
# Stress axis : x y z
#
# Youngs Moduli (GPa) = 41.84298 28.70516 47.74875
#
# Poissons Ratio (x) = -0.07910 0.27526
# Poissons Ratio (y) = -0.11531 -0.19996
# Poissons Ratio (z) = 0.24121 -0.12021
#
# Static dielectric constant tensor:
#      x y z
#    x 1.976360 0.007770 -0.030500 
#    y 0.007770 1.966940 -0.009910 
#    z -0.030500 -0.009910 1.893200 
# 
# From -- ./inp_files/379306.got.cif
#   From: 2010.05.17/outbox.cif.g08.bks.cpg/sg2_190_cif.got.tgz:379306.got - 2010.06.03 11:33:40.
