data_PCOD9086180
_publ_section_title
;
Structure prediction by ZEFSAII (Michael W. Deem and Ramdas Pophale) SiO2 
 PCOD9086180
Probable space group: P -1
;
_chemical_formula_sum "Si O2"
_cell_formula_units_Z 16
_cell_length_a 7.934845
_cell_length_b 8.376935
_cell_length_c 17.155298
_cell_angle_alpha 132.769728
_cell_angle_beta 69.579803
_cell_angle_gamma 123.185262
_cell_volume 700.080537
_symmetry_space_group_name_H-M "P -1"
_symmetry_group_IT_number 2
_symmetry_cell_setting 'triclinic'
loop_
_space_group_symop_operation_xyz
x,y,z
-x,-y,-z
loop_
_atom_site_type_symbol
_atom_site_label
_atom_site_fract_x
_atom_site_fract_y
_atom_site_fract_z
Si Si1 0.838395 0.490305 0.460869
Si Si2 0.989659 0.911360 0.848300
Si Si3 0.437364 0.224303 0.900774
Si Si4 0.164406 0.609565 0.319420
Si Si5 0.716498 0.975484 0.297510
Si Si6 0.455266 0.394386 0.666716
Si Si7 0.779262 0.879255 0.536053
Si Si8 0.405800 0.058433 0.111396
O O1 0.774855 0.704964 0.549733
O O2 0.000000 0.500000 0.500000
O O3 0.956551 0.542946 0.376904
O O4 0.678663 0.209579 0.394559
O O5 0.888644 0.632931 0.802050
O O6 0.819647 0.998706 0.896592
O O7 0.199733 0.067312 0.909991
O O8 0.072159 0.924742 0.750109
O O9 0.437659 0.198423 0.799049
O O10 0.567999 0.111175 0.883383
O O11 0.500000 0.500000 0.000000
O O12 0.335889 0.619593 0.355120
O O13 0.239701 0.876574 0.360628
O O14 0.702940 0.819850 0.323314
O O15 0.373824 0.305091 0.564189
O O16 0.489837 0.661212 0.779181
O O17 0.000000 0.000000 0.500000
O O18 0.500000 0.000000 0.000000
#
# Coordination Sequence:
#
# PCOD9086180 Si02
#       8
#     2   2   2   2   2   2   2   2
#     4  10  19  36  56  82 118 160 199 241 295 354
#     4   8  21  40  63  86 128 155 199 255 299 359
#     4  10  21  40  63  86 121 156 201 248 309 356
#     4   9  19  37  58  85 122 154 199 251 294 354
#     4   9  19  38  57  81 122 157 193 251 300 349
#     4  11  21  38  60  89 119 155 202 252 295 360
#     4  10  20  33  59  87 116 160 201 239 299 352
#     4  11  23  40  64  92 119 160 205 250 306 362
#
# _framework density 22.854512
#
# number of rings (size 3 to 8) (size 9 to 14) (size 15 to 20)
#    0.750    1.500    0.000    3.375    1.750    1.000 
#    0.000    8.750    0.000    0.000    0.000    0.000 
#    0.000    0.000    0.000    0.000    0.000    0.000 
#
# Total GULP energy -89253.878253 kJ/mol
# GULP energy per Si atom -5578.367391 kJ/mol
# Density = 2.280249 g / cm^3
# Si number density = 22.854512 Si / 1000 Ang^3
#
#
#
# Elastic Constant Matrix: (Units=GPa)
#
#
# Indices 1 2 3 4 5 6 
#
# 1 98.3650 24.4640 56.5671 26.2444 -16.8427 -8.6676
# 2 24.4640 78.3123 43.1717 34.6645 -15.5980 -14.1734
# 3 56.5671 43.1717 113.5427 38.6147 -9.4318 -10.9751
# 4 26.2444 34.6645 38.6147 53.3807 0.4186 -10.2428
# 5 -16.8427 -15.5980 -9.4318 0.4186 40.3647 2.7525
# 6 -8.6676 -14.1734 -10.9751 -10.2428 2.7525 51.6146
#
#
#
# Elastic Compliance Matrix: (Units=1/GPa)
#
#
# Indices 1 2 3 4 5 6 
#
# 1 0.015577 0.001736 -0.006538 -0.003983 0.005642 0.000611
# 2 0.001736 0.021741 -0.004332 -0.011393 0.008051 0.002650
# 3 -0.006538 -0.004332 0.015381 -0.005091 -0.000756 0.000013
# 4 -0.003983 -0.011393 -0.005091 0.032202 -0.007719 0.001922
# 5 0.005642 0.008051 -0.000756 -0.007719 0.030153 -0.000142
# 6 0.000611 0.002650 0.000013 0.001922 -0.000142 0.020597
#
#
# Mechanical properties :
#
#
# Convention : Reuss Voigt Hill
#
# Bulk Modulus (GPa) = 29.04330 59.84729 44.44530
# Shear Modulus (GPa) = 30.23033 40.13979 35.18506
#
# Velocity S-wave (km/s) = 3.64088 4.19539 3.92793
# Velocity P-wave (km/s) = 5.51454 7.05064 6.32936
#
# Compressibility (1/GPa) = 0.03443134
#
# Stress axis : x y z
#
# Youngs Moduli (GPa) = 64.19672 45.99520 65.01355
#
# Poissons Ratio (x) = -0.07983 0.42507
# Poissons Ratio (y) = -0.11142 0.28162
# Poissons Ratio (z) = 0.41973 0.19924
#
# Static dielectric constant tensor:
#      x y z
#    x 0.551580 -0.663640 -0.372290 
#    y -0.663640 1.586370 -0.202610 
#    z -0.372290 -0.202610 1.804960 
# 
# From -- ./inp_files/586379.got.cif
#   From: 2010.05.17/outbox.cif.g08.bks.cpg/sg2_294_cif.got.tgz:586379.got - 2010.06.03 11:33:40.
