data_PCOD9086041
_publ_section_title
;
Structure prediction by ZEFSAII (Michael W. Deem and Ramdas Pophale) SiO2 
 PCOD9086041
Probable space group: P -1
;
_chemical_formula_sum "Si O2"
_cell_formula_units_Z 16
_cell_length_a 8.067967
_cell_length_b 11.141398
_cell_length_c 18.748743
_cell_angle_alpha 54.853513
_cell_angle_beta 151.908835
_cell_angle_gamma 131.269205
_cell_volume 596.365807
_symmetry_space_group_name_H-M "P -1"
_symmetry_group_IT_number 2
_symmetry_cell_setting 'triclinic'
loop_
_space_group_symop_operation_xyz
x,y,z
-x,-y,-z
loop_
_atom_site_type_symbol
_atom_site_label
_atom_site_fract_x
_atom_site_fract_y
_atom_site_fract_z
Si Si1 0.337158 0.111663 0.857042
Si Si2 0.344029 0.586850 0.506711
Si Si3 0.443178 0.131940 0.138659
Si Si4 0.278496 0.630485 0.299823
Si Si5 0.380479 0.738375 0.613944
Si Si6 0.417974 0.322764 0.938112
Si Si7 0.060499 0.057280 0.618006
Si Si8 0.169178 0.327188 0.077020
O O1 0.193973 0.201969 0.831009
O O2 0.070070 0.038720 0.713603
O O3 0.719779 0.244790 0.922647
O O4 0.500000 0.000000 0.000000
O O5 0.343601 0.634786 0.408310
O O6 0.685490 0.525805 0.663715
O O7 0.371640 0.714576 0.533549
O O8 0.964486 0.425565 0.432333
O O9 0.391533 0.246724 0.139578
O O10 0.775476 0.069631 0.306816
O O11 0.573305 0.223433 0.082275
O O12 0.000000 0.000000 0.000000
O O13 0.596223 0.781114 0.332837
O O14 0.868894 0.634933 0.134626
O O15 0.740353 0.720511 0.793732
O O16 0.298270 0.894111 0.550997
O O17 0.685864 0.486268 0.947347
#
# Coordination Sequence:
#
# PCOD9086041 Si02
#       8
#     2   2   2   2   2   2   2   2
#     4  12  25  47  72  97 140 189 234 275 360 428
#     4   9  19  39  63 101 146 184 218 276 358 418
#     4  12  23  46  68  98 142 191 233 276 343 425
#     4  10  19  35  70  99 133 184 229 268 340 417
#     4  10  22  42  67 103 143 178 229 291 344 409
#     4  12  23  42  68 107 140 175 233 299 336 406
#     4  11  23  42  73  98 133 194 230 270 343 429
#     4  12  26  44  70 106 138 179 235 301 346 396
#
# _framework density 26.829167999999999
#
# number of rings (size 3 to 8) (size 9 to 14) (size 15 to 20)
#    0.000    1.000    5.000    1.500    3.500    0.500 
#    4.500    0.625    0.000    0.000    0.000    0.000 
#    0.000    0.000    0.000    0.000    0.000    0.000 
#
# Total GULP energy -89633.442278 kJ/mol
# GULP energy per Si atom -5602.090142 kJ/mol
# Density = 2.676810 g / cm^3
# Si number density = 26.829168 Si / 1000 Ang^3
#
#
#
# Elastic Constant Matrix: (Units=GPa)
#
#
# Indices 1 2 3 4 5 6 
#
# 1 109.3907 27.1906 18.6545 -7.0665 -5.7158 -4.8171
# 2 27.1906 95.6685 33.7816 -16.4119 0.1461 -0.8640
# 3 18.6545 33.7816 77.3743 -21.5349 -1.0936 5.0282
# 4 -7.0665 -16.4119 -21.5349 46.1527 -1.3765 3.0744
# 5 -5.7158 0.1461 -1.0936 -1.3765 53.5785 -7.2299
# 6 -4.8171 -0.8640 5.0282 3.0744 -7.2299 42.2387
#
#
#
# Elastic Compliance Matrix: (Units=1/GPa)
#
#
# Indices 1 2 3 4 5 6 
#
# 1 0.010109 -0.002336 -0.001511 -0.000051 0.001255 0.001504
# 2 -0.002336 0.013108 -0.004593 0.002129 -0.000277 0.000346
# 3 -0.001511 -0.004593 0.017247 0.006368 -0.000009 -0.002784
# 4 -0.000051 0.002129 0.006368 0.025568 0.000437 -0.002506
# 5 0.001255 -0.000277 -0.000009 0.000437 0.019269 0.003405
# 6 0.001504 0.000346 -0.002784 -0.002506 0.003405 0.024950
#
#
# Mechanical properties :
#
#
# Convention : Reuss Voigt Hill
#
# Bulk Modulus (GPa) = 42.40664 49.07631 45.74147
# Shear Modulus (GPa) = 37.03897 41.91444 39.47670
#
# Velocity S-wave (km/s) = 3.71960 3.95685 3.84006
# Velocity P-wave (km/s) = 5.85557 6.26158 6.06198
#
# Compressibility (1/GPa) = 0.02358121
#
# Stress axis : x y z
#
# Youngs Moduli (GPa) = 98.92635 76.29206 57.98057
#
# Poissons Ratio (x) = 0.17826 0.08762
# Poissons Ratio (y) = 0.23114 0.26633
# Poissons Ratio (z) = 0.14949 0.35044
#
# Static dielectric constant tensor:
#      x y z
#    x 2.057880 -0.000360 0.011990 
#    y -0.000360 2.089760 0.023490 
#    z 0.011990 0.023490 2.108750 
# 
# From -- ./inp_files/589551.got.cif
#   From: 2010.05.17/outbox.cif.g08.bks.cpg/sg2_295_cif.got.tgz:589551.got - 2010.06.03 11:33:40.
