data_PCOD9086973
_publ_section_title
;
Structure prediction by ZEFSAII (Michael W. Deem and Ramdas Pophale) SiO2 
 PCOD9086973
Probable space group: P -1
;
_chemical_formula_sum "Si O2"
_cell_formula_units_Z 16
_cell_length_a 9.878037
_cell_length_b 9.240633
_cell_length_c 11.026316
_cell_angle_alpha 80.761054
_cell_angle_beta 126.179216
_cell_angle_gamma 117.103018
_cell_volume 714.914505
_symmetry_space_group_name_H-M "P -1"
_symmetry_group_IT_number 2
_symmetry_cell_setting 'triclinic'
loop_
_space_group_symop_operation_xyz
x,y,z
-x,-y,-z
loop_
_atom_site_type_symbol
_atom_site_label
_atom_site_fract_x
_atom_site_fract_y
_atom_site_fract_z
Si Si1 0.951658 0.841119 0.079748
Si Si2 0.715320 0.550672 0.577489
Si Si3 0.761547 0.519976 0.875713
Si Si4 0.428219 0.158278 0.066850
Si Si5 0.638562 0.467402 0.292296
Si Si6 0.024561 0.188633 0.642819
Si Si7 0.937827 0.134047 0.344482
Si Si8 0.693116 0.187982 0.998730
O O1 0.062719 0.852143 0.261996
O O2 0.912202 0.687601 0.994340
O O3 0.749469 0.807289 0.030598
O O4 0.000000 0.000000 0.000000
O O5 0.500000 0.500000 0.500000
O O6 0.792050 0.521972 0.747929
O O7 0.712212 0.454100 0.467069
O O8 0.842727 0.740624 0.582595
O O9 0.553074 0.510367 0.793380
O O10 0.770214 0.362699 0.955278
O O11 0.580767 0.302997 0.207763
O O12 0.507107 0.166170 0.973770
O O13 0.361242 0.969118 0.095915
O O14 0.803903 0.627305 0.296385
O O15 0.899380 0.167882 0.458206
O O16 0.092188 0.049789 0.666128
O O17 0.824205 0.175930 0.176320
#
# Coordination Sequence:
#
# PCOD9086973 Si02
#       8
#     2   2   2   2   2   2   2   2
#     4  11  21  38  62  88 119 155 205 249 286 351
#     4   9  19  39  60  87 119 157 202 244 294 354
#     4  10  21  34  61  90 117 161 198 243 301 355
#     4  10  22  39  60  86 125 156 194 249 297 351
#     4   9  19  38  64  86 114 158 211 246 283 351
#     4  10  19  36  61  87 112 155 208 242 295 344
#     4  10  21  36  59  88 120 155 197 252 289 357
#     4  11  22  38  60  90 126 155 194 250 306 354
#
# _framework density 22.380299999999998
#
# number of rings (size 3 to 8) (size 9 to 14) (size 15 to 20)
#    0.000    2.000    1.250    2.250    1.750    2.500 
#    0.000    6.250    0.000    0.000    0.000    0.000 
#    0.000    0.000    0.000    0.000    0.000    0.000 
#
# Total GULP energy -89308.126522 kJ/mol
# GULP energy per Si atom -5581.757908 kJ/mol
# Density = 2.232936 g / cm^3
# Si number density = 22.380300 Si / 1000 Ang^3
#
#
#
# Elastic Constant Matrix: (Units=GPa)
#
#
# Indices 1 2 3 4 5 6 
#
# 1 40.4493 8.0572 15.7396 -0.9713 -0.1830 -3.2988
# 2 8.0572 169.9645 89.7594 7.1702 -23.7390 -10.3216
# 3 15.7396 89.7594 148.9049 1.3968 -38.2310 -6.6283
# 4 -0.9713 7.1702 1.3968 43.7070 3.5128 -7.2225
# 5 -0.1830 -23.7390 -38.2310 3.5128 31.0235 1.4165
# 6 -3.2988 -10.3216 -6.6283 -7.2225 1.4165 30.8400
#
#
#
# Elastic Compliance Matrix: (Units=1/GPa)
#
#
# Indices 1 2 3 4 5 6 
#
# 1 0.026519 0.000359 -0.004213 0.001507 -0.005052 0.002636
# 2 0.000359 0.008783 -0.005140 -0.001037 0.000433 0.001610
# 3 -0.004213 -0.005140 0.013561 -0.000718 0.012836 -0.000014
# 4 0.001507 -0.001037 -0.000718 0.024407 -0.004688 0.005591
# 5 -0.005052 0.000433 0.012836 -0.004688 0.048928 -0.000982
# 6 0.002636 0.001610 -0.000014 0.005591 -0.000982 0.034598
#
#
# Mechanical properties :
#
#
# Convention : Reuss Voigt Hill
#
# Bulk Modulus (GPa) = 32.38961 65.15900 48.77431
# Shear Modulus (GPa) = 27.01605 37.49825 32.25715
#
# Velocity S-wave (km/s) = 3.47815 4.09773 3.80059
# Velocity P-wave (km/s) = 5.53479 7.18096 6.41093
#
# Compressibility (1/GPa) = 0.03087410
#
# Stress axis : x y z
#
# Youngs Moduli (GPa) = 37.70940 113.85785 73.74178
#
# Poissons Ratio (x) = -0.04086 0.31070
# Poissons Ratio (y) = -0.01353 0.37901
# Poissons Ratio (z) = 0.15888 0.58519
#
# Static dielectric constant tensor:
#      x y z
#    x 1.856990 0.041480 0.014700 
#    y 0.041480 1.818330 0.002770 
#    z 0.014700 0.002770 1.921610 
# 
# From -- ./inp_files/417193.got.cif
#   From: 2010.05.17/outbox.cif.g08.bks.cpg/sg2_209_cif.got.tgz:417193.got - 2010.06.03 11:33:40.
