data_PCOD9086909
_publ_section_title
;
Structure prediction by ZEFSAII (Michael W. Deem and Ramdas Pophale) SiO2 
 PCOD9086909
Probable space group: P -1
;
_chemical_formula_sum "Si O2"
_cell_formula_units_Z 16
_cell_length_a 7.707461
_cell_length_b 17.698752
_cell_length_c 5.456210
_cell_angle_alpha 77.095829
_cell_angle_beta 101.479037
_cell_angle_gamma 106.616126
_cell_volume 687.886614
_symmetry_space_group_name_H-M "P -1"
_symmetry_group_IT_number 2
_symmetry_cell_setting 'triclinic'
loop_
_space_group_symop_operation_xyz
x,y,z
-x,-y,-z
loop_
_atom_site_type_symbol
_atom_site_label
_atom_site_fract_x
_atom_site_fract_y
_atom_site_fract_z
Si Si1 0.603648 0.551838 0.714787
Si Si2 0.470154 0.122574 0.487744
Si Si3 0.166000 0.522354 0.837835
Si Si4 0.719685 0.017033 0.781508
Si Si5 0.957861 0.622710 0.473505
Si Si6 0.812332 0.758798 0.149932
Si Si7 0.892538 0.927801 0.271133
Si Si8 0.414351 0.281738 0.382521
O O1 0.500000 0.500000 0.500000
O O2 0.803214 0.606508 0.650661
O O3 0.507983 0.623215 0.688689
O O4 0.657290 0.490262 0.963033
O O5 0.608894 0.084653 0.708771
O O6 0.266411 0.108396 0.554741
O O7 0.535117 0.217964 0.413938
O O8 0.426408 0.065260 0.279150
O O9 0.121344 0.450253 0.682124
O O10 0.137154 0.603221 0.648863
O O11 0.000000 0.500000 0.000000
O O12 0.893135 0.042071 0.624095
O O13 0.819002 0.996280 0.064980
O O14 0.957109 0.706407 0.287148
O O15 0.888286 0.853476 0.139252
O O16 0.661281 0.732960 0.346332
O O17 0.730551 0.739698 0.869806
#
# Coordination Sequence:
#
# PCOD9086909 Si02
#       8
#     2   2   2   2   2   2   2   2
#     4  10  20  34  56  83 114 152 198 248 300 361
#     4  10  20  36  59  82 124 159 200 249 310 362
#     4   9  17  32  52  76 105 140 192 242 291 348
#     4  10  20  35  58  90 116 157 207 247 307 363
#     4   9  18  33  55  79 105 153 196 241 295 365
#     4  10  19  36  61  82 113 159 204 247 303 366
#     4  10  20  35  59  87 118 157 206 250 303 364
#     4  10  20  37  59  84 113 161 202 242 311 371
#
# _framework density 23.259644999999999
#
# number of rings (size 3 to 8) (size 9 to 14) (size 15 to 20)
#    0.000    2.250    2.500    0.750    0.000    0.500 
#    0.000    3.750    0.000    0.000    0.000    0.000 
#    0.000    0.000    0.000    0.000    0.000    0.000 
#
# Total GULP energy -89150.687759 kJ/mol
# GULP energy per Si atom -5571.917985 kJ/mol
# Density = 2.320670 g / cm^3
# Si number density = 23.259645 Si / 1000 Ang^3
#
#
#
# Elastic Constant Matrix: (Units=GPa)
#
#
# Indices 1 2 3 4 5 6 
#
# 1 95.9137 20.8390 27.6598 -12.0875 21.9533 -17.8056
# 2 20.8390 156.3677 54.1436 -29.6459 33.7582 -29.9941
# 3 27.6598 54.1436 110.6845 -18.8305 27.8839 -13.9964
# 4 -12.0875 -29.6459 -18.8305 41.0590 -8.8886 8.7649
# 5 21.9533 33.7582 27.8839 -8.8886 42.6599 -13.1038
# 6 -17.8056 -29.9941 -13.9964 8.7649 -13.1038 32.8603
#
#
#
# Elastic Compliance Matrix: (Units=1/GPa)
#
#
# Indices 1 2 3 4 5 6 
#
# 1 0.012854 0.001149 -0.001702 0.001788 -0.004497 0.005018
# 2 0.001149 0.009959 -0.002690 0.004172 -0.004051 0.005839
# 3 -0.001702 -0.002690 0.012280 0.002301 -0.004743 -0.000652
# 4 0.001788 0.004172 0.002301 0.029355 -0.000280 -0.002185
# 5 -0.004497 -0.004051 -0.004743 -0.000280 0.033642 0.005336
# 6 0.005018 0.005839 -0.000652 -0.002185 0.005336 0.040913
#
#
# Mechanical properties :
#
#
# Convention : Reuss Voigt Hill
#
# Bulk Modulus (GPa) = 34.95878 63.13897 49.04888
# Shear Modulus (GPa) = 32.25300 40.67073 36.46187
#
# Velocity S-wave (km/s) = 3.72782 4.18611 3.96359
# Velocity P-wave (km/s) = 5.79579 7.11118 6.48691
#
# Compressibility (1/GPa) = 0.02860512
#
# Stress axis : x y z
#
# Youngs Moduli (GPa) = 77.79919 100.41073 81.43488
#
# Poissons Ratio (x) = -0.11537 0.13864
# Poissons Ratio (y) = -0.08939 0.21907
# Poissons Ratio (z) = 0.13245 0.27012
#
# Static dielectric constant tensor:
#      x y z
#    x 2.045990 0.024970 -0.048470 
#    y 0.024970 1.921910 -0.001030 
#    z -0.048470 -0.001030 1.913310 
# 
# From -- ./inp_files/43855.got.cif
#   From: 2010.05.17/outbox.cif.g08.bks.cpg/sg2_22_cif.got.tgz:43855.got - 2010.06.03 11:33:40.
