data_PCOD9086926
_publ_section_title
;
Structure prediction by ZEFSAII (Michael W. Deem and Ramdas Pophale) SiO2 
 PCOD9086926
Probable space group: P -1
;
_chemical_formula_sum "Si O2"
_cell_formula_units_Z 14
_cell_length_a 12.183039
_cell_length_b 9.844049
_cell_length_c 9.508401
_cell_angle_alpha 44.386630
_cell_angle_beta 60.511404
_cell_angle_gamma 65.198172
_cell_volume 690.028133
_symmetry_space_group_name_H-M "P -1"
_symmetry_group_IT_number 2
_symmetry_cell_setting 'triclinic'
loop_
_space_group_symop_operation_xyz
x,y,z
-x,-y,-z
loop_
_atom_site_type_symbol
_atom_site_label
_atom_site_fract_x
_atom_site_fract_y
_atom_site_fract_z
Si Si1 0.668724 0.773524 0.508091
Si Si2 0.013580 0.693690 0.938518
Si Si3 0.752072 0.212597 0.443631
Si Si4 0.252667 0.169369 0.092528
Si Si5 0.630377 0.592613 0.365952
Si Si6 0.209690 0.469158 0.160803
Si Si7 0.612739 0.214482 0.240488
O O1 0.654011 0.660128 0.457610
O O2 0.782675 0.670180 0.606306
O O3 0.538919 0.768700 0.684911
O O4 0.672375 0.002404 0.307153
O O5 0.875043 0.809553 0.937472
O O6 0.113401 0.811863 0.703911
O O7 0.000000 0.500000 0.000000
O O8 0.082306 0.611274 0.098790
O O9 0.736901 0.420386 0.377051
O O10 0.648545 0.220065 0.379249
O O11 0.732096 0.040131 0.689557
O O12 0.236674 0.328107 0.112291
O O13 0.362637 0.229073 0.878336
O O14 0.500000 0.500000 0.500000
O O15 0.320187 0.611823 0.998263
#
# Coordination Sequence:
#
# PCOD9086926 Si02
#       7
#     2   2   2   2   2   2   2
#     4  11  22  36  58  84 122 155 195 241 298 346
#     4   9  18  37  64  91 111 151 212 250 276 350
#     4  11  20  38  64  90 116 157 202 243 297 344
#     4  11  21  38  64  89 118 158 203 246 292 345
#     4  12  24  40  56  92 130 153 191 250 295 358
#     4  10  19  36  61  84 111 154 202 244 288 342
#     4  10  20  37  58  85 114 157 203 239 282 363
#
# _framework density 20.289028999999999
#
# number of rings (size 3 to 8) (size 9 to 14) (size 15 to 20)
#    0.000    1.429    7.143    0.857    0.000    1.714 
#    0.000    0.714    0.000    4.286    0.000    0.000 
#    0.000    0.000    0.000    0.000    0.000    0.000 
#
# Total GULP energy -78142.925618 kJ/mol
# GULP energy per Si atom -5581.637544 kJ/mol
# Density = 2.024285 g / cm^3
# Si number density = 20.289029 Si / 1000 Ang^3
#
#
#
# Elastic Constant Matrix: (Units=GPa)
#
#
# Indices 1 2 3 4 5 6 
#
# 1 48.4510 10.9868 29.8212 2.4082 1.8504 4.8160
# 2 10.9868 62.5997 14.7326 -7.7456 12.1515 16.3408
# 3 29.8212 14.7326 101.1994 -19.8558 8.5426 -7.2282
# 4 2.4082 -7.7456 -19.8558 29.6367 2.8786 3.1513
# 5 1.8504 12.1515 8.5426 2.8786 30.4541 1.9959
# 6 4.8160 16.3408 -7.2282 3.1513 1.9959 22.8157
#
#
#
# Elastic Compliance Matrix: (Units=1/GPa)
#
#
# Indices 1 2 3 4 5 6 
#
# 1 0.028979 -0.002808 -0.010889 -0.010061 0.003791 -0.006498
# 2 -0.002808 0.024112 -0.001609 0.008156 -0.008619 -0.017558
# 3 -0.010889 -0.001609 0.016465 0.011165 -0.004865 0.007551
# 4 -0.010061 0.008156 0.011165 0.045716 -0.009726 -0.005644
# 5 0.003791 -0.008619 -0.004865 -0.009726 0.038209 0.001832
# 6 -0.006498 -0.017558 0.007551 -0.005644 0.001832 0.060788
#
#
# Mechanical properties :
#
#
# Convention : Reuss Voigt Hill
#
# Bulk Modulus (GPa) = 25.67791 35.92569 30.80180
# Shear Modulus (GPa) = 19.39015 27.02860 23.20937
#
# Velocity S-wave (km/s) = 3.09479 3.65386 3.38588
# Velocity P-wave (km/s) = 5.04518 5.96207 5.52269
#
# Compressibility (1/GPa) = 0.03894398
#
# Stress axis : x y z
#
# Youngs Moduli (GPa) = 34.50727 41.47374 60.73451
#
# Poissons Ratio (x) = 0.11646 0.66134
# Poissons Ratio (y) = 0.09690 0.09772
# Poissons Ratio (z) = 0.37575 0.06673
#
# Static dielectric constant tensor:
#      x y z
#    x 1.756540 -0.038530 -0.023700 
#    y -0.038530 1.725540 0.001340 
#    z -0.023700 0.001340 1.723710 
# 
# From -- ./inp_files/181073.got.cif
#   From: 2010.05.17/outbox.cif.g08.bks.cpg/sg2_91_cif.got.tgz:181073.got - 2010.06.03 11:33:40.
