data_PCOD9086005
_publ_section_title
;
Structure prediction by ZEFSAII (Michael W. Deem and Ramdas Pophale) SiO2 
 PCOD9086005
Probable space group: P -1
;
_chemical_formula_sum "Si O2"
_cell_formula_units_Z 16
_cell_length_a 9.599414
_cell_length_b 8.610642
_cell_length_c 16.606752
_cell_angle_alpha 55.175905
_cell_angle_beta 34.096127
_cell_angle_gamma 66.750027
_cell_volume 622.508925
_symmetry_space_group_name_H-M "P -1"
_symmetry_group_IT_number 2
_symmetry_cell_setting 'triclinic'
loop_
_space_group_symop_operation_xyz
x,y,z
-x,-y,-z
loop_
_atom_site_type_symbol
_atom_site_label
_atom_site_fract_x
_atom_site_fract_y
_atom_site_fract_z
Si Si1 0.098548 0.582031 0.554697
Si Si2 0.547565 0.725176 0.908919
Si Si3 0.285964 0.005420 0.031804
Si Si4 0.694814 0.681077 0.594454
Si Si5 0.934914 0.101588 0.302040
Si Si6 0.588524 0.832853 0.248702
Si Si7 0.299798 0.762572 0.865021
Si Si8 0.868121 0.499759 0.251948
O O1 0.242202 0.435025 0.479823
O O2 0.285500 0.787030 0.408106
O O3 0.056920 0.524175 0.684088
O O4 0.854732 0.596152 0.613233
O O5 0.541013 0.785347 0.802580
O O6 0.804447 0.817244 0.800481
O O7 0.500000 0.500000 0.000000
O O8 0.311749 0.805450 0.037306
O O9 0.037579 0.048235 0.181522
O O10 0.347574 0.145413 0.884082
O O11 0.500000 0.000000 0.000000
O O12 0.405509 0.672639 0.762644
O O13 0.796143 0.906163 0.464769
O O14 0.788248 0.280542 0.324356
O O15 0.669215 0.643002 0.302564
O O16 0.734947 0.015366 0.175016
O O17 0.084684 0.610035 0.055563
#
# Coordination Sequence:
#
# PCOD9086005 Si02
#       8
#     2   2   2   2   2   2   2   2
#     4  11  26  46  72 101 138 183 233 289 353 407
#     4  10  19  35  66  98 131 173 228 280 335 405
#     4   9  21  38  67  97 133 171 223 287 342 386
#     4  11  26  44  70 106 139 174 235 300 343 401
#     4  11  23  40  65 102 138 180 228 284 351 401
#     4  11  25  47  70  99 140 185 234 282 344 424
#     4  11  24  43  67 101 138 182 232 283 344 411
#     4  12  26  45  71  98 142 192 228 276 350 427
#
# _framework density 25.702441
#
# number of rings (size 3 to 8) (size 9 to 14) (size 15 to 20)
#    0.000    1.250    1.250    4.500    5.250    3.000 
#    0.000    1.250    0.000    0.000    0.000    0.000 
#    0.000    0.000    0.000    0.000    0.000    0.000 
#
# Total GULP energy -89448.169064 kJ/mol
# GULP energy per Si atom -5590.510566 kJ/mol
# Density = 2.564394 g / cm^3
# Si number density = 25.702441 Si / 1000 Ang^3
#
#
#
# Elastic Constant Matrix: (Units=GPa)
#
#
# Indices 1 2 3 4 5 6 
#
# 1 95.0027 13.7369 25.2654 -3.1708 33.2982 0.4421
# 2 13.7369 178.0948 28.7366 -0.3519 27.8512 2.1144
# 3 25.2654 28.7366 97.0065 1.4351 16.6306 12.3320
# 4 -3.1708 -0.3519 1.4351 55.3865 5.1701 7.8841
# 5 33.2982 27.8512 16.6306 5.1701 29.5244 -2.1430
# 6 0.4421 2.1144 12.3320 7.8841 -2.1430 27.9638
#
#
#
# Elastic Compliance Matrix: (Units=1/GPa)
#
#
# Indices 1 2 3 4 5 6 
#
# 1 0.019069 0.002539 -0.001293 0.003789 -0.024043 -0.002834
# 2 0.002539 0.007046 -0.001035 0.001246 -0.009230 -0.001175
# 3 -0.001293 -0.001035 0.012626 0.000961 -0.005292 -0.006146
# 4 0.003789 0.001246 0.000961 0.020194 -0.010037 -0.007041
# 5 -0.024043 -0.009230 -0.005292 -0.010037 0.075304 0.012013
# 6 -0.002834 -0.001175 -0.006146 -0.007041 0.012013 0.041510
#
#
# Mechanical properties :
#
#
# Convention : Reuss Voigt Hill
#
# Bulk Modulus (GPa) = 25.53379 56.17576 40.85478
# Shear Modulus (GPa) = 26.54173 42.73262 34.63717
#
# Velocity S-wave (km/s) = 3.21698 4.08191 3.67498
# Velocity P-wave (km/s) = 4.87387 6.64226 5.82556
#
# Compressibility (1/GPa) = 0.03916378
#
# Stress axis : x y z
#
# Youngs Moduli (GPa) = 52.44042 141.92252 79.19985
#
# Poissons Ratio (x) = -0.36031 0.10237
# Poissons Ratio (y) = -0.13313 0.08198
# Poissons Ratio (z) = 0.06778 0.14691
#
# Static dielectric constant tensor:
#      x y z
#    x 2.078870 0.008800 0.019190 
#    y 0.008800 2.281160 0.160440 
#    z 0.019190 0.160440 2.126100 
# 
# From -- ./inp_files/566500.got.cif
#   From: 2010.05.17/outbox.cif.g08.bks.cpg/sg2_284_cif.got.tgz:566500.got - 2010.06.03 11:33:40.
