data_PCOD9086434
_publ_section_title
;
Structure prediction by ZEFSAII (Michael W. Deem and Ramdas Pophale) SiO2 
 PCOD9086434
Probable space group: P -1
;
_chemical_formula_sum "Si O2"
_cell_formula_units_Z 16
_cell_length_a 9.744749
_cell_length_b 14.773702
_cell_length_c 11.758622
_cell_angle_alpha 104.118864
_cell_angle_beta 48.535299
_cell_angle_gamma 133.807747
_cell_volume 840.425311
_symmetry_space_group_name_H-M "P -1"
_symmetry_group_IT_number 2
_symmetry_cell_setting 'triclinic'
loop_
_space_group_symop_operation_xyz
x,y,z
-x,-y,-z
loop_
_atom_site_type_symbol
_atom_site_label
_atom_site_fract_x
_atom_site_fract_y
_atom_site_fract_z
Si Si1 0.857371 0.368121 0.376626
Si Si2 0.348914 0.315848 0.372420
Si Si3 0.614515 0.953249 0.491623
Si Si4 0.675873 0.218000 0.835555
Si Si5 0.776354 0.046698 0.691943
Si Si6 0.225007 0.129172 0.192242
Si Si7 0.896611 0.583996 0.520531
Si Si8 0.057674 0.494255 0.838423
O O1 0.596234 0.208457 0.457110
O O2 0.798406 0.446748 0.491057
O O3 0.994131 0.443101 0.204626
O O4 0.057631 0.395093 0.364147
O O5 0.348520 0.262229 0.235084
O O6 0.289630 0.402183 0.413610
O O7 0.625630 0.405624 0.311878
O O8 0.094503 0.179054 0.536677
O O9 0.500000 0.000000 0.500000
O O10 0.649816 0.985186 0.617300
O O11 0.913891 0.036336 0.312758
O O12 0.663595 0.102168 0.818388
O O13 0.813954 0.291213 0.660860
O O14 0.886031 0.341472 0.847094
O O15 0.397564 0.165235 0.998896
O O16 0.743233 0.946597 0.761725
O O17 0.000000 0.500000 0.000000
#
# Coordination Sequence:
#
# PCOD9086434 Si02
#       8
#     2   2   2   2   2   2   2   2
#     4  10  20  39  62  82 114 151 197 232 285 342
#     4  10  19  36  58  85 114 148 201 232 289 339
#     4  11  22  37  62  84 114 156 200 233 275 351
#     4  10  21  36  58  85 124 148 189 242 297 333
#     4  10  21  36  56  87 112 159 195 233 282 350
#     4  11  20  35  58  83 120 155 187 240 292 338
#     4   9  21  39  62  83 111 155 190 239 284 346
#     4  11  21  35  60  88 115 147 187 249 287 330
#
# _framework density 19.037980000000001
#
# number of rings (size 3 to 8) (size 9 to 14) (size 15 to 20)
#    0.000    1.750    1.250    5.625    0.000    5.500 
#    0.000    3.125    5.500    0.000    0.000    0.000 
#    0.000    0.000    0.000    0.000    0.000    0.000 
#
# Total GULP energy -89322.337911 kJ/mol
# GULP energy per Si atom -5582.646119 kJ/mol
# Density = 1.899465 g / cm^3
# Si number density = 19.037980 Si / 1000 Ang^3
#
#
#
# Elastic Constant Matrix: (Units=GPa)
#
#
# Indices 1 2 3 4 5 6 
#
# 1 86.5482 21.8157 30.9430 -5.7757 14.5696 -1.4432
# 2 21.8157 99.3812 11.7806 -6.7801 -6.0604 -1.4341
# 3 30.9430 11.7806 70.1355 10.8707 -0.5916 0.7365
# 4 -5.7757 -6.7801 10.8707 16.2203 1.7416 -2.7813
# 5 14.5696 -6.0604 -0.5916 1.7416 25.6352 4.1001
# 6 -1.4432 -1.4341 0.7365 -2.7813 4.1001 29.4195
#
#
#
# Elastic Compliance Matrix: (Units=1/GPa)
#
#
# Indices 1 2 3 4 5 6 
#
# 1 0.019421 -0.002745 -0.010610 0.015103 -0.013664 0.004417
# 2 -0.002745 0.011357 -0.001335 0.004304 0.003871 0.000320
# 3 -0.010610 -0.001335 0.022547 -0.021082 0.008356 -0.004308
# 4 0.015103 0.004304 -0.021082 0.086695 -0.015843 0.011883
# 5 -0.013664 0.003871 0.008356 -0.015843 0.050433 -0.009217
# 6 0.004417 0.000320 -0.004308 0.011883 -0.009217 0.036739
#
#
# Mechanical properties :
#
#
# Convention : Reuss Voigt Hill
#
# Bulk Modulus (GPa) = 41.75937 42.79375 42.27656
# Shear Modulus (GPa) = 18.89980 27.02338 22.96159
#
# Velocity S-wave (km/s) = 3.15420 3.77164 3.47665
# Velocity P-wave (km/s) = 5.93698 6.44158 6.19442
#
# Compressibility (1/GPa) = 0.02394672
#
# Stress axis : x y z
#
# Youngs Moduli (GPa) = 51.49019 88.04981 44.35257
#
# Poissons Ratio (x) = 0.24167 0.47058
# Poissons Ratio (y) = 0.14132 0.05919
# Poissons Ratio (z) = 0.54631 0.11750
#
# Static dielectric constant tensor:
#      x y z
#    x 1.654540 -0.004050 0.021730 
#    y -0.004050 1.660200 0.008260 
#    z 0.021730 0.008260 1.685640 
# 
# From -- ./inp_files/206902.got.cif
#   From: 2010.05.17/outbox.cif.g08.bks.cpg/sg2_104_cif.got.tgz:206902.got - 2010.06.03 11:33:40.
