data_PCOD9086018
_publ_section_title
;
Structure prediction by ZEFSAII (Michael W. Deem and Ramdas Pophale) SiO2 
 PCOD9086018
Probable space group: P -1
;
_chemical_formula_sum "Si O2"
_cell_formula_units_Z 16
_cell_length_a 14.808795
_cell_length_b 11.608897
_cell_length_c 9.548146
_cell_angle_alpha 136.358057
_cell_angle_beta 110.048162
_cell_angle_gamma 41.774557
_cell_volume 682.014115
_symmetry_space_group_name_H-M "P -1"
_symmetry_group_IT_number 2
_symmetry_cell_setting 'triclinic'
loop_
_space_group_symop_operation_xyz
x,y,z
-x,-y,-z
loop_
_atom_site_type_symbol
_atom_site_label
_atom_site_fract_x
_atom_site_fract_y
_atom_site_fract_z
Si Si1 0.137764 0.573694 0.054000
Si Si2 0.590304 0.652050 0.858755
Si Si3 0.688460 0.156334 0.163190
Si Si4 0.961980 0.002589 0.139177
Si Si5 0.126109 0.376083 0.348008
Si Si6 0.947098 0.829520 0.450679
Si Si7 0.389776 0.244824 0.348022
Si Si8 0.686115 0.012174 0.350478
O O1 0.269987 0.527383 0.121973
O O2 0.059175 0.713882 0.988604
O O3 0.011169 0.770058 0.277186
O O4 0.215353 0.290167 0.860797
O O5 0.643189 0.629500 0.710584
O O6 0.487368 0.624754 0.775214
O O7 0.482593 0.950803 0.104135
O O8 0.774320 0.915643 0.893465
O O9 0.786624 0.191205 0.230844
O O10 0.695073 0.075123 0.253373
O O11 0.014914 0.073572 0.337798
O O12 0.000000 0.000000 0.000000
O O13 0.238288 0.377598 0.453061
O O14 0.000000 0.500000 0.500000
O O15 0.042430 0.548886 0.316189
O O16 0.773292 0.014545 0.505836
O O17 0.513512 0.192314 0.445389
#
# Coordination Sequence:
#
# PCOD9086018 Si02
#       8
#     2   2   2   2   2   2   2   2
#     4  11  19  38  64  92 117 148 207 252 290 346
#     4   8  15  31  61  88 113 149 192 253 289 343
#     4  10  19  38  61  89 119 154 197 243 307 343
#     4  12  27  41  54  81 129 165 196 243 302 357
#     4  11  20  34  60  89 123 160 194 240 295 362
#     4  12  22  37  58  91 117 156 208 243 288 350
#     4   8  15  31  54  92 126 140 186 246 310 339
#     4  10  19  35  67  94 114 145 198 264 290 338
#
# _framework density 23.459924000000001
#
# number of rings (size 3 to 8) (size 9 to 14) (size 15 to 20)
#    0.000    1.750    3.750    3.750    0.000    0.000 
#    0.000    3.125    0.000    3.000    0.000    0.000 
#    0.000    0.000    0.000    0.000    0.000    0.000 
#
# Total GULP energy -89520.405067 kJ/mol
# GULP energy per Si atom -5595.025317 kJ/mol
# Density = 2.340653 g / cm^3
# Si number density = 23.459924 Si / 1000 Ang^3
#
#
#
# Elastic Constant Matrix: (Units=GPa)
#
#
# Indices 1 2 3 4 5 6 
#
# 1 191.1203 63.7644 51.9055 -18.0928 -6.0633 -48.4937
# 2 63.7644 94.1535 18.6868 -11.4339 -13.8547 -22.6328
# 3 51.9055 18.6868 59.6174 1.1844 3.0116 -3.7771
# 4 -18.0928 -11.4339 1.1844 23.9638 -6.0566 4.8913
# 5 -6.0633 -13.8547 3.0116 -6.0566 39.5631 -6.9746
# 6 -48.4937 -22.6328 -3.7771 4.8913 -6.9746 57.0674
#
#
#
# Elastic Compliance Matrix: (Units=1/GPa)
#
#
# Indices 1 2 3 4 5 6 
#
# 1 0.011296 -0.002532 -0.008886 0.007163 0.004007 0.007882
# 2 -0.002532 0.015809 -0.002978 0.006724 0.007148 0.004219
# 3 -0.008886 -0.002978 0.025547 -0.009741 -0.007088 -0.007073
# 4 0.007163 0.006724 -0.009741 0.053117 0.013238 0.005174
# 5 0.004007 0.007148 -0.007088 0.013238 0.032476 0.008605
# 6 0.007882 0.004219 -0.007073 0.005174 0.008605 0.026034
#
#
# Mechanical properties :
#
#
# Convention : Reuss Voigt Hill
#
# Bulk Modulus (GPa) = 41.91243 68.17827 55.04535
# Shear Modulus (GPa) = 24.87238 38.15449 31.51344
#
# Velocity S-wave (km/s) = 3.25961 4.03720 3.66907
# Velocity P-wave (km/s) = 5.66314 7.13139 6.43925
#
# Compressibility (1/GPa) = 0.02385927
#
# Stress axis : x y z
#
# Youngs Moduli (GPa) = 88.53012 63.25403 39.14309
#
# Poissons Ratio (x) = 0.16015 0.34783
# Poissons Ratio (y) = 0.22415 0.11658
# Poissons Ratio (z) = 0.78669 0.18839
#
# Static dielectric constant tensor:
#      x y z
#    x 1.972600 -0.002060 0.100070 
#    y -0.002060 1.892920 0.056580 
#    z 0.100070 0.056580 1.902990 
# 
# From -- ./inp_files/308550.got.cif
#   From: 2010.05.17/outbox.cif.g08.bks.cpg/sg2_155_cif.got.tgz:308550.got - 2010.06.03 11:33:40.
