data_PCOD9086203
_publ_section_title
;
Structure prediction by ZEFSAII (Michael W. Deem and Ramdas Pophale) SiO2 
 PCOD9086203
Probable space group: P -1
;
_chemical_formula_sum "Si O2"
_cell_formula_units_Z 16
_cell_length_a 9.168362
_cell_length_b 12.162903
_cell_length_c 9.159369
_cell_angle_alpha 98.998277
_cell_angle_beta 94.648882
_cell_angle_gamma 37.790109
_cell_volume 616.649649
_symmetry_space_group_name_H-M "P -1"
_symmetry_group_IT_number 2
_symmetry_cell_setting 'triclinic'
loop_
_space_group_symop_operation_xyz
x,y,z
-x,-y,-z
loop_
_atom_site_type_symbol
_atom_site_label
_atom_site_fract_x
_atom_site_fract_y
_atom_site_fract_z
Si Si1 0.380007 0.317264 0.473807
Si Si2 0.442665 0.570927 0.207949
Si Si3 0.830636 0.084248 0.265675
Si Si4 0.236622 0.013034 0.373040
Si Si5 0.479479 0.696663 0.987517
Si Si6 0.058966 0.650588 0.727807
Si Si7 0.137746 0.425141 0.182419
Si Si8 0.999451 0.245577 0.683496
O O1 0.604440 0.236846 0.388895
O O2 0.173984 0.515817 0.570031
O O3 0.260660 0.325525 0.329923
O O4 0.503904 0.180119 0.591225
O O5 0.388515 0.498152 0.085886
O O6 0.717643 0.403502 0.235570
O O7 0.266803 0.645714 0.340219
O O8 0.404576 0.710150 0.147767
O O9 0.742925 0.159903 0.110216
O O10 0.044591 0.029239 0.337720
O O11 0.894765 0.914079 0.236914
O O12 0.177638 0.132270 0.261436
O O13 0.149793 0.139565 0.528880
O O14 0.660989 0.683048 0.947104
O O15 0.031706 0.578743 0.841960
O O16 0.013409 0.619599 0.237047
#
# Coordination Sequence:
#
# PCOD9086203 Si02
#       8
#     2   2   2   2   2   2   2   2
#     4  10  21  36  54  83 119 147 183 223 274 336
#     4  10  20  36  60  81 103 149 188 237 275 324
#     4  10  19  36  56  87 112 143 186 237 275 324
#     4  11  21  34  58  89 116 144 185 228 276 333
#     4   9  20  38  57  80 109 140 195 234 277 320
#     4  12  22  36  59  83 116 151 184 223 279 334
#     4  10  22  38  55  83 113 154 183 222 280 335
#     4  10  20  36  58  82 115 147 183 226 283 330
#
# _framework density 25.946660999999999
#
# number of rings (size 3 to 8) (size 9 to 14) (size 15 to 20)
#    0.000    1.750    2.500    3.375    0.000    2.500 
#    4.500    0.000    0.000    0.750    0.000    0.000 
#    0.000    0.000    0.000    0.000    0.000    0.000 
#
# Total GULP energy -89265.977789 kJ/mol
# GULP energy per Si atom -5579.123612 kJ/mol
# Density = 2.588761 g / cm^3
# Si number density = 25.946661 Si / 1000 Ang^3
#
#
#
# Elastic Constant Matrix: (Units=GPa)
#
#
# Indices 1 2 3 4 5 6 
#
# 1 83.9788 15.5931 6.6243 7.4419 -21.4653 12.1227
# 2 15.5931 121.9248 22.6278 -36.2825 -5.3716 11.1347
# 3 6.6243 22.6278 38.2045 -15.4487 1.7377 -2.1415
# 4 7.4419 -36.2825 -15.4487 42.6547 -3.2370 -10.1943
# 5 -21.4653 -5.3716 1.7377 -3.2370 26.2467 -5.4773
# 6 12.1227 11.1347 -2.1415 -10.1943 -5.4773 25.8118
#
#
#
# Elastic Compliance Matrix: (Units=1/GPa)
#
#
# Indices 1 2 3 4 5 6 
#
# 1 0.017836 -0.002376 -0.006181 -0.008591 0.011615 -0.008793
# 2 -0.002376 0.012022 -0.002863 0.009733 0.001894 -0.000062
# 3 -0.006181 -0.002863 0.035444 0.014014 -0.003795 0.011808
# 4 -0.008591 0.009733 0.014014 0.043006 0.003238 0.018671
# 5 0.011615 0.001894 -0.003795 0.003238 0.049732 0.005245
# 6 -0.008793 -0.000062 0.011808 0.018671 0.005245 0.052365
#
#
# Mechanical properties :
#
#
# Convention : Reuss Voigt Hill
#
# Bulk Modulus (GPa) = 23.54953 37.08873 30.31913
# Shear Modulus (GPa) = 20.21033 32.22681 26.21857
#
# Velocity S-wave (km/s) = 2.79394 3.52808 3.18225
# Velocity P-wave (km/s) = 4.41633 5.56073 5.02124
#
# Compressibility (1/GPa) = 0.04246370
#
# Stress axis : x y z
#
# Youngs Moduli (GPa) = 56.06641 83.17811 28.21389
#
# Poissons Ratio (x) = 0.19762 0.17438
# Poissons Ratio (y) = 0.13321 0.08076
# Poissons Ratio (z) = 0.34653 0.23810
#
# Static dielectric constant tensor:
#      x y z
#    x 2.092480 -0.011650 -0.043220 
#    y -0.011650 2.124920 -0.002520 
#    z -0.043220 -0.002520 2.154290 
# 
# From -- ./inp_files/213311.got.cif
#   From: 2010.05.17/outbox.cif.g08.bks.cpg/sg2_107_cif.got.tgz:213311.got - 2010.06.03 11:33:40.
