data_PCOD9086615
_publ_section_title
;
Structure prediction by ZEFSAII (Michael W. Deem and Ramdas Pophale) SiO2 
 PCOD9086615
Probable space group: P -1
;
_chemical_formula_sum "Si O2"
_cell_formula_units_Z 16
_cell_length_a 15.327779
_cell_length_b 7.289056
_cell_length_c 9.792692
_cell_angle_alpha 94.103649
_cell_angle_beta 144.718019
_cell_angle_gamma 88.537071
_cell_volume 629.298822
_symmetry_space_group_name_H-M "P -1"
_symmetry_group_IT_number 2
_symmetry_cell_setting 'triclinic'
loop_
_space_group_symop_operation_xyz
x,y,z
-x,-y,-z
loop_
_atom_site_type_symbol
_atom_site_label
_atom_site_fract_x
_atom_site_fract_y
_atom_site_fract_z
Si Si1 0.469107 0.143301 0.263487
Si Si2 0.544869 0.472816 0.901952
Si Si3 0.164433 0.511005 0.022598
Si Si4 0.074621 0.286249 0.137685
Si Si5 0.680445 0.972863 0.177204
Si Si6 0.521640 0.311454 0.600110
Si Si7 0.807881 0.083745 0.617115
Si Si8 0.848312 0.605055 0.289080
O O1 0.466943 0.335019 0.184681
O O2 0.438795 0.166799 0.385614
O O3 0.643739 0.103186 0.472674
O O4 0.352549 0.007674 0.024983
O O5 0.473840 0.324718 0.697403
O O6 0.500000 0.500000 0.000000
O O7 0.720275 0.443006 0.140947
O O8 0.185392 0.409272 0.188496
O O9 0.294285 0.671759 0.169685
O O10 0.160102 0.367211 0.884881
O O11 0.003414 0.597401 0.839435
O O12 0.143117 0.115799 0.287124
O O13 0.936947 0.218500 0.856146
O O14 0.780800 0.783036 0.289888
O O15 0.778323 0.094700 0.416915
O O16 0.500000 0.000000 0.000000
O O17 0.500000 0.500000 0.500000
O O18 0.000000 0.500000 0.500000
#
# Coordination Sequence:
#
# PCOD9086615 Si02
#       8
#     2   2   2   2   2   2   2   2
#     4   9  17  34  59  84 118 167 208 251 313 374
#     4   9  19  34  57  91 126 159 209 263 320 381
#     4  10  20  37  58  92 122 160 206 271 311 379
#     4  10  21  35  60  92 127 160 214 253 329 390
#     4   9  19  36  61  81 120 169 215 248 315 385
#     4   9  17  34  58  84 118 158 199 262 315 363
#     4  10  19  36  59  86 121 173 209 252 316 388
#     4  10  20  36  60  87 126 163 212 261 329 369
#
# _framework density 25.425122999999999
#
# number of rings (size 3 to 8) (size 9 to 14) (size 15 to 20)
#    0.000    2.500    1.250    1.500    0.000    1.000 
#   11.250    0.625    8.250   11.250    0.000    0.000 
#    0.000    0.000    0.000    0.000    0.000    0.000 
#
# Total GULP energy -89069.303960 kJ/mol
# GULP energy per Si atom -5566.831498 kJ/mol
# Density = 2.536725 g / cm^3
# Si number density = 25.425123 Si / 1000 Ang^3
#
#
#
# Elastic Constant Matrix: (Units=GPa)
#
#
# Indices 1 2 3 4 5 6 
#
# 1 130.8164 32.1926 61.5611 12.4658 -21.9304 -37.4016
# 2 32.1926 80.1726 41.6580 -17.7237 -9.0433 -15.5584
# 3 61.5611 41.6580 148.4118 5.2928 -1.9511 -22.8034
# 4 12.4658 -17.7237 5.2928 52.2488 -20.3035 -6.7121
# 5 -21.9304 -9.0433 -1.9511 -20.3035 50.8172 4.6555
# 6 -37.4016 -15.5584 -22.8034 -6.7121 4.6555 43.6630
#
#
#
# Elastic Compliance Matrix: (Units=1/GPa)
#
#
# Indices 1 2 3 4 5 6 
#
# 1 0.012695 -0.001296 -0.003599 -0.000442 0.004199 0.008018
# 2 -0.001296 0.019136 -0.004459 0.010286 0.006393 0.004280
# 3 -0.003599 -0.004459 0.009577 -0.002808 -0.003122 0.000231
# 4 -0.000442 0.010286 -0.002808 0.028489 0.012468 0.004870
# 5 0.004199 0.006393 -0.003122 0.012468 0.027191 0.003261
# 6 0.008018 0.004280 0.000231 0.004870 0.003261 0.031817
#
#
# Mechanical properties :
#
#
# Convention : Reuss Voigt Hill
#
# Bulk Modulus (GPa) = 44.05286 70.02491 57.03889
# Shear Modulus (GPa) = 32.22064 44.27840 38.24952
#
# Velocity S-wave (km/s) = 3.56374 4.17768 3.88287
# Velocity P-wave (km/s) = 5.85643 7.13247 6.52572
#
# Compressibility (1/GPa) = 0.02270000
#
# Stress axis : x y z
#
# Youngs Moduli (GPa) = 78.76879 52.25830 104.41409
#
# Poissons Ratio (x) = 0.06771 0.37584
# Poissons Ratio (y) = 0.10206 0.46559
# Poissons Ratio (z) = 0.28353 0.23302
#
# Static dielectric constant tensor:
#      x y z
#    x 2.140990 0.015220 -0.008700 
#    y 0.015220 2.231210 0.000260 
#    z -0.008700 0.000260 2.059710 
# 
# From -- ./inp_files/298614.got.cif
#   From: 2010.05.17/outbox.cif.g08.bks.cpg/sg2_150_cif.got.tgz:298614.got - 2010.06.03 11:33:40.
