data_PCOD9086361
_publ_section_title
;
Structure prediction by ZEFSAII (Michael W. Deem and Ramdas Pophale) SiO2 
 PCOD9086361
Probable space group: P -1
;
_chemical_formula_sum "Si O2"
_cell_formula_units_Z 16
_cell_length_a 13.127874
_cell_length_b 11.350266
_cell_length_c 7.091475
_cell_angle_alpha 139.847517
_cell_angle_beta 105.136168
_cell_angle_gamma 83.853838
_cell_volume 650.419715
_symmetry_space_group_name_H-M "P -1"
_symmetry_group_IT_number 2
_symmetry_cell_setting 'triclinic'
loop_
_space_group_symop_operation_xyz
x,y,z
-x,-y,-z
loop_
_atom_site_type_symbol
_atom_site_label
_atom_site_fract_x
_atom_site_fract_y
_atom_site_fract_z
Si Si1 0.278896 0.941700 0.679655
Si Si2 0.376581 0.469949 0.647014
Si Si3 0.993517 0.545563 0.826880
Si Si4 0.432984 0.114824 0.242611
Si Si5 0.362984 0.862883 0.243373
Si Si6 0.866476 0.084187 0.747132
Si Si7 0.240584 0.525272 0.300716
Si Si8 0.824276 0.681270 0.375293
O O1 0.175209 0.978789 0.561041
O O2 0.259875 0.736513 0.500908
O O3 0.500000 0.000000 0.000000
O O4 0.320560 0.082477 0.032908
O O5 0.464816 0.333946 0.533996
O O6 0.335226 0.488281 0.437002
O O7 0.277574 0.375070 0.610758
O O8 0.408624 0.676116 0.994278
O O9 0.077141 0.419536 0.635870
O O10 0.869730 0.499037 0.666495
O O11 0.036338 0.755418 0.044628
O O12 0.000000 0.500000 0.000000
O O13 0.634459 0.065818 0.454737
O O14 0.409686 0.021763 0.318574
O O15 0.233729 0.824557 0.106862
O O16 0.868424 0.898436 0.637690
O O17 0.218664 0.398126 0.948716
#
# Coordination Sequence:
#
# PCOD9086361 Si02
#       8
#     2   2   2   2   2   2   2   2
#     4  10  20  43  64  89 128 166 202 255 320 363
#     4  12  22  42  68  89 123 171 205 252 328 372
#     4  10  19  36  57  98 130 166 217 257 286 358
#     4  12  27  44  67  97 121 153 213 271 314 383
#     4  10  21  42  68  87 127 166 202 254 319 376
#     4  10  19  38  65  87 130 171 206 250 305 366
#     4  11  22  37  65  94 129 170 212 256 299 366
#     4  11  20  38  61  91 126 177 208 251 310 358
#
# _framework density 24.599497
#
# number of rings (size 3 to 8) (size 9 to 14) (size 15 to 20)
#    0.750    0.500    7.500    0.750    0.000    3.500 
#    2.250    1.250    0.000    0.000    0.000    0.000 
#    0.000    0.000    0.000    0.000    0.000    0.000 
#
# Total GULP energy -89482.918099 kJ/mol
# GULP energy per Si atom -5592.682381 kJ/mol
# Density = 2.454351 g / cm^3
# Si number density = 24.599497 Si / 1000 Ang^3
#
#
#
# Elastic Constant Matrix: (Units=GPa)
#
#
# Indices 1 2 3 4 5 6 
#
# 1 63.2572 23.2776 12.2693 -5.0033 -7.9891 13.2789
# 2 23.2776 100.3958 43.5119 21.6897 -3.6503 20.5019
# 3 12.2693 43.5119 84.5460 7.9135 -15.3351 3.6442
# 4 -5.0033 21.6897 7.9135 39.0752 -2.8842 -6.0969
# 5 -7.9891 -3.6503 -15.3351 -2.8842 34.5035 12.0993
# 6 13.2789 20.5019 3.6442 -6.0969 12.0993 34.7868
#
#
#
# Elastic Compliance Matrix: (Units=1/GPa)
#
#
# Indices 1 2 3 4 5 6 
#
# 1 0.019911 -0.003951 0.000370 0.004091 0.007186 -0.007093
# 2 -0.003951 0.018753 -0.007450 -0.011063 0.000668 -0.010935
# 3 0.000370 -0.007450 0.016673 0.001364 0.006675 0.000420
# 4 0.004091 -0.011063 0.001364 0.033639 -0.000639 0.010934
# 5 0.007186 0.000668 0.006675 -0.000639 0.039878 -0.017818
# 6 -0.007093 -0.010935 0.000420 0.010934 -0.017818 0.045968
#
#
# Mechanical properties :
#
#
# Convention : Reuss Voigt Hill
#
# Bulk Modulus (GPa) = 30.05252 45.14628 37.59940
# Shear Modulus (GPa) = 24.04131 32.94913 28.49522
#
# Velocity S-wave (km/s) = 3.12959 3.66378 3.40717
# Velocity P-wave (km/s) = 5.03014 6.02413 5.54943
#
# Compressibility (1/GPa) = 0.03327508
#
# Stress axis : x y z
#
# Youngs Moduli (GPa) = 50.22430 53.32525 59.97686
#
# Poissons Ratio (x) = 0.21069 -0.02220
# Poissons Ratio (y) = 0.19844 0.44682
# Poissons Ratio (z) = -0.01859 0.39727
#
# Static dielectric constant tensor:
#      x y z
#    x 2.026060 -0.073510 0.000140 
#    y -0.073510 1.975270 -0.014760 
#    z 0.000140 -0.014760 1.946800 
# 
# From -- ./inp_files/308852.got.cif
#   From: 2010.05.17/outbox.cif.g08.bks.cpg/sg2_155_cif.got.tgz:308852.got - 2010.06.03 11:33:40.
