data_PCOD9086794
_publ_section_title
;
Structure prediction by ZEFSAII (Michael W. Deem and Ramdas Pophale) SiO2 
 PCOD9086794
Probable space group: P -1
;
_chemical_formula_sum "Si O2"
_cell_formula_units_Z 14
_cell_length_a 10.939006
_cell_length_b 7.211624
_cell_length_c 11.194831
_cell_angle_alpha 77.964211
_cell_angle_beta 123.548259
_cell_angle_gamma 118.270004
_cell_volume 646.529891
_symmetry_space_group_name_H-M "P -1"
_symmetry_group_IT_number 2
_symmetry_cell_setting 'triclinic'
loop_
_space_group_symop_operation_xyz
x,y,z
-x,-y,-z
loop_
_atom_site_type_symbol
_atom_site_label
_atom_site_fract_x
_atom_site_fract_y
_atom_site_fract_z
Si Si1 0.448387 0.274255 0.560999
Si Si2 0.979766 0.679293 0.793612
Si Si3 0.029133 0.719997 0.546717
Si Si4 0.694388 0.046603 0.989999
Si Si5 0.639454 0.914146 0.222261
Si Si6 0.906263 0.043303 0.678736
Si Si7 0.230509 0.773712 0.233986
O O1 0.500000 0.500000 0.500000
O O2 0.409550 0.270550 0.682294
O O3 0.281432 0.108259 0.434932
O O4 0.591976 0.200138 0.633396
O O5 0.935511 0.667535 0.629726
O O6 0.970771 0.893246 0.798569
O O7 0.858351 0.470463 0.821829
O O8 0.168144 0.734168 0.909479
O O9 0.000000 0.500000 0.500000
O O10 0.212788 0.881219 0.666008
O O11 0.995857 0.851295 0.404351
O O12 0.518944 0.043170 0.880360
O O13 0.750749 0.059376 0.881910
O O14 0.680131 0.884863 0.110721
O O15 0.888971 0.213399 0.731414
#
# Coordination Sequence:
#
# PCOD9086794 Si02
#       7
#     2   2   2   2   2   2   2
#     4  10  19  36  60  88 116 149 192 237 294 343
#     4  11  21  36  59  85 115 156 190 238 285 340
#     4  10  19  36  60  88 116 149 192 237 294 343
#     4   9  19  37  56  84 113 155 199 226 282 343
#     4   8  18  35  62  85 112 156 190 236 284 340
#     4  11  22  36  56  88 120 149 188 242 292 339
#     4  11  21  36  59  85 115 156 190 238 285 340
#
# _framework density 21.654064000000002
#
# number of rings (size 3 to 8) (size 9 to 14) (size 15 to 20)
#    0.000    2.000    2.857    1.286    0.000    0.571 
#    0.000    0.000    0.000    1.714    0.000    0.000 
#    0.000    0.000    0.000    0.000    0.000    0.000 
#
# Total GULP energy -77939.883359 kJ/mol
# GULP energy per Si atom -5567.134526 kJ/mol
# Density = 2.160478 g / cm^3
# Si number density = 21.654064 Si / 1000 Ang^3
#
#
#
# Elastic Constant Matrix: (Units=GPa)
#
#
# Indices 1 2 3 4 5 6 
#
# 1 60.4375 9.5088 21.8558 -11.3563 -7.3814 6.3997
# 2 9.5088 79.4361 24.6787 -24.8852 -5.6480 6.4665
# 3 21.8558 24.6787 90.8011 -28.1362 -1.8275 5.1789
# 4 -11.3563 -24.8852 -28.1362 25.5613 17.4605 -7.0844
# 5 -7.3814 -5.6480 -1.8275 17.4605 38.9083 -3.4524
# 6 6.3997 6.4665 5.1789 -7.0844 -3.4524 28.2324
#
#
#
# Elastic Compliance Matrix: (Units=1/GPa)
#
#
# Indices 1 2 3 4 5 6 
#
# 1 0.018836 -0.000170 -0.003770 0.001637 0.002385 -0.002837
# 2 -0.000170 0.020728 0.004410 0.033296 -0.011633 0.001415
# 3 -0.003770 0.004410 0.022448 0.039581 -0.016460 0.003646
# 4 0.001637 0.033296 0.039581 0.165857 -0.065802 0.018314
# 5 0.002385 -0.011633 -0.016460 -0.065802 0.052786 -0.004914
# 6 -0.002837 0.001415 0.003646 0.018314 -0.004914 0.039065
#
#
# Mechanical properties :
#
#
# Convention : Reuss Voigt Hill
#
# Bulk Modulus (GPa) = 15.88567 38.08460 26.98513
# Shear Modulus (GPa) = 14.71616 30.18247 22.44931
#
# Velocity S-wave (km/s) = 2.60975 3.73748 3.22331
# Velocity P-wave (km/s) = 4.05377 6.02087 5.13244
#
# Compressibility (1/GPa) = 0.06294982
#
# Stress axis : x y z
#
# Youngs Moduli (GPa) = 53.09113 48.24489 44.54811
#
# Poissons Ratio (x) = 0.00820 0.16797
# Poissons Ratio (y) = 0.00902 -0.19646
# Poissons Ratio (z) = 0.20018 -0.21276
#
# Static dielectric constant tensor:
#      x y z
#    x 1.863410 -0.011840 -0.024870 
#    y -0.011840 1.782530 -0.055810 
#    z -0.024870 -0.055810 1.855070 
# 
# From -- ./inp_files/66137.got.cif
#   From: 2010.05.17/outbox.cif.g08.bks.cpg/sg2_34_cif.got.tgz:66137.got - 2010.06.03 11:33:40.
