data_PCOD9086682
_publ_section_title
;
Structure prediction by ZEFSAII (Michael W. Deem and Ramdas Pophale) SiO2 
 PCOD9086682
Probable space group: P -1
;
_chemical_formula_sum "Si O2"
_cell_formula_units_Z 15
_cell_length_a 5.659913
_cell_length_b 7.277127
_cell_length_c 14.055874
_cell_angle_alpha 65.629509
_cell_angle_beta 69.957240
_cell_angle_gamma 92.256047
_cell_volume 484.227587
_symmetry_space_group_name_H-M "P -1"
_symmetry_group_IT_number 2
_symmetry_cell_setting 'triclinic'
loop_
_space_group_symop_operation_xyz
x,y,z
-x,-y,-z
loop_
_atom_site_type_symbol
_atom_site_label
_atom_site_fract_x
_atom_site_fract_y
_atom_site_fract_z
Si Si1 0.304825 0.693408 0.892449
Si Si2 0.235368 0.055235 0.350717
Si Si3 0.567978 0.585052 0.198549
Si Si4 0.793096 0.113445 0.950223
Si Si5 0.259787 0.202824 0.524171
Si Si6 0.968910 0.409962 0.307610
Si Si7 0.000000 0.500000 0.500000
Si Si8 0.197463 0.081021 0.766861
O O1 0.567143 0.842435 0.779014
O O2 0.308488 0.462194 0.910576
O O3 0.123981 0.832983 0.838828
O O4 0.246149 0.711626 0.007065
O O5 0.992309 0.169621 0.353484
O O6 0.326252 0.103070 0.437072
O O7 0.065726 0.821735 0.413828
O O8 0.270346 0.509710 0.231891
O O9 0.613543 0.799103 0.203282
O O10 0.748873 0.457580 0.259512
O O11 0.937181 0.151188 0.820435
O O12 0.500000 0.000000 0.000000
O O13 0.000000 0.000000 0.000000
O O14 0.288716 0.440850 0.443078
O O15 0.326334 0.143243 0.633279
O O16 0.900561 0.470755 0.408200
#
# Coordination Sequence:
#
# PCOD9086682 Si02
#       8
#     2   2   2   2   2   2   1   2
#     4  10  23  43  66  97 136 177 216 289 325 399
#     4   9  20  37  63  90 132 176 222 267 339 398
#     4  11  24  41  65  99 132 174 224 272 333 397
#     4  10  23  43  71 102 131 175 225 273 337 395
#     4  10  19  36  59  96 129 178 220 273 333 400
#     4  10  22  41  59  94 130 173 221 271 328 388
#     4  10  20  36  60  90 134 170 218 278 320 388
#     4  11  23  40  69  98 132 179 225 273 337 402
#
# _framework density 30.977169
#
# number of rings (size 3 to 8) (size 9 to 14) (size 15 to 20)
#    0.000    1.867    1.333    1.600    1.867    6.933 
#    2.400    0.000    0.000   10.400    0.000    0.000 
#    0.000    0.000    0.000    0.000    0.000    0.000 
#
# Total GULP energy -83551.487227 kJ/mol
# GULP energy per Si atom -5570.099148 kJ/mol
# Density = 3.090666 g / cm^3
# Si number density = 30.977169 Si / 1000 Ang^3
#
#
#
# Elastic Constant Matrix: (Units=GPa)
#
#
# Indices 1 2 3 4 5 6 
#
# 1 169.9395 40.2306 67.7479 -2.2882 -15.6116 -5.0963
# 2 40.2306 120.8801 47.6589 42.5266 -5.4612 -5.8759
# 3 67.7479 47.6589 174.1879 24.1226 -7.9937 -9.1791
# 4 -2.2882 42.5266 24.1226 71.0077 1.1101 -10.8648
# 5 -15.6116 -5.4612 -7.9937 1.1101 72.8832 -14.5435
# 6 -5.0963 -5.8759 -9.1791 -10.8648 -14.5435 57.7312
#
#
#
# Elastic Compliance Matrix: (Units=1/GPa)
#
#
# Indices 1 2 3 4 5 6 
#
# 1 0.007659 -0.002357 -0.002596 0.002650 0.001309 0.000852
# 2 -0.002357 0.012028 -0.001435 -0.006863 0.000256 -0.000439
# 3 -0.002596 -0.001435 0.007416 -0.001662 0.000288 0.000564
# 4 0.002650 -0.006863 -0.001662 0.019291 0.000165 0.002943
# 5 0.001309 0.000256 0.000288 0.000165 0.014839 0.003956
# 6 0.000852 -0.000439 0.000564 0.002943 0.003956 0.018992
#
#
# Mechanical properties :
#
#
# Convention : Reuss Voigt Hill
#
# Bulk Modulus (GPa) = 69.80162 86.25357 78.02759
# Shear Modulus (GPa) = 51.13690 60.94908 56.04299
#
# Velocity S-wave (km/s) = 4.06740 4.44052 4.25805
# Velocity P-wave (km/s) = 6.68136 7.36177 7.02980
#
# Compressibility (1/GPa) = 0.01432631
#
# Stress axis : x y z
#
# Youngs Moduli (GPa) = 130.56746 83.14156 134.83937
#
# Poissons Ratio (x) = 0.19600 0.35003
# Poissons Ratio (y) = 0.30780 0.19349
# Poissons Ratio (z) = 0.33894 0.11930
#
# Static dielectric constant tensor:
#      x y z
#    x 2.556020 0.261360 -0.047840 
#    y 0.261360 0.958040 0.412870 
#    z -0.047840 0.412870 2.263940 
# 
# From -- ./inp_files/480392.got.cif
#   From: 2010.05.17/outbox.cif.g08.bks.cpg/sg2_241_cif.got.tgz:480392.got - 2010.06.03 11:33:40.
