data_PCOD9086285
_publ_section_title
;
Structure prediction by ZEFSAII (Michael W. Deem and Ramdas Pophale) SiO2 
 PCOD9086285
Probable space group: P -1
;
_chemical_formula_sum "Si O2"
_cell_formula_units_Z 16
_cell_length_a 10.133451
_cell_length_b 11.768150
_cell_length_c 9.220474
_cell_angle_alpha 127.277713
_cell_angle_beta 80.645245
_cell_angle_gamma 63.398404
_cell_volume 620.108109
_symmetry_space_group_name_H-M "P -1"
_symmetry_group_IT_number 2
_symmetry_cell_setting 'triclinic'
loop_
_space_group_symop_operation_xyz
x,y,z
-x,-y,-z
loop_
_atom_site_type_symbol
_atom_site_label
_atom_site_fract_x
_atom_site_fract_y
_atom_site_fract_z
Si Si1 0.250600 0.599937 0.514875
Si Si2 0.667813 0.841358 0.515962
Si Si3 0.534495 0.125188 0.173323
Si Si4 0.469485 0.519569 0.849494
Si Si5 0.154721 0.299050 0.911993
Si Si6 0.032733 0.538529 0.367557
Si Si7 0.903240 0.236598 0.012565
Si Si8 0.222247 0.962393 0.170967
O O1 0.384991 0.363870 0.351591
O O2 0.371054 0.618724 0.408257
O O3 0.084793 0.662478 0.489866
O O4 0.160691 0.718982 0.773231
O O5 0.495301 0.898348 0.673136
O O6 0.682183 0.829639 0.332879
O O7 0.847932 0.627002 0.386578
O O8 0.735825 0.944590 0.648364
O O9 0.733699 0.019450 0.988004
O O10 0.500000 0.000000 0.000000
O O11 0.284740 0.566797 0.883057
O O12 0.500000 0.500000 0.000000
O O13 0.401916 0.729221 0.990581
O O14 0.193314 0.359787 0.097528
O O15 0.000000 0.500000 0.000000
O O16 0.069563 0.212861 0.913940
O O17 0.000000 0.500000 0.500000
O O18 0.928617 0.053647 0.813999
#
# Coordination Sequence:
#
# PCOD9086285 Si02
#       8
#     2   2   2   2   2   2   2   2
#     4  11  19  36  57  81 112 143 186 234 268 330
#     4  10  19  36  57  83 114 147 179 229 283 330
#     4   9  17  33  57  79 105 147 187 221 270 334
#     4   9  21  35  57  80 108 140 187 232 272 318
#     4  10  21  34  55  84 110 148 187 226 277 334
#     4  11  20  33  58  83 109 144 186 227 269 325
#     4  10  20  36  56  82 111 147 189 220 281 336
#     4   8  20  35  59  79 111 149 185 223 284 331
#
# _framework density 25.801950000000001
#
# number of rings (size 3 to 8) (size 9 to 14) (size 15 to 20)
#    0.750    1.500    2.500    1.125    3.500    0.500 
#    0.000    0.625    5.500    2.250    0.000    0.000 
#    0.000    0.000    0.000    0.000    0.000    0.000 
#
# Total GULP energy -89177.382104 kJ/mol
# GULP energy per Si atom -5573.586382 kJ/mol
# Density = 2.574322 g / cm^3
# Si number density = 25.801950 Si / 1000 Ang^3
#
#
#
# Elastic Constant Matrix: (Units=GPa)
#
#
# Indices 1 2 3 4 5 6 
#
# 1 71.6411 5.8592 13.2723 -4.9823 0.4464 13.2003
# 2 5.8592 68.3818 38.3237 -28.0077 4.9115 10.9872
# 3 13.2723 38.3237 150.4149 -42.8197 8.7068 12.9443
# 4 -4.9823 -28.0077 -42.8197 52.2098 4.5043 1.6355
# 5 0.4464 4.9115 8.7068 4.5043 35.0743 6.0851
# 6 13.2003 10.9872 12.9443 1.6355 6.0851 41.5803
#
#
#
# Elastic Compliance Matrix: (Units=1/GPa)
#
#
# Indices 1 2 3 4 5 6 
#
# 1 0.015016 0.000279 -0.000712 0.001093 0.000631 -0.004754
# 2 0.000279 0.020761 -0.001862 0.010040 -0.002876 -0.004969
# 3 -0.000712 -0.001862 0.009526 0.007040 -0.002628 -0.002140
# 4 0.001093 0.010040 0.007040 0.031126 -0.006209 -0.005507
# 5 0.000631 -0.002876 -0.002628 -0.006209 0.030857 -0.002894
# 6 -0.004754 -0.004969 -0.002140 -0.005507 -0.002894 0.028178
#
#
# Mechanical properties :
#
#
# Convention : Reuss Voigt Hill
#
# Bulk Modulus (GPa) = 24.56325 45.03870 34.80097
# Shear Modulus (GPa) = 32.54692 41.30504 36.92598
#
# Velocity S-wave (km/s) = 3.55549 4.00540 3.78713
# Velocity P-wave (km/s) = 5.13770 6.23574 5.71316
#
# Compressibility (1/GPa) = 0.04071123
#
# Stress axis : x y z
#
# Youngs Moduli (GPa) = 66.59696 48.16828 104.97900
#
# Poissons Ratio (x) = -0.01342 0.07478
# Poissons Ratio (y) = -0.01856 0.19545
# Poissons Ratio (z) = 0.04744 0.08968
#
# Static dielectric constant tensor:
#      x y z
#    x 2.204890 -0.042240 -0.363550 
#    y -0.042240 2.250420 0.061880 
#    z -0.363550 0.061880 2.707700 
# 
# From -- ./inp_files/259981.got.cif
#   From: 2010.05.17/outbox.cif.g08.bks.cpg/sg2_130_cif.got.tgz:259981.got - 2010.06.03 11:33:40.
