data_PCOD9086904
_publ_section_title
;
Structure prediction by ZEFSAII (Michael W. Deem and Ramdas Pophale) SiO2 
 PCOD9086904
Probable space group: P -1
;
_chemical_formula_sum "Si O2"
_cell_formula_units_Z 14
_cell_length_a 5.276325
_cell_length_b 11.721601
_cell_length_c 9.121513
_cell_angle_alpha 99.795752
_cell_angle_beta 79.426105
_cell_angle_gamma 86.860895
_cell_volume 544.316309
_symmetry_space_group_name_H-M "P -1"
_symmetry_group_IT_number 2
_symmetry_cell_setting 'triclinic'
loop_
_space_group_symop_operation_xyz
x,y,z
-x,-y,-z
loop_
_atom_site_type_symbol
_atom_site_label
_atom_site_fract_x
_atom_site_fract_y
_atom_site_fract_z
Si Si1 0.329873 0.063728 0.906207
Si Si2 0.509888 0.872821 0.392349
Si Si3 0.494116 0.364019 0.294410
Si Si4 0.216169 0.494783 0.104852
Si Si5 0.024159 0.136240 0.490739
Si Si6 0.843752 0.563852 0.396428
Si Si7 0.944542 0.159783 0.186240
O O1 0.504650 0.114641 0.776502
O O2 0.175467 0.964998 0.825124
O O3 0.125764 0.155496 0.024691
O O4 0.500000 0.000000 0.000000
O O5 0.268953 0.810090 0.458761
O O6 0.792346 0.820682 0.395895
O O7 0.500000 0.000000 0.500000
O O8 0.290609 0.386464 0.186534
O O9 0.656573 0.477678 0.318115
O O10 0.349570 0.354137 0.462563
O O11 0.709044 0.257705 0.222773
O O12 0.067657 0.585083 0.258196
O O13 0.500000 0.500000 0.000000
O O14 0.000000 0.500000 0.000000
O O15 0.106109 0.157577 0.320173
O O16 0.000000 0.000000 0.500000
O O17 0.000000 0.500000 0.500000
#
# Coordination Sequence:
#
# PCOD9086904 Si02
#       7
#     2   2   2   2   2   2   2
#     4  11  23  38  62  88 133 182 220 270 334 378
#     4  10  19  36  61  81 115 167 216 258 313 375
#     4  10  22  43  67 102 131 173 227 274 330 411
#     4  11  21  41  72  98 136 176 211 271 347 404
#     4  10  19  38  60  85 117 167 211 261 317 366
#     4   9  20  41  71  95 132 173 214 269 346 407
#     4  11  24  39  64  95 129 173 226 276 322 388
#
# _framework density 25.720338999999999
#
# number of rings (size 3 to 8) (size 9 to 14) (size 15 to 20)
#    0.000    1.714    4.286    1.714    2.000    2.286 
#    0.000    2.857    0.000    0.000    0.000    0.000 
#    0.000    0.000    0.000    0.000    0.000    0.000 
#
# Total GULP energy -78181.071610 kJ/mol
# GULP energy per Si atom -5584.362258 kJ/mol
# Density = 2.566180 g / cm^3
# Si number density = 25.720339 Si / 1000 Ang^3
#
#
#
# Elastic Constant Matrix: (Units=GPa)
#
#
# Indices 1 2 3 4 5 6 
#
# 1 134.0477 27.2432 49.8185 8.3942 3.5087 -35.5494
# 2 27.2432 95.4408 55.6988 15.2868 -1.8312 -32.2714
# 3 49.8185 55.6988 195.6526 -1.9900 -28.9714 -25.9784
# 4 8.3942 15.2868 -1.9900 45.9472 -15.0028 -1.8210
# 5 3.5087 -1.8312 -28.9714 -15.0028 67.0586 -0.5693
# 6 -35.5494 -32.2714 -25.9784 -1.8210 -0.5693 53.1535
#
#
#
# Elastic Compliance Matrix: (Units=1/GPa)
#
#
# Indices 1 2 3 4 5 6 
#
# 1 0.009938 0.000925 -0.002333 -0.002657 -0.002047 0.005955
# 2 0.000925 0.016516 -0.004323 -0.006449 -0.002838 0.008281
# 3 -0.002333 -0.004323 0.007523 0.003494 0.004033 -0.000346
# 4 -0.002657 -0.006449 0.003494 0.026863 0.007457 -0.002985
# 5 -0.002047 -0.002838 0.004033 0.007457 0.018347 -0.000669
# 6 0.005955 0.008281 -0.000346 -0.002985 -0.000669 0.027546
#
#
# Mechanical properties :
#
#
# Convention : Reuss Voigt Hill
#
# Bulk Modulus (GPa) = 44.41930 76.74023 60.57976
# Shear Modulus (GPa) = 39.77716 52.72388 46.25052
#
# Velocity S-wave (km/s) = 3.93686 4.53248 4.24513
# Velocity P-wave (km/s) = 6.16220 7.56917 6.90163
#
# Compressibility (1/GPa) = 0.02251274
#
# Stress axis : x y z
#
# Youngs Moduli (GPa) = 100.61960 60.54908 132.93014
#
# Poissons Ratio (x) = -0.05598 0.31015
# Poissons Ratio (y) = -0.09302 0.57470
# Poissons Ratio (z) = 0.23476 0.26177
#
# Static dielectric constant tensor:
#      x y z
#    x 2.004880 0.168360 0.041150 
#    y 0.168360 1.996210 -0.030660 
#    z 0.041150 -0.030660 1.972810 
# 
# From -- ./inp_files/97715.got.cif
#   From: 2010.05.17/outbox.cif.g08.bks.cpg/sg2_49_cif.got.tgz:97715.got - 2010.06.03 11:33:40.
