data_PCOD9086351
_publ_section_title
;
Structure prediction by ZEFSAII (Michael W. Deem and Ramdas Pophale) SiO2 
 PCOD9086351
Probable space group: P -1
;
_chemical_formula_sum "Si O2"
_cell_formula_units_Z 16
_cell_length_a 26.724863
_cell_length_b 15.500731
_cell_length_c 20.772432
_cell_angle_alpha 25.089584
_cell_angle_beta 169.618796
_cell_angle_gamma 153.066303
_cell_volume 657.482240
_symmetry_space_group_name_H-M "P -1"
_symmetry_group_IT_number 2
_symmetry_cell_setting 'triclinic'
loop_
_space_group_symop_operation_xyz
x,y,z
-x,-y,-z
loop_
_atom_site_type_symbol
_atom_site_label
_atom_site_fract_x
_atom_site_fract_y
_atom_site_fract_z
Si Si1 0.560700 0.006576 0.911918
Si Si2 0.267760 0.945695 0.333923
Si Si3 0.233885 0.385349 0.956108
Si Si4 0.797229 0.415653 0.600843
Si Si5 0.590692 0.267223 0.217166
Si Si6 0.999028 0.641870 0.594858
Si Si7 0.227493 0.069222 0.569247
Si Si8 0.949109 0.699658 0.697244
O O1 0.311769 0.072697 0.599298
O O2 0.460603 0.893219 0.797276
O O3 0.750495 0.200077 0.003056
O O4 0.746145 0.846494 0.297065
O O5 0.189162 0.796379 0.276801
O O6 0.440985 0.841298 0.679522
O O7 0.364312 0.164182 0.283799
O O8 0.000000 0.000000 0.000000
O O9 0.907447 0.349594 0.551266
O O10 0.205221 0.528102 0.885439
O O11 0.465935 0.473179 0.142561
O O12 0.022630 0.561991 0.750693
O O13 0.885944 0.470774 0.748486
O O14 0.325525 0.415629 0.785327
O O15 0.024584 0.879511 0.455334
O O16 0.123669 0.263258 0.345334
O O17 0.500000 0.000000 0.000000
#
# Coordination Sequence:
#
# PCOD9086351 Si02
#       8
#     2   2   2   2   2   2   2   2
#     4  10  19  36  58  88 126 167 193 248 323 366
#     4  10  23  45  62  87 129 171 208 256 311 379
#     4  11  25  41  63  90 127 174 211 248 315 382
#     4  12  22  39  68  91 122 168 212 253 316 371
#     4  11  22  40  63  94 133 161 206 262 318 364
#     4  12  22  37  62  98 129 155 204 268 308 361
#     4  10  20  34  56  92 131 160 200 250 314 375
#     4  10  19  36  57  91 126 155 204 257 307 366
#
# _framework density 24.335260000000002
#
# number of rings (size 3 to 8) (size 9 to 14) (size 15 to 20)
#    0.000    1.250    5.000    3.750    0.000    1.500 
#    0.000    0.000    0.000    3.750    0.000    0.000 
#    0.000    0.000    0.000    0.000    0.000    0.000 
#
# Total GULP energy -89233.273432 kJ/mol
# GULP energy per Si atom -5577.079590 kJ/mol
# Density = 2.427987 g / cm^3
# Si number density = 24.335260 Si / 1000 Ang^3
#
#
#
# Elastic Constant Matrix: (Units=GPa)
#
#
# Indices 1 2 3 4 5 6 
#
# 1 123.2731 67.0985 25.3623 -2.4594 43.4490 -39.2832
# 2 67.0985 118.0439 29.7044 6.4499 9.8326 -44.2193
# 3 25.3623 29.7044 39.4836 12.2929 27.4656 1.8291
# 4 -2.4594 6.4499 12.2929 35.4822 -1.5766 7.0015
# 5 43.4490 9.8326 27.4656 -1.5766 40.3429 -2.5965
# 6 -39.2832 -44.2193 1.8291 7.0015 -2.5965 46.4643
#
#
#
# Elastic Compliance Matrix: (Units=1/GPa)
#
#
# Indices 1 2 3 4 5 6 
#
# 1 0.031828 -0.019461 0.032857 -0.009042 -0.051901 0.005557
# 2 -0.019461 0.036745 -0.053953 0.008531 0.050496 0.022177
# 3 0.032857 -0.053953 0.143688 -0.037159 -0.123477 -0.030524
# 4 -0.009042 0.008531 -0.037159 0.040862 0.034406 -0.002297
# 5 -0.051901 0.050496 -0.123477 0.034406 0.154589 0.012492
# 6 0.005557 0.022177 -0.030524 -0.002297 0.012492 0.049571
#
#
# Mechanical properties :
#
#
# Convention : Reuss Voigt Hill
#
# Bulk Modulus (GPa) = 7.62500 58.34789 32.98644
# Shear Modulus (GPa) = 8.58939 35.03357 21.81148
#
# Velocity S-wave (km/s) = 1.88076 3.79835 2.99706
# Velocity P-wave (km/s) = 2.80294 6.57764 5.05578
#
# Compressibility (1/GPa) = 0.13114761
#
# Stress axis : x y z
#
# Youngs Moduli (GPa) = 31.41857 27.21443 6.95953
#
# Poissons Ratio (x) = 0.52962 -0.22867
# Poissons Ratio (y) = 0.61144 0.37549
# Poissons Ratio (z) = -1.03232 1.46830
#
# Static dielectric constant tensor:
#      x y z
#    x 2.133750 0.104180 -0.117440 
#    y 0.104180 2.007580 -0.105670 
#    z -0.117440 -0.105670 1.976300 
# 
# From -- ./inp_files/602465.got.cif
#   From: 2010.05.17/outbox.cif.g08.bks.cpg/sg2_302_cif.got.tgz:602465.got - 2010.06.03 11:33:40.
