data_PCOD9086711
_publ_section_title
;
Structure prediction by ZEFSAII (Michael W. Deem and Ramdas Pophale) SiO2 
 PCOD9086711
Probable space group: P -1
;
_chemical_formula_sum "Si O2"
_cell_formula_units_Z 14
_cell_length_a 11.436975
_cell_length_b 10.835531
_cell_length_c 12.147407
_cell_angle_alpha 128.574243
_cell_angle_beta 53.651203
_cell_angle_gamma 153.138763
_cell_volume 528.923891
_symmetry_space_group_name_H-M "P -1"
_symmetry_group_IT_number 2
_symmetry_cell_setting 'triclinic'
loop_
_space_group_symop_operation_xyz
x,y,z
-x,-y,-z
loop_
_atom_site_type_symbol
_atom_site_label
_atom_site_fract_x
_atom_site_fract_y
_atom_site_fract_z
Si Si1 0.779186 0.581452 0.859908
Si Si2 0.699325 0.005813 0.886415
Si Si3 0.756680 0.813002 0.168525
Si Si4 0.167545 0.615013 0.853521
Si Si5 0.101351 0.555840 0.612163
Si Si6 0.272177 0.178537 0.412656
Si Si7 0.654257 0.938984 0.484964
O O1 0.482042 0.317187 0.836292
O O2 0.930082 0.554928 0.739942
O O3 0.756669 0.632309 0.025221
O O4 0.962260 0.867703 0.848173
O O5 0.897883 0.304535 0.878752
O O6 0.405268 0.761569 0.874152
O O7 0.755609 0.886977 0.737904
O O8 0.759220 0.130094 0.042165
O O9 0.686502 0.803781 0.325686
O O10 0.165883 0.552464 0.696714
O O11 0.386403 0.789797 0.530772
O O12 0.903336 0.267316 0.495609
O O13 0.500000 0.500000 0.500000
O O14 0.315623 0.067411 0.405801
O O15 0.000000 0.000000 0.500000
#
# Coordination Sequence:
#
# PCOD9086711 Si02
#       7
#     2   2   2   2   2   2   2
#     4  10  23  42  68  92 127 169 207 264 307 391
#     4  10  20  37  58  82 115 162 201 249 303 359
#     4  10  23  45  63  93 131 167 208 251 329 382
#     4  10  19  36  60  83 117 155 202 252 306 356
#     4  12  22  39  66  98 127 161 217 264 317 370
#     4  12  24  40  60  88 125 167 209 253 316 377
#     4  12  25  41  65  94 130 166 208 272 318 378
#
# _framework density 26.468836
#
# number of rings (size 3 to 8) (size 9 to 14) (size 15 to 20)
#    0.000    1.143    2.857    3.429    0.000    4.571 
#    0.000    4.286    0.000    0.000    0.000    0.000 
#    0.000    0.000    0.000    0.000    0.000    0.000 
#
# Total GULP energy -78156.328770 kJ/mol
# GULP energy per Si atom -5582.594912 kJ/mol
# Density = 2.640859 g / cm^3
# Si number density = 26.468836 Si / 1000 Ang^3
#
#
#
# Elastic Constant Matrix: (Units=GPa)
#
#
# Indices 1 2 3 4 5 6 
#
# 1 61.0585 29.1140 2.7058 -8.8599 -13.6804 28.6530
# 2 29.1140 166.2526 41.8412 -8.0765 -8.6157 35.5224
# 3 2.7058 41.8412 161.5243 10.5578 -10.9074 20.3277
# 4 -8.8599 -8.0765 10.5578 48.3036 12.5888 -10.7244
# 5 -13.6804 -8.6157 -10.9074 12.5888 36.2881 -8.4368
# 6 28.6530 35.5224 20.3277 -10.7244 -8.4368 36.4421
#
#
#
# Elastic Compliance Matrix: (Units=1/GPa)
#
#
# Indices 1 2 3 4 5 6 
#
# 1 0.028341 -0.000721 0.003174 -0.002446 0.007102 -0.022427
# 2 -0.000721 0.007807 -0.001233 0.000104 -0.000312 -0.006397
# 3 0.003174 -0.001233 0.007615 -0.003367 0.003004 -0.005837
# 4 -0.002446 0.000104 -0.003367 0.025267 -0.008546 0.009158
# 5 0.007102 -0.000312 0.003004 -0.008546 0.033637 -0.001683
# 6 -0.022427 -0.006397 -0.005837 0.009158 -0.001683 0.056871
#
#
# Mechanical properties :
#
#
# Convention : Reuss Voigt Hill
#
# Bulk Modulus (GPa) = 21.64343 59.57305 40.60824
# Shear Modulus (GPa) = 28.98549 45.21840 37.10195
#
# Velocity S-wave (km/s) = 3.31279 4.13772 3.74802
# Velocity P-wave (km/s) = 4.77781 6.73672 5.83998
#
# Compressibility (1/GPa) = 0.04620340
#
# Stress axis : x y z
#
# Youngs Moduli (GPa) = 35.28399 128.08591 131.32499
#
# Poissons Ratio (x) = 0.09232 -0.41680
# Poissons Ratio (y) = 0.02543 0.16193
# Poissons Ratio (z) = -0.11199 0.15794
#
# Static dielectric constant tensor:
#      x y z
#    x 2.225300 -0.050850 -0.016200 
#    y -0.050850 2.000990 0.009740 
#    z -0.016200 0.009740 2.210050 
# 
# From -- ./inp_files/533535.got.cif
#   From: 2010.05.17/outbox.cif.g08.bks.cpg/sg2_267_cif.got.tgz:533535.got - 2010.06.03 11:33:40.
