data_PCOD9086479
_publ_section_title
;
Structure prediction by ZEFSAII (Michael W. Deem and Ramdas Pophale) SiO2 
 PCOD9086479
Probable space group: P -1
;
_chemical_formula_sum "Si O2"
_cell_formula_units_Z 14
_cell_length_a 8.108966
_cell_length_b 10.039539
_cell_length_c 16.458890
_cell_angle_alpha 41.657300
_cell_angle_beta 134.449197
_cell_angle_gamma 120.263476
_cell_volume 635.260347
_symmetry_space_group_name_H-M "P -1"
_symmetry_group_IT_number 2
_symmetry_cell_setting 'triclinic'
loop_
_space_group_symop_operation_xyz
x,y,z
-x,-y,-z
loop_
_atom_site_type_symbol
_atom_site_label
_atom_site_fract_x
_atom_site_fract_y
_atom_site_fract_z
Si Si1 0.986133 0.763732 0.611889
Si Si2 0.230552 0.083619 0.862830
Si Si3 0.097070 0.219733 0.926110
Si Si4 0.200418 0.651438 0.014781
Si Si5 0.259469 0.255042 0.621915
Si Si6 0.405490 0.791468 0.851357
Si Si7 0.668634 0.503540 0.702695
O O1 0.928075 0.685930 0.537650
O O2 0.766282 0.717292 0.615069
O O3 0.232527 0.705882 0.763982
O O4 0.000000 0.000000 0.500000
O O5 0.175032 0.218100 0.859972
O O6 0.177425 0.204565 0.707236
O O7 0.500000 0.000000 0.000000
O O8 0.106887 0.870732 0.914355
O O9 0.322822 0.250486 0.044354
O O10 0.889667 0.371076 0.807585
O O11 0.000000 0.000000 0.000000
O O12 0.354371 0.549549 0.186157
O O13 0.322925 0.701831 0.949614
O O14 0.000000 0.500000 0.000000
O O15 0.446471 0.425004 0.616407
O O16 0.372373 0.035681 0.734431
#
# Coordination Sequence:
#
# PCOD9086479 Si02
#       7
#     2   2   2   2   2   2   2
#     4  10  23  38  56  82 119 160 198 238 275 351
#     4  11  18  36  60  85 116 151 192 240 287 341
#     4  12  20  34  61  93 123 142 184 256 298 343
#     4  11  19  33  57  88 118 142 198 240 279 351
#     4  10  19  37  61  82 112 156 204 228 276 353
#     4  10  19  36  58  88 120 148 188 239 299 336
#     4  12  21  35  60  94 114 150 199 240 299 335
#
# _framework density 22.038209999999999
#
# number of rings (size 3 to 8) (size 9 to 14) (size 15 to 20)
#    0.000    1.143    8.571    0.429    0.000    0.571 
#    0.000    0.714    0.000    2.571    0.000    0.000 
#    0.000    0.000    0.000    0.000    0.000    0.000 
#
# Total GULP energy -78178.596730 kJ/mol
# GULP energy per Si atom -5584.185481 kJ/mol
# Density = 2.198805 g / cm^3
# Si number density = 22.038210 Si / 1000 Ang^3
#
#
#
# Elastic Constant Matrix: (Units=GPa)
#
#
# Indices 1 2 3 4 5 6 
#
# 1 58.6958 31.9022 37.0036 14.8012 -8.3833 17.8764
# 2 31.9022 114.6077 51.5012 29.4635 6.1921 46.0993
# 3 37.0036 51.5012 104.4225 32.3941 -27.4317 12.0915
# 4 14.8012 29.4635 32.3941 62.1351 5.0459 -2.9943
# 5 -8.3833 6.1921 -27.4317 5.0459 27.7422 -4.5389
# 6 17.8764 46.0993 12.0915 -2.9943 -4.5389 45.6355
#
#
#
# Elastic Compliance Matrix: (Units=1/GPa)
#
#
# Indices 1 2 3 4 5 6 
#
# 1 0.024515 0.000862 -0.007641 -0.002581 -0.001301 -0.008748
# 2 0.000862 0.032794 -0.019380 -0.004698 -0.030550 -0.031677
# 3 -0.007641 -0.019380 0.032507 -0.008232 0.038479 0.017243
# 4 -0.002581 -0.004698 -0.008232 0.024525 -0.010948 0.008458
# 5 -0.001301 -0.030550 0.038479 -0.010948 0.087278 0.029137
# 6 -0.008748 -0.031677 0.017243 0.008458 0.029137 0.056223
#
#
# Mechanical properties :
#
#
# Convention : Reuss Voigt Hill
#
# Bulk Modulus (GPa) = 26.66671 57.61558 42.14114
# Shear Modulus (GPa) = 15.49635 37.59050 26.54343
#
# Velocity S-wave (km/s) = 2.65459 4.13449 3.47425
# Velocity P-wave (km/s) = 4.63921 6.99945 5.93778
#
# Compressibility (1/GPa) = 0.03749994
#
# Stress axis : x y z
#
# Youngs Moduli (GPa) = 40.79216 30.49361 30.76227
#
# Poissons Ratio (x) = -0.02629 0.23504
# Poissons Ratio (y) = -0.03517 0.59616
# Poissons Ratio (z) = 0.31167 0.59095
#
# Static dielectric constant tensor:
#      x y z
#    x 1.835070 0.035480 -0.063910 
#    y 0.035480 1.894370 -0.038790 
#    z -0.063910 -0.038790 1.890950 
# 
# From -- ./inp_files/168897.got.cif
#   From: 2010.05.17/outbox.cif.g08.bks.cpg/sg2_85_cif.got.tgz:168897.got - 2010.06.03 11:33:40.
