data_PCOD9086049
_publ_section_title
;
Structure prediction by ZEFSAII (Michael W. Deem and Ramdas Pophale) SiO2 
 PCOD9086049
Probable space group: P -1
;
_chemical_formula_sum "Si O2"
_cell_formula_units_Z 16
_cell_length_a 11.594058
_cell_length_b 11.509698
_cell_length_c 11.477958
_cell_angle_alpha 85.562852
_cell_angle_beta 145.994635
_cell_angle_gamma 95.595306
_cell_volume 852.517642
_symmetry_space_group_name_H-M "P -1"
_symmetry_group_IT_number 2
_symmetry_cell_setting 'triclinic'
loop_
_space_group_symop_operation_xyz
x,y,z
-x,-y,-z
loop_
_atom_site_type_symbol
_atom_site_label
_atom_site_fract_x
_atom_site_fract_y
_atom_site_fract_z
Si Si1 0.871824 0.103810 0.992747
Si Si2 0.533787 0.641978 0.004374
Si Si3 0.668125 0.272418 0.626381
Si Si4 0.219183 0.533093 0.118975
Si Si5 0.817870 0.287824 0.131046
Si Si6 0.670526 0.917525 0.698111
Si Si7 0.131111 0.400698 0.557780
Si Si8 0.413835 0.595811 0.657849
O O1 0.809999 0.183910 0.822286
O O2 0.744721 0.979906 0.876192
O O3 0.822754 0.175323 0.061442
O O4 0.114852 0.085600 0.191326
O O5 0.762968 0.664342 0.242516
O O6 0.500000 0.500000 0.000000
O O7 0.386682 0.704636 0.964504
O O8 0.475756 0.665872 0.821608
O O9 0.651766 0.376187 0.696604
O O10 0.454397 0.205756 0.412267
O O11 0.735619 0.336698 0.557927
O O12 0.372590 0.433775 0.223658
O O13 0.172229 0.601603 0.956366
O O14 0.000000 0.500000 0.000000
O O15 0.001614 0.311588 0.374518
O O16 0.500000 0.000000 0.500000
O O17 0.298698 0.473726 0.612093
O O18 0.000000 0.500000 0.500000
#
# Coordination Sequence:
#
# PCOD9086049 Si02
#       8
#     2   2   2   2   2   2   2   2
#     4   9  21  36  59  84 110 140 186 242 287 340
#     4  10  19  36  50  77 112 155 198 223 259 315
#     4  10  22  33  54  83 112 151 181 225 287 333
#     4  11  22  34  49  82 125 156 184 225 276 335
#     4  11  20  34  55  81 112 149 191 230 272 328
#     4   9  19  40  58  80 109 142 186 233 296 342
#     4  11  19  33  53  75 110 157 195 225 264 315
#     4  11  21  35  52  79 122 154 193 224 266 336
#
# _framework density 18.767942000000001
#
# number of rings (size 3 to 8) (size 9 to 14) (size 15 to 20)
#    0.000    1.750    5.000    1.125    5.250    1.000 
#    0.000    0.000    0.000    0.750    0.000    8.750 
#    0.000    0.000    0.000    0.000    0.000    0.000 
#
# Total GULP energy -89083.515026 kJ/mol
# GULP energy per Si atom -5567.719689 kJ/mol
# Density = 1.872522 g / cm^3
# Si number density = 18.767942 Si / 1000 Ang^3
#
#
#
# Elastic Constant Matrix: (Units=GPa)
#
#
# Indices 1 2 3 4 5 6 
#
# 1 79.6145 33.4664 30.3790 -11.1244 1.5309 -31.4521
# 2 33.4664 60.2837 27.1801 19.0339 1.6406 -29.9361
# 3 30.3790 27.1801 93.0016 4.3922 -9.1014 -21.5596
# 4 -11.1244 19.0339 4.3922 21.9524 -1.9237 -3.4975
# 5 1.5309 1.6406 -9.1014 -1.9237 39.4873 -0.4230
# 6 -31.4521 -29.9361 -21.5596 -3.4975 -0.4230 31.0458
#
#
#
# Elastic Compliance Matrix: (Units=1/GPa)
#
#
# Indices 1 2 3 4 5 6 
#
# 1 0.036112 -0.024299 -0.002889 0.042594 0.001190 0.015962
# 2 -0.024299 0.067773 -0.001853 -0.066071 -0.005178 0.031932
# 3 -0.002889 -0.001853 0.013723 -0.001565 0.003326 0.004685
# 4 0.042594 -0.066071 -0.001565 0.124119 0.006699 -0.007571
# 5 0.001190 -0.005178 0.003326 0.006699 0.026583 -0.000361
# 6 0.015962 0.031932 0.004685 -0.007571 -0.000361 0.081568
#
#
# Mechanical properties :
#
#
# Convention : Reuss Voigt Hill
#
# Bulk Modulus (GPa) = 16.79966 46.10564 31.45265
# Shear Modulus (GPa) = 11.68763 27.95538 19.82150
#
# Velocity S-wave (km/s) = 2.49819 3.86363 3.25335
# Velocity P-wave (km/s) = 4.15836 6.67256 5.55945
#
# Compressibility (1/GPa) = 0.05952501
#
# Stress axis : x y z
#
# Youngs Moduli (GPa) = 27.69171 14.75516 72.86809
#
# Poissons Ratio (x) = 0.35854 0.21054
# Poissons Ratio (y) = 0.67288 0.13505
# Poissons Ratio (z) = 0.08001 0.02735
#
# Static dielectric constant tensor:
#      x y z
#    x 1.671700 0.021240 0.004940 
#    y 0.021240 1.744970 -0.044080 
#    z 0.004940 -0.044080 1.758720 
# 
# From -- ./inp_files/428294.got.cif
#   From: 2010.05.17/outbox.cif.g08.bks.cpg/sg2_215_cif.got.tgz:428294.got - 2010.06.03 11:33:40.
