data_PCOD9086753
_publ_section_title
;
Structure prediction by ZEFSAII (Michael W. Deem and Ramdas Pophale) SiO2 
 PCOD9086753
Probable space group: P -1
;
_chemical_formula_sum "Si O2"
_cell_formula_units_Z 16
_cell_length_a 15.152253
_cell_length_b 7.848507
_cell_length_c 13.990986
_cell_angle_alpha 57.886318
_cell_angle_beta 136.656435
_cell_angle_gamma 142.091597
_cell_volume 698.133820
_symmetry_space_group_name_H-M "P -1"
_symmetry_group_IT_number 2
_symmetry_cell_setting 'triclinic'
loop_
_space_group_symop_operation_xyz
x,y,z
-x,-y,-z
loop_
_atom_site_type_symbol
_atom_site_label
_atom_site_fract_x
_atom_site_fract_y
_atom_site_fract_z
Si Si1 0.146357 0.583454 0.661962
Si Si2 0.942288 0.300000 0.102401
Si Si3 0.236569 0.129872 0.077353
Si Si4 0.381403 0.832489 0.049392
Si Si5 0.437229 0.240396 0.662711
Si Si6 0.736923 0.625388 0.638627
Si Si7 0.956192 0.152693 0.803414
Si Si8 0.454408 0.637864 0.854582
O O1 0.250327 0.491739 0.737632
O O2 0.000000 0.500000 0.500000
O O3 0.041241 0.413514 0.725599
O O4 0.284569 0.918588 0.669784
O O5 0.110331 0.373025 0.260037
O O6 0.830336 0.018141 0.036377
O O7 0.817780 0.297937 0.072935
O O8 0.000000 0.500000 0.000000
O O9 0.162650 0.934129 0.170501
O O10 0.447620 0.318506 0.178505
O O11 0.128365 0.221280 0.961137
O O12 0.418097 0.648243 0.172940
O O13 0.456455 0.065927 0.119539
O O14 0.500000 0.000000 0.000000
O O15 0.563928 0.341918 0.639142
O O16 0.335669 0.332487 0.523009
O O17 0.830738 0.880526 0.713951
O O18 0.500000 0.500000 0.000000
#
# Coordination Sequence:
#
# PCOD9086753 Si02
#       8
#     2   2   2   2   2   2   2   2
#     4  11  21  36  60  86 119 161 199 245 305 364
#     4  10  19  36  60  86 116 155 203 242 296 355
#     4   9  20  35  59  91 117 155 200 250 291 356
#     4  10  22  37  58  88 120 156 198 249 301 360
#     4  10  21  37  59  87 120 157 201 243 307 368
#     4  10  20  37  63  87 117 163 199 244 303 370
#     4  10  19  36  62  91 120 151 203 247 296 354
#     4  10  20  37  59  85 122 156 198 247 305 352
#
# _framework density 22.918244000000001
#
# number of rings (size 3 to 8) (size 9 to 14) (size 15 to 20)
#    0.000    2.000    3.750    0.000    0.000    3.000 
#    0.000    1.250    0.000    4.500    0.000    0.000 
#    0.000    0.000    0.000    0.000    0.000    0.000 
#
# Total GULP energy -89102.424851 kJ/mol
# GULP energy per Si atom -5568.901553 kJ/mol
# Density = 2.286608 g / cm^3
# Si number density = 22.918244 Si / 1000 Ang^3
#
#
#
# Elastic Constant Matrix: (Units=GPa)
#
#
# Indices 1 2 3 4 5 6 
#
# 1 142.0005 26.1167 70.8984 -11.8792 13.3653 35.9251
# 2 26.1167 74.0928 29.5209 -19.1932 -14.6616 26.0277
# 3 70.8984 29.5209 199.9885 -13.8336 23.6056 32.1385
# 4 -11.8792 -19.1932 -13.8336 44.3302 9.9159 -13.3620
# 5 13.3653 -14.6616 23.6056 9.9159 33.9979 -1.0272
# 6 35.9251 26.0277 32.1385 -13.3620 -1.0272 49.3396
#
#
#
# Elastic Compliance Matrix: (Units=1/GPa)
#
#
# Indices 1 2 3 4 5 6 
#
# 1 0.010002 -0.001435 -0.002064 0.000660 -0.003463 -0.005074
# 2 -0.001435 0.020127 -0.002237 0.003373 0.009602 -0.007002
# 3 -0.002064 -0.002237 0.007081 0.001426 -0.005536 -0.001658
# 4 0.000660 0.003373 0.001426 0.027612 -0.007724 0.004128
# 5 -0.003463 0.009602 -0.005536 -0.007724 0.041007 -0.000176
# 6 -0.005074 -0.007002 -0.001658 0.004128 -0.000176 0.029851
#
#
# Mechanical properties :
#
#
# Convention : Reuss Voigt Hill
#
# Bulk Modulus (GPa) = 38.85346 74.35044 56.60195
# Shear Modulus (GPa) = 32.10664 44.83659 38.47162
#
# Velocity S-wave (km/s) = 3.74695 4.42789 4.10157
# Velocity P-wave (km/s) = 5.97573 7.65856 6.86888
#
# Compressibility (1/GPa) = 0.02573773
#
# Stress axis : x y z
#
# Youngs Moduli (GPa) = 99.98389 49.68371 141.22707
#
# Poissons Ratio (x) = 0.07129 0.29149
# Poissons Ratio (y) = 0.14347 0.31594
# Poissons Ratio (z) = 0.20636 0.11115
#
# Static dielectric constant tensor:
#      x y z
#    x 1.867260 0.009150 0.023020 
#    y 0.009150 2.053300 0.076390 
#    z 0.023020 0.076390 1.888320 
# 
# From -- ./inp_files/528195.got.cif
#   From: 2010.05.17/outbox.cif.g08.bks.cpg/sg2_265_cif.got.tgz:528195.got - 2010.06.03 11:33:40.
