data_PCOD9086673
_publ_section_title
;
Structure prediction by ZEFSAII (Michael W. Deem and Ramdas Pophale) SiO2 
 PCOD9086673
Probable space group: P -1
;
_chemical_formula_sum "Si O2"
_cell_formula_units_Z 14
_cell_length_a 8.346163
_cell_length_b 9.230674
_cell_length_c 8.279653
_cell_angle_alpha 117.816505
_cell_angle_beta 110.233056
_cell_angle_gamma 89.555843
_cell_volume 520.199871
_symmetry_space_group_name_H-M "P -1"
_symmetry_group_IT_number 2
_symmetry_cell_setting 'triclinic'
loop_
_space_group_symop_operation_xyz
x,y,z
-x,-y,-z
loop_
_atom_site_type_symbol
_atom_site_label
_atom_site_fract_x
_atom_site_fract_y
_atom_site_fract_z
Si Si1 0.174056 0.687578 0.781969
Si Si2 0.457561 0.067365 0.759128
Si Si3 0.765431 0.348993 0.865631
Si Si4 0.702585 0.909781 0.958968
Si Si5 0.123120 0.930511 0.382658
Si Si6 0.540083 0.518380 0.219868
Si Si7 0.169548 0.238672 0.359813
O O1 0.348024 0.619932 0.755155
O O2 0.990047 0.667179 0.617102
O O3 0.217461 0.891146 0.906502
O O4 0.145958 0.601984 0.905325
O O5 0.607968 0.200432 0.798940
O O6 0.353661 0.141863 0.905659
O O7 0.315373 0.981663 0.543519
O O8 0.537628 0.922763 0.796484
O O9 0.897903 0.262570 0.764645
O O10 0.655066 0.463093 0.788403
O O11 0.795578 0.781922 0.828503
O O12 0.115893 0.043236 0.283459
O O13 0.000000 0.000000 0.500000
O O14 0.671784 0.678651 0.425470
O O15 0.500000 0.500000 0.000000
#
# Coordination Sequence:
#
# PCOD9086673 Si02
#       7
#     2   2   2   2   2   2   2
#     4  10  21  36  61  95 133 163 208 253 327 373
#     4  10  19  36  59  93 126 162 210 256 311 372
#     4  10  20  40  63  90 128 168 210 255 315 373
#     4  10  21  35  65  95 125 165 211 266 314 372
#     4  12  23  34  63 101 130 157 210 273 319 367
#     4  10  22  40  65  90 123 183 213 248 309 394
#     4  12  21  38  64  95 131 164 209 267 324 360
#
# _framework density 26.912731000000001
#
# number of rings (size 3 to 8) (size 9 to 14) (size 15 to 20)
#    0.000    1.429    4.286    3.000    2.000    0.000 
#    0.000    0.000    0.000   47.143    0.000    0.000 
#    0.000    0.000    0.000    0.000    0.000    0.000 
#
# Total GULP energy -78108.661140 kJ/mol
# GULP energy per Si atom -5579.190081 kJ/mol
# Density = 2.685148 g / cm^3
# Si number density = 26.912731 Si / 1000 Ang^3
#
#
#
# Elastic Constant Matrix: (Units=GPa)
#
#
# Indices 1 2 3 4 5 6 
#
# 1 72.9661 52.0977 34.2308 -7.1406 -11.2315 -24.4492
# 2 52.0977 111.1944 27.9799 3.5001 -0.2383 -16.6815
# 3 34.2308 27.9799 62.3506 -4.0178 -4.0908 -12.6023
# 4 -7.1406 3.5001 -4.0178 34.2796 -24.6243 6.3063
# 5 -11.2315 -0.2383 -4.0908 -24.6243 52.4035 -10.0627
# 6 -24.4492 -16.6815 -12.6023 6.3063 -10.0627 55.4434
#
#
#
# Elastic Compliance Matrix: (Units=1/GPa)
#
#
# Indices 1 2 3 4 5 6 
#
# 1 0.035503 -0.013294 -0.009038 0.018291 0.017492 0.010696
# 2 -0.013294 0.015545 -0.001174 -0.009774 -0.007800 -0.001756
# 3 -0.009038 -0.001174 0.021711 0.000874 0.000268 0.000546
# 4 0.018291 -0.009774 0.000874 0.055404 0.030866 0.004624
# 5 0.017492 -0.007800 0.000268 0.030866 0.039050 0.009004
# 6 0.010696 -0.001756 0.000546 0.004624 0.009004 0.023457
#
#
# Mechanical properties :
#
#
# Convention : Reuss Voigt Hill
#
# Bulk Modulus (GPa) = 38.83734 52.79200 45.81467
# Shear Modulus (GPa) = 20.30346 37.23883 28.77114
#
# Velocity S-wave (km/s) = 2.74965 3.72383 3.27319
# Velocity P-wave (km/s) = 4.95408 6.17639 5.59869
#
# Compressibility (1/GPa) = 0.02574842
#
# Stress axis : x y z
#
# Youngs Moduli (GPa) = 28.16654 64.33101 46.05966
#
# Poissons Ratio (x) = 0.85520 0.41627
# Poissons Ratio (y) = 0.37444 0.05407
# Poissons Ratio (z) = 0.25456 0.07552
#
# Static dielectric constant tensor:
#      x y z
#    x 2.321840 -0.000400 -0.085320 
#    y -0.000400 2.191310 0.094560 
#    z -0.085320 0.094560 2.206160 
# 
# From -- ./inp_files/166365.got.cif
#   From: 2010.05.17/outbox.cif.g08.bks.cpg/sg2_84_cif.got.tgz:166365.got - 2010.06.03 11:33:40.
