data_PCOD9086583
_publ_section_title
;
Structure prediction by ZEFSAII (Michael W. Deem and Ramdas Pophale) SiO2 
 PCOD9086583
Probable space group: P -1
;
_chemical_formula_sum "Si O2"
_cell_formula_units_Z 16
_cell_length_a 24.551365
_cell_length_b 11.975174
_cell_length_c 17.298725
_cell_angle_alpha 158.048163
_cell_angle_beta 21.247550
_cell_angle_gamma 156.877317
_cell_volume 629.188559
_symmetry_space_group_name_H-M "P -1"
_symmetry_group_IT_number 2
_symmetry_cell_setting 'triclinic'
loop_
_space_group_symop_operation_xyz
x,y,z
-x,-y,-z
loop_
_atom_site_type_symbol
_atom_site_label
_atom_site_fract_x
_atom_site_fract_y
_atom_site_fract_z
Si Si1 0.927992 0.534653 0.005580
Si Si2 0.483655 0.090260 0.169259
Si Si3 0.774425 0.666536 0.147528
Si Si4 0.262860 0.148840 0.244307
Si Si5 0.777240 0.503857 0.788131
Si Si6 0.508417 0.774689 0.272887
Si Si7 0.005426 0.632900 0.705104
Si Si8 0.752496 0.391375 0.305255
O O1 0.847683 0.685342 0.147015
O O2 0.122112 0.709609 0.874657
O O3 0.887444 0.158277 0.790561
O O4 0.843568 0.535479 0.198813
O O5 0.312190 0.864512 0.291722
O O6 0.577628 0.483961 0.292668
O O7 0.500000 0.000000 0.000000
O O8 0.610063 0.011456 0.006020
O O9 0.873432 0.484160 0.852278
O O10 0.848319 0.025909 0.244192
O O11 0.337842 0.459792 0.286263
O O12 0.263847 0.332348 0.441813
O O13 0.896632 0.542363 0.582450
O O14 0.892101 0.693624 0.828402
O O15 0.634639 0.615349 0.026245
O O16 0.500000 0.000000 0.500000
O O17 0.593280 0.061752 0.283670
#
# Coordination Sequence:
#
# PCOD9086583 Si02
#       8
#     2   2   2   2   2   2   2   2
#     4  10  21  37  59  86 120 151 203 249 296 365
#     4  10  19  36  59  84 121 160 196 240 304 363
#     4  10  21  39  58  87 124 160 195 246 307 361
#     4   9  20  37  59  83 117 155 198 247 298 357
#     4  10  20  37  61  91 118 158 206 242 298 367
#     4   9  19  38  62  85 118 160 201 247 299 356
#     4  10  21  37  60  89 124 155 198 250 299 363
#     4  10  20  38  59  86 113 157 200 250 302 349
#
# _framework density 25.429577999999999
#
# number of rings (size 3 to 8) (size 9 to 14) (size 15 to 20)
#    0.000    2.250    1.250    1.125    0.000    2.000 
#   13.500    2.500   13.750    0.000    0.000    0.000 
#    0.000    0.000    0.000    0.000    0.000    0.000 
#
# Total GULP energy -89233.001289 kJ/mol
# GULP energy per Si atom -5577.062581 kJ/mol
# Density = 2.537170 g / cm^3
# Si number density = 25.429578 Si / 1000 Ang^3
#
#
#
# Elastic Constant Matrix: (Units=GPa)
#
#
# Indices 1 2 3 4 5 6 
#
# 1 46.1809 7.5891 19.0947 -3.0828 5.5190 11.2767
# 2 7.5891 152.4190 -2.9065 15.8516 17.2814 -13.8645
# 3 19.0947 -2.9065 68.5180 -1.2101 18.7005 -12.8413
# 4 -3.0828 15.8516 -1.2101 20.9117 -3.0112 10.7067
# 5 5.5190 17.2814 18.7005 -3.0112 19.4636 10.3406
# 6 11.2767 -13.8645 -12.8413 10.7067 10.3406 0.2264
#
#
#
# Elastic Compliance Matrix: (Units=1/GPa)
#
#
# Indices 1 2 3 4 5 6 
#
# 1 0.020155 0.002038 -0.000034 -0.005646 -0.013661 0.009966
# 2 0.002038 0.005388 -0.002356 0.000685 0.001554 -0.008559
# 3 -0.000034 -0.002356 0.011587 0.010457 0.000778 -0.015418
# 4 -0.005646 0.000685 0.010457 0.033753 -0.015361 0.021697
# 5 -0.013661 0.001554 0.000778 -0.015361 0.033125 0.033171
# 6 0.009966 -0.008559 -0.015418 0.021697 0.033171 -0.019250
#
#
# Mechanical properties :
#
#
# Convention : Reuss Voigt Hill
#
# Bulk Modulus (GPa) = 27.45097 34.96363 31.20730
# Shear Modulus (GPa) = 51.22807 24.34304 37.78555
#
# Velocity S-wave (km/s) = 4.49320 3.09734 3.85891
# Velocity P-wave (km/s) = 6.14302 5.15465 5.67041
#
# Compressibility (1/GPa) = 0.03642858
#
# Stress axis : x y z
#
# Youngs Moduli (GPa) = 49.61549 185.58320 86.30364
#
# Poissons Ratio (x) = -0.37830 0.00291
# Poissons Ratio (y) = -0.10114 0.20330
# Poissons Ratio (z) = 0.00168 0.43716
#
# Static dielectric constant tensor:
#      x y z
#    x 1.969800 -0.071440 0.013420 
#    y -0.071440 2.202940 0.032030 
#    z 0.013420 0.032030 2.083740 
# 
# From -- ./inp_files/602562.got.cif
#   From: 2010.05.17/outbox.cif.g08.bks.cpg/sg2_302_cif.got.tgz:602562.got - 2010.06.03 11:33:40.
