data_PCOD9086266
_publ_section_title
;
Structure prediction by ZEFSAII (Michael W. Deem and Ramdas Pophale) SiO2 
 PCOD9086266
Probable space group: P -1
;
_chemical_formula_sum "Si O2"
_cell_formula_units_Z 14
_cell_length_a 5.774579
_cell_length_b 20.294270
_cell_length_c 7.925230
_cell_angle_alpha 61.988501
_cell_angle_beta 119.896904
_cell_angle_gamma 72.992825
_cell_volume 515.857910
_symmetry_space_group_name_H-M "P -1"
_symmetry_group_IT_number 2
_symmetry_cell_setting 'triclinic'
loop_
_space_group_symop_operation_xyz
x,y,z
-x,-y,-z
loop_
_atom_site_type_symbol
_atom_site_label
_atom_site_fract_x
_atom_site_fract_y
_atom_site_fract_z
Si Si1 0.183031 0.117592 0.276098
Si Si2 0.895567 0.922795 0.335421
Si Si3 0.405169 0.704047 0.627515
Si Si4 0.764572 0.613455 0.343206
Si Si5 0.964341 0.295653 0.844720
Si Si6 0.049814 0.319034 0.352581
Si Si7 0.231023 0.910235 0.046322
O O1 0.082301 0.123432 0.424190
O O2 0.886953 0.147247 0.997530
O O3 0.500000 0.000000 0.500000
O O4 0.275383 0.182310 0.172831
O O5 0.175051 0.823678 0.438671
O O6 0.886803 0.013705 0.243600
O O7 0.500000 0.000000 0.000000
O O8 0.215005 0.699405 0.402115
O O9 0.808517 0.658256 0.780766
O O10 0.331392 0.653823 0.801754
O O11 0.366852 0.655570 0.200715
O O12 0.913981 0.627358 0.548554
O O13 0.000000 0.500000 0.500000
O O14 0.833017 0.666075 0.167775
O O15 0.349434 0.192769 0.635189
O O16 0.000000 0.000000 0.000000
#
# Coordination Sequence:
#
# PCOD9086266 Si02
#       7
#     2   2   2   2   2   2   2
#     4  12  26  37  56  96 134 181 217 264 317 390
#     4  12  23  36  58  84 129 176 225 257 314 378
#     4  10  19  36  57  82 116 164 199 259 305 371
#     4  10  20  37  66  96 123 160 213 277 332 377
#     4  10  21  40  60  91 131 159 215 268 316 398
#     4  10  20  34  62  83 122 155 207 261 315 374
#     4  12  21  38  59  85 130 174 212 267 311 385
#
# _framework density 27.139257000000001
#
# number of rings (size 3 to 8) (size 9 to 14) (size 15 to 20)
#    0.000    1.143    5.714    2.571    2.000    1.143 
#    0.000    0.000    0.000    0.000    0.000   24.000 
#    0.000    0.000    0.000    0.000    0.000    0.286 
#
# Total GULP energy -78162.642732 kJ/mol
# GULP energy per Si atom -5583.045909 kJ/mol
# Density = 2.707749 g / cm^3
# Si number density = 27.139257 Si / 1000 Ang^3
#
#
#
# Elastic Constant Matrix: (Units=GPa)
#
#
# Indices 1 2 3 4 5 6 
#
# 1 221.8297 59.8469 33.3387 2.8478 -16.1860 8.2566
# 2 59.8469 151.0830 38.9612 -6.8844 -10.0745 -8.3992
# 3 33.3387 38.9612 43.8974 3.4983 -11.3945 -4.7293
# 4 2.8478 -6.8844 3.4983 44.8662 -2.2062 -1.5139
# 5 -16.1860 -10.0745 -11.3945 -2.2062 39.8339 13.6762
# 6 8.2566 -8.3992 -4.7293 -1.5139 13.6762 49.2443
#
#
#
# Elastic Compliance Matrix: (Units=1/GPa)
#
#
# Indices 1 2 3 4 5 6 
#
# 1 0.005509 -0.001532 -0.002545 -0.000365 0.001766 -0.001931
# 2 -0.001532 0.009211 -0.007214 0.002085 -0.000722 0.001400
# 3 -0.002545 -0.007214 0.033047 -0.003197 0.006232 0.000541
# 4 -0.000365 0.002085 -0.003197 0.022928 0.000503 0.000675
# 5 0.001766 -0.000722 0.006232 0.000503 0.030269 -0.008212
# 6 -0.001931 0.001400 0.000541 0.000675 -0.008212 0.023223
#
#
# Mechanical properties :
#
#
# Convention : Reuss Voigt Hill
#
# Bulk Modulus (GPa) = 39.70701 75.67818 57.69260
# Shear Modulus (GPa) = 32.22405 45.76644 38.99524
#
# Velocity S-wave (km/s) = 3.44955 4.11098 3.79470
# Velocity P-wave (km/s) = 5.52525 7.10487 6.36426
#
# Compressibility (1/GPa) = 0.02518447
#
# Stress axis : x y z
#
# Youngs Moduli (GPa) = 181.51422 108.56684 30.26037
#
# Poissons Ratio (x) = 0.16636 0.07700
# Poissons Ratio (y) = 0.27814 0.21830
# Poissons Ratio (z) = 0.46189 0.78322
#
# Static dielectric constant tensor:
#      x y z
#    x 2.677980 0.040370 -0.050830 
#    y 0.040370 2.081760 -0.034050 
#    z -0.050830 -0.034050 1.982670 
# 
# From -- ./inp_files/89780.got.cif
#   From: 2010.05.17/outbox.cif.g08.bks.cpg/sg2_45_cif.got.tgz:89780.got - 2010.06.03 11:33:40.
