data_PCOD9086028
_publ_section_title
;
Structure prediction by ZEFSAII (Michael W. Deem and Ramdas Pophale) SiO2 
 PCOD9086028
Probable space group: P -1
;
_chemical_formula_sum "Si O2"
_cell_formula_units_Z 12
_cell_length_a 8.935321
_cell_length_b 7.829433
_cell_length_c 8.916825
_cell_angle_alpha 85.626723
_cell_angle_beta 126.842029
_cell_angle_gamma 108.548571
_cell_volume 467.876043
_symmetry_space_group_name_H-M "P -1"
_symmetry_group_IT_number 2
_symmetry_cell_setting 'triclinic'
loop_
_space_group_symop_operation_xyz
x,y,z
-x,-y,-z
loop_
_atom_site_type_symbol
_atom_site_label
_atom_site_fract_x
_atom_site_fract_y
_atom_site_fract_z
Si Si1 0.149333 0.060415 0.445246
Si Si2 0.498599 0.815692 0.929274
Si Si3 0.486505 0.354580 0.760103
Si Si4 0.787133 0.421423 0.446312
Si Si5 0.159178 0.405865 0.227844
Si Si6 0.060295 0.173566 0.915388
O O1 0.375073 0.159152 0.629848
O O2 0.116028 0.223164 0.314942
O O3 0.000000 0.000000 0.500000
O O4 0.088207 0.888218 0.309716
O O5 0.353605 0.763428 0.702925
O O6 0.414564 0.670536 0.023848
O O7 0.716025 0.807643 0.011854
O O8 0.500000 0.000000 0.000000
O O9 0.314502 0.434965 0.682847
O O10 0.624828 0.503352 0.722686
O O11 0.823725 0.446527 0.643243
O O12 0.000000 0.500000 0.500000
O O13 0.042068 0.331660 0.006001
O O14 0.000000 0.000000 0.000000
#
# Coordination Sequence:
#
# PCOD9086028 Si02
#       6
#     2   2   2   2   2   2
#     4  10  19  35  68 104 129 171 230 275 344 407
#     4  12  27  44  68 105 143 181 232 293 352 411
#     4  11  23  46  73  99 138 189 232 282 354 416
#     4  11  25  44  71 101 139 181 235 288 347 418
#     4  10  23  42  71  99 137 187 232 282 351 415
#     4  10  22  40  69 102 140 181 231 285 347 418
#
# _framework density 25.647815999999999
#
# number of rings (size 3 to 8) (size 9 to 14) (size 15 to 20)
#    0.000    1.333    3.333    2.500    9.333    0.000 
#    0.000    3.333    0.000    0.000    0.000    0.000 
#    0.000    0.000    0.000    0.000    0.000    0.000 
#
# Total GULP energy -66981.631145 kJ/mol
# GULP energy per Si atom -5581.802595 kJ/mol
# Density = 2.558944 g / cm^3
# Si number density = 25.647816 Si / 1000 Ang^3
#
#
#
# Elastic Constant Matrix: (Units=GPa)
#
#
# Indices 1 2 3 4 5 6 
#
# 1 91.8134 40.7137 32.2885 2.1003 -27.4704 14.0140
# 2 40.7137 123.1694 59.1030 26.6631 -20.1879 -7.1255
# 3 32.2885 59.1030 246.3310 45.8259 -40.5910 -13.2889
# 4 2.1003 26.6631 45.8259 65.5496 -3.5677 -20.1711
# 5 -27.4704 -20.1879 -40.5910 -3.5677 39.6338 11.6105
# 6 14.0140 -7.1255 -13.2889 -20.1711 11.6105 47.3086
#
#
#
# Elastic Compliance Matrix: (Units=1/GPa)
#
#
# Indices 1 2 3 4 5 6 
#
# 1 0.018316 -0.004323 0.000710 -0.001645 0.014006 -0.010016
# 2 -0.004323 0.011018 -0.001350 -0.003021 0.000634 0.001117
# 3 0.000710 -0.001350 0.005903 -0.003850 0.006055 -0.001883
# 4 -0.001645 -0.003021 -0.003850 0.021946 -0.007629 0.010180
# 5 0.014006 0.000634 0.006055 -0.007629 0.045704 -0.016822
# 6 -0.010016 0.001117 -0.001883 0.010180 -0.016822 0.032213
#
#
# Mechanical properties :
#
#
# Convention : Reuss Voigt Hill
#
# Bulk Modulus (GPa) = 39.50856 80.61379 60.06118
# Shear Modulus (GPa) = 32.58106 52.44564 42.51335
#
# Velocity S-wave (km/s) = 3.56803 4.52689 4.07576
# Velocity P-wave (km/s) = 5.69317 7.66961 6.75408
#
# Compressibility (1/GPa) = 0.02531097
#
# Stress axis : x y z
#
# Youngs Moduli (GPa) = 54.59749 90.75859 169.40832
#
# Poissons Ratio (x) = 0.39232 -0.12027
# Poissons Ratio (y) = 0.23601 0.22874
# Poissons Ratio (z) = -0.03876 0.12255
#
# Static dielectric constant tensor:
#      x y z
#    x 1.983670 -0.084880 0.024860 
#    y -0.084880 2.060800 0.080340 
#    z 0.024860 0.080340 2.082630 
# 
# From -- ./inp_files/147636.got.cif
#   From: 2010.05.17/outbox.cif.g08.bks.cpg/sg2_74_cif.got.tgz:147636.got - 2010.06.03 11:33:40.
