data_PCOD9086073
_publ_section_title
;
Structure prediction by ZEFSAII (Michael W. Deem and Ramdas Pophale) SiO2 
 PCOD9086073
Probable space group: P -1
;
_chemical_formula_sum "Si O2"
_cell_formula_units_Z 14
_cell_length_a 9.752452
_cell_length_b 20.036505
_cell_length_c 9.374376
_cell_angle_alpha 150.836160
_cell_angle_beta 134.960434
_cell_angle_gamma 41.880585
_cell_volume 586.871814
_symmetry_space_group_name_H-M "P -1"
_symmetry_group_IT_number 2
_symmetry_cell_setting 'triclinic'
loop_
_space_group_symop_operation_xyz
x,y,z
-x,-y,-z
loop_
_atom_site_type_symbol
_atom_site_label
_atom_site_fract_x
_atom_site_fract_y
_atom_site_fract_z
Si Si1 0.767546 0.782112 0.792767
Si Si2 0.745208 0.465520 0.884626
Si Si3 0.226916 0.358925 0.015409
Si Si4 0.286533 0.892606 0.671945
Si Si5 0.358618 0.778227 0.803708
Si Si6 0.849189 0.330939 0.312011
Si Si7 0.159083 0.654685 0.987460
O O1 0.919049 0.672084 0.815422
O O2 0.764038 0.946102 0.126129
O O3 0.531378 0.799189 0.651004
O O4 0.904314 0.733697 0.660074
O O5 0.707717 0.612338 0.042309
O O6 0.623231 0.370547 0.548146
O O7 0.727749 0.473694 0.057567
O O8 0.993057 0.362869 0.850899
O O9 0.415112 0.232859 0.995739
O O10 0.206973 0.512433 0.362849
O O11 0.261609 0.900406 0.840087
O O12 0.163888 0.801118 0.339254
O O13 0.225875 0.771097 0.831543
O O14 0.754895 0.351767 0.121202
#
# Coordination Sequence:
#
# PCOD9086073 Si02
#       7
#     2   2   2   2   2   2   2
#     4   9  20  36  56  79 103 134 174 224 248 312
#     4   9  18  33  54  74 102 145 176 194 268 306
#     4  10  19  36  53  75 110 142 167 215 251 318
#     4  10  19  37  60  72 103 143 176 199 276 306
#     4  10  20  37  53  78 105 143 170 213 252 320
#     4   9  20  35  52  79 113 126 175 220 259 285
#     4   9  19  35  52  81 103 134 173 220 252 310
#
# _framework density 23.855294000000001
#
# number of rings (size 3 to 8) (size 9 to 14) (size 15 to 20)
#    0.857    1.714    0.000    3.000    0.000    1.143 
#   10.286    3.571    0.000    1.714    0.000    0.000 
#    0.000    0.000    0.000    0.000    0.000    0.000 
#
# Total GULP energy -78165.618465 kJ/mol
# GULP energy per Si atom -5583.258462 kJ/mol
# Density = 2.380100 g / cm^3
# Si number density = 23.855294 Si / 1000 Ang^3
#
#
#
# Elastic Constant Matrix: (Units=GPa)
#
#
# Indices 1 2 3 4 5 6 
#
# 1 119.0642 28.7933 2.0264 -15.8900 -12.4681 15.0524
# 2 28.7933 72.3861 39.7595 -27.0276 -8.5648 8.4902
# 3 2.0264 39.7595 39.1360 -18.5176 -3.6376 6.8998
# 4 -15.8900 -27.0276 -18.5176 36.9198 5.7166 1.6181
# 5 -12.4681 -8.5648 -3.6376 5.7166 35.8801 -15.4904
# 6 15.0524 8.4902 6.8998 1.6181 -15.4904 30.4552
#
#
#
# Elastic Compliance Matrix: (Units=1/GPa)
#
#
# Indices 1 2 3 4 5 6 
#
# 1 0.011628 -0.008205 0.011170 0.004937 -0.000348 -0.006430
# 2 -0.008205 0.040117 -0.037428 0.006492 0.002986 0.002525
# 3 0.011170 -0.037428 0.072519 0.015573 -0.007062 -0.015936
# 4 0.004937 0.006492 0.015573 0.043686 -0.008299 -0.014320
# 5 -0.000348 0.002986 -0.007062 -0.008299 0.038012 0.020714
# 6 -0.006430 0.002525 -0.015936 -0.014320 0.020714 0.050216
#
#
# Mechanical properties :
#
#
# Convention : Reuss Voigt Hill
#
# Bulk Modulus (GPa) = 18.06977 41.30496 29.68737
# Shear Modulus (GPa) = 14.55395 31.31815 22.93605
#
# Velocity S-wave (km/s) = 2.47269 3.62724 3.10412
# Velocity P-wave (km/s) = 3.96780 5.90719 5.03181
#
# Compressibility (1/GPa) = 0.05534104
#
# Stress axis : x y z
#
# Youngs Moduli (GPa) = 85.99823 24.92689 13.78946
#
# Poissons Ratio (x) = 0.20452 -0.15403
# Poissons Ratio (y) = 0.70559 0.51611
# Poissons Ratio (z) = -0.96064 0.93295
#
# Static dielectric constant tensor:
#      x y z
#    x 1.986540 0.019800 -0.021710 
#    y 0.019800 1.931770 -0.045120 
#    z -0.021710 -0.045120 1.862830 
# 
# From -- ./inp_files/210321.got.cif
#   From: 2010.05.17/outbox.cif.g08.bks.cpg/sg2_106_cif.got.tgz:210321.got - 2010.06.03 11:33:40.
