data_PCOD9086148
_publ_section_title
;
Structure prediction by ZEFSAII (Michael W. Deem and Ramdas Pophale) SiO2 
 PCOD9086148
Probable space group: P -1
;
_chemical_formula_sum "Si O2"
_cell_formula_units_Z 13
_cell_length_a 12.884097
_cell_length_b 7.463614
_cell_length_c 14.093332
_cell_angle_alpha 99.892402
_cell_angle_beta 28.990704
_cell_angle_gamma 117.742874
_cell_volume 485.997588
_symmetry_space_group_name_H-M "P -1"
_symmetry_group_IT_number 2
_symmetry_cell_setting 'triclinic'
loop_
_space_group_symop_operation_xyz
x,y,z
-x,-y,-z
loop_
_atom_site_type_symbol
_atom_site_label
_atom_site_fract_x
_atom_site_fract_y
_atom_site_fract_z
Si Si1 0.943012 0.671072 0.338852
Si Si2 0.706267 0.942784 0.755412
Si Si3 0.467971 0.870884 0.735203
Si Si4 0.500000 0.500000 0.000000
Si Si5 0.040646 0.067444 0.186643
Si Si6 0.686449 0.602866 0.178268
Si Si7 0.479561 0.830042 0.425832
O O1 0.641051 0.573337 0.615946
O O2 0.842719 0.416718 0.362901
O O3 0.181183 0.838498 0.242473
O O4 0.007631 0.832741 0.211270
O O5 0.562726 0.939732 0.774768
O O6 0.509111 0.681161 0.936475
O O7 0.000000 0.000000 0.500000
O O8 0.268659 0.582903 0.853269
O O9 0.381005 0.008093 0.766095
O O10 0.756000 0.984460 0.456730
O O11 0.299091 0.273310 0.066235
O O12 0.102815 0.195557 0.048284
O O13 0.636499 0.725082 0.312289
O O14 0.500000 0.000000 0.500000
#
# Coordination Sequence:
#
# PCOD9086148 Si02
#       7
#     2   2   2   1   2   2   2
#     4   8  19  34  55  82 120 150 178 241 287 339
#     4  11  15  31  55  92 118 150 182 232 293 349
#     4  11  21  35  64  89 115 156 194 234 292 356
#     4  10  16  26  58  88 120 154 178 228 290 356
#     4  10  17  33  59  86 119 149 190 229 290 351
#     4   9  19  39  57  85 114 151 191 241 289 340
#     4  10  23  44  60  79 118 160 198 249 289 328
#
# _framework density 26.749103000000002
#
# number of rings (size 3 to 8) (size 9 to 14) (size 15 to 20)
#    0.923    1.231    6.154    0.000    0.000    1.231 
#    2.769    1.538    0.000    3.692    0.000    0.000 
#    0.000    0.000    0.000    0.000    0.000    0.000 
#
# Total GULP energy -72432.631366 kJ/mol
# GULP energy per Si atom -5571.740874 kJ/mol
# Density = 2.668822 g / cm^3
# Si number density = 26.749103 Si / 1000 Ang^3
#
#
#
# Elastic Constant Matrix: (Units=GPa)
#
#
# Indices 1 2 3 4 5 6 
#
# 1 110.1451 59.4726 32.0192 -25.7333 10.6085 0.4775
# 2 59.4726 204.5864 62.4032 -53.5964 15.8478 9.6499
# 3 32.0192 62.4032 124.5563 -27.8959 26.1418 -2.6668
# 4 -25.7333 -53.5964 -27.8959 51.5820 -12.6153 -4.5823
# 5 10.6085 15.8478 26.1418 -12.6153 36.4384 -6.7562
# 6 0.4775 9.6499 -2.6668 -4.5823 -6.7562 42.3907
#
#
#
# Elastic Compliance Matrix: (Units=1/GPa)
#
#
# Indices 1 2 3 4 5 6 
#
# 1 0.011262 -0.002246 -0.001058 0.002628 -0.000538 0.000516
# 2 -0.002246 0.007718 -0.002150 0.005790 0.000633 -0.001140
# 3 -0.001058 -0.002150 0.011042 0.001786 -0.005979 0.000436
# 4 0.002628 0.005790 0.001786 0.029450 0.006175 0.002932
# 5 -0.000538 0.000633 -0.005979 0.006175 0.034810 0.005701
# 6 0.000516 -0.001140 0.000436 0.002932 0.005701 0.025097
#
#
# Mechanical properties :
#
#
# Convention : Reuss Voigt Hill
#
# Bulk Modulus (GPa) = 52.31276 83.00865 67.66071
# Shear Modulus (GPa) = 36.58773 45.10838 40.84806
#
# Velocity S-wave (km/s) = 3.70241 4.11098 3.91203
# Velocity P-wave (km/s) = 6.15438 7.32347 6.76423
#
# Compressibility (1/GPa) = 0.01911579
#
# Stress axis : x y z
#
# Youngs Moduli (GPa) = 88.79113 129.56581 90.56420
#
# Poissons Ratio (x) = 0.29096 0.09579
# Poissons Ratio (y) = 0.19939 0.19471
# Poissons Ratio (z) = 0.09391 0.27856
#
# Static dielectric constant tensor:
#      x y z
#    x 2.144860 -0.025410 -0.037720 
#    y -0.025410 2.169500 0.104550 
#    z -0.037720 0.104550 2.138150 
# 
# From -- ./inp_files/526560.got.cif
#   From: 2010.05.17/outbox.cif.g08.bks.cpg/sg2_264_cif.got.tgz:526560.got - 2010.06.03 11:33:40.
