data_PCOD9086837
_publ_section_title
;
Structure prediction by ZEFSAII (Michael W. Deem and Ramdas Pophale) SiO2 
 PCOD9086837
Probable space group: P -1
;
_chemical_formula_sum "Si O2"
_cell_formula_units_Z 12
_cell_length_a 9.729765
_cell_length_b 5.469948
_cell_length_c 16.802080
_cell_angle_alpha 55.625884
_cell_angle_beta 132.954341
_cell_angle_gamma 136.991650
_cell_volume 442.471177
_symmetry_space_group_name_H-M "P -1"
_symmetry_group_IT_number 2
_symmetry_cell_setting 'triclinic'
loop_
_space_group_symop_operation_xyz
x,y,z
-x,-y,-z
loop_
_atom_site_type_symbol
_atom_site_label
_atom_site_fract_x
_atom_site_fract_y
_atom_site_fract_z
Si Si1 0.027814 0.491213 0.788063
Si Si2 0.685794 0.295521 0.455223
Si Si3 0.496128 0.477157 0.796819
Si Si4 0.774115 0.761747 0.540937
Si Si5 0.254431 0.862527 0.108432
Si Si6 0.162719 0.118837 0.866275
O O1 0.921795 0.661139 0.667187
O O2 0.948878 0.431787 0.858388
O O3 0.269023 0.539121 0.862293
O O4 0.926844 0.094365 0.776089
O O5 0.587938 0.334938 0.327435
O O6 0.788311 0.669706 0.472682
O O7 0.500000 0.000000 0.500000
O O8 0.836491 0.146623 0.521156
O O9 0.598103 0.298102 0.820227
O O10 0.282608 0.153441 0.824996
O O11 0.652838 0.774305 0.870864
O O12 0.500000 0.500000 0.500000
O O13 0.179096 0.918758 0.983227
#
# Coordination Sequence:
#
# PCOD9086837 Si02
#       6
#     2   2   2   2   2   2
#     4  12  24  43  67  96 131 170 212 268 323 380
#     4  10  19  36  60  90 117 154 212 263 299 363
#     4  12  24  42  68  97 129 171 217 266 316 380
#     4  10  20  37  62  90 117 157 214 261 302 371
#     4  12  23  43  69  94 126 178 222 255 307 393
#     4  12  26  43  62  99 138 166 207 271 333 373
#
# _framework density 27.120408999999999
#
# number of rings (size 3 to 8) (size 9 to 14) (size 15 to 20)
#    0.000    0.667    0.000   11.000    0.000    0.000 
#    0.000    5.000    0.000    0.000    0.000    0.000 
#    0.000    0.000    0.000    0.000    0.000    0.000 
#
# Total GULP energy -66976.979240 kJ/mol
# GULP energy per Si atom -5581.414937 kJ/mol
# Density = 2.705868 g / cm^3
# Si number density = 27.120409 Si / 1000 Ang^3
#
#
#
# Elastic Constant Matrix: (Units=GPa)
#
#
# Indices 1 2 3 4 5 6 
#
# 1 146.8768 -14.1881 -9.6833 -12.9646 -10.0154 -30.5023
# 2 -14.1881 67.8466 -9.2829 1.6729 -0.4592 7.4112
# 3 -9.6833 -9.2829 116.0785 -22.3317 0.6578 0.8724
# 4 -12.9646 1.6729 -22.3317 47.7960 -18.0626 -5.0370
# 5 -10.0154 -0.4592 0.6578 -18.0626 45.0495 -14.5168
# 6 -30.5023 7.4112 0.8724 -5.0370 -14.5168 51.1033
#
#
#
# Elastic Compliance Matrix: (Units=1/GPa)
#
#
# Indices 1 2 3 4 5 6 
#
# 1 0.010243 0.001341 0.002376 0.007952 0.008356 0.009036
# 2 0.001341 0.015355 0.001428 0.000409 0.000157 -0.001366
# 3 0.002376 0.001428 0.010293 0.007341 0.004296 0.002980
# 4 0.007952 0.000409 0.007341 0.035686 0.020448 0.013888
# 5 0.008356 0.000157 0.004296 0.020448 0.037887 0.017670
# 6 0.009036 -0.001366 0.002980 0.013888 0.017670 0.031497
#
#
# Mechanical properties :
#
#
# Convention : Reuss Voigt Hill
#
# Bulk Modulus (GPa) = 21.65443 29.38814 25.52128
# Shear Modulus (GPa) = 34.23119 53.05351 43.64235
#
# Velocity S-wave (km/s) = 3.55659 4.42772 4.01584
# Velocity P-wave (km/s) = 4.98675 6.08270 5.56179
#
# Compressibility (1/GPa) = 0.04617992
#
# Stress axis : x y z
#
# Youngs Moduli (GPa) = 97.62865 65.12522 97.15460
#
# Poissons Ratio (x) = -0.08730 -0.23086
# Poissons Ratio (y) = -0.13087 -0.13872
# Poissons Ratio (z) = -0.23199 -0.09299
#
# Static dielectric constant tensor:
#      x y z
#    x 2.017800 -0.031890 -0.037390 
#    y -0.031890 2.257700 0.067860 
#    z -0.037390 0.067860 1.923160 
# 
# From -- ./inp_files/19253.got.cif
#   From: 2010.05.17/outbox.cif.g08.bks.cpg/sg2_10_cif.got.tgz:19253.got - 2010.06.03 11:33:40.
