data_PCOD9086800
_publ_section_title
;
Structure prediction by ZEFSAII (Michael W. Deem and Ramdas Pophale) SiO2 
 PCOD9086800
Probable space group: P -1
;
_chemical_formula_sum "Si O2"
_cell_formula_units_Z 16
_cell_length_a 12.092718
_cell_length_b 21.608602
_cell_length_c 5.522989
_cell_angle_alpha 79.621731
_cell_angle_beta 94.608396
_cell_angle_gamma 148.860870
_cell_volume 726.315078
_symmetry_space_group_name_H-M "P -1"
_symmetry_group_IT_number 2
_symmetry_cell_setting 'triclinic'
loop_
_space_group_symop_operation_xyz
x,y,z
-x,-y,-z
loop_
_atom_site_type_symbol
_atom_site_label
_atom_site_fract_x
_atom_site_fract_y
_atom_site_fract_z
Si Si1 0.179509 0.300621 0.952228
Si Si2 0.535402 0.456831 0.274590
Si Si3 0.168349 0.607878 0.260271
Si Si4 0.245972 0.227793 0.677171
Si Si5 0.232619 0.990025 0.414656
Si Si6 0.452801 0.213005 0.512662
Si Si7 0.307766 0.954790 0.953217
Si Si8 0.753640 0.451126 0.072246
O O1 0.304731 0.409440 0.717611
O O2 0.200232 0.237280 0.921688
O O3 0.928373 0.193226 0.986894
O O4 0.319271 0.376960 0.164027
O O5 0.450578 0.367067 0.520703
O O6 0.665048 0.477016 0.087300
O O7 0.372891 0.739598 0.326565
O O8 0.000000 0.500000 0.500000
O O9 0.010774 0.572366 0.090882
O O10 0.259292 0.590208 0.155760
O O11 0.300417 0.181636 0.677542
O O12 0.028573 0.136717 0.551822
O O13 0.319475 0.102299 0.397037
O O14 0.304283 0.998382 0.159476
O O15 0.313259 0.990564 0.664447
O O16 0.603606 0.332777 0.295856
O O17 0.500000 0.000000 0.000000
#
# Coordination Sequence:
#
# PCOD9086800 Si02
#       8
#     2   2   2   2   2   2   2   2
#     4  10  21  37  60  89 118 164 210 269 311 380
#     4  10  19  36  60  88 119 157 214 254 329 369
#     4   9  18  35  53  79 125 157 208 250 315 364
#     4  10  20  39  60  89 128 161 203 266 320 374
#     4  11  24  43  67  96 126 168 216 260 313 385
#     4  10  21  35  60  91 122 166 204 255 320 382
#     4  11  25  47  67  91 130 170 214 267 315 370
#     4   9  19  34  56  85 123 163 198 267 310 378
#
# _framework density 22.029007
#
# number of rings (size 3 to 8) (size 9 to 14) (size 15 to 20)
#    0.000    2.000    1.250    1.875    1.750    1.000 
#    4.500    1.875    0.000    0.000    0.000    0.000 
#    0.000    0.000    0.000    0.000    0.000    0.000 
#
# Total GULP energy -89216.661905 kJ/mol
# GULP energy per Si atom -5576.041369 kJ/mol
# Density = 2.197887 g / cm^3
# Si number density = 22.029007 Si / 1000 Ang^3
#
#
#
# Elastic Constant Matrix: (Units=GPa)
#
#
# Indices 1 2 3 4 5 6 
#
# 1 100.0157 49.2014 18.6472 12.2143 -11.1716 15.6870
# 2 49.2014 88.1438 12.2173 17.4898 -8.8912 -5.0161
# 3 18.6472 12.2173 68.7637 14.8060 -6.8498 6.4264
# 4 12.2143 17.4898 14.8060 26.4550 0.8908 0.0778
# 5 -11.1716 -8.8912 -6.8498 0.8908 32.3733 1.7832
# 6 15.6870 -5.0161 6.4264 0.0778 1.7832 29.3431
#
#
#
# Elastic Compliance Matrix: (Units=1/GPa)
#
#
# Indices 1 2 3 4 5 6 
#
# 1 0.017066 -0.009375 -0.001392 -0.000993 0.003633 -0.010639
# 2 -0.009375 0.018836 0.000447 -0.008460 0.001822 0.008046
# 3 -0.001392 0.000447 0.017594 -0.009618 0.003808 -0.003238
# 4 -0.000993 -0.008460 -0.009618 0.049437 -0.006141 0.001433
# 5 0.003633 0.001822 0.003808 -0.006141 0.033867 -0.004507
# 6 -0.010639 0.008046 -0.003238 0.001433 -0.004507 0.042122
#
#
# Mechanical properties :
#
#
# Convention : Reuss Voigt Hill
#
# Bulk Modulus (GPa) = 30.43665 46.33944 38.38805
# Shear Modulus (GPa) = 23.75142 29.42477 26.58809
#
# Velocity S-wave (km/s) = 3.28714 3.65873 3.47790
# Velocity P-wave (km/s) = 5.31542 6.23937 5.79583
#
# Compressibility (1/GPa) = 0.03285513
#
# Stress axis : x y z
#
# Youngs Moduli (GPa) = 58.59714 53.08850 56.83896
#
# Poissons Ratio (x) = 0.49770 0.07913
# Poissons Ratio (y) = 0.54934 -0.02539
# Poissons Ratio (z) = 0.08157 -0.02371
#
# Static dielectric constant tensor:
#      x y z
#    x 1.829660 0.002580 0.017630 
#    y 0.002580 1.806450 -0.005860 
#    z 0.017630 -0.005860 1.888570 
# 
# From -- ./inp_files/70660.got.cif
#   From: 2010.05.17/outbox.cif.g08.bks.cpg/sg2_36_cif.got.tgz:70660.got - 2010.06.03 11:33:40.
