data_PCOD9086210
_publ_section_title
;
Structure prediction by ZEFSAII (Michael W. Deem and Ramdas Pophale) SiO2 
 PCOD9086210
Probable space group: P -1
;
_chemical_formula_sum "Si O2"
_cell_formula_units_Z 14
_cell_length_a 10.541582
_cell_length_b 13.656618
_cell_length_c 13.839635
_cell_angle_alpha 68.381891
_cell_angle_beta 132.075464
_cell_angle_gamma 148.973895
_cell_volume 642.551260
_symmetry_space_group_name_H-M "P -1"
_symmetry_group_IT_number 2
_symmetry_cell_setting 'triclinic'
loop_
_space_group_symop_operation_xyz
x,y,z
-x,-y,-z
loop_
_atom_site_type_symbol
_atom_site_label
_atom_site_fract_x
_atom_site_fract_y
_atom_site_fract_z
Si Si1 0.774259 0.393062 0.825993
Si Si2 0.276595 0.244763 0.075230
Si Si3 0.183420 0.181817 0.696372
Si Si4 0.621283 0.727615 0.663548
Si Si5 0.129794 0.811760 0.820546
Si Si6 0.784372 0.552047 0.038266
Si Si7 0.158983 0.338850 0.458896
O O1 0.356698 0.182059 0.719940
O O2 0.913110 0.582940 0.794512
O O3 0.903323 0.365845 0.839019
O O4 0.000000 0.500000 0.000000
O O5 0.441792 0.311096 0.240734
O O6 0.573744 0.417677 0.079638
O O7 0.089108 0.258336 0.975740
O O8 0.000000 0.000000 0.000000
O O9 0.129326 0.245339 0.569074
O O10 0.484520 0.373504 0.862920
O O11 0.827425 0.943786 0.654052
O O12 0.264488 0.507840 0.498259
O O13 0.898455 0.780096 0.762756
O O14 0.178130 0.854059 0.715430
O O15 0.500000 0.000000 0.000000
O O16 0.500000 0.500000 0.500000
#
# Coordination Sequence:
#
# PCOD9086210 Si02
#       7
#     2   2   2   2   2   2   2
#     4  10  19  36  56  88 129 152 195 262 310 359
#     4  11  21  36  59  90 120 169 217 249 293 361
#     4  11  19  37  61  91 126 160 201 254 316 365
#     4  11  21  37  63  91 126 163 204 251 304 371
#     4  11  22  38  61  92 126 158 202 254 317 371
#     4  10  21  36  58  90 125 161 209 263 295 353
#     4  10  21  39  57  90 130 160 203 250 314 374
#
# _framework density 21.788145
#
# number of rings (size 3 to 8) (size 9 to 14) (size 15 to 20)
#    0.000    1.429    5.714    2.571    0.000    2.286 
#    2.571    0.000    0.000    0.857    0.000    3.000 
#    0.000    0.000    0.000    0.000    0.000    0.000 
#
# Total GULP energy -78156.833654 kJ/mol
# GULP energy per Si atom -5582.630975 kJ/mol
# Density = 2.173855 g / cm^3
# Si number density = 21.788145 Si / 1000 Ang^3
#
#
#
# Elastic Constant Matrix: (Units=GPa)
#
#
# Indices 1 2 3 4 5 6 
#
# 1 69.2300 31.5608 14.2595 -1.3172 -20.4385 -1.6909
# 2 31.5608 145.3576 25.6817 -17.3545 -18.0059 -6.3519
# 3 14.2595 25.6817 100.4788 -8.9292 -35.4241 11.2243
# 4 -1.3172 -17.3545 -8.9292 27.6561 3.0160 -13.4619
# 5 -20.4385 -18.0059 -35.4241 3.0160 34.8566 -5.2746
# 6 -1.6909 -6.3519 11.2243 -13.4619 -5.2746 35.5519
#
#
#
# Elastic Compliance Matrix: (Units=1/GPa)
#
#
# Indices 1 2 3 4 5 6 
#
# 1 0.018937 -0.003106 0.002069 -0.001184 0.011856 0.001003
# 2 -0.003106 0.009071 -0.001127 0.007360 0.001821 0.004886
# 3 0.002069 -0.001127 0.016199 0.001801 0.016625 -0.002069
# 4 -0.001184 0.007360 0.001801 0.050882 0.003637 0.020496
# 5 0.011856 0.001821 0.016625 0.003637 0.053922 0.005018
# 6 0.001003 0.004886 -0.002069 0.020496 0.005018 0.038207
#
#
# Mechanical properties :
#
#
# Convention : Reuss Voigt Hill
#
# Bulk Modulus (GPa) = 25.07607 50.89669 37.98638
# Shear Modulus (GPa) = 24.40933 35.85053 30.12993
#
# Velocity S-wave (km/s) = 3.35072 4.06077 3.72272
# Velocity P-wave (km/s) = 5.14819 6.73773 5.99587
#
# Compressibility (1/GPa) = 0.03987866
#
# Stress axis : x y z
#
# Youngs Moduli (GPa) = 52.80758 110.24141 61.73154
#
# Poissons Ratio (x) = 0.34241 -0.12773
# Poissons Ratio (y) = 0.16402 0.06959
# Poissons Ratio (z) = -0.10927 0.12427
#
# Static dielectric constant tensor:
#      x y z
#    x 1.822340 -0.017080 -0.000450 
#    y -0.017080 1.883410 -0.021700 
#    z -0.000450 -0.021700 1.905850 
# 
# From -- ./inp_files/521591.got.cif
#   From: 2010.05.17/outbox.cif.g08.bks.cpg/sg2_261_cif.got.tgz:521591.got - 2010.06.03 11:33:40.
