data_PCOD9086416
_publ_section_title
;
Structure prediction by ZEFSAII (Michael W. Deem and Ramdas Pophale) SiO2 
 PCOD9086416
Probable space group: P -1
;
_chemical_formula_sum "Si O2"
_cell_formula_units_Z 16
_cell_length_a 9.094546
_cell_length_b 8.738981
_cell_length_c 14.634701
_cell_angle_alpha 90.885554
_cell_angle_beta 129.830977
_cell_angle_gamma 112.360091
_cell_volume 769.098542
_symmetry_space_group_name_H-M "P -1"
_symmetry_group_IT_number 2
_symmetry_cell_setting 'triclinic'
loop_
_space_group_symop_operation_xyz
x,y,z
-x,-y,-z
loop_
_atom_site_type_symbol
_atom_site_label
_atom_site_fract_x
_atom_site_fract_y
_atom_site_fract_z
Si Si1 0.736433 0.306246 0.707214
Si Si2 0.816807 0.952520 0.044432
Si Si3 0.087930 0.298521 0.268100
Si Si4 0.227262 0.148745 0.690411
Si Si5 0.656608 0.267115 0.063784
Si Si6 0.825318 0.667894 0.155976
Si Si7 0.345752 0.867151 0.134166
Si Si8 0.259030 0.189928 0.500931
O O1 0.791348 0.509533 0.729416
O O2 0.749036 0.246941 0.814102
O O3 0.483771 0.187213 0.571901
O O4 0.925333 0.294128 0.726310
O O5 0.842058 0.784041 0.074613
O O6 0.585000 0.888634 0.006008
O O7 0.018439 0.127053 0.174262
O O8 0.752265 0.002125 0.921906
O O9 0.226213 0.300552 0.410186
O O10 0.847853 0.268787 0.201518
O O11 0.263440 0.269157 0.793801
O O12 0.390008 0.066256 0.755152
O O13 0.276543 0.250489 0.614230
O O14 0.970121 0.997556 0.592689
O O15 0.679809 0.457728 0.083690
O O16 0.721273 0.247838 0.986347
#
# Coordination Sequence:
#
# PCOD9086416 Si02
#       8
#     2   2   2   2   2   2   2   2
#     4  10  24  37  55  83 117 151 181 233 273 329
#     4  11  20  34  62  84 113 145 187 230 272 335
#     4  10  19  36  58  84 108 149 195 219 271 336
#     4  10  20  35  62  86 106 142 192 236 269 329
#     4  10  20  34  61  85 113 144 181 237 277 327
#     4  11  22  36  54  90 117 142 178 230 297 318
#     4  10  20  38  59  84 109 151 193 217 272 336
#     4  10  19  38  62  80 106 149 196 225 268 332
#
# _framework density 20.803577000000001
#
# number of rings (size 3 to 8) (size 9 to 14) (size 15 to 20)
#    0.000    1.750    2.500    3.000    0.000    5.500 
#    0.000    2.500    0.000    0.000    0.000    0.000 
#    0.000    0.000    0.000    0.000    0.000    0.000 
#
# Total GULP energy -89165.263638 kJ/mol
# GULP energy per Si atom -5572.828977 kJ/mol
# Density = 2.075623 g / cm^3
# Si number density = 20.803577 Si / 1000 Ang^3
#
#
#
# Elastic Constant Matrix: (Units=GPa)
#
#
# Indices 1 2 3 4 5 6 
#
# 1 44.1979 7.1425 19.2671 -5.8918 11.6703 5.6852
# 2 7.1425 107.2778 32.6391 -24.1198 -6.6256 8.8874
# 3 19.2671 32.6391 102.1481 -30.8302 8.9468 6.9035
# 4 -5.8918 -24.1198 -30.8302 40.6116 5.1763 -1.4744
# 5 11.6703 -6.6256 8.9468 5.1763 30.5737 -4.0599
# 6 5.6852 8.8874 6.9035 -1.4744 -4.0599 21.9517
#
#
#
# Elastic Compliance Matrix: (Units=1/GPa)
#
#
# Indices 1 2 3 4 5 6 
#
# 1 0.028463 -0.000427 -0.002735 0.002998 -0.011769 -0.008314
# 2 -0.000427 0.011450 -0.002103 0.004768 0.002032 -0.003168
# 3 -0.002735 -0.002103 0.014827 0.010242 -0.005952 -0.003516
# 4 0.002998 0.004768 0.010242 0.036751 -0.010036 -0.005315
# 5 -0.011769 0.002032 -0.005952 -0.010036 0.042581 0.011298
# 6 -0.008314 -0.003168 -0.003516 -0.005315 0.011298 0.051829
#
#
# Mechanical properties :
#
#
# Convention : Reuss Voigt Hill
#
# Bulk Modulus (GPa) = 22.61882 41.30236 31.96059
# Shear Modulus (GPa) = 23.67785 31.59906 27.63846
#
# Velocity S-wave (km/s) = 3.37733 3.90157 3.64887
# Velocity P-wave (km/s) = 5.10927 6.33979 5.75749
#
# Compressibility (1/GPa) = 0.04421098
#
# Stress axis : x y z
#
# Youngs Moduli (GPa) = 35.13308 87.33869 67.44254
#
# Poissons Ratio (x) = 0.03730 0.18444
# Poissons Ratio (y) = 0.01500 0.14182
# Poissons Ratio (z) = 0.09608 0.18365
#
# Static dielectric constant tensor:
#      x y z
#    x 1.775260 -0.001680 0.038170 
#    y -0.001680 1.766710 -0.041980 
#    z 0.038170 -0.041980 1.799570 
# 
# From -- ./inp_files/215174.got.cif
#   From: 2010.05.17/outbox.cif.g08.bks.cpg/sg2_108_cif.got.tgz:215174.got - 2010.06.03 11:33:40.
