data_PCOD9086725
_publ_section_title
;
Structure prediction by ZEFSAII (Michael W. Deem and Ramdas Pophale) SiO2 
 PCOD9086725
Probable space group: P -1
;
_chemical_formula_sum "Si O2"
_cell_formula_units_Z 16
_cell_length_a 7.069063
_cell_length_b 9.277077
_cell_length_c 12.388583
_cell_angle_alpha 115.069099
_cell_angle_beta 99.782976
_cell_angle_gamma 70.857193
_cell_volume 694.763385
_symmetry_space_group_name_H-M "P -1"
_symmetry_group_IT_number 2
_symmetry_cell_setting 'triclinic'
loop_
_space_group_symop_operation_xyz
x,y,z
-x,-y,-z
loop_
_atom_site_type_symbol
_atom_site_label
_atom_site_fract_x
_atom_site_fract_y
_atom_site_fract_z
Si Si1 0.143758 0.221413 0.948216
Si Si2 0.220257 0.893381 0.132989
Si Si3 0.605061 0.409056 0.794135
Si Si4 0.063611 0.526706 0.394835
Si Si5 0.558931 0.209376 0.085299
Si Si6 0.045006 0.464664 0.834131
Si Si7 0.601706 0.332230 0.527064
Si Si8 0.592174 0.816039 0.707851
O O1 0.010504 0.100538 0.867490
O O2 0.177320 0.322813 0.878021
O O3 0.357885 0.169219 0.009127
O O4 0.995275 0.358073 0.056021
O O5 0.359406 0.729594 0.154595
O O6 0.293845 0.044907 0.231718
O O7 0.263909 0.880979 0.005500
O O8 0.470065 0.592974 0.867777
O O9 0.826607 0.432730 0.808122
O O10 0.546326 0.353838 0.654101
O O11 0.902916 0.547603 0.290390
O O12 0.164254 0.676984 0.456750
O O13 0.234903 0.359339 0.323477
O O14 0.000000 0.500000 0.500000
O O15 0.554329 0.173618 0.200654
O O16 0.500000 0.500000 0.500000
O O17 0.530681 0.191755 0.414959
#
# Coordination Sequence:
#
# PCOD9086725 Si02
#       8
#     2   2   2   2   2   2   2   2
#     4   9  18  36  57  79 118 147 184 238 280 329
#     4  11  24  35  58  91 118 154 186 231 299 341
#     4   9  17  36  61  82 110 150 200 234 271 349
#     4  10  19  36  60  85 105 150 202 233 277 347
#     4  11  20  40  59  85 118 154 194 231 280 352
#     4   8  15  33  57  81 109 146 186 245 277 318
#     4   9  17  37  60  76 110 153 184 243 282 314
#     4  11  22  40  53  86 124 144 189 243 285 341
#
# _framework density 23.029423999999999
#
# number of rings (size 3 to 8) (size 9 to 14) (size 15 to 20)
#    0.000    2.250    5.000    1.500    0.000    2.000 
#    6.750    0.000    0.000    2.250    0.000    0.000 
#    0.000    0.000    0.000    0.000    0.000    0.000 
#
# Total GULP energy -89388.503309 kJ/mol
# GULP energy per Si atom -5586.781457 kJ/mol
# Density = 2.297701 g / cm^3
# Si number density = 23.029424 Si / 1000 Ang^3
#
#
#
# Elastic Constant Matrix: (Units=GPa)
#
#
# Indices 1 2 3 4 5 6 
#
# 1 77.0762 16.3486 28.8688 6.3179 3.8070 10.4711
# 2 16.3486 73.0192 35.7423 -0.0028 13.4237 10.1738
# 3 28.8688 35.7423 149.4038 -14.1983 18.2702 6.7334
# 4 6.3179 -0.0028 -14.1983 42.5635 11.2111 9.4824
# 5 3.8070 13.4237 18.2702 11.2111 33.3370 2.1727
# 6 10.4711 10.1738 6.7334 9.4824 2.1727 18.7240
#
#
#
# Elastic Compliance Matrix: (Units=1/GPa)
#
#
# Indices 1 2 3 4 5 6 
#
# 1 0.015208 -0.001564 -0.002712 -0.002295 0.001522 -0.005694
# 2 -0.001564 0.017551 -0.002520 0.002845 -0.005910 -0.008511
# 3 -0.002712 -0.002520 0.009094 0.005392 -0.005310 -0.002499
# 4 -0.002295 0.002845 0.005392 0.033156 -0.013856 -0.017385
# 5 0.001522 -0.005910 -0.005310 -0.013856 0.039334 0.006722
# 6 -0.005694 -0.008511 -0.002499 -0.017385 0.006722 0.070139
#
#
# Mechanical properties :
#
#
# Convention : Reuss Voigt Hill
#
# Bulk Modulus (GPa) = 35.38333 51.26872 43.32603
# Shear Modulus (GPa) = 24.09683 33.49420 28.79552
#
# Velocity S-wave (km/s) = 3.23824 3.81781 3.53991
# Velocity P-wave (km/s) = 5.42027 6.46102 5.96340
#
# Compressibility (1/GPa) = 0.02826190
#
# Stress axis : x y z
#
# Youngs Moduli (GPa) = 65.75392 56.97661 109.95661
#
# Poissons Ratio (x) = 0.08911 0.29820
# Poissons Ratio (y) = 0.10284 0.27708
# Poissons Ratio (z) = 0.17833 0.14358
#
# Static dielectric constant tensor:
#      x y z
#    x 1.922340 -0.025390 0.026980 
#    y -0.025390 1.943720 -0.016220 
#    z 0.026980 -0.016220 1.891250 
# 
# From -- ./inp_files/199493.got.cif
#   From: 2010.05.17/outbox.cif.g08.bks.cpg/sg2_100_cif.got.tgz:199493.got - 2010.06.03 11:33:40.
