data_PCOD9086663
_publ_section_title
;
Structure prediction by ZEFSAII (Michael W. Deem and Ramdas Pophale) SiO2 
 PCOD9086663
Probable space group: P -1
;
_chemical_formula_sum "Si O2"
_cell_formula_units_Z 14
_cell_length_a 7.886052
_cell_length_b 11.233228
_cell_length_c 16.771382
_cell_angle_alpha 136.178465
_cell_angle_beta 111.096337
_cell_angle_gamma 41.112393
_cell_volume 618.950446
_symmetry_space_group_name_H-M "P -1"
_symmetry_group_IT_number 2
_symmetry_cell_setting 'triclinic'
loop_
_space_group_symop_operation_xyz
x,y,z
-x,-y,-z
loop_
_atom_site_type_symbol
_atom_site_label
_atom_site_fract_x
_atom_site_fract_y
_atom_site_fract_z
Si Si1 0.718952 0.161570 0.213924
Si Si2 0.592162 0.262057 0.061681
Si Si3 0.700041 0.818042 0.869746
Si Si4 0.334413 0.415204 0.788637
Si Si5 0.240326 0.479464 0.616707
Si Si6 0.031270 0.297412 0.860836
Si Si7 0.602257 0.915663 0.673376
O O1 0.756766 0.144327 0.116395
O O2 0.431191 0.259463 0.226110
O O3 0.712179 0.364251 0.335817
O O4 0.945889 0.877264 0.157829
O O5 0.654363 0.394217 0.092238
O O6 0.258617 0.510816 0.143486
O O7 0.664628 0.027974 0.919993
O O8 0.022395 0.568980 0.827852
O O9 0.500000 0.000000 0.000000
O O10 0.354003 0.393714 0.685098
O O11 0.561991 0.133412 0.733850
O O12 0.384254 0.232292 0.467155
O O13 0.903952 0.685042 0.656907
O O14 0.319014 0.087784 0.758726
O O15 0.000000 0.500000 0.000000
#
# Coordination Sequence:
#
# PCOD9086663 Si02
#       7
#     2   2   2   2   2   2   2
#     4  10  21  40  63  90 129 162 211 255 309 376
#     4  10  22  39  61  94 129 164 206 253 317 380
#     4  10  19  36  59  91 128 162 196 253 312 370
#     4  11  22  41  66  92 125 165 211 261 313 371
#     4  10  24  44  65  93 122 171 215 254 317 366
#     4  12  24  40  64  95 130 166 208 257 320 369
#     4  11  24  43  65  91 130 166 212 264 305 374
#
# _framework density 22.618935
#
# number of rings (size 3 to 8) (size 9 to 14) (size 15 to 20)
#    0.000    1.429    1.429    4.286    2.000    0.571 
#    0.000    9.286    0.000    0.000    0.000    0.000 
#    0.000    0.000    0.000    0.000    0.000    0.000 
#
# Total GULP energy -78249.943743 kJ/mol
# GULP energy per Si atom -5589.281696 kJ/mol
# Density = 2.256745 g / cm^3
# Si number density = 22.618935 Si / 1000 Ang^3
#
#
#
# Elastic Constant Matrix: (Units=GPa)
#
#
# Indices 1 2 3 4 5 6 
#
# 1 95.9295 -2.4640 40.7284 6.4932 8.4975 -3.6796
# 2 -2.4640 76.2431 3.0013 18.5113 -15.3463 14.3241
# 3 40.7284 3.0013 103.2708 9.5854 -12.3212 7.5363
# 4 6.4932 18.5113 9.5854 26.6975 0.3049 4.0144
# 5 8.4975 -15.3463 -12.3212 0.3049 36.6050 12.3571
# 6 -3.6796 14.3241 7.5363 4.0144 12.3571 40.1397
#
#
#
# Elastic Compliance Matrix: (Units=1/GPa)
#
#
# Indices 1 2 3 4 5 6 
#
# 1 0.014384 -0.002039 -0.007049 -0.000366 -0.008608 0.006056
# 2 -0.002039 0.021661 0.004183 -0.014407 0.015103 -0.011911
# 3 -0.007049 0.004183 0.014725 -0.005433 0.011007 -0.007749
# 4 -0.000366 -0.014407 -0.005433 0.048966 -0.009605 0.004187
# 5 -0.008608 0.015103 0.011007 -0.009605 0.046752 -0.021678
# 6 0.006056 -0.011911 -0.007749 0.004187 -0.021678 0.037428
#
#
# Mechanical properties :
#
#
# Convention : Reuss Voigt Hill
#
# Bulk Modulus (GPa) = 24.41390 39.77498 32.09444
# Shear Modulus (GPa) = 24.11050 36.30029 30.20540
#
# Velocity S-wave (km/s) = 3.26842 4.01042 3.65828
# Velocity P-wave (km/s) = 5.00604 6.25041 5.66251
#
# Compressibility (1/GPa) = 0.04096027
#
# Stress axis : x y z
#
# Youngs Moduli (GPa) = 69.52102 46.16591 67.91337
#
# Poissons Ratio (x) = 0.09414 0.47870
# Poissons Ratio (y) = 0.14177 -0.28409
# Poissons Ratio (z) = 0.49003 -0.19312
#
# Static dielectric constant tensor:
#      x y z
#    x 1.932220 0.042840 0.008530 
#    y 0.042840 1.895220 -0.026390 
#    z 0.008530 -0.026390 1.798950 
# 
# From -- ./inp_files/253663.got.cif
#   From: 2010.05.17/outbox.cif.g08.bks.cpg/sg2_127_cif.got.tgz:253663.got - 2010.06.03 11:33:40.
