data_PCOD9086029
_publ_section_title
;
Structure prediction by ZEFSAII (Michael W. Deem and Ramdas Pophale) SiO2 
 PCOD9086029
Probable space group: P -1
;
_chemical_formula_sum "Si O2"
_cell_formula_units_Z 14
_cell_length_a 19.169372
_cell_length_b 8.236911
_cell_length_c 9.112792
_cell_angle_alpha 82.634273
_cell_angle_beta 48.731323
_cell_angle_gamma 46.440180
_cell_volume 627.478183
_symmetry_space_group_name_H-M "P -1"
_symmetry_group_IT_number 2
_symmetry_cell_setting 'triclinic'
loop_
_space_group_symop_operation_xyz
x,y,z
-x,-y,-z
loop_
_atom_site_type_symbol
_atom_site_label
_atom_site_fract_x
_atom_site_fract_y
_atom_site_fract_z
Si Si1 0.146857 0.856638 0.408717
Si Si2 0.205197 0.210107 0.440199
Si Si3 0.996921 0.209691 0.849589
Si Si4 0.368442 0.182394 0.786141
Si Si5 0.003330 0.654673 0.871754
Si Si6 0.215079 0.105146 0.132662
Si Si7 0.451886 0.234716 0.959140
O O1 0.208238 0.944575 0.249669
O O2 0.075059 0.967781 0.659214
O O3 0.300700 0.526730 0.212319
O O4 0.000000 0.000000 0.500000
O O5 0.087120 0.239995 0.655986
O O6 0.168442 0.410875 0.580567
O O7 0.165950 0.299850 0.313476
O O8 0.386056 0.894407 0.240378
O O9 0.027999 0.159328 0.986891
O O10 0.809189 0.512070 0.054488
O O11 0.412278 0.244740 0.846977
O O12 0.500000 0.000000 0.500000
O O13 0.358549 0.009456 0.881497
O O14 0.879678 0.808507 0.893213
O O15 0.000000 0.500000 0.000000
O O16 0.500000 0.000000 0.000000
#
# Coordination Sequence:
#
# PCOD9086029 Si02
#       7
#     2   2   2   2   2   2   2
#     4  11  26  47  72 102 148 182 238 296 358 419
#     4  10  21  38  70 102 133 181 243 284 345 418
#     4  10  22  42  70  98 145 186 234 288 356 414
#     4  12  24  43  69 107 146 186 236 291 350 426
#     4  10  19  35  68 105 132 180 234 274 339 422
#     4  11  23  41  70 104 141 193 230 287 356 414
#     4  12  26  43  72 108 136 181 242 297 351 426
#
# _framework density 22.311532
#
# number of rings (size 3 to 8) (size 9 to 14) (size 15 to 20)
#    0.000    1.143    5.714    1.286    6.000    2.286 
#    0.000    2.857    0.000    0.000    0.000    0.000 
#    0.000    0.000    0.000    0.000    0.000    0.000 
#
# Total GULP energy -78015.411709 kJ/mol
# GULP energy per Si atom -5572.529408 kJ/mol
# Density = 2.226075 g / cm^3
# Si number density = 22.311532 Si / 1000 Ang^3
#
#
#
# Elastic Constant Matrix: (Units=GPa)
#
#
# Indices 1 2 3 4 5 6 
#
# 1 140.3211 33.7628 93.5743 4.1758 30.2134 -32.3340
# 2 33.7628 64.7214 67.0455 -9.2713 11.7405 -4.3535
# 3 93.5743 67.0455 232.5545 4.8016 22.5803 -11.4544
# 4 4.1758 -9.2713 4.8016 51.9815 -1.8334 -2.3897
# 5 30.2134 11.7405 22.5803 -1.8334 66.5281 -6.4688
# 6 -32.3340 -4.3535 -11.4544 -2.3897 -6.4688 33.6537
#
#
#
# Elastic Compliance Matrix: (Units=1/GPa)
#
#
# Indices 1 2 3 4 5 6 
#
# 1 0.013421 -0.001507 -0.004099 -0.000602 -0.003423 0.010604
# 2 -0.001507 0.023526 -0.006171 0.004823 -0.001279 -0.000409
# 3 -0.004099 -0.006171 0.007642 -0.001576 0.000097 -0.002229
# 4 -0.000602 0.004823 -0.001576 0.020363 0.000623 0.001075
# 5 -0.003423 -0.001279 0.000097 0.000623 0.016781 -0.000152
# 6 0.010604 -0.000409 -0.002229 0.001075 -0.000152 0.039138
#
#
# Mechanical properties :
#
#
# Convention : Reuss Voigt Hill
#
# Bulk Modulus (GPa) = 47.54277 91.81801 69.68039
# Shear Modulus (GPa) = 33.01709 46.64696 39.83202
#
# Velocity S-wave (km/s) = 3.85102 4.57739 4.22982
# Velocity P-wave (km/s) = 6.41316 8.31737 7.42655
#
# Compressibility (1/GPa) = 0.02103369
#
# Stress axis : x y z
#
# Youngs Moduli (GPa) = 74.51148 42.50669 130.85852
#
# Poissons Ratio (x) = 0.06407 0.53632
# Poissons Ratio (y) = 0.11231 0.80759
# Poissons Ratio (z) = 0.30539 0.26233
#
# Static dielectric constant tensor:
#      x y z
#    x 1.970700 0.058660 0.015190 
#    y 0.058660 1.906780 0.047140 
#    z 0.015190 0.047140 1.882120 
# 
# From -- ./inp_files/343514.got.cif
#   From: 2010.05.17/outbox.cif.g08.bks.cpg/sg2_172_cif.got.tgz:343514.got - 2010.06.03 11:33:40.
