data_PCOD9086025
_publ_section_title
;
Structure prediction by ZEFSAII (Michael W. Deem and Ramdas Pophale) SiO2 
 PCOD9086025
Probable space group: P -1
;
_chemical_formula_sum "Si O2"
_cell_formula_units_Z 14
_cell_length_a 17.957440
_cell_length_b 9.146117
_cell_length_c 17.091499
_cell_angle_alpha 35.125507
_cell_angle_beta 25.338519
_cell_angle_gamma 36.224555
_cell_volume 664.744095
_symmetry_space_group_name_H-M "P -1"
_symmetry_group_IT_number 2
_symmetry_cell_setting 'triclinic'
loop_
_space_group_symop_operation_xyz
x,y,z
-x,-y,-z
loop_
_atom_site_type_symbol
_atom_site_label
_atom_site_fract_x
_atom_site_fract_y
_atom_site_fract_z
Si Si1 0.583001 0.754900 0.141384
Si Si2 0.142741 0.526274 0.526091
Si Si3 0.626547 0.905565 0.209225
Si Si4 0.656482 0.569109 0.769704
Si Si5 0.424726 0.283291 0.490778
Si Si6 0.857012 0.309488 0.831747
Si Si7 0.751789 0.808616 0.800028
O O1 0.562522 0.462783 0.275800
O O2 0.388073 0.962960 0.215003
O O3 0.642483 0.781514 0.162155
O O4 0.711312 0.826605 0.922373
O O5 0.245175 0.439173 0.546786
O O6 0.284440 0.567252 0.309540
O O7 0.058102 0.291522 0.678016
O O8 0.962283 0.766233 0.599124
O O9 0.622090 0.739910 0.363629
O O10 0.431392 0.124837 0.297243
O O11 0.782923 0.056318 0.006177
O O12 0.825613 0.465659 0.711224
O O13 0.500000 0.500000 0.000000
O O14 0.500000 0.000000 0.500000
O O15 0.730031 0.523089 0.917822
#
# Coordination Sequence:
#
# PCOD9086025 Si02
#       7
#     2   2   2   2   2   2   2
#     4  11  23  41  66  95 132 163 217 265 325 374
#     4  10  22  40  63  98 125 163 220 259 314 382
#     4  11  21  40  63  95 125 171 211 261 320 378
#     4  10  19  35  67  98 123 161 210 265 316 374
#     4  12  25  41  64  88 129 180 217 252 314 392
#     4   9  20  38  66  93 120 161 214 262 320 364
#     4   9  22  41  66  97 124 169 208 273 322 362
#
# _framework density 21.060735000000001
#
# number of rings (size 3 to 8) (size 9 to 14) (size 15 to 20)
#    0.857    0.857    2.857    1.714    2.000    2.286 
#    0.000    2.143    0.000    0.000    0.000    0.000 
#    0.000    0.000    0.000    0.000    0.000    0.000 
#
# Total GULP energy -78029.246668 kJ/mol
# GULP energy per Si atom -5573.517619 kJ/mol
# Density = 2.101280 g / cm^3
# Si number density = 21.060735 Si / 1000 Ang^3
#
#
#
# Elastic Constant Matrix: (Units=GPa)
#
#
# Indices 1 2 3 4 5 6 
#
# 1 139.2792 15.6803 43.4201 -2.0792 34.1707 18.3984
# 2 15.6803 60.9995 31.1777 9.3898 4.3791 20.4534
# 3 43.4201 31.1777 86.9454 4.9933 0.0844 17.3756
# 4 -2.0792 9.3898 4.9933 30.7071 16.8228 -7.7326
# 5 34.1707 4.3791 0.0844 16.8228 36.4087 -1.1708
# 6 18.3984 20.4534 17.3756 -7.7326 -1.1708 20.5909
#
#
#
# Elastic Compliance Matrix: (Units=1/GPa)
#
#
# Indices 1 2 3 4 5 6 
#
# 1 0.015112 0.001564 -0.007622 0.011178 -0.019697 -0.005547
# 2 0.001564 0.034745 -0.003856 -0.021868 0.003157 -0.040690
# 3 -0.007622 -0.003856 0.019202 -0.011749 0.012704 -0.009253
# 4 0.011178 -0.021868 -0.011749 0.076982 -0.041854 0.048178
# 5 -0.019697 0.003157 0.012704 -0.041854 0.064615 -0.008300
# 6 -0.005547 -0.040690 -0.009253 0.048178 -0.008300 0.119369
#
#
# Mechanical properties :
#
#
# Convention : Reuss Voigt Hill
#
# Bulk Modulus (GPa) = 20.31202 51.97560 36.14381
# Shear Modulus (GPa) = 13.65140 30.67106 22.16123
#
# Velocity S-wave (km/s) = 2.54872 3.82031 3.24736
# Velocity P-wave (km/s) = 4.28098 6.64772 5.59102
#
# Compressibility (1/GPa) = 0.04923193
#
# Stress axis : x y z
#
# Youngs Moduli (GPa) = 66.17297 28.78079 52.07729
#
# Poissons Ratio (x) = -0.04503 0.39694
# Poissons Ratio (y) = -0.10352 0.20082
# Poissons Ratio (z) = 0.50438 0.11098
#
# Static dielectric constant tensor:
#      x y z
#    x 1.796740 0.023790 -0.023290 
#    y 0.023790 1.778310 -0.012300 
#    z -0.023290 -0.012300 1.809120 
# 
# From -- ./inp_files/575353.got.cif
#   From: 2010.05.17/outbox.cif.g08.bks.cpg/sg2_288_cif.got.tgz:575353.got - 2010.06.03 11:33:40.
