data_PCOD9086915
_publ_section_title
;
Structure prediction by ZEFSAII (Michael W. Deem and Ramdas Pophale) SiO2 
 PCOD9086915
Probable space group: P -1
;
_chemical_formula_sum "Si O2"
_cell_formula_units_Z 16
_cell_length_a 6.741532
_cell_length_b 22.303584
_cell_length_c 23.661775
_cell_angle_alpha 167.337731
_cell_angle_beta 73.506151
_cell_angle_gamma 111.694791
_cell_volume 671.209335
_symmetry_space_group_name_H-M "P -1"
_symmetry_group_IT_number 2
_symmetry_cell_setting 'triclinic'
loop_
_space_group_symop_operation_xyz
x,y,z
-x,-y,-z
loop_
_atom_site_type_symbol
_atom_site_label
_atom_site_fract_x
_atom_site_fract_y
_atom_site_fract_z
Si Si1 0.628496 0.144079 0.463389
Si Si2 0.576027 0.310966 0.244695
Si Si3 0.628301 0.429297 0.126208
Si Si4 0.987697 0.702757 0.259109
Si Si5 0.319805 0.067808 0.912339
Si Si6 0.400408 0.716597 0.182292
Si Si7 0.939805 0.503462 0.676476
Si Si8 0.732556 0.417821 0.448035
O O1 0.488844 0.344243 0.663256
O O2 0.868865 0.359650 0.612624
O O3 0.602019 0.988728 0.383106
O O4 0.504055 0.868193 0.175565
O O5 0.701171 0.527589 0.489247
O O6 0.373201 0.415143 0.347792
O O7 0.791928 0.377134 0.248069
O O8 0.500000 0.000000 0.000000
O O9 0.881233 0.614967 0.249623
O O10 0.558019 0.295606 0.071911
O O11 0.247824 0.753891 0.278715
O O12 0.797707 0.436428 0.990717
O O13 0.000000 0.000000 0.500000
O O14 0.194284 0.770826 0.609450
O O15 0.367737 0.933392 0.843468
O O16 0.158984 0.244705 0.090575
O O17 0.500000 0.500000 0.000000
O O18 0.000000 0.500000 0.500000
#
# Coordination Sequence:
#
# PCOD9086915 Si02
#       8
#     2   2   2   2   2   2   2   2
#     4   9  18  36  59  85 120 160 196 244 302 353
#     4  11  25  39  63  91 123 158 200 249 303 360
#     4   9  18  35  60  87 116 161 201 240 302 355
#     4  10  19  36  61  82 121 159 197 249 299 350
#     4  10  21  38  65  89 118 162 204 244 297 360
#     4  10  21  36  58  89 117 158 204 247 295 355
#     4  10  21  39  64  88 120 162 199 244 304 358
#     4  11  23  41  63  90 120 158 201 249 300 356
#
# _framework density 23.837571000000001
#
# number of rings (size 3 to 8) (size 9 to 14) (size 15 to 20)
#    0.000    2.000    2.500    0.750    3.500    1.500 
#    2.250    0.000    2.750    0.000    0.000    0.000 
#    0.000    0.000    0.000    0.000    0.000    0.000 
#
# Total GULP energy -89206.668786 kJ/mol
# GULP energy per Si atom -5575.416799 kJ/mol
# Density = 2.378332 g / cm^3
# Si number density = 23.837571 Si / 1000 Ang^3
#
#
#
# Elastic Constant Matrix: (Units=GPa)
#
#
# Indices 1 2 3 4 5 6 
#
# 1 81.5613 73.3593 23.8767 7.9069 -18.4864 31.6951
# 2 73.3593 234.7278 62.0637 44.2920 -33.1515 51.0080
# 3 23.8767 62.0637 141.6260 2.3181 -35.3237 22.7109
# 4 7.9069 44.2920 2.3181 55.4384 3.5044 0.3719
# 5 -18.4864 -33.1515 -35.3237 3.5044 37.7335 -5.9516
# 6 31.6951 51.0080 22.7109 0.3719 -5.9516 59.5571
#
#
#
# Elastic Compliance Matrix: (Units=1/GPa)
#
#
# Indices 1 2 3 4 5 6 
#
# 1 0.019602 -0.004147 0.001048 0.000148 0.005871 -0.006694
# 2 -0.004147 0.008649 -0.001212 -0.006515 0.004365 -0.004261
# 3 0.001048 -0.001212 0.009888 -0.000104 0.008327 -0.002457
# 4 0.000148 -0.006515 -0.000104 0.023651 -0.007208 0.004673
# 5 0.005871 0.004365 0.008327 -0.007208 0.040744 -0.005922
# 6 -0.006694 -0.004261 -0.002457 0.004673 -0.005922 0.024318
#
#
# Mechanical properties :
#
#
# Convention : Reuss Voigt Hill
#
# Bulk Modulus (GPa) = 33.88053 86.27939 60.07996
# Shear Modulus (GPa) = 34.40863 50.45350 42.43106
#
# Velocity S-wave (km/s) = 3.80341 4.60559 4.22359
# Velocity P-wave (km/s) = 5.79067 8.03463 7.00311
#
# Compressibility (1/GPa) = 0.02951548
#
# Stress axis : x y z
#
# Youngs Moduli (GPa) = 51.01581 115.62495 101.13184
#
# Poissons Ratio (x) = 0.47954 -0.10600
# Poissons Ratio (y) = 0.21158 0.12260
# Poissons Ratio (z) = -0.05347 0.14017
#
# Static dielectric constant tensor:
#      x y z
#    x 2.134320 -0.224710 0.363260 
#    y -0.224710 2.137720 -0.282830 
#    z 0.363260 -0.282830 2.315100 
# 
# From -- ./inp_files/14945.got.cif
#   From: 2010.05.17/outbox.cif.g08.bks.cpg/sg2_8_cif.got.tgz:14945.got - 2010.06.03 11:33:40.
