data_PCOD9086657
_publ_section_title
;
Structure prediction by ZEFSAII (Michael W. Deem and Ramdas Pophale) SiO2 
 PCOD9086657
Probable space group: P -1
;
_chemical_formula_sum "Si O2"
_cell_formula_units_Z 15
_cell_length_a 20.077164
_cell_length_b 7.373672
_cell_length_c 17.751711
_cell_angle_alpha 49.587221
_cell_angle_beta 20.211134
_cell_angle_gamma 59.520972
_cell_volume 638.137503
_symmetry_space_group_name_H-M "P -1"
_symmetry_group_IT_number 2
_symmetry_cell_setting 'triclinic'
loop_
_space_group_symop_operation_xyz
x,y,z
-x,-y,-z
loop_
_atom_site_type_symbol
_atom_site_label
_atom_site_fract_x
_atom_site_fract_y
_atom_site_fract_z
Si Si1 0.204677 0.821418 0.676944
Si Si2 0.246211 0.337336 0.255725
Si Si3 0.649741 0.645802 0.687701
Si Si4 0.478945 0.603332 0.353801
Si Si5 0.223948 0.876720 0.177228
Si Si6 0.176989 0.571719 0.550652
Si Si7 0.157138 0.523018 0.946411
Si Si8 0.500000 0.000000 0.000000
O O1 0.327477 0.646867 0.564587
O O2 0.990364 0.722395 0.882077
O O3 0.351036 0.108755 0.421169
O O4 0.160896 0.762716 0.826846
O O5 0.314863 0.297359 0.277583
O O6 0.231798 0.621650 0.197163
O O7 0.009668 0.150157 0.548446
O O8 0.437599 0.378600 0.982046
O O9 0.838428 0.596189 0.462018
O O10 0.333265 0.507929 0.460180
O O11 0.610144 0.449815 0.289517
O O12 0.655700 0.876469 0.067739
O O13 0.337249 0.903734 0.128564
O O14 0.967404 0.513867 0.833573
O O15 0.302835 0.858782 0.310648
#
# Coordination Sequence:
#
# PCOD9086657 Si02
#       8
#     2   2   2   2   2   2   2   1
#     4  10  21  39  64  86 113 158 206 251 307 354
#     4  10  21  34  61  89 122 155 203 245 304 359
#     4  11  21  39  59  87 125 160 193 260 306 352
#     4  10  20  39  60  86 117 155 202 251 300 359
#     4  10  19  36  59  91 116 156 203 245 296 376
#     4  10  23  37  59  87 123 158 199 244 310 361
#     4  10  22  40  61  86 116 157 208 252 295 367
#     4  10  20  38  60  82 130 160 188 248 302 362
#
# _framework density 23.505904000000001
#
# number of rings (size 3 to 8) (size 9 to 14) (size 15 to 20)
#    0.000    1.867    2.667    1.200    0.000    2.667 
#    0.000    3.333    0.000    0.000    0.000    0.000 
#    0.000    0.000    0.000    0.000    0.000    0.000 
#
# Total GULP energy -83630.490403 kJ/mol
# GULP energy per Si atom -5575.366027 kJ/mol
# Density = 2.345240 g / cm^3
# Si number density = 23.505904 Si / 1000 Ang^3
#
#
#
# Elastic Constant Matrix: (Units=GPa)
#
#
# Indices 1 2 3 4 5 6 
#
# 1 29.7649 1.3523 22.4805 1.9415 13.6639 -5.1977
# 2 1.3523 24.4688 12.1089 5.5901 13.0129 -4.9656
# 3 22.4805 12.1089 110.5982 5.0585 11.9845 -6.9256
# 4 1.9415 5.5901 5.0585 29.6214 -8.6926 4.6689
# 5 13.6639 13.0129 11.9845 -8.6926 49.4000 5.1912
# 6 -5.1977 -4.9656 -6.9256 4.6689 5.1912 28.0258
#
#
#
# Elastic Compliance Matrix: (Units=1/GPa)
#
#
# Indices 1 2 3 4 5 6 
#
# 1 0.054237 0.021025 -0.008955 -0.015671 -0.023064 0.018454
# 2 0.021025 0.069487 -0.005906 -0.026133 -0.029874 0.024639
# 3 -0.008955 -0.005906 0.011345 0.000184 0.001332 -0.000181
# 4 -0.015671 -0.026133 0.000184 0.049230 0.021912 -0.019751
# 5 -0.023064 -0.029874 0.001332 0.021912 0.040161 -0.020331
# 6 0.018454 0.024639 -0.000181 -0.019751 -0.020331 0.050481
#
#
# Mechanical properties :
#
#
# Convention : Reuss Voigt Hill
#
# Bulk Modulus (GPa) = 6.78437 26.30170 16.54304
# Shear Modulus (GPa) = 16.03872 30.00213 23.02042
#
# Velocity S-wave (km/s) = 2.61497 3.57650 3.13285
# Velocity P-wave (km/s) = 3.46554 5.31685 4.48769
#
# Compressibility (1/GPa) = 0.14739755
#
# Stress axis : x y z
#
# Youngs Moduli (GPa) = 18.43750 14.39111 88.14839
#
# Poissons Ratio (x) = -0.30257 0.78935
# Poissons Ratio (y) = -0.38765 0.52061
# Poissons Ratio (z) = 0.16510 0.08500
#
# Static dielectric constant tensor:
#      x y z
#    x 1.888130 0.021330 -0.021350 
#    y 0.021330 1.844750 -0.007180 
#    z -0.021350 -0.007180 1.903680 
# 
# From -- ./inp_files/348731.got.cif
#   From: 2010.05.17/outbox.cif.g08.bks.cpg/sg2_175_cif.got.tgz:348731.got - 2010.06.03 11:33:40.
