data_PCOD9086213
_publ_section_title
;
Structure prediction by ZEFSAII (Michael W. Deem and Ramdas Pophale) SiO2 
 PCOD9086213
Probable space group: P -1
;
_chemical_formula_sum "Si O2"
_cell_formula_units_Z 14
_cell_length_a 13.802116
_cell_length_b 9.184592
_cell_length_c 7.100353
_cell_angle_alpha 66.375552
_cell_angle_beta 133.386021
_cell_angle_gamma 103.893061
_cell_volume 598.474848
_symmetry_space_group_name_H-M "P -1"
_symmetry_group_IT_number 2
_symmetry_cell_setting 'triclinic'
loop_
_space_group_symop_operation_xyz
x,y,z
-x,-y,-z
loop_
_atom_site_type_symbol
_atom_site_label
_atom_site_fract_x
_atom_site_fract_y
_atom_site_fract_z
Si Si1 0.090991 0.848746 0.139399
Si Si2 0.881860 0.790020 0.317558
Si Si3 0.348396 0.665327 0.625343
Si Si4 0.690868 0.417834 0.815619
Si Si5 0.836391 0.114782 0.227595
Si Si6 0.363611 0.359303 0.076826
Si Si7 0.016729 0.482343 0.811603
O O1 0.239360 0.809705 0.438053
O O2 0.012607 0.696524 0.177491
O O3 0.113347 0.855983 0.938301
O O4 0.000000 0.000000 0.000000
O O5 0.756702 0.760973 0.026287
O O6 0.037094 0.845356 0.493913
O O7 0.914031 0.609651 0.518156
O O8 0.819568 0.925932 0.306431
O O9 0.314448 0.592664 0.411261
O O10 0.340863 0.521261 0.837247
O O11 0.498945 0.719057 0.782121
O O12 0.705283 0.234521 0.005202
O O13 0.603783 0.562950 0.717121
O O14 0.834806 0.472901 0.051403
O O15 0.000000 0.500000 0.000000
#
# Coordination Sequence:
#
# PCOD9086213 Si02
#       7
#     2   2   2   2   2   2   2
#     4  11  22  37  61  87 124 159 205 259 313 355
#     4  10  19  36  56  89 120 157 201 252 300 366
#     4  10  22  42  60  89 127 162 204 260 296 369
#     4  10  21  38  63  88 123 162 207 251 310 358
#     4   9  21  36  56  88 130 155 194 266 312 345
#     4  11  22  37  68  88 120 168 213 237 307 381
#     4  11  18  37  60  87 121 164 202 259 311 356
#
# _framework density 23.392795
#
# number of rings (size 3 to 8) (size 9 to 14) (size 15 to 20)
#    0.000    1.714    5.714    0.429    2.000    5.714 
#    0.000    2.857    3.143    2.571    0.000    0.000 
#    0.000    0.000    0.000    0.000    0.000    0.000 
#
# Total GULP energy -77982.789794 kJ/mol
# GULP energy per Si atom -5570.199271 kJ/mol
# Density = 2.333955 g / cm^3
# Si number density = 23.392795 Si / 1000 Ang^3
#
#
#
# Elastic Constant Matrix: (Units=GPa)
#
#
# Indices 1 2 3 4 5 6 
#
# 1 53.4072 3.0114 10.4330 1.5915 10.6161 -10.4007
# 2 3.0114 123.3239 14.4675 -6.5130 6.6679 -15.3869
# 3 10.4330 14.4675 41.5593 1.4392 -1.6111 1.2253
# 4 1.5915 -6.5130 1.4392 49.2476 -8.0958 -0.2996
# 5 10.6161 6.6679 -1.6111 -8.0958 39.5324 -0.0244
# 6 -10.4007 -15.3869 1.2253 -0.2996 -0.0244 28.2350
#
#
#
# Elastic Compliance Matrix: (Units=1/GPa)
#
#
# Indices 1 2 3 4 5 6 
#
# 1 0.023380 0.001795 -0.007013 -0.001429 -0.007154 0.009874
# 2 0.001795 0.009449 -0.004030 0.001012 -0.002029 0.005994
# 3 -0.007013 -0.004030 0.027560 -0.000562 0.003568 -0.005979
# 4 -0.001429 0.001012 -0.000562 0.021250 0.004542 0.000279
# 5 -0.007154 -0.002029 0.003568 0.004542 0.028632 -0.003823
# 6 0.009874 0.005994 -0.005979 0.000279 -0.003823 0.042580
#
#
# Mechanical properties :
#
#
# Convention : Reuss Voigt Hill
#
# Bulk Modulus (GPa) = 23.87108 30.45715 27.16412
# Shear Modulus (GPa) = 26.98153 36.09492 31.53822
#
# Velocity S-wave (km/s) = 3.39988 3.93236 3.67577
# Velocity P-wave (km/s) = 5.06348 5.80225 5.44541
#
# Compressibility (1/GPa) = 0.04189169
#
# Stress axis : x y z
#
# Youngs Moduli (GPa) = 42.77112 105.83381 36.28493
#
# Poissons Ratio (x) = -0.18998 0.25447
# Poissons Ratio (y) = -0.07678 0.14624
# Poissons Ratio (z) = 0.29996 0.42655
#
# Static dielectric constant tensor:
#      x y z
#    x 1.998840 -0.054130 -0.022350 
#    y -0.054130 1.917090 -0.017260 
#    z -0.022350 -0.017260 1.876330 
# 
# From -- ./inp_files/233876.got.cif
#   From: 2010.05.17/outbox.cif.g08.bks.cpg/sg2_117_cif.got.tgz:233876.got - 2010.06.03 11:33:40.
