data_PCOD9086646
_publ_section_title
;
Structure prediction by ZEFSAII (Michael W. Deem and Ramdas Pophale) SiO2 
 PCOD9086646
Probable space group: P -1
;
_chemical_formula_sum "Si O2"
_cell_formula_units_Z 16
_cell_length_a 8.670688
_cell_length_b 21.699069
_cell_length_c 5.172099
_cell_angle_alpha 115.936993
_cell_angle_beta 117.437059
_cell_angle_gamma 54.900140
_cell_volume 686.384161
_symmetry_space_group_name_H-M "P -1"
_symmetry_group_IT_number 2
_symmetry_cell_setting 'triclinic'
loop_
_space_group_symop_operation_xyz
x,y,z
-x,-y,-z
loop_
_atom_site_type_symbol
_atom_site_label
_atom_site_fract_x
_atom_site_fract_y
_atom_site_fract_z
Si Si1 0.664304 0.910436 0.443579
Si Si2 0.494025 0.891116 0.772828
Si Si3 0.516835 0.582908 0.806598
Si Si4 0.250967 0.810455 0.185152
Si Si5 0.765327 0.615183 0.428149
Si Si6 0.789886 0.460448 0.422444
Si Si7 0.116729 0.048857 0.701265
Si Si8 0.398559 0.715382 0.606709
O O1 0.657491 0.877671 0.657960
O O2 0.848272 0.916469 0.474601
O O3 0.500000 0.000000 0.500000
O O4 0.591587 0.871070 0.092734
O O5 0.378324 0.847558 0.487899
O O6 0.330053 0.982367 0.832135
O O7 0.689687 0.500790 0.691334
O O8 0.360522 0.570971 0.837513
O O9 0.397838 0.638468 0.579136
O O10 0.629976 0.626218 0.096484
O O11 0.270728 0.748995 0.310404
O O12 0.028568 0.877641 0.111047
O O13 0.327713 0.775453 0.898675
O O14 0.783232 0.533676 0.399315
O O15 0.626692 0.683666 0.637432
O O16 0.982204 0.602163 0.513448
O O17 0.000000 0.000000 0.500000
#
# Coordination Sequence:
#
# PCOD9086646 Si02
#       8
#     2   2   2   2   2   2   2   2
#     4  10  19  36  59  89 120 144 184 259 320 363
#     4  10  21  38  62  88 117 153 201 259 313 356
#     4  10  19  38  63  93 131 160 207 260 315 359
#     4  11  23  41  61  83 120 166 206 246 307 370
#     4  10  19  38  63  92 129 162 210 254 318 362
#     4   9  20  34  65 103 118 163 206 265 306 374
#     4   9  20  37  62  90 114 152 203 255 307 360
#     4  11  23  40  61  82 124 174 200 249 306 375
#
# _framework density 23.310559999999999
#
# number of rings (size 3 to 8) (size 9 to 14) (size 15 to 20)
#    0.000    2.000    1.250    3.000    0.000    3.000 
#    0.000   14.375    2.750    0.000    0.000    0.000 
#    0.000    0.000    0.000    0.000    0.000    0.000 
#
# Total GULP energy -89219.002398 kJ/mol
# GULP energy per Si atom -5576.187650 kJ/mol
# Density = 2.325750 g / cm^3
# Si number density = 23.310560 Si / 1000 Ang^3
#
#
#
# Elastic Constant Matrix: (Units=GPa)
#
#
# Indices 1 2 3 4 5 6 
#
# 1 130.7239 34.0441 37.8244 3.8330 2.3993 -28.9525
# 2 34.0441 79.1052 23.2264 7.4596 -14.1162 -22.7119
# 3 37.8244 23.2264 110.1155 4.3634 -23.7478 -15.3491
# 4 3.8330 7.4596 4.3634 27.1699 -9.7590 -7.9437
# 5 2.3993 -14.1162 -23.7478 -9.7590 33.4179 6.7106
# 6 -28.9525 -22.7119 -15.3491 -7.9437 6.7106 32.7807
#
#
#
# Elastic Compliance Matrix: (Units=1/GPa)
#
#
# Indices 1 2 3 4 5 6 
#
# 1 0.011137 -0.002649 -0.003498 -0.000229 -0.005984 0.007532
# 2 -0.002649 0.017269 -0.000370 0.000137 0.005587 0.008341
# 3 -0.003498 -0.000370 0.012451 0.002295 0.009388 0.001118
# 4 -0.000229 0.000137 0.002295 0.043585 0.012638 0.008942
# 5 -0.005984 0.005587 0.009388 0.012638 0.043657 -0.002893
# 6 0.007532 0.008341 0.001118 0.008942 -0.002893 0.046220
#
#
# Mechanical properties :
#
#
# Convention : Reuss Voigt Hill
#
# Bulk Modulus (GPa) = 35.94458 56.68158 46.31308
# Shear Modulus (GPa) = 25.42884 33.66369 29.54626
#
# Velocity S-wave (km/s) = 3.30642 3.80431 3.56407
# Velocity P-wave (km/s) = 5.47995 6.60800 6.07023
#
# Compressibility (1/GPa) = 0.02782060
#
# Stress axis : x y z
#
# Youngs Moduli (GPa) = 89.79437 57.90667 80.31707
#
# Poissons Ratio (x) = 0.15342 0.28096
# Poissons Ratio (y) = 0.23790 0.02975
# Poissons Ratio (z) = 0.31411 0.02145
#
# Static dielectric constant tensor:
#      x y z
#    x 1.852590 0.000940 0.052230 
#    y 0.000940 1.913580 0.020850 
#    z 0.052230 0.020850 1.929920 
# 
# From -- ./inp_files/55172.got.cif
#   From: 2010.05.17/outbox.cif.g08.bks.cpg/sg2_28_cif.got.tgz:55172.got - 2010.06.03 11:33:40.
