data_PCOD9086507
_publ_section_title
;
Structure prediction by ZEFSAII (Michael W. Deem and Ramdas Pophale) SiO2 
 PCOD9086507
Probable space group: P -1
;
_chemical_formula_sum "Si O2"
_cell_formula_units_Z 16
_cell_length_a 9.470135
_cell_length_b 20.341230
_cell_length_c 11.505055
_cell_angle_alpha 25.730832
_cell_angle_beta 133.459169
_cell_angle_gamma 137.387337
_cell_volume 649.097359
_symmetry_space_group_name_H-M "P -1"
_symmetry_group_IT_number 2
_symmetry_cell_setting 'triclinic'
loop_
_space_group_symop_operation_xyz
x,y,z
-x,-y,-z
loop_
_atom_site_type_symbol
_atom_site_label
_atom_site_fract_x
_atom_site_fract_y
_atom_site_fract_z
Si Si1 0.761585 0.391948 0.001373
Si Si2 0.103910 0.903716 0.500267
Si Si3 0.998143 0.248331 0.068527
Si Si4 0.703404 0.447453 0.625754
Si Si5 0.354108 0.175293 0.717610
Si Si6 0.387097 0.243643 0.181247
Si Si7 0.981177 0.335471 0.684285
Si Si8 0.423246 0.855475 0.341582
O O1 0.767984 0.211492 0.273267
O O2 0.588873 0.375072 0.028180
O O3 0.682471 0.454115 0.741050
O O4 0.000000 0.500000 0.000000
O O5 0.040949 0.872574 0.652164
O O6 0.887008 0.844772 0.399233
O O7 0.239632 0.094230 0.255789
O O8 0.240271 0.315462 0.058404
O O9 0.906450 0.199650 0.962039
O O10 0.885956 0.369298 0.851818
O O11 0.508110 0.325044 0.640499
O O12 0.802927 0.614840 0.342927
O O13 0.444842 0.179440 0.632748
O O14 0.382343 0.019942 0.039331
O O15 0.469597 0.145905 0.475610
O O16 0.000000 0.500000 0.500000
O O17 0.801536 0.286836 0.566016
#
# Coordination Sequence:
#
# PCOD9086507 Si02
#       8
#     2   2   2   2   2   2   2   2
#     4  11  26  49  65  89 131 179 219 264 316 386
#     4  11  24  42  66  97 131 171 216 263 323 385
#     4  10  20  36  65  99 127 160 211 266 317 381
#     4  10  22  44  66  90 133 172 213 266 324 380
#     4  11  22  38  66  97 131 164 208 269 326 377
#     4  12  24  41  68  98 129 171 215 265 325 384
#     4  10  19  36  58  91 128 167 207 256 320 375
#     4  11  21  35  62  98 132 161 204 265 328 373
#
# _framework density 24.649616000000002
#
# number of rings (size 3 to 8) (size 9 to 14) (size 15 to 20)
#    0.000    1.250    3.750    3.750    3.500    1.000 
#    0.000   10.625    0.000    0.000    0.000    0.000 
#    0.000    0.000    0.000    0.000    0.000    0.000 
#
# Total GULP energy -89414.093696 kJ/mol
# GULP energy per Si atom -5588.380856 kJ/mol
# Density = 2.459351 g / cm^3
# Si number density = 24.649616 Si / 1000 Ang^3
#
#
#
# Elastic Constant Matrix: (Units=GPa)
#
#
# Indices 1 2 3 4 5 6 
#
# 1 103.7750 23.4158 32.9683 -4.8707 -3.8674 18.6846
# 2 23.4158 133.4899 41.8584 -9.6423 -15.0393 25.6610
# 3 32.9683 41.8584 83.0173 4.0908 -6.0784 -2.5980
# 4 -4.8707 -9.6423 4.0908 35.7460 -5.6667 -3.8872
# 5 -3.8674 -15.0393 -6.0784 -5.6667 43.2754 -1.0769
# 6 18.6846 25.6610 -2.5980 -3.8872 -1.0769 31.4617
#
#
#
# Elastic Compliance Matrix: (Units=1/GPa)
#
#
# Indices 1 2 3 4 5 6 
#
# 1 0.013127 0.001811 -0.006460 0.002131 0.000937 -0.009511
# 2 0.001811 0.012212 -0.007141 0.003731 0.003617 -0.011041
# 3 -0.006460 -0.007141 0.018689 -0.003889 -0.000677 0.010701
# 4 0.002131 0.003731 -0.003889 0.030418 0.004906 -0.000703
# 5 0.000937 0.003617 -0.000677 0.004906 0.024944 -0.002102
# 6 -0.009511 -0.011041 0.010701 -0.000703 -0.002102 0.047164
#
#
# Mechanical properties :
#
#
# Convention : Reuss Voigt Hill
#
# Bulk Modulus (GPa) = 48.90641 57.41857 53.16249
# Shear Modulus (GPa) = 28.25635 36.89926 32.57781
#
# Velocity S-wave (km/s) = 3.38941 3.87324 3.63937
# Velocity P-wave (km/s) = 5.93306 6.58385 6.26691
#
# Compressibility (1/GPa) = 0.02044722
#
# Stress axis : x y z
#
# Youngs Moduli (GPa) = 76.17602 81.88500 53.50741
#
# Poissons Ratio (x) = -0.14829 0.34568
# Poissons Ratio (y) = -0.13796 0.38211
# Poissons Ratio (z) = 0.49213 0.58477
#
# Static dielectric constant tensor:
#      x y z
#    x 2.036780 0.032100 -0.018330 
#    y 0.032100 1.940720 0.039490 
#    z -0.018330 0.039490 2.076400 
# 
# From -- ./inp_files/244231.got.cif
#   From: 2010.05.17/outbox.cif.g08.bks.cpg/sg2_123_cif.got.tgz:244231.got - 2010.06.03 11:33:40.
