data_PCOD9086978
_publ_section_title
;
Structure prediction by ZEFSAII (Michael W. Deem and Ramdas Pophale) SiO2 
 PCOD9086978
Probable space group: P -1
;
_chemical_formula_sum "Si O2"
_cell_formula_units_Z 16
_cell_length_a 15.219803
_cell_length_b 9.827106
_cell_length_c 13.517497
_cell_angle_alpha 93.834285
_cell_angle_beta 123.904632
_cell_angle_gamma 37.854460
_cell_volume 699.934463
_symmetry_space_group_name_H-M "P -1"
_symmetry_group_IT_number 2
_symmetry_cell_setting 'triclinic'
loop_
_space_group_symop_operation_xyz
x,y,z
-x,-y,-z
loop_
_atom_site_type_symbol
_atom_site_label
_atom_site_fract_x
_atom_site_fract_y
_atom_site_fract_z
Si Si1 0.727060 0.904136 0.666961
Si Si2 0.039242 0.633706 0.109251
Si Si3 0.877516 0.077564 0.133747
Si Si4 0.708410 0.302425 0.246865
Si Si5 0.732164 0.959192 0.278161
Si Si6 0.776174 0.737485 0.486845
Si Si7 0.534485 0.736708 0.292886
Si Si8 0.842716 0.399586 0.036642
O O1 0.640196 0.949617 0.509532
O O2 0.834148 0.650639 0.784246
O O3 0.521615 0.216704 0.623340
O O4 0.958284 0.737872 0.789450
O O5 0.149996 0.559027 0.070803
O O6 0.044683 0.751554 0.196092
O O7 0.744020 0.944550 0.915890
O O8 0.876863 0.134581 0.247766
O O9 0.589234 0.361137 0.953209
O O10 0.922147 0.149180 0.089421
O O11 0.706835 0.420025 0.335018
O O12 0.767421 0.079225 0.303995
O O13 0.783703 0.844569 0.414873
O O14 0.939874 0.642666 0.325319
O O15 0.443528 0.259785 0.086438
O O16 0.652039 0.749259 0.360533
#
# Coordination Sequence:
#
# PCOD9086978 Si02
#       8
#     2   2   2   2   2   2   2   2
#     4  11  22  37  59  86 113 148 191 230 276 333
#     4  10  19  36  61  87 114 145 184 231 283 332
#     4   9  18  33  59  89 112 140 185 236 280 331
#     4   9  19  37  58  82 113 149 187 228 280 335
#     4  10  22  39  57  82 114 150 186 231 284 329
#     4  11  23  38  57  82 116 152 189 230 274 333
#     4  10  21  38  59  83 114 150 185 230 282 332
#     4  10  20  36  58  86 116 145 184 233 281 330
#
# _framework density 22.859283999999999
#
# number of rings (size 3 to 8) (size 9 to 14) (size 15 to 20)
#    0.000    2.000    0.000    4.500    0.000    5.000 
#    0.000    1.875    0.000    0.000    0.000    0.000 
#    0.000    0.000    0.000    0.000    0.000    0.000 
#
# Total GULP energy -89466.213959 kJ/mol
# GULP energy per Si atom -5591.638372 kJ/mol
# Density = 2.280726 g / cm^3
# Si number density = 22.859284 Si / 1000 Ang^3
#
#
#
# Elastic Constant Matrix: (Units=GPa)
#
#
# Indices 1 2 3 4 5 6 
#
# 1 78.1633 14.0710 3.3573 8.9441 2.6876 -4.4314
# 2 14.0710 124.6663 10.2861 20.0945 -6.9774 -5.2086
# 3 3.3573 10.2861 49.6476 3.9761 15.3524 -5.3766
# 4 8.9441 20.0945 3.9761 29.0453 -6.7193 -3.3082
# 5 2.6876 -6.9774 15.3524 -6.7193 26.7533 -1.0574
# 6 -4.4314 -5.2086 -5.3766 -3.3082 -1.0574 18.1467
#
#
#
# Elastic Compliance Matrix: (Units=1/GPa)
#
#
# Indices 1 2 3 4 5 6 
#
# 1 0.013643 -0.001027 0.000802 -0.004029 -0.003017 0.002364
# 2 -0.001027 0.009324 -0.002111 -0.005154 0.002491 0.001006
# 3 0.000802 -0.002111 0.026957 -0.005866 -0.017357 0.005496
# 4 -0.004029 -0.005154 -0.005866 0.043700 0.013582 0.004557
# 5 -0.003017 0.002491 -0.017357 0.013582 0.051716 0.000325
# 6 0.002364 0.001006 0.005496 0.004557 0.000325 0.058450
#
#
# Mechanical properties :
#
#
# Convention : Reuss Voigt Hill
#
# Bulk Modulus (GPa) = 22.09838 34.21178 28.15508
# Shear Modulus (GPa) = 22.36682 29.77326 26.07004
#
# Velocity S-wave (km/s) = 3.13142 3.61287 3.38073
# Velocity P-wave (km/s) = 4.77101 5.69232 5.25191
#
# Compressibility (1/GPa) = 0.04525220
#
# Stress axis : x y z
#
# Youngs Moduli (GPa) = 73.29802 107.25304 37.09580
#
# Poissons Ratio (x) = 0.11011 -0.02974
# Poissons Ratio (y) = 0.07525 0.07831
# Poissons Ratio (z) = -0.05877 0.22641
#
# Static dielectric constant tensor:
#      x y z
#    x 1.810230 -0.038530 0.011200 
#    y -0.038530 1.855130 -0.017240 
#    z 0.011200 -0.017240 1.905760 
# 
# From -- ./inp_files/382770.got.cif
#   From: 2010.05.17/outbox.cif.g08.bks.cpg/sg2_192_cif.got.tgz:382770.got - 2010.06.03 11:33:40.
