data_PCOD9086455
_publ_section_title
;
Structure prediction by ZEFSAII (Michael W. Deem and Ramdas Pophale) SiO2 
 PCOD9086455
Probable space group: P -1
;
_chemical_formula_sum "Si O2"
_cell_formula_units_Z 14
_cell_length_a 14.742098
_cell_length_b 6.888211
_cell_length_c 6.886418
_cell_angle_alpha 62.223900
_cell_angle_beta 98.486626
_cell_angle_gamma 115.121489
_cell_volume 559.088688
_symmetry_space_group_name_H-M "P -1"
_symmetry_group_IT_number 2
_symmetry_cell_setting 'triclinic'
loop_
_space_group_symop_operation_xyz
x,y,z
-x,-y,-z
loop_
_atom_site_type_symbol
_atom_site_label
_atom_site_fract_x
_atom_site_fract_y
_atom_site_fract_z
Si Si1 0.639632 0.751053 0.494925
Si Si2 0.009585 0.454119 0.302413
Si Si3 0.963577 0.090423 0.166241
Si Si4 0.775533 0.539458 0.709995
Si Si5 0.654922 0.035935 0.726891
Si Si6 0.484549 0.327573 0.889303
Si Si7 0.824949 0.823290 0.934174
O O1 0.750175 0.760879 0.535205
O O2 0.628468 0.954817 0.532362
O O3 0.577965 0.498416 0.708120
O O4 0.601793 0.730882 0.274168
O O5 0.116697 0.446735 0.310706
O O6 0.000000 0.500000 0.500000
O O7 0.939525 0.201794 0.300620
O O8 0.009817 0.678343 0.076013
O O9 0.871950 0.870296 0.142782
O O10 0.068524 0.056977 0.208156
O O11 0.704623 0.310761 0.671522
O O12 0.773378 0.561523 0.936600
O O13 0.556462 0.921845 0.887296
O O14 0.741106 0.934010 0.848691
O O15 0.500000 0.500000 0.000000
#
# Coordination Sequence:
#
# PCOD9086455 Si02
#       7
#     2   2   2   2   2   2   2
#     4   9  20  39  59  84 115 147 183 234 283 342
#     4  10  20  35  56  82 113 153 196 233 278 332
#     4   9  18  36  55  78 113 153 192 238 277 321
#     4  10  20  36  59  84 119 150 189 240 282 332
#     4  10  19  36  58  86 117 149 186 234 283 336
#     4   9  19  39  63  83 112 147 185 228 286 346
#     4   9  18  35  58  79 114 154 188 234 280 324
#
# _framework density 25.040752999999999
#
# number of rings (size 3 to 8) (size 9 to 14) (size 15 to 20)
#    0.000    2.571    1.429    0.000    0.000    1.714 
#    2.571   18.571    0.000    0.000    0.000    0.000 
#    0.000    0.000    0.000    0.000    0.000    0.000 
#
# Total GULP energy -77946.547470 kJ/mol
# GULP energy per Si atom -5567.610534 kJ/mol
# Density = 2.498376 g / cm^3
# Si number density = 25.040753 Si / 1000 Ang^3
#
#
#
# Elastic Constant Matrix: (Units=GPa)
#
#
# Indices 1 2 3 4 5 6 
#
# 1 57.4883 16.3884 33.6832 15.1336 -7.0583 -18.6134
# 2 16.3884 128.5677 53.9509 46.6063 -14.8455 -0.1729
# 3 33.6832 53.9509 147.7791 35.3095 -12.5260 -9.0300
# 4 15.1336 46.6063 35.3095 45.0270 0.2125 -6.5192
# 5 -7.0583 -14.8455 -12.5260 0.2125 26.5486 19.8868
# 6 -18.6134 -0.1729 -9.0300 -6.5192 19.8868 31.7184
#
#
#
# Elastic Compliance Matrix: (Units=1/GPa)
#
#
# Indices 1 2 3 4 5 6 
#
# 1 0.027087 -0.004428 -0.005245 0.003409 -0.017105 0.025804
# 2 -0.004428 0.020159 0.000186 -0.023418 0.029792 -0.025928
# 3 -0.005245 0.000186 0.009964 -0.007359 0.009018 -0.007407
# 4 0.003409 -0.023418 -0.007359 0.057201 -0.046683 0.040804
# 5 -0.017105 0.029792 0.009018 -0.046683 0.126461 -0.096191
# 6 0.025804 -0.025928 -0.007407 0.040804 -0.096191 0.113116
#
#
# Mechanical properties :
#
#
# Convention : Reuss Voigt Hill
#
# Bulk Modulus (GPa) = 26.15324 60.20889 43.18107
# Shear Modulus (GPa) = 12.96317 35.97963 24.47140
#
# Velocity S-wave (km/s) = 2.27773 3.79468 3.12951
# Velocity P-wave (km/s) = 4.16946 6.57997 5.50820
#
# Compressibility (1/GPa) = 0.03823618
#
# Stress axis : x y z
#
# Youngs Moduli (GPa) = 36.91749 49.60675 100.35650
#
# Poissons Ratio (x) = 0.21966 0.52638
# Poissons Ratio (y) = 0.16347 -0.01867
# Poissons Ratio (z) = 0.19364 -0.00923
#
# Static dielectric constant tensor:
#      x y z
#    x 2.021750 0.091780 -0.005530 
#    y 0.091780 2.090750 0.009830 
#    z -0.005530 0.009830 2.135310 
# 
# From -- ./inp_files/104991.got.cif
#   From: 2010.05.17/outbox.cif.g08.bks.cpg/sg2_53_cif.got.tgz:104991.got - 2010.06.03 11:33:40.
