data_PCOD9086394
_publ_section_title
;
Structure prediction by ZEFSAII (Michael W. Deem and Ramdas Pophale) SiO2 
 PCOD9086394
Probable space group: P -1
;
_chemical_formula_sum "Si O2"
_cell_formula_units_Z 16
_cell_length_a 9.273977
_cell_length_b 8.900603
_cell_length_c 15.074945
_cell_angle_alpha 49.478378
_cell_angle_beta 64.571912
_cell_angle_gamma 102.801375
_cell_volume 584.651866
_symmetry_space_group_name_H-M "P -1"
_symmetry_group_IT_number 2
_symmetry_cell_setting 'triclinic'
loop_
_space_group_symop_operation_xyz
x,y,z
-x,-y,-z
loop_
_atom_site_type_symbol
_atom_site_label
_atom_site_fract_x
_atom_site_fract_y
_atom_site_fract_z
Si Si1 0.154776 0.015226 0.816398
Si Si2 0.695890 0.057476 0.872762
Si Si3 0.966319 0.266298 0.225605
Si Si4 0.136037 0.236950 0.480480
Si Si5 0.660362 0.410849 0.549426
Si Si6 0.476953 0.711475 0.896861
Si Si7 0.868387 0.307291 0.416198
Si Si8 0.631805 0.561423 0.152102
O O1 0.392744 0.187924 0.738426
O O2 0.234262 0.299993 0.641790
O O3 0.128160 0.841310 0.806822
O O4 0.904685 0.767960 0.027737
O O5 0.657501 0.996860 0.800148
O O6 0.670627 0.810176 0.004295
O O7 0.928829 0.359993 0.734290
O O8 0.500000 0.000000 0.000000
O O9 0.825098 0.250961 0.344729
O O10 0.228746 0.579095 0.041197
O O11 0.994625 0.062867 0.326023
O O12 0.184446 0.451643 0.456563
O O13 0.394295 0.378828 0.340158
O O14 0.978402 0.196705 0.462292
O O15 0.662884 0.228671 0.552785
O O16 0.500000 0.500000 0.000000
O O17 0.450424 0.664465 0.815921
#
# Coordination Sequence:
#
# PCOD9086394 Si02
#       8
#     2   2   2   2   2   2   2   2
#     4   9  20  40  63  78 107 154 198 233 265 338
#     4  11  18  32  54  87 115 143 190 227 283 332
#     4  10  21  37  57  84 115 151 188 227 285 340
#     4  11  23  37  54  87 122 150 180 228 297 341
#     4  10  22  39  57  84 113 149 194 232 280 327
#     4   9  18  32  54  78 112 148 185 223 270 342
#     4  12  21  35  58  88 119 146 180 240 284 338
#     4  10  19  36  58  82 109 151 188 231 277 335
#
# _framework density 27.366713000000001
#
# number of rings (size 3 to 8) (size 9 to 14) (size 15 to 20)
#    0.000    1.750    3.750    1.500    1.750    1.000 
#    2.250    0.000    0.000    0.750    0.000    0.000 
#    0.000    0.000    0.000    0.000    0.000    0.000 
#
# Total GULP energy -89399.987164 kJ/mol
# GULP energy per Si atom -5587.499198 kJ/mol
# Density = 2.730443 g / cm^3
# Si number density = 27.366713 Si / 1000 Ang^3
#
#
#
# Elastic Constant Matrix: (Units=GPa)
#
#
# Indices 1 2 3 4 5 6 
#
# 1 39.1550 15.3803 30.8857 -7.4557 -22.8508 3.9798
# 2 15.3803 137.5808 12.3871 -13.2238 -5.5764 -8.0888
# 3 30.8857 12.3871 119.1171 -16.9627 -40.4958 -7.1542
# 4 -7.4557 -13.2238 -16.9627 54.3779 -11.6147 -4.0440
# 5 -22.8508 -5.5764 -40.4958 -11.6147 50.6718 -6.8819
# 6 3.9798 -8.0888 -7.1542 -4.0440 -6.8819 30.7114
#
#
#
# Elastic Compliance Matrix: (Units=1/GPa)
#
#
# Indices 1 2 3 4 5 6 
#
# 1 0.040854 -0.003038 -0.003938 0.006908 0.016189 -0.002474
# 2 -0.003038 0.007990 0.000885 0.002300 0.001188 0.003273
# 3 -0.003938 0.000885 0.015765 0.008220 0.013976 0.008630
# 4 0.006908 0.002300 0.008220 0.026831 0.017315 0.009038
# 5 0.016189 0.001188 0.013976 0.017315 0.044158 0.013646
# 6 -0.002474 0.003273 0.008630 0.009038 0.013646 0.040002
#
#
# Mechanical properties :
#
#
# Convention : Reuss Voigt Hill
#
# Bulk Modulus (GPa) = 19.07440 45.90657 32.49049
# Shear Modulus (GPa) = 24.35961 42.96554 33.66258
#
# Velocity S-wave (km/s) = 2.98672 3.96661 3.51102
# Velocity P-wave (km/s) = 4.34501 6.14733 5.32301
#
# Compressibility (1/GPa) = 0.05242628
#
# Stress axis : x y z
#
# Youngs Moduli (GPa) = 24.47727 125.15567 63.43359
#
# Poissons Ratio (x) = 0.38021 0.24981
# Poissons Ratio (y) = 0.07436 -0.05613
# Poissons Ratio (z) = 0.09640 -0.11074
#
# Static dielectric constant tensor:
#      x y z
#    x 2.217210 -0.091600 0.017090 
#    y -0.091600 2.081900 0.070800 
#    z 0.017090 0.070800 2.265340 
# 
# From -- ./inp_files/186553.got.cif
#   From: 2010.05.17/outbox.cif.g08.bks.cpg/sg2_94_cif.got.tgz:186553.got - 2010.06.03 11:33:40.
