data_PCOD9086791
_publ_section_title
;
Structure prediction by ZEFSAII (Michael W. Deem and Ramdas Pophale) SiO2 
 PCOD9086791
Probable space group: P -1
;
_chemical_formula_sum "Si O2"
_cell_formula_units_Z 14
_cell_length_a 11.412767
_cell_length_b 11.524002
_cell_length_c 10.417953
_cell_angle_alpha 105.952547
_cell_angle_beta 78.191334
_cell_angle_gamma 37.338431
_cell_volume 549.807155
_symmetry_space_group_name_H-M "P -1"
_symmetry_group_IT_number 2
_symmetry_cell_setting 'triclinic'
loop_
_space_group_symop_operation_xyz
x,y,z
-x,-y,-z
loop_
_atom_site_type_symbol
_atom_site_label
_atom_site_fract_x
_atom_site_fract_y
_atom_site_fract_z
Si Si1 0.971308 0.804187 0.814333
Si Si2 0.304581 0.561259 0.426172
Si Si3 0.543170 0.922284 0.677660
Si Si4 0.361797 0.291402 0.157348
Si Si5 0.960809 0.752133 0.206296
Si Si6 0.568518 0.764449 0.366646
Si Si7 0.926879 0.035028 0.241696
O O1 0.128497 0.643263 0.594180
O O2 0.204867 0.546958 0.783974
O O3 0.931429 0.985845 0.876606
O O4 0.684035 0.996281 0.953210
O O5 0.309632 0.476392 0.274330
O O6 0.624019 0.282576 0.320358
O O7 0.155374 0.825752 0.561653
O O8 0.690434 0.749858 0.723691
O O9 0.667513 0.761604 0.463078
O O10 0.479527 0.117984 0.716288
O O11 0.246782 0.120484 0.810365
O O12 0.157512 0.471663 0.137819
O O13 0.733987 0.999018 0.441680
O O14 0.087513 0.763282 0.136278
#
# Coordination Sequence:
#
# PCOD9086791 Si02
#       7
#     2   2   2   2   2   2   2
#     4  10  20  35  60  87 110 152 185 232 276 339
#     4   9  17  37  54  79 116 147 179 234 265 329
#     4   9  19  39  60  80 111 153 187 233 274 334
#     4  12  22  33  62  87 114 147 187 229 292 323
#     4  10  19  36  60  88 109 150 189 230 277 342
#     4   9  17  40  63  72 118 154 179 235 287 311
#     4   9  16  37  61  74 121 146 184 232 271 333
#
# _framework density 25.463473
#
# number of rings (size 3 to 8) (size 9 to 14) (size 15 to 20)
#    1.714    0.571    4.286    0.000    0.000    2.857 
#    0.000    2.143    0.000    0.000    0.000    0.000 
#    0.000    0.000    0.000    0.000    0.000    0.000 
#
# Total GULP energy -78088.568064 kJ/mol
# GULP energy per Si atom -5577.754862 kJ/mol
# Density = 2.540552 g / cm^3
# Si number density = 25.463473 Si / 1000 Ang^3
#
#
#
# Elastic Constant Matrix: (Units=GPa)
#
#
# Indices 1 2 3 4 5 6 
#
# 1 48.2612 27.3041 15.0594 -10.6470 9.3385 11.1345
# 2 27.3041 145.3356 12.3147 6.1626 5.6885 32.2278
# 3 15.0594 12.3147 88.6136 -9.0574 1.1354 -1.0233
# 4 -10.6470 6.1626 -9.0574 12.0726 -11.9659 -12.9380
# 5 9.3385 5.6885 1.1354 -11.9659 19.7752 -14.8743
# 6 11.1345 32.2278 -1.0233 -12.9380 -14.8743 31.9696
#
#
#
# Elastic Compliance Matrix: (Units=1/GPa)
#
#
# Indices 1 2 3 4 5 6 
#
# 1 0.029759 -0.004478 -0.003084 0.012689 -0.008495 -0.004766
# 2 -0.004478 0.005554 0.001001 0.010659 0.010984 0.005417
# 3 -0.003084 0.001001 0.011185 -0.004974 -0.005660 -0.004223
# 4 0.012689 0.010659 -0.004974 -0.014429 -0.051416 -0.045085
# 5 -0.008495 0.010984 -0.005660 -0.051416 -0.001934 -0.030003
# 6 -0.004766 0.005417 -0.004223 -0.045085 -0.030003 -0.004862
#
#
# Mechanical properties :
#
#
# Convention : Reuss Voigt Hill
#
# Bulk Modulus (GPa) = 29.96271 43.50744 36.73508
# Shear Modulus (GPa) = 100.96240 27.93228 64.44734
#
# Velocity S-wave (km/s) = 6.30365 3.31562 5.03633
# Velocity P-wave (km/s) = 8.04822 5.63747 6.94820
#
# Compressibility (1/GPa) = 0.03337481
#
# Stress axis : x y z
#
# Youngs Moduli (GPa) = 33.60286 180.05253 89.40235
#
# Poissons Ratio (x) = 0.80630 0.27575
# Poissons Ratio (y) = 0.15048 -0.08945
# Poissons Ratio (z) = 0.10364 -0.18015
#
# Static dielectric constant tensor:
#      x y z
#    x 2.017880 0.013810 0.043440 
#    y 0.013810 2.043010 -0.001390 
#    z 0.043440 -0.001390 2.020470 
# 
# From -- ./inp_files/452260.got.cif
#   From: 2010.05.17/outbox.cif.g08.bks.cpg/sg2_227_cif.got.tgz:452260.got - 2010.06.03 11:33:40.
