data_PCOD9086194
_publ_section_title
;
Structure prediction by ZEFSAII (Michael W. Deem and Ramdas Pophale) SiO2 
 PCOD9086194
Probable space group: P -1
;
_chemical_formula_sum "Si O2"
_cell_formula_units_Z 11
_cell_length_a 9.757335
_cell_length_b 17.301358
_cell_length_c 13.406850
_cell_angle_alpha 22.026328
_cell_angle_beta 51.854178
_cell_angle_gamma 39.468866
_cell_volume 491.891955
_symmetry_space_group_name_H-M "P -1"
_symmetry_group_IT_number 2
_symmetry_cell_setting 'triclinic'
loop_
_space_group_symop_operation_xyz
x,y,z
-x,-y,-z
loop_
_atom_site_type_symbol
_atom_site_label
_atom_site_fract_x
_atom_site_fract_y
_atom_site_fract_z
Si Si1 0.089057 0.152233 0.804775
Si Si2 0.110817 0.649678 0.971546
Si Si3 0.220787 0.214332 0.877936
Si Si4 0.429517 0.016646 0.654421
Si Si5 0.000000 0.500000 0.000000
Si Si6 0.192500 0.035665 0.549320
O O1 0.118178 0.155065 0.905963
O O2 0.335783 0.008149 0.810296
O O3 0.901492 0.468021 0.469168
O O4 0.000000 0.000000 0.000000
O O5 0.188945 0.819147 0.760429
O O6 0.869160 0.802566 0.957195
O O7 0.084723 0.615612 0.909693
O O8 0.300126 0.337928 0.306547
O O9 0.500000 0.000000 0.000000
O O10 0.702790 0.861030 0.696863
O O11 0.343803 0.932927 0.704711
O O12 0.955258 0.353742 0.289159
#
# Coordination Sequence:
#
# PCOD9086194 Si02
#       6
#     2   2   2   2   1   2
#     4  10  21  41  62  88 121 160 201 249 300 355
#     4  10  20  38  58  80 119 149 193 239 296 345
#     4  10  23  40  61  90 122 158 203 249 294 363
#     4   9  20  35  59  83 113 145 198 235 289 361
#     4  10  22  34  52  86 116 146 188 240 280 354
#     4  10  19  36  56  85 113 151 184 243 297 343
#
# _framework density 22.362634
#
# number of rings (size 3 to 8) (size 9 to 14) (size 15 to 20)
#    0.000    2.182    0.000    2.182    2.545    0.727 
#    3.273    0.000    0.000    0.000    0.000    0.000 
#    0.000    0.000    0.000    0.000    0.000    0.000 
#
# Total GULP energy -61295.836446 kJ/mol
# GULP energy per Si atom -5572.348768 kJ/mol
# Density = 2.231174 g / cm^3
# Si number density = 22.362634 Si / 1000 Ang^3
#
#
#
# Elastic Constant Matrix: (Units=GPa)
#
#
# Indices 1 2 3 4 5 6 
#
# 1 119.6959 17.1861 69.0585 -7.6667 -40.6602 4.6366
# 2 17.1861 112.4757 16.7554 -14.1725 -1.6381 -8.3205
# 3 69.0585 16.7554 74.5618 -16.4926 -33.6586 -5.1418
# 4 -7.6667 -14.1725 -16.4926 22.5103 0.4843 7.6235
# 5 -40.6602 -1.6381 -33.6586 0.4843 53.1780 -8.0582
# 6 4.6366 -8.3205 -5.1418 7.6235 -8.0582 29.6044
#
#
#
# Elastic Compliance Matrix: (Units=1/GPa)
#
#
# Indices 1 2 3 4 5 6 
#
# 1 0.020067 -0.001357 -0.018672 -0.006284 0.002879 -0.004366
# 2 -0.001357 0.009857 0.000100 0.005321 -0.000493 0.001496
# 3 -0.018672 0.000100 0.042049 0.021377 0.013420 0.008404
# 4 -0.006284 0.005321 0.021377 0.063978 0.007039 -0.008367
# 5 0.002879 -0.000493 0.013420 0.007039 0.030675 0.008278
# 6 -0.004366 0.001496 0.008404 -0.008367 0.008278 0.040750
#
#
# Mechanical properties :
#
#
# Convention : Reuss Voigt Hill
#
# Bulk Modulus (GPa) = 31.13981 56.97039 44.05510
# Shear Modulus (GPa) = 19.38430 34.64077 27.01253
#
# Velocity S-wave (km/s) = 2.94737 3.94006 3.47930
# Velocity P-wave (km/s) = 5.05349 6.79925 5.99031
#
# Compressibility (1/GPa) = 0.03211324
#
# Stress axis : x y z
#
# Youngs Moduli (GPa) = 49.83343 101.44755 23.78168
#
# Poissons Ratio (x) = 0.13771 0.44406
# Poissons Ratio (y) = 0.06765 -0.00237
# Poissons Ratio (z) = 0.93051 -0.01012
#
# Static dielectric constant tensor:
#      x y z
#    x 1.814520 -0.052400 0.054300 
#    y -0.052400 1.890130 -0.036660 
#    z 0.054300 -0.036660 1.879430 
# 
# From -- ./inp_files/21222.got.cif
#   From: 2010.05.17/outbox.cif.g08.bks.cpg/sg2_11_cif.got.tgz:21222.got - 2010.06.03 11:33:40.
