data_PCOD9086477
_publ_section_title
;
Structure prediction by ZEFSAII (Michael W. Deem and Ramdas Pophale) SiO2 
 PCOD9086477
Probable space group: P -1
;
_chemical_formula_sum "Si O2"
_cell_formula_units_Z 16
_cell_length_a 11.987574
_cell_length_b 14.172285
_cell_length_c 10.218326
_cell_angle_alpha 85.253142
_cell_angle_beta 39.290097
_cell_angle_gamma 55.883370
_cell_volume 675.512307
_symmetry_space_group_name_H-M "P -1"
_symmetry_group_IT_number 2
_symmetry_cell_setting 'triclinic'
loop_
_space_group_symop_operation_xyz
x,y,z
-x,-y,-z
loop_
_atom_site_type_symbol
_atom_site_label
_atom_site_fract_x
_atom_site_fract_y
_atom_site_fract_z
Si Si1 0.818992 0.475317 0.289381
Si Si2 0.991962 0.063469 0.174378
Si Si3 0.205265 0.682265 0.857497
Si Si4 0.423405 0.955856 0.968403
Si Si5 0.214871 0.164152 0.580177
Si Si6 0.750131 0.472289 0.795710
Si Si7 0.520645 0.187005 0.449228
Si Si8 0.186262 0.353933 0.202672
O O1 0.540382 0.544501 0.600585
O O2 0.849357 0.399825 0.139926
O O3 0.706238 0.631182 0.361948
O O4 0.100041 0.354752 0.136990
O O5 0.873065 0.208351 0.194778
O O6 0.720299 0.109927 0.403725
O O7 0.113508 0.046503 0.203606
O O8 0.254200 0.906920 0.868696
O O9 0.019502 0.796029 0.135447
O O10 0.530678 0.961371 0.736400
O O11 0.592686 0.795171 0.890939
O O12 0.500000 0.000000 0.000000
O O13 0.362477 0.157382 0.566420
O O14 0.008766 0.313636 0.657037
O O15 0.694640 0.589832 0.917568
O O16 0.885470 0.461966 0.542110
O O17 0.500000 0.500000 0.000000
#
# Coordination Sequence:
#
# PCOD9086477 Si02
#       8
#     2   2   2   2   2   2   2   2
#     4  10  19  36  58  88 115 151 199 238 307 358
#     4   9  19  36  56  85 113 156 201 231 298 365
#     4  10  21  34  60  88 119 151 191 257 297 355
#     4  10  21  37  62  86 118 163 202 240 295 376
#     4  10  20  37  58  87 113 150 197 249 304 344
#     4  10  20  35  58  91 118 152 205 252 301 362
#     4   9  18  34  56  80 116 147 193 239 284 357
#     4  10  20  36  62  84 118 164 198 247 309 358
#
# _framework density 23.685725999999999
#
# number of rings (size 3 to 8) (size 9 to 14) (size 15 to 20)
#    0.000    2.250    1.250    1.500    1.750    2.500 
#    2.250    0.000    0.000    3.000    0.000    0.000 
#    0.000    0.000    0.000    0.000    0.000    0.000 
#
# Total GULP energy -89101.195966 kJ/mol
# GULP energy per Si atom -5568.824748 kJ/mol
# Density = 2.363182 g / cm^3
# Si number density = 23.685726 Si / 1000 Ang^3
#
#
#
# Elastic Constant Matrix: (Units=GPa)
#
#
# Indices 1 2 3 4 5 6 
#
# 1 144.6335 21.4603 26.9242 -2.4290 -35.3172 3.4678
# 2 21.4603 50.2306 3.4913 2.5784 -5.9527 9.0806
# 3 26.9242 3.4913 57.9082 -8.6306 -19.2129 1.5819
# 4 -2.4290 2.5784 -8.6306 21.3925 2.1760 -9.3056
# 5 -35.3172 -5.9527 -19.2129 2.1760 30.8370 9.6104
# 6 3.4678 9.0806 1.5819 -9.3056 9.6104 31.7788
#
#
#
# Elastic Compliance Matrix: (Units=1/GPa)
#
#
# Indices 1 2 3 4 5 6 
#
# 1 0.010631 -0.001829 -0.000664 -0.002515 0.013254 -0.005349
# 2 -0.001829 0.023960 0.000843 -0.008411 0.007178 -0.011322
# 3 -0.000664 0.000843 0.023466 0.006005 0.014869 -0.004075
# 4 -0.002515 -0.008411 0.006005 0.061759 -0.012694 0.024302
# 5 0.013254 0.007178 0.014869 -0.012694 0.068045 -0.028533
# 6 -0.005349 -0.011322 -0.004075 0.024302 -0.028533 0.051234
#
#
# Mechanical properties :
#
#
# Convention : Reuss Voigt Hill
#
# Bulk Modulus (GPa) = 18.26238 39.61376 28.93807
# Shear Modulus (GPa) = 19.18286 30.19477 24.68881
#
# Velocity S-wave (km/s) = 2.84895 3.57432 3.23205
# Velocity P-wave (km/s) = 4.30686 5.81338 5.11588
#
# Compressibility (1/GPa) = 0.05475739
#
# Stress axis : x y z
#
# Youngs Moduli (GPa) = 94.06088 41.73569 42.61451
#
# Poissons Ratio (x) = 0.07634 0.02830
# Poissons Ratio (y) = 0.17205 -0.03593
# Poissons Ratio (z) = 0.06248 -0.03519
#
# Static dielectric constant tensor:
#      x y z
#    x 1.944690 0.024970 0.000980 
#    y 0.024970 1.981120 -0.051140 
#    z 0.000980 -0.051140 1.925820 
# 
# From -- ./inp_files/434019.got.cif
#   From: 2010.05.17/outbox.cif.g08.bks.cpg/sg2_218_cif.got.tgz:434019.got - 2010.06.03 11:33:40.
