data_PCOD9086068
_publ_section_title
;
Structure prediction by ZEFSAII (Michael W. Deem and Ramdas Pophale) SiO2 
 PCOD9086068
Probable space group: P -1
;
_chemical_formula_sum "Si O2"
_cell_formula_units_Z 16
_cell_length_a 14.164845
_cell_length_b 15.385103
_cell_length_c 12.157357
_cell_angle_alpha 151.842748
_cell_angle_beta 126.095876
_cell_angle_gamma 41.252357
_cell_volume 800.922505
_symmetry_space_group_name_H-M "P -1"
_symmetry_group_IT_number 2
_symmetry_cell_setting 'triclinic'
loop_
_space_group_symop_operation_xyz
x,y,z
-x,-y,-z
loop_
_atom_site_type_symbol
_atom_site_label
_atom_site_fract_x
_atom_site_fract_y
_atom_site_fract_z
Si Si1 0.686093 0.678073 0.937150
Si Si2 0.460971 0.591026 0.230864
Si Si3 0.138998 0.031859 0.444897
Si Si4 0.441474 0.644508 0.734387
Si Si5 0.167200 0.408435 0.821145
Si Si6 0.165756 0.807485 0.619812
Si Si7 0.137744 0.152341 0.818711
Si Si8 0.431878 0.261582 0.710246
O O1 0.517777 0.771918 0.933227
O O2 0.770592 0.450387 0.663556
O O3 0.751718 0.610908 0.030790
O O4 0.727118 0.838275 0.096992
O O5 0.499483 0.525306 0.310436
O O6 0.538008 0.693455 0.341469
O O7 0.287613 0.784892 0.303794
O O8 0.501954 0.360016 0.940818
O O9 0.176696 0.178343 0.566539
O O10 0.079118 0.159910 0.665278
O O11 0.007848 0.046220 0.315391
O O12 0.500000 0.500000 0.500000
O O13 0.266028 0.795208 0.771200
O O14 0.260091 0.408232 0.787040
O O15 0.997568 0.627391 0.962459
O O16 0.183196 0.927058 0.662028
O O17 0.500000 0.000000 0.500000
#
# Coordination Sequence:
#
# PCOD9086068 Si02
#       8
#     2   2   2   2   2   2   2   2
#     4  10  19  36  52  88 127 157 196 251 300 369
#     4  11  23  41  65  92 123 161 209 259 305 359
#     4  11  19  35  63  91 121 159 202 262 312 360
#     4  10  22  38  59  90 133 167 193 245 313 384
#     4  11  19  36  61  89 124 151 207 265 303 349
#     4  11  21  34  55  88 127 162 194 234 314 381
#     4  11  21  32  60  91 123 164 199 256 319 352
#     4  11  23  40  64  92 117 162 214 267 299 346
#
# _framework density 19.976965
#
# number of rings (size 3 to 8) (size 9 to 14) (size 15 to 20)
#    0.000    1.250    5.000    3.375    0.000    0.500 
#    0.000    3.750    0.000    7.500    0.000    0.000 
#    0.000    0.000    0.000    0.000    0.000    0.000 
#
# Total GULP energy -89322.851836 kJ/mol
# GULP energy per Si atom -5582.678240 kJ/mol
# Density = 1.993150 g / cm^3
# Si number density = 19.976965 Si / 1000 Ang^3
#
#
#
# Elastic Constant Matrix: (Units=GPa)
#
#
# Indices 1 2 3 4 5 6 
#
# 1 131.0060 54.4371 24.7771 -4.8883 17.1798 -7.6023
# 2 54.4371 71.1362 14.6486 -14.5555 11.8473 -17.4849
# 3 24.7771 14.6486 49.2448 4.9405 18.0479 0.1719
# 4 -4.8883 -14.5555 4.9405 20.8831 -2.0791 7.9689
# 5 17.1798 11.8473 18.0479 -2.0791 31.5132 -1.5924
# 6 -7.6023 -17.4849 0.1719 7.9689 -1.5924 35.4093
#
#
#
# Elastic Compliance Matrix: (Units=1/GPa)
#
#
# Indices 1 2 3 4 5 6 
#
# 1 0.012007 -0.009326 -0.002243 -0.002796 -0.002014 -0.001478
# 2 -0.009326 0.027337 -0.004487 0.014697 -0.001241 0.008155
# 3 -0.002243 -0.004487 0.029342 -0.011730 -0.014712 -0.000862
# 4 -0.002796 0.014697 -0.011730 0.063698 0.006549 -0.007327
# 5 -0.002014 -0.001241 -0.014712 0.006549 0.042127 -0.000553
# 6 -0.001478 0.008155 -0.000862 -0.007327 -0.000553 0.033579
#
#
# Mechanical properties :
#
#
# Convention : Reuss Voigt Hill
#
# Bulk Modulus (GPa) = 27.34328 48.79029 38.06679
# Shear Modulus (GPa) = 19.81033 28.06273 23.93653
#
# Velocity S-wave (km/s) = 3.15248 3.75207 3.46527
# Velocity P-wave (km/s) = 5.19307 6.57625 5.92516
#
# Compressibility (1/GPa) = 0.03657205
#
# Stress axis : x y z
#
# Youngs Moduli (GPa) = 83.28571 36.58068 34.08102
#
# Poissons Ratio (x) = 0.34116 0.07645
# Poissons Ratio (y) = 0.77674 0.15293
# Poissons Ratio (z) = 0.18683 0.16415
#
# Static dielectric constant tensor:
#      x y z
#    x 1.765170 -0.041760 -0.013490 
#    y -0.041760 1.711540 0.020020 
#    z -0.013490 0.020020 1.744100 
# 
# From -- ./inp_files/424441.got.cif
#   From: 2010.05.17/outbox.cif.g08.bks.cpg/sg2_213_cif.got.tgz:424441.got - 2010.06.03 11:33:40.
