data_PCOD9086020
_publ_section_title
;
Structure prediction by ZEFSAII (Michael W. Deem and Ramdas Pophale) SiO2 
 PCOD9086020
Probable space group: P -1
;
_chemical_formula_sum "Si O2"
_cell_formula_units_Z 15
_cell_length_a 14.271880
_cell_length_b 20.435812
_cell_length_c 13.062924
_cell_angle_alpha 40.174188
_cell_angle_beta 147.173507
_cell_angle_gamma 164.031509
_cell_volume 543.129258
_symmetry_space_group_name_H-M "P -1"
_symmetry_group_IT_number 2
_symmetry_cell_setting 'triclinic'
loop_
_space_group_symop_operation_xyz
x,y,z
-x,-y,-z
loop_
_atom_site_type_symbol
_atom_site_label
_atom_site_fract_x
_atom_site_fract_y
_atom_site_fract_z
Si Si1 0.363914 0.592953 0.039307
Si Si2 0.491420 0.229717 0.836150
Si Si3 0.492225 0.594340 0.950943
Si Si4 0.766870 0.136200 0.478416
Si Si5 0.495636 0.224958 0.398794
Si Si6 0.500000 0.000000 0.000000
Si Si7 0.678928 0.389016 0.593576
Si Si8 0.389714 0.954705 0.147293
O O1 0.652329 0.695066 0.093297
O O2 0.115914 0.556614 0.804367
O O3 0.611497 0.759855 0.169942
O O4 0.973514 0.309381 0.048070
O O5 0.452856 0.252074 0.659428
O O6 0.000000 0.500000 0.000000
O O7 0.327700 0.023106 0.935123
O O8 0.674910 0.780050 0.827776
O O9 0.994855 0.321670 0.844758
O O10 0.500000 0.500000 0.000000
O O11 0.204611 0.430944 0.536459
O O12 0.500000 0.000000 0.500000
O O13 0.686930 0.982154 0.545919
O O14 0.567945 0.090988 0.252703
O O15 0.451928 0.233593 0.466541
O O16 0.000000 0.500000 0.500000
O O17 0.336994 0.958841 0.787202
#
# Coordination Sequence:
#
# PCOD9086020 Si02
#       8
#     2   2   2   2   2   1   2   2
#     4  10  17  32  54  84 120 141 187 237 292 334
#     4  10  18  30  54  89 120 139 180 247 304 332
#     4  11  24  40  57  80 119 161 197 234 285 354
#     4  12  20  30  55  86 119 148 183 238 299 342
#     4  12  21  36  58  85 114 156 195 243 292 339
#     4  10  16  26  50  84 108 144 180 236 280 336
#     4  11  19  34  56  93 122 140 181 254 303 341
#     4  11  19  32  56  85 115 147 189 233 296 336
#
# _framework density 27.617736000000001
#
# number of rings (size 3 to 8) (size 9 to 14) (size 15 to 20)
#    0.000    1.067    9.333    0.800    0.000    0.000 
#    0.000    0.667    0.000    1.600    0.000    0.000 
#    0.000    0.000    0.000    0.000    0.000    0.000 
#
# Total GULP energy -83592.362592 kJ/mol
# GULP energy per Si atom -5572.824173 kJ/mol
# Density = 2.755488 g / cm^3
# Si number density = 27.617736 Si / 1000 Ang^3
#
#
#
# Elastic Constant Matrix: (Units=GPa)
#
#
# Indices 1 2 3 4 5 6 
#
# 1 190.0857 62.7199 86.6254 -21.9038 -60.7911 -24.7692
# 2 62.7199 165.4122 74.5777 -42.3090 -11.4967 -52.2701
# 3 86.6254 74.5777 129.3858 -41.8560 -44.4984 -17.2946
# 4 -21.9038 -42.3090 -41.8560 66.8817 -6.3969 0.6863
# 5 -60.7911 -11.4967 -44.4984 -6.3969 71.3673 -0.4995
# 6 -24.7692 -52.2701 -17.2946 0.6863 -0.4995 61.9128
#
#
#
# Elastic Compliance Matrix: (Units=1/GPa)
#
#
# Indices 1 2 3 4 5 6 
#
# 1 0.009217 -0.000666 -0.003002 0.001268 0.006002 0.002320
# 2 -0.000666 0.012022 -0.004016 0.004721 -0.000651 0.008703
# 3 -0.003002 -0.004016 0.017815 0.008450 0.008664 0.000361
# 4 0.001268 0.004721 0.008450 0.024468 0.009350 0.006658
# 5 0.006002 -0.000651 0.008664 0.009350 0.025290 0.004372
# 6 0.002320 0.008703 0.000361 0.006658 0.004372 0.024490
#
#
# Mechanical properties :
#
#
# Convention : Reuss Voigt Hill
#
# Bulk Modulus (GPa) = 42.22248 103.63662 72.92955
# Shear Modulus (GPa) = 36.61249 57.42976 47.02112
#
# Velocity S-wave (km/s) = 3.64495 4.56505 4.13070
# Velocity P-wave (km/s) = 5.74766 8.08660 7.01529
#
# Compressibility (1/GPa) = 0.02368407
#
# Stress axis : x y z
#
# Youngs Moduli (GPa) = 108.50006 83.18421 56.13173
#
# Poissons Ratio (x) = 0.05544 0.16850
# Poissons Ratio (y) = 0.07231 0.22544
# Poissons Ratio (z) = 0.32571 0.33409
#
# Static dielectric constant tensor:
#      x y z
#    x 1.921930 0.119160 0.092380 
#    y 0.119160 2.180450 0.165530 
#    z 0.092380 0.165530 2.319820 
# 
# From -- ./inp_files/457274.got.cif
#   From: 2010.05.17/outbox.cif.g08.bks.cpg/sg2_229_cif.got.tgz:457274.got - 2010.06.03 11:33:40.
