data_PCOD9086521
_publ_section_title
;
Structure prediction by ZEFSAII (Michael W. Deem and Ramdas Pophale) SiO2 
 PCOD9086521
Probable space group: P -1
;
_chemical_formula_sum "Si O2"
_cell_formula_units_Z 16
_cell_length_a 19.005271
_cell_length_b 16.787573
_cell_length_c 11.564073
_cell_angle_alpha 159.354112
_cell_angle_beta 151.020150
_cell_angle_gamma 31.242503
_cell_volume 615.838482
_symmetry_space_group_name_H-M "P -1"
_symmetry_group_IT_number 2
_symmetry_cell_setting 'triclinic'
loop_
_space_group_symop_operation_xyz
x,y,z
-x,-y,-z
loop_
_atom_site_type_symbol
_atom_site_label
_atom_site_fract_x
_atom_site_fract_y
_atom_site_fract_z
Si Si1 0.077961 0.715211 0.546312
Si Si2 0.829430 0.108353 0.699205
Si Si3 0.422227 0.108380 0.915776
Si Si4 0.824817 0.611571 0.384385
Si Si5 0.165425 0.005595 0.701700
Si Si6 0.689951 0.623884 0.457160
Si Si7 0.566587 0.001052 0.462814
Si Si8 0.814612 0.449513 0.779493
O O1 0.226660 0.625994 0.713646
O O2 0.134624 0.661071 0.422820
O O3 0.991502 0.980515 0.806556
O O4 0.952972 0.558278 0.174213
O O5 0.836671 0.964766 0.396763
O O6 0.696931 0.049436 0.501241
O O7 0.782632 0.374680 0.959584
O O8 0.485380 0.125678 0.899856
O O9 0.328936 0.349342 0.153221
O O10 0.500000 0.000000 0.000000
O O11 0.768328 0.645642 0.479047
O O12 0.000000 0.500000 0.500000
O O13 0.733812 0.840576 0.501401
O O14 0.233906 0.745085 0.478401
O O15 0.000000 0.000000 0.500000
O O16 0.242942 0.199857 0.126069
O O17 0.516382 0.735515 0.337405
O O18 0.500000 0.000000 0.500000
#
# Coordination Sequence:
#
# PCOD9086521 Si02
#       8
#     2   2   2   2   2   2   2   2
#     4  10  19  36  58  96 133 170 217 280 347 400
#     4  11  24  39  66 102 137 176 237 289 347 415
#     4  11  23  42  69 101 143 180 227 294 355 411
#     4  11  26  45  68  96 135 185 236 287 340 419
#     4  12  19  35  64  98 131 177 231 282 347 407
#     4  11  23  41  66  93 134 180 227 285 346 416
#     4  10  24  48  68  93 137 188 232 282 351 421
#     4  10  20  33  60  94 135 169 218 284 338 404
#
# _framework density 25.980837999999999
#
# number of rings (size 3 to 8) (size 9 to 14) (size 15 to 20)
#    0.000    1.250    2.500    4.500    3.500    1.500 
#    0.000    5.000    0.000    0.000    0.000    0.000 
#    0.000    0.000    0.000    0.000    0.000    0.000 
#
# Total GULP energy -89068.094400 kJ/mol
# GULP energy per Si atom -5566.755900 kJ/mol
# Density = 2.592170 g / cm^3
# Si number density = 25.980838 Si / 1000 Ang^3
#
#
#
# Elastic Constant Matrix: (Units=GPa)
#
#
# Indices 1 2 3 4 5 6 
#
# 1 96.6867 44.8913 28.3961 -10.6962 -38.3128 -6.6487
# 2 44.8913 287.9090 52.2712 21.0037 -3.4322 -13.1846
# 3 28.3961 52.2712 60.7354 0.5085 -12.6273 -1.9953
# 4 -10.6962 21.0037 0.5085 44.4560 4.1094 -3.6482
# 5 -38.3128 -3.4322 -12.6273 4.1094 39.7900 3.8523
# 6 -6.6487 -13.1846 -1.9953 -3.6482 3.8523 53.9664
#
#
#
# Elastic Compliance Matrix: (Units=1/GPa)
#
#
# Indices 1 2 3 4 5 6 
#
# 1 0.020019 -0.002564 -0.003551 0.004525 0.017386 0.000773
# 2 -0.002564 0.004665 -0.003387 -0.002448 -0.002961 0.000745
# 3 -0.003551 -0.003387 0.021686 0.000144 0.003222 -0.000683
# 4 0.004525 -0.002448 0.000144 0.024726 0.001490 0.001530
# 5 0.017386 -0.002961 0.003222 0.001490 0.042621 -0.001404
# 6 0.000773 0.000745 -0.000683 0.001530 -0.001404 0.018986
#
#
# Mechanical properties :
#
#
# Convention : Reuss Voigt Hill
#
# Bulk Modulus (GPa) = 36.54051 77.38315 56.96183
# Shear Modulus (GPa) = 31.08888 48.96063 40.02476
#
# Velocity S-wave (km/s) = 3.46296 4.34578 3.92924
# Velocity P-wave (km/s) = 5.48492 7.41825 6.52360
#
# Compressibility (1/GPa) = 0.02736689
#
# Stress axis : x y z
#
# Youngs Moduli (GPa) = 49.95257 214.34299 46.11224
#
# Poissons Ratio (x) = 0.54962 0.16373
# Poissons Ratio (y) = 0.12809 0.15618
# Poissons Ratio (z) = 0.17737 0.72598
#
# Static dielectric constant tensor:
#      x y z
#    x 2.087810 0.014720 0.172790 
#    y 0.014720 2.263780 0.023840 
#    z 0.172790 0.023840 2.374920 
# 
# From -- ./inp_files/472545.got.cif
#   From: 2010.05.17/outbox.cif.g08.bks.cpg/sg2_237_cif.got.tgz:472545.got - 2010.06.03 11:33:40.
