data_PCOD9086228
_publ_section_title
;
Structure prediction by ZEFSAII (Michael W. Deem and Ramdas Pophale) SiO2 
 PCOD9086228
Probable space group: P -1
;
_chemical_formula_sum "Si O2"
_cell_formula_units_Z 14
_cell_length_a 11.282781
_cell_length_b 8.439779
_cell_length_c 14.224076
_cell_angle_alpha 100.663815
_cell_angle_beta 132.215675
_cell_angle_gamma 117.691931
_cell_volume 579.031843
_symmetry_space_group_name_H-M "P -1"
_symmetry_group_IT_number 2
_symmetry_cell_setting 'triclinic'
loop_
_space_group_symop_operation_xyz
x,y,z
-x,-y,-z
loop_
_atom_site_type_symbol
_atom_site_label
_atom_site_fract_x
_atom_site_fract_y
_atom_site_fract_z
Si Si1 0.181423 0.923240 0.143173
Si Si2 0.809627 0.466389 0.560431
Si Si3 0.075996 0.924002 0.432932
Si Si4 0.192780 0.943358 0.686189
Si Si5 0.490427 0.654763 0.949122
Si Si6 0.021766 0.139283 0.162801
Si Si7 0.183764 0.786782 0.316677
O O1 0.073507 0.718985 0.145855
O O2 0.507598 0.170862 0.335493
O O3 0.031301 0.792827 0.949515
O O4 0.142656 0.072885 0.179688
O O5 0.928074 0.434083 0.693967
O O6 0.002938 0.650576 0.594728
O O7 0.810234 0.630121 0.642275
O O8 0.281869 0.034108 0.635717
O O9 0.159065 0.935339 0.375583
O O10 0.804385 0.601644 0.280478
O O11 0.993534 0.043922 0.402341
O O12 0.441833 0.157811 0.915350
O O13 0.500000 0.500000 0.000000
O O14 0.728758 0.859792 0.022850
O O15 0.500000 0.000000 0.500000
#
# Coordination Sequence:
#
# PCOD9086228 Si02
#       7
#     2   2   2   2   2   2   2
#     4  10  20  36  55  79 110 146 185 226 268 315
#     4  10  20  36  54  79 112 144 180 223 271 325
#     4  10  19  36  57  78 109 142 178 227 272 315
#     4   9  19  34  58  84 102 136 186 228 270 316
#     4   9  17  32  53  80 107 130 171 228 274 313
#     4  10  20  34  58  83 105 141 188 229 268 317
#     4  10  22  38  55  78 114 152 179 216 272 331
#
# _framework density 24.178290000000001
#
# number of rings (size 3 to 8) (size 9 to 14) (size 15 to 20)
#    0.000    2.286    0.000    3.857    0.000    2.286 
#    0.000   14.286    0.000    0.000    0.000    0.000 
#    0.000    0.000    0.000    0.000    0.000    0.000 
#
# Total GULP energy -78164.257771 kJ/mol
# GULP energy per Si atom -5583.161269 kJ/mol
# Density = 2.412326 g / cm^3
# Si number density = 24.178290 Si / 1000 Ang^3
#
#
#
# Elastic Constant Matrix: (Units=GPa)
#
#
# Indices 1 2 3 4 5 6 
#
# 1 53.8364 -0.8368 6.9505 0.4813 -6.5297 4.4633
# 2 -0.8368 124.9529 9.7675 -27.0671 -0.1654 24.4617
# 3 6.9505 9.7675 49.7668 -11.5551 -3.4702 9.3973
# 4 0.4813 -27.0671 -11.5551 30.0252 9.6926 -10.3146
# 5 -6.5297 -0.1654 -3.4702 9.6926 25.0308 -8.2177
# 6 4.4633 24.4617 9.3973 -10.3146 -8.2177 30.8979
#
#
#
# Elastic Compliance Matrix: (Units=1/GPa)
#
#
# Indices 1 2 3 4 5 6 
#
# 1 0.019829 -0.000189 -0.002963 -0.004059 0.005798 -0.001626
# 2 -0.000189 0.011674 0.001169 0.010354 -0.006384 -0.007812
# 3 -0.002963 0.001169 0.023194 0.009131 -0.002809 -0.005251
# 4 -0.004059 0.010354 0.009131 0.053312 -0.019652 0.002182
# 5 0.005798 -0.006384 -0.002809 -0.019652 0.052759 0.012543
# 6 -0.001626 -0.007812 -0.005251 0.002182 0.012543 0.044446
#
#
# Mechanical properties :
#
#
# Convention : Reuss Voigt Hill
#
# Bulk Modulus (GPa) = 19.71175 28.92427 24.31801
# Shear Modulus (GPa) = 22.11509 31.36910 26.74210
#
# Velocity S-wave (km/s) = 3.02763 3.60586 3.32932
# Velocity P-wave (km/s) = 4.51579 5.41528 4.98586
#
# Compressibility (1/GPa) = 0.05073117
#
# Stress axis : x y z
#
# Youngs Moduli (GPa) = 50.43166 85.65910 43.11515
#
# Poissons Ratio (x) = 0.01616 0.12776
# Poissons Ratio (y) = 0.00952 -0.05041
# Poissons Ratio (z) = 0.14944 -0.10015
#
# Static dielectric constant tensor:
#      x y z
#    x 1.962980 -0.046140 -0.036540 
#    y -0.046140 1.960650 -0.011200 
#    z -0.036540 -0.011200 1.952790 
# 
# From -- ./inp_files/155267.got.cif
#   From: 2010.05.17/outbox.cif.g08.bks.cpg/sg2_78_cif.got.tgz:155267.got - 2010.06.03 11:33:40.
