data_PCOD9086333
_publ_section_title
;
Structure prediction by ZEFSAII (Michael W. Deem and Ramdas Pophale) SiO2 
 PCOD9086333
Probable space group: P -1
;
_chemical_formula_sum "Si O2"
_cell_formula_units_Z 14
_cell_length_a 9.600672
_cell_length_b 6.773894
_cell_length_c 11.667379
_cell_angle_alpha 54.082166
_cell_angle_beta 115.488939
_cell_angle_gamma 116.194715
_cell_volume 535.836691
_symmetry_space_group_name_H-M "P -1"
_symmetry_group_IT_number 2
_symmetry_cell_setting 'triclinic'
loop_
_space_group_symop_operation_xyz
x,y,z
-x,-y,-z
loop_
_atom_site_type_symbol
_atom_site_label
_atom_site_fract_x
_atom_site_fract_y
_atom_site_fract_z
Si Si1 0.663604 0.654286 0.455271
Si Si2 0.453979 0.031578 0.843982
Si Si3 0.871917 0.101972 0.495802
Si Si4 0.811357 0.051128 0.957287
Si Si5 0.944286 0.449116 0.706842
Si Si6 0.922153 0.771934 0.821759
Si Si7 0.683670 0.520809 0.023850
O O1 0.500000 0.500000 0.500000
O O2 0.794272 0.499829 0.566863
O O3 0.627635 0.746143 0.286424
O O4 0.710204 0.912779 0.458789
O O5 0.636730 0.090174 0.843756
O O6 0.323961 0.769964 0.859118
O O7 0.500000 0.000000 0.000000
O O8 0.909039 0.392390 0.372382
O O9 0.898753 0.020704 0.662008
O O10 0.000000 0.000000 0.500000
O O11 0.911798 0.168340 0.840885
O O12 0.774374 0.750401 0.056465
O O13 0.916804 0.172938 0.062834
O O14 0.940945 0.595592 0.779268
O O15 0.767891 0.623257 0.895533
O O16 0.500000 0.500000 0.000000
#
# Coordination Sequence:
#
# PCOD9086333 Si02
#       7
#     2   2   2   2   2   2   2
#     4  10  19  36  57  87 125 150 202 246 311 334
#     4  11  24  36  65  91 118 162 207 256 298 361
#     4   8  20  35  59  88 125 153 192 259 297 351
#     4  11  22  38  62  90 125 163 202 250 307 361
#     4  10  21  39  64  95 123 157 200 260 298 361
#     4  10  20  39  64  89 121 162 210 246 298 365
#     4  10  24  42  58  89 128 159 205 252 308 359
#
# _framework density 26.127362999999999
#
# number of rings (size 3 to 8) (size 9 to 14) (size 15 to 20)
#    0.000    2.286    1.429    1.714   10.000    0.000 
#    0.000    0.714    3.143    7.714    0.000    0.000 
#    0.000    0.000    0.000    0.000    0.000    0.000 
#
# Total GULP energy -78054.535506 kJ/mol
# GULP energy per Si atom -5575.323965 kJ/mol
# Density = 2.606790 g / cm^3
# Si number density = 26.127363 Si / 1000 Ang^3
#
#
#
# Elastic Constant Matrix: (Units=GPa)
#
#
# Indices 1 2 3 4 5 6 
#
# 1 100.0102 46.7626 36.5587 -1.2368 -16.1027 35.2155
# 2 46.7626 113.2469 66.4378 -20.2871 -0.7072 48.7125
# 3 36.5587 66.4378 198.7670 -17.2723 -2.3659 19.3807
# 4 -1.2368 -20.2871 -17.2723 55.3296 0.7011 -9.9338
# 5 -16.1027 -0.7072 -2.3659 0.7011 43.4113 -0.8397
# 6 35.2155 48.7125 19.3807 -9.9338 -0.8397 49.3944
#
#
#
# Elastic Compliance Matrix: (Units=1/GPa)
#
#
# Indices 1 2 3 4 5 6 
#
# 1 0.015476 -0.002259 -0.001402 -0.002547 0.005501 -0.008675
# 2 -0.002259 0.019378 -0.004332 0.002984 -0.001101 -0.015220
# 3 -0.001402 -0.004332 0.006534 0.000942 -0.000194 0.002893
# 4 -0.002547 0.002984 0.000942 0.019864 -0.001118 0.002479
# 5 0.005501 -0.001101 -0.000194 -0.001118 0.025016 -0.002560
# 6 -0.008675 -0.015220 0.002893 0.002479 -0.002560 0.040759
#
#
# Mechanical properties :
#
#
# Convention : Reuss Voigt Hill
#
# Bulk Modulus (GPa) = 39.36230 79.06026 59.21128
# Shear Modulus (GPa) = 33.00760 47.11141 40.05951
#
# Velocity S-wave (km/s) = 3.55820 4.25095 3.91991
# Velocity P-wave (km/s) = 5.65502 7.37695 6.57262
#
# Compressibility (1/GPa) = 0.02540502
#
# Stress axis : x y z
#
# Youngs Moduli (GPa) = 64.61507 51.60364 153.04384
#
# Poissons Ratio (x) = 0.11656 0.21449
# Poissons Ratio (y) = 0.14595 0.66293
# Poissons Ratio (z) = 0.09056 0.22353
#
# Static dielectric constant tensor:
#      x y z
#    x 2.593620 0.130980 0.135640 
#    y 0.130980 2.349270 0.073520 
#    z 0.135640 0.073520 2.152210 
# 
# From -- ./inp_files/411720.got.cif
#   From: 2010.05.17/outbox.cif.g08.bks.cpg/sg2_206_cif.got.tgz:411720.got - 2010.06.03 11:33:40.
