data_PCOD9086774
_publ_section_title
;
Structure prediction by ZEFSAII (Michael W. Deem and Ramdas Pophale) SiO2 
 PCOD9086774
Probable space group: P -1
;
_chemical_formula_sum "Si O2"
_cell_formula_units_Z 16
_cell_length_a 12.690215
_cell_length_b 13.891093
_cell_length_c 13.788375
_cell_angle_alpha 28.689783
_cell_angle_beta 146.125992
_cell_angle_gamma 136.398531
_cell_volume 650.294114
_symmetry_space_group_name_H-M "P -1"
_symmetry_group_IT_number 2
_symmetry_cell_setting 'triclinic'
loop_
_space_group_symop_operation_xyz
x,y,z
-x,-y,-z
loop_
_atom_site_type_symbol
_atom_site_label
_atom_site_fract_x
_atom_site_fract_y
_atom_site_fract_z
Si Si1 0.718872 0.074585 0.203304
Si Si2 0.519097 0.879901 0.849184
Si Si3 0.937851 0.595723 0.602724
Si Si4 0.347016 0.298632 0.316557
Si Si5 0.687761 0.610016 0.577049
Si Si6 0.690058 0.376015 0.230655
Si Si7 0.298739 0.504454 0.667680
Si Si8 0.006717 0.039936 0.305411
O O1 0.547423 0.174416 0.043386
O O2 0.829232 0.149665 0.126798
O O3 0.500733 0.881493 0.380153
O O4 0.659233 0.850112 0.328001
O O5 0.378806 0.816255 0.710516
O O6 0.129859 0.951253 0.569547
O O7 0.696680 0.734574 0.092893
O O8 0.860471 0.558150 0.683850
O O9 0.809803 0.484116 0.525900
O O10 0.150739 0.532704 0.796321
O O11 0.939501 0.840861 0.374799
O O12 0.284214 0.411317 0.267699
O O13 0.482770 0.434827 0.236714
O O14 0.154840 0.185824 0.238468
O O15 0.500000 0.500000 0.500000
O O16 0.777514 0.364743 0.416070
O O17 0.500000 0.500000 0.000000
#
# Coordination Sequence:
#
# PCOD9086774 Si02
#       8
#     2   2   2   2   2   2   2   2
#     4   8  14  28  55  77 107 154 190 216 285 351
#     4   9  19  38  57  81 117 154 192 236 289 336
#     4  11  18  35  60  86 116 154 190 243 292 338
#     4  10  19  36  60  87 115 157 193 229 293 357
#     4   9  16  29  55  90 116 148 183 232 294 352
#     4  10  21  38  60  82 111 161 201 236 289 338
#     4  11  23  34  60  88 117 148 202 238 285 340
#     4   8  15  29  55  82 105 150 192 224 285 349
#
# _framework density 24.604251000000001
#
# number of rings (size 3 to 8) (size 9 to 14) (size 15 to 20)
#    0.000    2.750    3.750    1.125    0.000    0.500 
#    0.000    6.250    5.500    2.250    0.000    0.000 
#    0.000    0.000    0.000    0.000    0.000    0.000 
#
# Total GULP energy -89168.457518 kJ/mol
# GULP energy per Si atom -5573.028595 kJ/mol
# Density = 2.454825 g / cm^3
# Si number density = 24.604251 Si / 1000 Ang^3
#
#
#
# Elastic Constant Matrix: (Units=GPa)
#
#
# Indices 1 2 3 4 5 6 
#
# 1 151.3500 61.4356 22.2321 -11.2334 21.0113 -5.6223
# 2 61.4356 138.1412 12.0281 1.6191 1.5148 -4.4520
# 3 22.2321 12.0281 38.6144 -9.7261 8.7038 -2.6408
# 4 -11.2334 1.6191 -9.7261 22.4431 4.6679 1.8330
# 5 21.0113 1.5148 8.7038 4.6679 30.4465 -1.3990
# 6 -5.6223 -4.4520 -2.6408 1.8330 -1.3990 32.4777
#
#
#
# Elastic Compliance Matrix: (Units=1/GPa)
#
#
# Indices 1 2 3 4 5 6 
#
# 1 0.010045 -0.004349 -0.001152 0.006339 -0.007341 0.000375
# 2 -0.004349 0.009429 -0.002508 -0.004846 0.004028 0.000783
# 3 -0.001152 -0.002508 0.034170 0.016713 -0.011374 0.000802
# 4 0.006339 -0.004846 0.016713 0.059279 -0.018107 -0.002334
# 5 -0.007341 0.004028 -0.011374 -0.018107 0.043796 0.001265
# 6 0.000375 0.000783 0.000802 -0.002334 0.001265 0.031214
#
#
# Mechanical properties :
#
#
# Convention : Reuss Voigt Hill
#
# Bulk Modulus (GPa) = 26.57721 57.72191 42.14956
# Shear Modulus (GPa) = 23.09549 32.56746 27.83147
#
# Velocity S-wave (km/s) = 3.06711 3.64215 3.36693
# Velocity P-wave (km/s) = 4.83407 6.41857 5.68183
#
# Compressibility (1/GPa) = 0.03762623
#
# Stress axis : x y z
#
# Youngs Moduli (GPa) = 99.54984 106.05281 29.26577
#
# Poissons Ratio (x) = 0.46120 0.03371
# Poissons Ratio (y) = 0.43292 0.07340
# Poissons Ratio (z) = 0.11467 0.26600
#
# Static dielectric constant tensor:
#      x y z
#    x 1.993020 -0.002140 -0.021630 
#    y -0.002140 1.974820 0.036140 
#    z -0.021630 0.036140 2.039600 
# 
# From -- ./inp_files/522222.got.cif
#   From: 2010.05.17/outbox.cif.g08.bks.cpg/sg2_262_cif.got.tgz:522222.got - 2010.06.03 11:33:40.
