data_PCOD9086986
_publ_section_title
;
Structure prediction by ZEFSAII (Michael W. Deem and Ramdas Pophale) SiO2 
 PCOD9086986
Probable space group: P -1
;
_chemical_formula_sum "Si O2"
_cell_formula_units_Z 16
_cell_length_a 8.061246
_cell_length_b 19.774164
_cell_length_c 15.683051
_cell_angle_alpha 163.969733
_cell_angle_beta 84.226916
_cell_angle_gamma 96.643669
_cell_volume 685.199593
_symmetry_space_group_name_H-M "P -1"
_symmetry_group_IT_number 2
_symmetry_cell_setting 'triclinic'
loop_
_space_group_symop_operation_xyz
x,y,z
-x,-y,-z
loop_
_atom_site_type_symbol
_atom_site_label
_atom_site_fract_x
_atom_site_fract_y
_atom_site_fract_z
Si Si1 0.285934 0.055720 0.692272
Si Si2 0.324263 0.590655 0.590244
Si Si3 0.256700 0.307098 0.837890
Si Si4 0.212441 0.581785 0.402224
Si Si5 0.108170 0.263486 0.317314
Si Si6 0.542958 0.729504 0.370419
Si Si7 0.066644 0.722184 0.414849
Si Si8 0.724881 0.875143 0.698749
O O1 0.447499 0.938264 0.579391
O O2 0.131512 0.895423 0.545700
O O3 0.271741 0.069960 0.608348
O O4 0.273621 0.328160 0.058468
O O5 0.500000 0.500000 0.500000
O O6 0.317901 0.658567 0.573065
O O7 0.184690 0.373569 0.359736
O O8 0.281290 0.833622 0.937745
O O9 0.420859 0.485958 0.070999
O O10 0.096545 0.448387 0.047421
O O11 0.284729 0.282875 0.706697
O O12 0.191984 0.752848 0.527964
O O13 0.022215 0.557004 0.418377
O O14 0.259158 0.234292 0.340122
O O15 0.000000 0.000000 0.000000
O O16 0.578048 0.779968 0.528390
O O17 0.891918 0.792355 0.544555
#
# Coordination Sequence:
#
# PCOD9086986 Si02
#       8
#     2   2   2   2   2   2   2   2
#     4  10  19  36  61  87 118 155 206 241 303 364
#     4  12  26  40  61  94 125 162 209 260 305 361
#     4   9  20  40  62  90 117 163 203 243 312 375
#     4  10  21  37  62  85 119 164 208 241 299 374
#     4  11  24  43  65  86 122 173 210 249 305 367
#     4  10  21  38  62  88 126 157 198 255 310 362
#     4   9  21  37  61  89 113 161 202 251 294 366
#     4  11  24  41  60  89 125 158 206 255 304 351
#
# _framework density 23.350860999999998
#
# number of rings (size 3 to 8) (size 9 to 14) (size 15 to 20)
#    0.000    1.750    1.250    2.250    3.500    5.000 
#    2.250    0.625    0.000    0.000    0.000    0.000 
#    0.000    0.000    0.000    0.000    0.000    0.000 
#
# Total GULP energy -89387.732226 kJ/mol
# GULP energy per Si atom -5586.733264 kJ/mol
# Density = 2.329771 g / cm^3
# Si number density = 23.350861 Si / 1000 Ang^3
#
#
#
# Elastic Constant Matrix: (Units=GPa)
#
#
# Indices 1 2 3 4 5 6 
#
# 1 69.3312 5.3297 11.1859 9.7859 -20.4324 -0.8053
# 2 5.3297 110.3354 10.5768 14.5242 9.7020 -7.2281
# 3 11.1859 10.5768 41.5124 7.6772 -10.2030 -6.4524
# 4 9.7859 14.5242 7.6772 25.7080 -4.2350 -1.4841
# 5 -20.4324 9.7020 -10.2030 -4.2350 35.3202 -6.0064
# 6 -0.8053 -7.2281 -6.4524 -1.4841 -6.0064 36.8895
#
#
#
# Elastic Compliance Matrix: (Units=1/GPa)
#
#
# Indices 1 2 3 4 5 6 
#
# 1 0.018344 -0.001022 -0.001121 -0.004285 0.010312 0.001511
# 2 -0.001022 0.010541 -0.002452 -0.005583 -0.004760 0.000615
# 3 -0.001121 -0.002452 0.029014 -0.005071 0.008784 0.005796
# 4 -0.004285 -0.005583 -0.005071 0.045727 0.003119 0.000273
# 5 0.010312 -0.004760 0.008784 0.003119 0.039760 0.007428
# 6 0.001511 0.000615 0.005796 0.000273 0.007428 0.029496
#
#
# Mechanical properties :
#
#
# Convention : Reuss Voigt Hill
#
# Bulk Modulus (GPa) = 20.53042 30.59598 25.56320
# Shear Modulus (GPa) = 25.21306 32.52266 28.86786
#
# Velocity S-wave (km/s) = 3.28952 3.73605 3.51987
# Velocity P-wave (km/s) = 4.82070 5.63400 5.24314
#
# Compressibility (1/GPa) = 0.04870822
#
# Stress axis : x y z
#
# Youngs Moduli (GPa) = 54.51268 94.86322 34.46658
#
# Poissons Ratio (x) = 0.09700 0.03863
# Poissons Ratio (y) = 0.05574 0.08452
# Poissons Ratio (z) = 0.06110 0.23264
#
# Static dielectric constant tensor:
#      x y z
#    x 1.909370 0.006480 -0.013680 
#    y 0.006480 1.908490 -0.022720 
#    z -0.013680 -0.022720 1.873860 
# 
# From -- ./inp_files/137371.got.cif
#   From: 2010.05.17/outbox.cif.g08.bks.cpg/sg2_69_cif.got.tgz:137371.got - 2010.06.03 11:33:40.
