data_PCOD9086100
_publ_section_title
;
Structure prediction by ZEFSAII (Michael W. Deem and Ramdas Pophale) SiO2 
 PCOD9086100
Probable space group: P -1
;
_chemical_formula_sum "Si O2"
_cell_formula_units_Z 14
_cell_length_a 16.982618
_cell_length_b 6.475553
_cell_length_c 19.069804
_cell_angle_alpha 127.934506
_cell_angle_beta 20.215982
_cell_angle_gamma 119.705942
_cell_volume 545.523549
_symmetry_space_group_name_H-M "P -1"
_symmetry_group_IT_number 2
_symmetry_cell_setting 'triclinic'
loop_
_space_group_symop_operation_xyz
x,y,z
-x,-y,-z
loop_
_atom_site_type_symbol
_atom_site_label
_atom_site_fract_x
_atom_site_fract_y
_atom_site_fract_z
Si Si1 0.004758 0.793447 0.123979
Si Si2 0.504771 0.405989 0.762245
Si Si3 0.371673 0.656063 0.504234
Si Si4 0.803479 0.270987 0.190179
Si Si5 0.810505 0.867232 0.444802
Si Si6 0.179923 0.802587 0.229386
Si Si7 0.093241 0.371562 0.469145
O O1 0.921619 0.519535 0.141408
O O2 0.999118 0.872808 0.226567
O O3 0.216329 0.769148 0.885746
O O4 0.794202 0.045080 0.319206
O O5 0.448182 0.418309 0.728809
O O6 0.748645 0.482499 0.588255
O O7 0.569186 0.094854 0.670788
O O8 0.326839 0.609609 0.006176
O O9 0.404403 0.686209 0.567663
O O10 0.230931 0.428032 0.573998
O O11 0.000000 0.000000 0.000000
O O12 0.918155 0.934586 0.440816
O O13 0.135754 0.624362 0.292879
O O14 0.247948 0.058483 0.257321
O O15 0.000000 0.500000 0.500000
#
# Coordination Sequence:
#
# PCOD9086100 Si02
#       7
#     2   2   2   2   2   2   2
#     4   8  15  26  50  80 115 150 189 228 276 329
#     4  11  22  38  59  84 112 150 189 235 287 335
#     4   9  17  31  53  78 117 148 188 234 274 335
#     4   8  13  25  47  83 113 151 191 223 276 332
#     4  10  19  36  54  83 115 147 192 234 276 342
#     4  11  24  39  60  83 112 149 189 234 290 339
#     4  11  23  42  59  82 113 145 190 240 283 346
#
# _framework density 25.663418
#
# number of rings (size 3 to 8) (size 9 to 14) (size 15 to 20)
#    0.000    2.286    2.857    0.429    0.000    1.714 
#    0.000    0.000    0.000    0.857    0.000   90.000 
#    0.000    0.000    0.000    0.000    0.000    0.000 
#
# Total GULP energy -78153.817055 kJ/mol
# GULP energy per Si atom -5582.415504 kJ/mol
# Density = 2.560501 g / cm^3
# Si number density = 25.663418 Si / 1000 Ang^3
#
#
#
# Elastic Constant Matrix: (Units=GPa)
#
#
# Indices 1 2 3 4 5 6 
#
# 1 106.2247 49.2114 19.4309 -6.3733 27.7599 -27.1907
# 2 49.2114 165.4612 42.0096 16.1825 8.5200 -13.5895
# 3 19.4309 42.0096 142.6260 -4.7773 49.8874 -8.7363
# 4 -6.3733 16.1825 -4.7773 29.7064 -5.5886 5.6320
# 5 27.7599 8.5200 49.8874 -5.5886 41.3286 -16.0576
# 6 -27.1907 -13.5895 -8.7363 5.6320 -16.0576 49.7943
#
#
#
# Elastic Compliance Matrix: (Units=1/GPa)
#
#
# Indices 1 2 3 4 5 6 
#
# 1 0.015294 -0.005034 0.004037 0.003730 -0.012325 0.003290
# 2 -0.005034 0.009026 -0.004426 -0.005771 0.006772 0.001775
# 3 0.004037 -0.004426 0.014905 0.002403 -0.020770 -0.003359
# 4 0.003730 -0.005771 0.002403 0.038603 -0.000400 -0.003612
# 5 -0.012325 0.006772 -0.020770 -0.000400 0.060365 0.010985
# 6 0.003290 0.001775 -0.003359 -0.003612 0.010985 0.025725
#
#
# Mechanical properties :
#
#
# Convention : Reuss Voigt Hill
#
# Bulk Modulus (GPa) = 35.23760 70.62396 52.93078
# Shear Modulus (GPa) = 27.14081 44.40987 35.77534
#
# Velocity S-wave (km/s) = 3.25555 4.16441 3.73771
# Velocity P-wave (km/s) = 5.28129 7.12054 6.26874
#
# Compressibility (1/GPa) = 0.02837878
#
# Stress axis : x y z
#
# Youngs Moduli (GPa) = 65.38301 110.79002 67.09193
#
# Poissons Ratio (x) = 0.55769 -0.27082
# Poissons Ratio (y) = 0.32912 0.29696
# Poissons Ratio (z) = -0.26392 0.49038
#
# Static dielectric constant tensor:
#      x y z
#    x 1.970310 -0.032790 0.009330 
#    y -0.032790 1.989780 0.054320 
#    z 0.009330 0.054320 2.168150 
# 
# From -- ./inp_files/7672.got.cif
#   From: 2010.05.17/outbox.cif.g08.bks.cpg/sg2_4_cif.got.tgz:7672.got - 2010.06.03 11:33:40.
