data_PCOD9086712
_publ_section_title
;
Structure prediction by ZEFSAII (Michael W. Deem and Ramdas Pophale) SiO2 
 PCOD9086712
Probable space group: P -1
;
_chemical_formula_sum "Si O2"
_cell_formula_units_Z 14
_cell_length_a 7.859008
_cell_length_b 17.085946
_cell_length_c 7.639269
_cell_angle_alpha 46.678262
_cell_angle_beta 125.554570
_cell_angle_gamma 127.523039
_cell_volume 567.589892
_symmetry_space_group_name_H-M "P -1"
_symmetry_group_IT_number 2
_symmetry_cell_setting 'triclinic'
loop_
_space_group_symop_operation_xyz
x,y,z
-x,-y,-z
loop_
_atom_site_type_symbol
_atom_site_label
_atom_site_fract_x
_atom_site_fract_y
_atom_site_fract_z
Si Si1 0.682526 0.904078 0.311297
Si Si2 0.257157 0.513505 0.670681
Si Si3 0.335511 0.534820 0.098719
Si Si4 0.254735 0.736601 0.310557
Si Si5 0.953469 0.838854 0.855216
Si Si6 0.056625 0.680375 0.659266
Si Si7 0.878266 0.864475 0.164278
O O1 0.422936 0.864838 0.261584
O O2 0.676979 0.861484 0.174006
O O3 0.775758 0.833600 0.611319
O O4 0.853694 0.033813 0.232951
O O5 0.402123 0.448062 0.761020
O O6 0.375153 0.647331 0.478505
O O7 0.000000 0.500000 0.500000
O O8 0.280619 0.502590 0.909771
O O9 0.171604 0.425395 0.274379
O O10 0.251975 0.641990 0.923022
O O11 0.124979 0.689407 0.483684
O O12 0.079036 0.748637 0.047112
O O13 0.846777 0.820445 0.014091
O O14 0.014070 0.801274 0.460389
O O15 0.000000 0.000000 0.000000
#
# Coordination Sequence:
#
# PCOD9086712 Si02
#       7
#     2   2   2   2   2   2   2
#     4  10  19  36  60  83 117 159 196 246 299 349
#     4  10  21  36  57  85 113 149 201 251 301 360
#     4   9  19  37  56  77 113 154 196 246 298 355
#     4  10  20  34  55  83 116 153 196 246 300 355
#     4   9  20  36  56  85 117 154 199 244 298 358
#     4   9  18  35  55  79 115 157 193 240 301 349
#     4   9  18  34  57  86 119 153 197 246 292 355
#
# _framework density 24.665694999999999
#
# number of rings (size 3 to 8) (size 9 to 14) (size 15 to 20)
#    0.000    2.571    0.000    1.286    0.000    4.571 
#    0.000   13.571    0.000   14.571    0.000    0.000 
#    0.000    0.000    0.000    0.000    0.000    0.000 
#
# Total GULP energy -77991.726322 kJ/mol
# GULP energy per Si atom -5570.837594 kJ/mol
# Density = 2.460955 g / cm^3
# Si number density = 24.665695 Si / 1000 Ang^3
#
#
#
# Elastic Constant Matrix: (Units=GPa)
#
#
# Indices 1 2 3 4 5 6 
#
# 1 94.4479 25.6107 46.3529 -3.3342 2.4217 16.5980
# 2 25.6107 64.2405 24.9910 -5.5520 3.8101 18.3721
# 3 46.3529 24.9910 149.1384 -4.9182 11.5906 12.5292
# 4 -3.3342 -5.5520 -4.9182 37.4153 1.1971 6.5883
# 5 2.4217 3.8101 11.5906 1.1971 42.0455 -2.9506
# 6 16.5980 18.3721 12.5292 6.5883 -2.9506 34.9890
#
#
#
# Elastic Compliance Matrix: (Units=1/GPa)
#
#
# Indices 1 2 3 4 5 6 
#
# 1 0.013804 -0.002953 -0.003438 0.001032 0.000114 -0.003951
# 2 -0.002953 0.020644 -0.001392 0.004439 -0.002142 -0.009957
# 3 -0.003438 -0.001392 0.008270 0.000802 -0.002043 -0.000923
# 4 0.001032 0.004439 0.000802 0.029198 -0.002131 -0.008785
# 5 0.000114 -0.002142 -0.002043 -0.002131 0.024897 0.004303
# 6 -0.003951 -0.009957 -0.000923 -0.008785 0.004303 0.038030
#
#
# Mechanical properties :
#
#
# Convention : Reuss Voigt Hill
#
# Bulk Modulus (GPa) = 36.83217 55.74844 46.29030
# Shear Modulus (GPa) = 31.35581 36.94813 34.15197
#
# Velocity S-wave (km/s) = 3.56930 3.87454 3.72505
# Velocity P-wave (km/s) = 5.65257 6.53198 6.10812
#
# Compressibility (1/GPa) = 0.02715018
#
# Stress axis : x y z
#
# Youngs Moduli (GPa) = 72.44289 48.44137 120.92138
#
# Poissons Ratio (x) = 0.14306 0.41577
# Poissons Ratio (y) = 0.21394 0.16833
# Poissons Ratio (z) = 0.24908 0.06743
#
# Static dielectric constant tensor:
#      x y z
#    x 2.031160 -0.093750 0.102300 
#    y -0.093750 2.201140 -0.193080 
#    z 0.102300 -0.193080 2.063100 
# 
# From -- ./inp_files/220391.got.cif
#   From: 2010.05.17/outbox.cif.g08.bks.cpg/sg2_111_cif.got.tgz:220391.got - 2010.06.03 11:33:40.
