data_PCOD9086198
_publ_section_title
;
Structure prediction by ZEFSAII (Michael W. Deem and Ramdas Pophale) SiO2 
 PCOD9086198
Probable space group: P -1
;
_chemical_formula_sum "Si O2"
_cell_formula_units_Z 16
_cell_length_a 10.760950
_cell_length_b 8.272190
_cell_length_c 14.841777
_cell_angle_alpha 114.336893
_cell_angle_beta 85.718788
_cell_angle_gamma 137.380960
_cell_volume 757.073401
_symmetry_space_group_name_H-M "P -1"
_symmetry_group_IT_number 2
_symmetry_cell_setting 'triclinic'
loop_
_space_group_symop_operation_xyz
x,y,z
-x,-y,-z
loop_
_atom_site_type_symbol
_atom_site_label
_atom_site_fract_x
_atom_site_fract_y
_atom_site_fract_z
Si Si1 0.083866 0.754896 0.284235
Si Si2 0.796002 0.362955 0.359194
Si Si3 0.428644 0.034326 0.218021
Si Si4 0.675132 0.838460 0.276976
Si Si5 0.871288 0.027855 0.490328
Si Si6 0.692404 0.799637 0.884062
Si Si7 0.489799 0.818459 0.024570
Si Si8 0.912509 0.821623 0.154045
O O1 0.229160 0.793186 0.229375
O O2 0.202818 0.981379 0.411420
O O3 0.991249 0.794012 0.229027
O O4 0.909936 0.466240 0.281128
O O5 0.963508 0.643727 0.473760
O O6 0.611637 0.286060 0.329366
O O7 0.710294 0.085928 0.334984
O O8 0.385022 0.138962 0.170863
O O9 0.488168 0.913858 0.141784
O O10 0.461183 0.531895 0.188441
O O11 0.834927 0.920678 0.221743
O O12 0.718446 0.823893 0.373374
O O13 0.000000 0.000000 0.500000
O O14 0.658812 0.866333 0.995821
O O15 0.910580 0.984812 0.883715
O O16 0.281262 0.490633 0.945322
O O17 0.500000 0.000000 0.000000
#
# Coordination Sequence:
#
# PCOD9086198 Si02
#       8
#     2   2   2   2   2   2   2   2
#     4   9  20  34  56  82 109 141 187 226 273 324
#     4  10  22  35  56  80 116 147 179 229 274 331
#     4  10  19  37  55  84 110 144 183 231 274 326
#     4  11  20  38  55  80 116 148 182 223 278 328
#     4  10  19  38  60  82 109 143 183 232 276 326
#     4   9  20  35  57  84 109 147 188 229 272 327
#     4   9  18  31  59  84 114 140 182 234 280 320
#     4  10  19  36  56  86 110 146 188 229 273 323
#
# _framework density 21.134015000000002
#
# number of rings (size 3 to 8) (size 9 to 14) (size 15 to 20)
#    0.750    1.500    1.250    3.375    0.000    6.500 
#    2.250    5.000    0.000    4.500    0.000    0.000 
#    0.000    0.000    0.000    0.000    0.000    0.000 
#
# Total GULP energy -89188.408788 kJ/mol
# GULP energy per Si atom -5574.275549 kJ/mol
# Density = 2.108591 g / cm^3
# Si number density = 21.134015 Si / 1000 Ang^3
#
#
#
# Elastic Constant Matrix: (Units=GPa)
#
#
# Indices 1 2 3 4 5 6 
#
# 1 32.5946 31.9999 19.3500 -4.0733 -9.4235 10.6298
# 2 31.9999 78.6007 -5.9998 5.4487 -11.7626 12.3293
# 3 19.3500 -5.9998 33.0070 5.7191 -13.2581 5.8601
# 4 -4.0733 5.4487 5.7191 23.2129 -2.0296 -5.4776
# 5 -9.4235 -11.7626 -13.2581 -2.0296 23.7771 1.3950
# 6 10.6298 12.3293 5.8601 -5.4776 1.3950 37.3089
#
#
#
# Elastic Compliance Matrix: (Units=1/GPa)
#
#
# Indices 1 2 3 4 5 6 
#
# 1 -0.354184 0.217415 0.353622 -0.201691 0.150768 -0.061728
# 2 0.217415 -0.115175 -0.204020 0.115371 -0.076364 0.027956
# 3 0.353622 -0.204020 -0.300365 0.184551 -0.115164 0.045249
# 4 -0.201691 0.115371 0.184551 -0.063366 0.075914 -0.021791
# 5 0.150768 -0.076364 -0.115164 0.075914 0.005635 0.011303
# 6 -0.061728 0.027956 0.045249 -0.021791 0.011303 0.024423
#
#
# Mechanical properties :
#
#
# Convention : Reuss Voigt Hill
#
# Bulk Modulus (GPa) = -28.01986 26.10030 -0.95978
# Shear Modulus (GPa) = -3.22797 23.44992 10.11098
#
# Velocity S-wave (km/s) = -1.23721 3.33465 2.18966
# Velocity P-wave (km/s) = 3.91508 5.21567 2.43674
#
# Compressibility (1/GPa) = -0.03568898
#
# Stress axis : x y z
#
# Youngs Moduli (GPa) = -2.82339 -8.68243 -3.32928
#
# Poissons Ratio (x) = 1.88769 1.17731
# Poissons Ratio (y) = 0.61385 -0.67924
# Poissons Ratio (z) = 0.99842 -1.77139
#
# Static dielectric constant tensor:
#      x y z
#    x 1.820600 0.035240 0.057850 
#    y 0.035240 1.795280 0.023700 
#    z 0.057850 0.023700 1.862900 
# 
# From -- ./inp_files/472245.got.cif
#   From: 2010.05.17/outbox.cif.g08.bks.cpg/sg2_237_cif.got.tgz:472245.got - 2010.06.03 11:33:40.
