data_PCOD9086121
_publ_section_title
;
Structure prediction by ZEFSAII (Michael W. Deem and Ramdas Pophale) SiO2 
 PCOD9086121
Probable space group: P -1
;
_chemical_formula_sum "Si O2"
_cell_formula_units_Z 14
_cell_length_a 14.824381
_cell_length_b 11.757043
_cell_length_c 19.027669
_cell_angle_alpha 154.721799
_cell_angle_beta 156.100176
_cell_angle_gamma 40.903338
_cell_volume 523.340434
_symmetry_space_group_name_H-M "P -1"
_symmetry_group_IT_number 2
_symmetry_cell_setting 'triclinic'
loop_
_space_group_symop_operation_xyz
x,y,z
-x,-y,-z
loop_
_atom_site_type_symbol
_atom_site_label
_atom_site_fract_x
_atom_site_fract_y
_atom_site_fract_z
Si Si1 0.933752 0.702384 0.464387
Si Si2 0.612419 0.229453 0.570961
Si Si3 0.243229 0.314307 0.971883
Si Si4 0.402642 0.621452 0.564817
Si Si5 0.109190 0.851202 0.052039
Si Si6 0.244847 0.015760 0.606103
Si Si7 0.220050 0.337078 0.508612
O O1 0.041016 0.462115 0.413574
O O2 0.809227 0.686916 0.442231
O O3 0.763426 0.691315 0.269795
O O4 0.162698 0.019315 0.796653
O O5 0.792896 0.417881 0.865426
O O6 0.509042 0.481413 0.622439
O O7 0.711072 0.134485 0.519287
O O8 0.387663 0.941756 0.277883
O O9 0.508030 0.456259 0.205788
O O10 0.042034 0.172093 0.688476
O O11 0.500000 0.500000 0.500000
O O12 0.431104 0.953791 0.756492
O O13 0.112067 0.458684 0.273664
O O14 0.138644 0.020170 0.240367
O O15 0.000000 0.000000 0.000000
#
# Coordination Sequence:
#
# PCOD9086121 Si02
#       7
#     2   2   2   2   2   2   2
#     4   9  21  33  54  81 112 140 181 220 265 327
#     4   9  17  32  51  77 107 141 178 220 268 320
#     4   9  19  32  55  79 108 140 178 229 261 315
#     4   9  18  31  51  73 105 142 173 215 273 314
#     4   9  19  33  54  78 102 140 185 224 257 325
#     4   9  19  31  50  80 115 134 179 221 269 318
#     4  10  19  36  55  81 107 145 182 218 274 314
#
# _framework density 26.751228999999999
#
# number of rings (size 3 to 8) (size 9 to 14) (size 15 to 20)
#    0.857    2.000    0.000    0.857    4.000    1.143 
#    0.000    2.857    0.000   15.429    0.000    0.000 
#    0.000    0.000    0.000    0.000    0.000    0.000 
#
# Total GULP energy -78058.517599 kJ/mol
# GULP energy per Si atom -5575.608400 kJ/mol
# Density = 2.669034 g / cm^3
# Si number density = 26.751229 Si / 1000 Ang^3
#
#
#
# Elastic Constant Matrix: (Units=GPa)
#
#
# Indices 1 2 3 4 5 6 
#
# 1 66.8331 10.6186 14.3314 7.9359 1.6618 9.3538
# 2 10.6186 177.3252 1.8357 2.3937 10.2640 28.0117
# 3 14.3314 1.8357 62.4910 4.8940 3.6098 12.5805
# 4 7.9359 2.3937 4.8940 18.2763 -5.0302 15.0732
# 5 1.6618 10.2640 3.6098 -5.0302 27.1705 15.4353
# 6 9.3538 28.0117 12.5805 15.0732 15.4353 14.0210
#
#
#
# Elastic Compliance Matrix: (Units=1/GPa)
#
#
# Indices 1 2 3 4 5 6 
#
# 1 0.016537 -0.000574 -0.003000 -0.004703 -0.000139 -0.001986
# 2 -0.000574 0.005133 -0.000348 -0.007848 -0.007136 0.006734
# 3 -0.003000 -0.000348 0.016727 -0.009620 -0.006858 0.005579
# 4 -0.004703 -0.007848 -0.009620 -0.001160 -0.031995 0.063917
# 5 -0.000139 -0.007136 -0.006858 -0.031995 0.008833 0.045175
# 6 -0.001986 0.006734 0.005579 0.063917 0.045175 -0.064259
#
#
# Mechanical properties :
#
#
# Convention : Reuss Voigt Hill
#
# Bulk Modulus (GPa) = 32.73014 40.02452 36.37733
# Shear Modulus (GPa) = -30866.17633 30.55111 -15417.81261
#
# Velocity S-wave (km/s) = -107.53267 3.38308 -75.99944
# Velocity P-wave (km/s) = 124.11865 5.50041 87.67892
#
# Compressibility (1/GPa) = 0.03055287
#
# Stress axis : x y z
#
# Youngs Moduli (GPa) = 60.47107 194.83611 59.78419
#
# Poissons Ratio (x) = 0.11184 0.17933
# Poissons Ratio (y) = 0.03471 0.02081
# Poissons Ratio (z) = 0.18139 0.06781
#
# Static dielectric constant tensor:
#      x y z
#    x 2.221470 0.074670 -0.053720 
#    y 0.074670 2.196800 -0.032660 
#    z -0.053720 -0.032660 2.069650 
# 
# From -- ./inp_files/554917.got.cif
#   From: 2010.05.17/outbox.cif.g08.bks.cpg/sg2_278_cif.got.tgz:554917.got - 2010.06.03 11:33:40.
