data_PCOD9086241
_publ_section_title
;
Structure prediction by ZEFSAII (Michael W. Deem and Ramdas Pophale) SiO2 
 PCOD9086241
Probable space group: P -1
;
_chemical_formula_sum "Si O2"
_cell_formula_units_Z 16
_cell_length_a 24.388406
_cell_length_b 8.691954
_cell_length_c 7.529255
_cell_angle_alpha 50.490228
_cell_angle_beta 130.019474
_cell_angle_gamma 148.605850
_cell_volume 621.297715
_symmetry_space_group_name_H-M "P -1"
_symmetry_group_IT_number 2
_symmetry_cell_setting 'triclinic'
loop_
_space_group_symop_operation_xyz
x,y,z
-x,-y,-z
loop_
_atom_site_type_symbol
_atom_site_label
_atom_site_fract_x
_atom_site_fract_y
_atom_site_fract_z
Si Si1 0.044269 0.224550 0.766272
Si Si2 0.164543 0.103976 0.969456
Si Si3 0.090397 0.543931 0.322271
Si Si4 0.454799 0.892551 0.785893
Si Si5 0.320047 0.605438 0.205714
Si Si6 0.752841 0.137368 0.271614
Si Si7 0.259379 0.698059 0.348684
Si Si8 0.683088 0.756968 0.099205
O O1 0.002680 0.279754 0.477237
O O2 0.131068 0.553955 0.799582
O O3 0.106067 0.191923 0.796341
O O4 0.000000 0.000000 0.000000
O O5 0.255561 0.321436 0.152941
O O6 0.223998 0.170925 0.863902
O O7 0.079285 0.749163 0.090755
O O8 0.204456 0.799253 0.487861
O O9 0.137212 0.494864 0.305733
O O10 0.346642 0.794954 0.598947
O O11 0.554493 0.181678 0.663144
O O12 0.422873 0.597997 0.890278
O O13 0.500000 0.000000 0.000000
O O14 0.260184 0.533498 0.316228
O O15 0.318991 0.817815 0.943702
O O16 0.705378 0.850055 0.282990
O O17 0.310526 0.010713 0.147891
#
# Coordination Sequence:
#
# PCOD9086241 Si02
#       8
#     2   2   2   2   2   2   2   2
#     4   9  19  37  60  85 111 136 174 227 274 326
#     4  10  19  36  57  80 110 147 180 219 272 330
#     4   9  19  36  56  81 104 145 177 218 273 327
#     4  12  22  35  54  80 113 145 192 233 268 304
#     4  10  20  37  52  80 111 148 189 228 266 317
#     4   8  19  37  56  79 108 144 182 218 276 325
#     4  10  22  36  53  78 110 146 188 224 270 322
#     4  10  21  38  56  78 110 150 183 226 268 322
#
# _framework density 25.752549999999999
#
# number of rings (size 3 to 8) (size 9 to 14) (size 15 to 20)
#    0.750    1.500    1.250    1.875    1.750    3.000 
#    2.250    0.625    0.000   12.000    0.000    0.000 
#    0.000    0.000    0.000    0.000    0.000    0.000 
#
# Total GULP energy -89274.492653 kJ/mol
# GULP energy per Si atom -5579.655791 kJ/mol
# Density = 2.569394 g / cm^3
# Si number density = 25.752550 Si / 1000 Ang^3
#
#
#
# Elastic Constant Matrix: (Units=GPa)
#
#
# Indices 1 2 3 4 5 6 
#
# 1 97.9089 29.0220 12.7305 -1.9382 -4.1213 -17.4805
# 2 29.0220 137.5488 18.0891 -10.7605 0.9483 -16.8628
# 3 12.7305 18.0891 46.0959 -19.6217 1.8020 4.4649
# 4 -1.9382 -10.7605 -19.6217 50.9322 -1.2749 -3.5716
# 5 -4.1213 0.9483 1.8020 -1.2749 36.4165 -2.3553
# 6 -17.4805 -16.8628 4.4649 -3.5716 -2.3553 30.9707
#
#
#
# Elastic Compliance Matrix: (Units=1/GPa)
#
#
# Indices 1 2 3 4 5 6 
#
# 1 0.012438 -0.001323 -0.004016 -0.000815 0.002061 0.006941
# 2 -0.001323 0.008568 -0.003050 0.000901 0.000099 0.004469
# 3 -0.004016 -0.003050 0.028938 0.009804 -0.001924 -0.007115
# 4 -0.000815 0.000901 0.009804 0.023674 0.000317 0.001371
# 5 0.002061 0.000099 -0.001924 0.000317 0.028034 0.003663
# 6 0.006941 0.004469 -0.007115 0.001371 0.003663 0.040102
#
#
# Mechanical properties :
#
#
# Convention : Reuss Voigt Hill
#
# Bulk Modulus (GPa) = 30.15194 44.58188 37.36691
# Shear Modulus (GPa) = 29.48329 38.44466 33.96397
#
# Velocity S-wave (km/s) = 3.38726 3.86793 3.63555
# Velocity P-wave (km/s) = 5.19921 6.10713 5.67137
#
# Compressibility (1/GPa) = 0.03316536
#
# Stress axis : x y z
#
# Youngs Moduli (GPa) = 80.39966 116.71074 34.55719
#
# Poissons Ratio (x) = 0.15443 0.13877
# Poissons Ratio (y) = 0.10639 0.10541
# Poissons Ratio (z) = 0.32285 0.35601
#
# Static dielectric constant tensor:
#      x y z
#    x 2.013140 0.034420 -0.066570 
#    y 0.034420 2.043110 0.015460 
#    z -0.066570 0.015460 2.141720 
# 
# From -- ./inp_files/213395.got.cif
#   From: 2010.05.17/outbox.cif.g08.bks.cpg/sg2_107_cif.got.tgz:213395.got - 2010.06.03 11:33:40.
