data_PCOD9086940
_publ_section_title
;
Structure prediction by ZEFSAII (Michael W. Deem and Ramdas Pophale) SiO2 
 PCOD9086940
Probable space group: P -1
;
_chemical_formula_sum "Si O2"
_cell_formula_units_Z 14
_cell_length_a 20.411248
_cell_length_b 17.964983
_cell_length_c 8.232832
_cell_angle_alpha 31.174409
_cell_angle_beta 31.885861
_cell_angle_gamma 22.473520
_cell_volume 570.667245
_symmetry_space_group_name_H-M "P -1"
_symmetry_group_IT_number 2
_symmetry_cell_setting 'triclinic'
loop_
_space_group_symop_operation_xyz
x,y,z
-x,-y,-z
loop_
_atom_site_type_symbol
_atom_site_label
_atom_site_fract_x
_atom_site_fract_y
_atom_site_fract_z
Si Si1 0.841299 0.334063 0.642400
Si Si2 0.478844 0.869043 0.925842
Si Si3 0.488285 0.722528 0.822172
Si Si4 0.648418 0.483400 0.441501
Si Si5 0.820702 0.014592 0.250326
Si Si6 0.052720 0.697284 0.087375
Si Si7 0.190679 0.283673 0.641291
O O1 0.695755 0.537383 0.680296
O O2 0.777755 0.420496 0.433089
O O3 0.052046 0.175874 0.533850
O O4 0.804616 0.193217 0.005129
O O5 0.459538 0.822349 0.869881
O O6 0.672249 0.784264 0.666491
O O7 0.322290 0.115043 0.817826
O O8 0.490008 0.730699 0.286177
O O9 0.365394 0.881667 0.633592
O O10 0.422740 0.613898 0.190020
O O11 0.763846 0.394272 0.199568
O O12 0.953260 0.895814 0.035551
O O13 0.078612 0.522800 0.451827
O O14 0.929049 0.747769 0.106087
#
# Coordination Sequence:
#
# PCOD9086940 Si02
#       7
#     2   2   2   2   2   2   2
#     4  10  22  38  55  85 125 155 186 224 292 360
#     4  10  19  36  61  85 112 147 195 240 283 336
#     4  11  21  39  59  88 119 155 185 234 290 355
#     4  10  21  35  56  90 121 142 186 242 294 339
#     4  10  20  37  58  83 111 162 186 226 290 343
#     4  10  19  37  60  84 114 144 196 247 275 336
#     4   9  19  35  58  85 108 151 192 240 287 327
#
# _framework density 24.532685000000001
#
# number of rings (size 3 to 8) (size 9 to 14) (size 15 to 20)
#    0.000    2.000    1.429    3.857    0.000    2.286 
#   10.286    0.000    0.000   27.429    0.000    0.000 
#    0.000    0.000    0.000    0.000    0.000    0.000 
#
# Total GULP energy -78171.709442 kJ/mol
# GULP energy per Si atom -5583.693532 kJ/mol
# Density = 2.447685 g / cm^3
# Si number density = 24.532685 Si / 1000 Ang^3
#
#
#
# Elastic Constant Matrix: (Units=GPa)
#
#
# Indices 1 2 3 4 5 6 
#
# 1 102.7660 28.2316 13.6758 -7.4430 7.9561 -18.4720
# 2 28.2316 125.1931 14.2469 -25.5865 9.2736 -17.1827
# 3 13.6758 14.2469 47.3857 -5.3477 2.4729 0.0544
# 4 -7.4430 -25.5865 -5.3477 29.8497 -10.3394 9.5073
# 5 7.9561 9.2736 2.4729 -10.3394 21.7930 0.0370
# 6 -18.4720 -17.1827 0.0544 9.5073 0.0370 43.6390
#
#
#
# Elastic Compliance Matrix: (Units=1/GPa)
#
#
# Indices 1 2 3 4 5 6 
#
# 1 0.011606 -0.001765 -0.002839 -0.002051 -0.004145 0.004672
# 2 -0.001765 0.010368 -0.001753 0.007613 0.000040 0.001679
# 3 -0.002839 -0.001753 0.022747 0.002873 0.000569 -0.002547
# 4 -0.002051 0.007613 0.002873 0.050097 0.020966 -0.008807
# 5 -0.004145 0.000040 0.000569 0.020966 0.057276 -0.006356
# 6 0.004672 0.001679 -0.002547 -0.008807 -0.006356 0.027481
#
#
# Mechanical properties :
#
#
# Convention : Reuss Voigt Hill
#
# Bulk Modulus (GPa) = 31.24328 43.07260 37.15794
# Shear Modulus (GPa) = 24.63556 33.66906 29.15231
#
# Velocity S-wave (km/s) = 3.17234 3.70863 3.45092
# Velocity P-wave (km/s) = 5.11677 5.99449 5.57294
#
# Compressibility (1/GPa) = 0.03200689
#
# Stress axis : x y z
#
# Youngs Moduli (GPa) = 86.16534 96.44621 43.96119
#
# Poissons Ratio (x) = 0.17023 0.12482
# Poissons Ratio (y) = 0.15209 0.07706
# Poissons Ratio (z) = 0.24465 0.16906
#
# Static dielectric constant tensor:
#      x y z
#    x 2.011720 -0.049840 0.038400 
#    y -0.049840 1.992710 -0.022630 
#    z 0.038400 -0.022630 1.941050 
# 
# From -- ./inp_files/355231.got.cif
#   From: 2010.05.17/outbox.cif.g08.bks.cpg/sg2_178_cif.got.tgz:355231.got - 2010.06.03 11:33:40.
