data_PCOD9086974
_publ_section_title
;
Structure prediction by ZEFSAII (Michael W. Deem and Ramdas Pophale) SiO2 
 PCOD9086974
Probable space group: P -1
;
_chemical_formula_sum "Si O2"
_cell_formula_units_Z 15
_cell_length_a 13.696428
_cell_length_b 8.191496
_cell_length_c 11.117088
_cell_angle_alpha 116.981973
_cell_angle_beta 148.387135
_cell_angle_gamma 60.433546
_cell_volume 567.120880
_symmetry_space_group_name_H-M "P -1"
_symmetry_group_IT_number 2
_symmetry_cell_setting 'triclinic'
loop_
_space_group_symop_operation_xyz
x,y,z
-x,-y,-z
loop_
_atom_site_type_symbol
_atom_site_label
_atom_site_fract_x
_atom_site_fract_y
_atom_site_fract_z
Si Si1 0.471489 0.371027 0.813619
Si Si2 0.769867 0.973321 0.319598
Si Si3 0.537165 0.275873 0.472940
Si Si4 0.871000 0.208826 0.949533
Si Si5 0.265643 0.649350 0.514617
Si Si6 0.053184 0.317623 0.411152
Si Si7 0.624634 0.974990 0.927202
Si Si8 0.000000 0.500000 0.000000
O O1 0.447687 0.504398 0.715449
O O2 0.260867 0.324693 0.578201
O O3 0.618075 0.170241 0.917835
O O4 0.500000 0.500000 0.000000
O O5 0.922755 0.857629 0.532614
O O6 0.567583 0.963562 0.169280
O O7 0.793107 0.186023 0.395138
O O8 0.772169 0.892400 0.159675
O O9 0.500000 0.500000 0.500000
O O10 0.672150 0.222919 0.481763
O O11 0.364094 0.185344 0.218581
O O12 0.653264 0.196848 0.685461
O O13 0.913987 0.299010 0.150128
O O14 0.920585 0.344164 0.943304
O O15 0.000000 0.000000 0.000000
O O16 0.120596 0.547313 0.263911
O O17 0.000000 0.500000 0.500000
#
# Coordination Sequence:
#
# PCOD9086974 Si02
#       8
#     2   2   2   2   2   2   2   1
#     4  11  20  36  63  90 118 159 206 252 310 384
#     4   9  18  35  58  84 113 157 202 243 304 382
#     4  10  23  37  61  89 121 159 206 265 320 372
#     4  11  22  42  67  90 123 172 220 255 314 401
#     4  10  19  36  61  87 112 158 211 248 304 382
#     4  11  24  38  62  92 126 161 206 267 322 370
#     4   9  18  34  58  85 115 155 202 245 297 387
#     4  10  20  36  64  86 118 156 224 256 292 372
#
# _framework density 26.449387000000002
#
# number of rings (size 3 to 8) (size 9 to 14) (size 15 to 20)
#    0.000    1.867    2.667    3.200    3.733    0.000 
#    0.000    1.333   11.733    0.000    0.000    0.000 
#    0.000    0.000    0.000    0.000    0.000    0.000 
#
# Total GULP energy -83527.561180 kJ/mol
# GULP energy per Si atom -5568.504079 kJ/mol
# Density = 2.638919 g / cm^3
# Si number density = 26.449387 Si / 1000 Ang^3
#
#
#
# Elastic Constant Matrix: (Units=GPa)
#
#
# Indices 1 2 3 4 5 6 
#
# 1 66.5493 5.1962 23.1966 -7.0414 -9.9639 16.3895
# 2 5.1962 134.8356 45.1288 -4.0902 -41.0212 3.6588
# 3 23.1966 45.1288 187.1448 -17.9061 -61.1582 15.1993
# 4 -7.0414 -4.0902 -17.9061 43.8712 3.6381 -6.8195
# 5 -9.9639 -41.0212 -61.1582 3.6381 49.2942 -0.8209
# 6 16.3895 3.6588 15.1993 -6.8195 -0.8209 29.6085
#
#
#
# Elastic Compliance Matrix: (Units=1/GPa)
#
#
# Indices 1 2 3 4 5 6 
#
# 1 0.018112 0.000830 -0.000373 0.001038 0.003653 -0.009596
# 2 0.000830 0.010050 0.000698 0.000311 0.009345 -0.001729
# 3 -0.000373 0.000698 0.009861 0.002364 0.012497 -0.004051
# 4 0.001038 0.000311 0.002364 0.024414 0.001664 0.003843
# 5 0.003653 0.009345 0.012497 0.001664 0.044051 -0.007988
# 6 -0.009596 -0.001729 -0.004051 0.003843 -0.007988 0.042043
#
#
# Mechanical properties :
#
#
# Convention : Reuss Voigt Hill
#
# Bulk Modulus (GPa) = 24.79385 59.50808 42.15097
# Shear Modulus (GPa) = 31.31574 45.55533 38.43554
#
# Velocity S-wave (km/s) = 3.44464 4.15463 3.81619
# Velocity P-wave (km/s) = 5.02147 6.74999 5.94885
#
# Compressibility (1/GPa) = 0.04033258
#
# Stress axis : x y z
#
# Youngs Moduli (GPa) = 55.21323 99.49840 101.41370
#
# Poissons Ratio (x) = -0.08258 0.03779
# Poissons Ratio (y) = -0.04582 -0.07076
# Poissons Ratio (z) = 0.02058 -0.06942
#
# Static dielectric constant tensor:
#      x y z
#    x 2.303350 -0.066740 0.006270 
#    y -0.066740 2.067260 0.078450 
#    z 0.006270 0.078450 2.170350 
# 
# From -- ./inp_files/461585.got.cif
#   From: 2010.05.17/outbox.cif.g08.bks.cpg/sg2_231_cif.got.tgz:461585.got - 2010.06.03 11:33:40.
