data_PCOD9086387
_publ_section_title
;
Structure prediction by ZEFSAII (Michael W. Deem and Ramdas Pophale) SiO2 
 PCOD9086387
Probable space group: P -1
;
_chemical_formula_sum "Si O2"
_cell_formula_units_Z 8
_cell_length_a 5.222463
_cell_length_b 13.557315
_cell_length_c 8.489457
_cell_angle_alpha 48.299701
_cell_angle_beta 84.076983
_cell_angle_gamma 117.778156
_cell_volume 309.788379
_symmetry_space_group_name_H-M "P -1"
_symmetry_group_IT_number 2
_symmetry_cell_setting 'triclinic'
loop_
_space_group_symop_operation_xyz
x,y,z
-x,-y,-z
loop_
_atom_site_type_symbol
_atom_site_label
_atom_site_fract_x
_atom_site_fract_y
_atom_site_fract_z
Si Si1 0.120005 0.900299 0.044112
Si Si2 0.601128 0.164944 0.468844
Si Si3 0.307321 0.301002 0.143678
Si Si4 0.858084 0.551329 0.582821
O O1 0.261638 0.966875 0.786723
O O2 0.840795 0.686892 0.353875
O O3 0.500000 0.000000 0.000000
O O4 0.000000 0.000000 0.000000
O O5 0.455926 0.224990 0.299796
O O6 0.841961 0.323710 0.426062
O O7 0.883624 0.169971 0.360491
O O8 0.500000 0.500000 0.000000
O O9 0.478527 0.367131 0.887015
O O10 0.000000 0.500000 0.500000
#
# Coordination Sequence:
#
# PCOD9086387 Si02
#       4
#     2   2   2   2
#     4  10  20  37  58  82 112 152 189 224 277 345
#     4  10  20  38  59  79 109 155 191 219 273 350
#     4  10  19  36  58  81 109 151 190 223 273 344
#     4  10  21  37  59  90 116 142 188 246 283 317
#
# _framework density 25.824079999999999
#
# number of rings (size 3 to 8) (size 9 to 14) (size 15 to 20)
#    0.000    2.000    0.000    7.500    0.000    2.000 
#    0.000   33.750    0.000    0.000    0.000    1.750 
#    0.000    0.000    0.000    0.000    0.000    0.000 
#
# Total GULP energy -44845.834500 kJ/mol
# GULP energy per Si atom -5605.729312 kJ/mol
# Density = 2.576530 g / cm^3
# Si number density = 25.824080 Si / 1000 Ang^3
#
#
#
# Elastic Constant Matrix: (Units=GPa)
#
#
# Indices 1 2 3 4 5 6 
#
# 1 194.0163 69.1629 127.4351 14.4136 -3.2758 -32.3145
# 2 69.1629 162.0619 67.0984 33.4846 -3.5335 -34.9151
# 3 127.4351 67.0984 286.5029 41.7948 4.4552 -15.5939
# 4 14.4136 33.4846 41.7948 53.3499 -8.8128 -16.5304
# 5 -3.2758 -3.5335 4.4552 -8.8128 74.4612 -5.9267
# 6 -32.3145 -34.9151 -15.5939 -16.5304 -5.9267 44.6927
#
#
#
# Elastic Compliance Matrix: (Units=1/GPa)
#
#
# Indices 1 2 3 4 5 6 
#
# 1 0.008922 -0.001818 -0.003798 0.003542 0.001366 0.005197
# 2 -0.001818 0.008745 -0.000547 -0.003222 0.000319 0.004178
# 3 -0.003798 -0.000547 0.005794 -0.004281 -0.001278 -0.002905
# 4 0.003542 -0.003222 -0.004281 0.026614 0.004120 0.008940
# 5 0.001366 0.000319 -0.001278 0.004120 0.014406 0.004226
# 6 0.005197 0.004178 -0.002905 0.008940 0.004226 0.032250
#
#
# Mechanical properties :
#
#
# Convention : Reuss Voigt Hill
#
# Bulk Modulus (GPa) = 89.79647 129.99709 109.89678
# Shear Modulus (GPa) = 44.33852 59.75976 52.04914
#
# Velocity S-wave (km/s) = 4.14810 4.81574 4.49433
# Velocity P-wave (km/s) = 7.60198 9.02056 8.34148
#
# Compressibility (1/GPa) = 0.01113629
#
# Stress axis : x y z
#
# Youngs Moduli (GPa) = 112.07857 114.34477 172.59042
#
# Poissons Ratio (x) = 0.20783 0.65549
# Poissons Ratio (y) = 0.20371 0.09445
# Poissons Ratio (z) = 0.42567 0.06258
#
# Static dielectric constant tensor:
#      x y z
#    x 2.013440 0.138850 -0.092730 
#    y 0.138850 2.103090 -0.037400 
#    z -0.092730 -0.037400 2.027570 
# 
# From -- ./inp_files/22152.got.cif
#   From: 2010.05.17/outbox.cif.g08.bks.cpg/sg2_12_cif.got.tgz:22152.got - 2010.06.03 11:33:40.
