data_PCOD9086245
_publ_section_title
;
Structure prediction by ZEFSAII (Michael W. Deem and Ramdas Pophale) SiO2 
 PCOD9086245
Probable space group: P -1
;
_chemical_formula_sum "Si O2"
_cell_formula_units_Z 15
_cell_length_a 14.506775
_cell_length_b 7.194783
_cell_length_c 10.722280
_cell_angle_alpha 114.170206
_cell_angle_beta 42.004561
_cell_angle_gamma 118.971001
_cell_volume 652.840191
_symmetry_space_group_name_H-M "P -1"
_symmetry_group_IT_number 2
_symmetry_cell_setting 'triclinic'
loop_
_space_group_symop_operation_xyz
x,y,z
-x,-y,-z
loop_
_atom_site_type_symbol
_atom_site_label
_atom_site_fract_x
_atom_site_fract_y
_atom_site_fract_z
Si Si1 0.579218 0.688942 0.064504
Si Si2 0.011016 0.744913 0.022702
Si Si3 0.000000 0.000000 0.500000
Si Si4 0.779084 0.600948 0.035883
Si Si5 0.789842 0.732908 0.447863
Si Si6 0.606824 0.802579 0.456080
Si Si7 0.355865 0.732201 0.512737
Si Si8 0.218425 0.876886 0.054626
O O1 0.719792 0.644083 0.973660
O O2 0.466696 0.701991 0.288128
O O3 0.500000 0.500000 0.000000
O O4 0.640788 0.925668 0.012645
O O5 0.942212 0.734963 0.951357
O O6 0.896821 0.808067 0.244524
O O7 0.164381 0.874153 0.962695
O O8 0.000000 0.500000 0.000000
O O9 0.909111 0.094488 0.721467
O O10 0.151261 0.129263 0.453977
O O11 0.675457 0.664525 0.258074
O O12 0.764805 0.352912 0.995479
O O13 0.637563 0.747462 0.550806
O O14 0.772819 0.484020 0.417537
O O15 0.442984 0.761362 0.563744
O O16 0.679718 0.052836 0.426493
#
# Coordination Sequence:
#
# PCOD9086245 Si02
#       8
#     2   2   1   2   2   2   2   2
#     4  11  24  38  55  84 116 151 189 224 274 336
#     4   8  17  34  57  81 105 141 183 228 279 320
#     4  10  22  40  60  82 110 152 192 224 276 334
#     4   9  20  38  59  85 112 145 187 229 283 331
#     4  10  19  36  57  80 114 148 184 230 275 328
#     4   9  20  35  57  88 112 145 187 226 282 333
#     4  10  21  36  57  85 115 145 185 234 278 328
#     4  10  21  40  60  81 114 146 184 236 276 328
#
# _framework density 22.976524999999999
#
# number of rings (size 3 to 8) (size 9 to 14) (size 15 to 20)
#    0.000    2.400    0.000    1.200    0.000   13.867 
#    0.000   12.000    0.000    0.000    0.000    0.000 
#    0.000    0.000    0.000    0.000    0.000    0.000 
#
# Total GULP energy -83533.442563 kJ/mol
# GULP energy per Si atom -5568.896171 kJ/mol
# Density = 2.292423 g / cm^3
# Si number density = 22.976525 Si / 1000 Ang^3
#
#
#
# Elastic Constant Matrix: (Units=GPa)
#
#
# Indices 1 2 3 4 5 6 
#
# 1 112.0820 56.6827 27.7486 39.6449 14.2663 20.6880
# 2 56.6827 117.9262 33.4991 26.1787 13.8950 10.7717
# 3 27.7486 33.4991 82.7077 12.5782 -5.4987 0.3963
# 4 39.6449 26.1787 12.5782 27.7883 10.3289 2.0792
# 5 14.2663 13.8950 -5.4987 10.3289 23.9363 9.3154
# 6 20.6880 10.7717 0.3963 2.0792 9.3154 33.2317
#
#
#
# Elastic Compliance Matrix: (Units=1/GPa)
#
#
# Indices 1 2 3 4 5 6 
#
# 1 0.023870 -0.003669 -0.001255 -0.031406 0.006417 -0.013490
# 2 -0.003669 0.012554 -0.003646 -0.003283 -0.004405 -0.000302
# 3 -0.001255 -0.003646 0.015305 -0.004880 0.008614 -0.000329
# 4 -0.031406 -0.003283 -0.004880 0.095849 -0.030945 0.023351
# 5 0.006417 -0.004405 0.008614 -0.030945 0.063000 -0.018393
# 6 -0.013490 -0.000302 -0.000329 0.023351 -0.018393 0.042286
#
#
# Mechanical properties :
#
#
# Convention : Reuss Voigt Hill
#
# Bulk Modulus (GPa) = 28.91052 60.95297 44.93175
# Shear Modulus (GPa) = 17.75975 29.97695 23.86835
#
# Velocity S-wave (km/s) = 2.78322 3.61595 3.22656
# Velocity P-wave (km/s) = 4.78940 6.63471 5.78609
#
# Compressibility (1/GPa) = 0.03458948
#
# Stress axis : x y z
#
# Youngs Moduli (GPa) = 41.89314 79.65313 65.33830
#
# Poissons Ratio (x) = 0.29224 0.08200
# Poissons Ratio (y) = 0.15370 0.23823
# Poissons Ratio (z) = 0.05257 0.29043
#
# Static dielectric constant tensor:
#      x y z
#    x 1.930480 0.010400 -0.043270 
#    y 0.010400 1.893360 -0.047280 
#    z -0.043270 -0.047280 1.835190 
# 
# From -- ./inp_files/441411.got.cif
#   From: 2010.05.17/outbox.cif.g08.bks.cpg/sg2_221_cif.got.tgz:441411.got - 2010.06.03 11:33:40.
