data_PCOD9086368
_publ_section_title
;
Structure prediction by ZEFSAII (Michael W. Deem and Ramdas Pophale) SiO2 
 PCOD9086368
Probable space group: P -1
;
_chemical_formula_sum "Si O2"
_cell_formula_units_Z 14
_cell_length_a 9.477872
_cell_length_b 12.992876
_cell_length_c 14.637545
_cell_angle_alpha 29.300196
_cell_angle_beta 113.318473
_cell_angle_gamma 132.742352
_cell_volume 543.001958
_symmetry_space_group_name_H-M "P -1"
_symmetry_group_IT_number 2
_symmetry_cell_setting 'triclinic'
loop_
_space_group_symop_operation_xyz
x,y,z
-x,-y,-z
loop_
_atom_site_type_symbol
_atom_site_label
_atom_site_fract_x
_atom_site_fract_y
_atom_site_fract_z
Si Si1 0.830772 0.453752 0.165019
Si Si2 0.876804 0.760881 0.774559
Si Si3 0.671497 0.230985 0.983872
Si Si4 0.927762 0.521101 0.332750
Si Si5 0.315961 0.115947 0.500145
Si Si6 0.347348 0.233619 0.831321
Si Si7 0.249743 0.524564 0.480734
O O1 0.095531 0.641669 0.086779
O O2 0.772342 0.396570 0.300291
O O3 0.686547 0.133704 0.321184
O O4 0.823831 0.656261 0.946331
O O5 0.744990 0.457145 0.911434
O O6 0.800206 0.905965 0.603631
O O7 0.140919 0.992265 0.634384
O O8 0.544088 0.255112 0.860104
O O9 0.488784 0.874055 0.245204
O O10 0.051026 0.417529 0.448496
O O11 0.814542 0.445668 0.459404
O O12 0.131911 0.899714 0.079727
O O13 0.539809 0.477612 0.297466
O O14 0.274586 0.299537 0.674632
#
# Coordination Sequence:
#
# PCOD9086368 Si02
#       7
#     2   2   2   2   2   2   2
#     4  11  20  35  56  87 115 134 175 237 272 307
#     4   9  17  32  54  81 114 145 174 216 271 329
#     4   9  19  34  58  84 106 140 184 220 270 329
#     4  10  24  37  55  82 109 143 187 224 269 322
#     4   9  18  33  56  82 109 145 180 212 272 333
#     4  10  19  36  58  78 104 146 186 217 262 327
#     4  10  20  40  58  72 108 155 184 216 268 329
#
# _framework density 25.782595000000001
#
# number of rings (size 3 to 8) (size 9 to 14) (size 15 to 20)
#    0.000    2.286    0.000    4.714    0.000    3.429 
#    0.000    6.429    0.000   10.286    0.000    0.000 
#    0.000    0.000    0.000    0.000    0.000    0.000 
#
# Total GULP energy -78396.006883 kJ/mol
# GULP energy per Si atom -5599.714777 kJ/mol
# Density = 2.572391 g / cm^3
# Si number density = 25.782595 Si / 1000 Ang^3
#
#
#
# Elastic Constant Matrix: (Units=GPa)
#
#
# Indices 1 2 3 4 5 6 
#
# 1 51.6697 12.2938 34.8940 2.2424 8.0024 12.7900
# 2 12.2938 83.1682 37.9107 17.0215 4.9100 -2.9435
# 3 34.8940 37.9107 141.7891 16.7009 12.2505 5.4873
# 4 2.2424 17.0215 16.7009 55.4034 10.9543 8.5911
# 5 8.0024 4.9100 12.2505 10.9543 32.1923 7.2741
# 6 12.7900 -2.9435 5.4873 8.5911 7.2741 32.1316
#
#
#
# Elastic Compliance Matrix: (Units=1/GPa)
#
#
# Indices 1 2 3 4 5 6 
#
# 1 0.026527 -0.002213 -0.005698 0.003474 -0.003002 -0.010038
# 2 -0.002213 0.014721 -0.003056 -0.004108 -0.000004 0.003851
# 3 -0.005698 -0.003056 0.009543 -0.001591 -0.001459 0.001114
# 4 0.003474 -0.004108 -0.001591 0.021701 -0.005658 -0.006009
# 5 -0.003002 -0.000004 -0.001459 -0.005658 0.035435 -0.005065
# 6 -0.010038 0.003851 0.001114 -0.006009 -0.005065 0.038033
#
#
# Mechanical properties :
#
#
# Convention : Reuss Voigt Hill
#
# Bulk Modulus (GPa) = 34.65383 49.64714 42.15048
# Shear Modulus (GPa) = 28.16674 36.71402 32.44038
#
# Velocity S-wave (km/s) = 3.30884 3.77767 3.55100
# Velocity P-wave (km/s) = 5.29791 6.19076 5.76166
#
# Compressibility (1/GPa) = 0.02885684
#
# Stress axis : x y z
#
# Youngs Moduli (GPa) = 37.69725 67.92815 104.79418
#
# Poissons Ratio (x) = 0.15032 0.59711
# Poissons Ratio (y) = 0.08342 0.32028
# Poissons Ratio (z) = 0.21480 0.20761
#
# Static dielectric constant tensor:
#      x y z
#    x 2.075280 0.040090 -0.001090 
#    y 0.040090 2.080660 0.031110 
#    z -0.001090 0.031110 1.960710 
# 
# From -- ./inp_files/331437.got.cif
#   From: 2010.05.17/outbox.cif.g08.bks.cpg/sg2_166_cif.got.tgz:331437.got - 2010.06.03 11:33:40.
