data_PCOD9086531
_publ_section_title
;
Structure prediction by ZEFSAII (Michael W. Deem and Ramdas Pophale) SiO2 
 PCOD9086531
Probable space group: P -1
;
_chemical_formula_sum "Si O2"
_cell_formula_units_Z 14
_cell_length_a 7.001874
_cell_length_b 8.739523
_cell_length_c 22.113432
_cell_angle_alpha 49.384452
_cell_angle_beta 151.098342
_cell_angle_gamma 120.865212
_cell_volume 490.449591
_symmetry_space_group_name_H-M "P -1"
_symmetry_group_IT_number 2
_symmetry_cell_setting 'triclinic'
loop_
_space_group_symop_operation_xyz
x,y,z
-x,-y,-z
loop_
_atom_site_type_symbol
_atom_site_label
_atom_site_fract_x
_atom_site_fract_y
_atom_site_fract_z
Si Si1 0.302966 0.782948 0.371883
Si Si2 0.705485 0.061340 0.479175
Si Si3 0.318876 0.496037 0.213857
Si Si4 0.228680 0.851885 0.933943
Si Si5 0.715327 0.807864 0.307466
Si Si6 0.145097 0.481071 0.763687
Si Si7 0.394234 0.252247 0.112839
O O1 0.090462 0.729145 0.388767
O O2 0.231021 0.614470 0.344583
O O3 0.704208 0.868031 0.482976
O O4 0.027096 0.993324 0.221879
O O5 0.434264 0.263769 0.325324
O O6 0.113903 0.140332 0.593499
O O7 0.500000 0.000000 0.500000
O O8 0.437379 0.638025 0.264306
O O9 0.586664 0.523691 0.221784
O O10 0.873315 0.585874 0.045966
O O11 0.898835 0.775630 0.905145
O O12 0.585769 0.664695 0.076112
O O13 0.500000 0.000000 0.000000
O O14 0.486188 0.028494 0.166137
O O15 0.199463 0.688094 0.761168
#
# Coordination Sequence:
#
# PCOD9086531 Si02
#       7
#     2   2   2   2   2   2   2
#     4   9  18  36  56  77 110 156 191 220 272 344
#     4  10  20  37  57  79 110 154 195 227 270 339
#     4  10  19  36  59  79 109 154 190 221 279 350
#     4   9  17  32  55  81 111 149 185 221 274 343
#     4  10  22  36  56  87 116 144 188 238 278 322
#     4   9  18  32  56  82 108 147 189 222 275 346
#     4  11  20  35  58  91 116 138 184 243 282 322
#
# _framework density 28.545235000000002
#
# number of rings (size 3 to 8) (size 9 to 14) (size 15 to 20)
#    0.000    2.286    0.000    5.143    0.000    0.000 
#    0.000   15.714    0.000    0.000    0.000    3.000 
#    0.000    0.000    0.000    0.000    0.000    0.000 
#
# Total GULP energy -78207.854283 kJ/mol
# GULP energy per Si atom -5586.275306 kJ/mol
# Density = 2.848026 g / cm^3
# Si number density = 28.545235 Si / 1000 Ang^3
#
#
#
# Elastic Constant Matrix: (Units=GPa)
#
#
# Indices 1 2 3 4 5 6 
#
# 1 91.5944 20.0436 30.6570 3.0740 -10.1388 -11.3281
# 2 20.0436 258.9402 69.8093 56.8469 7.0905 4.2414
# 3 30.6570 69.8093 156.4777 14.4936 11.6462 1.7973
# 4 3.0740 56.8469 14.4936 61.2618 -2.0378 3.2798
# 5 -10.1388 7.0905 11.6462 -2.0378 31.0232 3.2995
# 6 -11.3281 4.2414 1.7973 3.2798 3.2995 26.3890
#
#
#
# Elastic Compliance Matrix: (Units=1/GPa)
#
#
# Indices 1 2 3 4 5 6 
#
# 1 0.013162 -0.000582 -0.002787 0.000422 0.004949 0.005262
# 2 -0.000582 0.005438 -0.001806 -0.004608 -0.001026 -0.000300
# 3 -0.002787 -0.001806 0.008021 -0.000142 -0.003411 -0.001008
# 4 0.000422 -0.004608 -0.000142 0.020813 0.002825 -0.002009
# 5 0.004949 -0.001026 -0.003411 0.002825 0.035797 -0.002305
# 6 0.005262 -0.000300 -0.001008 -0.002009 -0.002305 0.040808
#
#
# Mechanical properties :
#
#
# Convention : Reuss Voigt Hill
#
# Bulk Modulus (GPa) = 61.45228 83.11466 72.28347
# Shear Modulus (GPa) = 35.76196 49.50164 42.63180
#
# Velocity S-wave (km/s) = 3.54336 4.16883 3.86875
# Velocity P-wave (km/s) = 6.18993 7.23548 6.73303
#
# Compressibility (1/GPa) = 0.01627279
#
# Stress axis : x y z
#
# Youngs Moduli (GPa) = 75.97444 183.87824 124.67486
#
# Poissons Ratio (x) = 0.10697 0.34747
# Poissons Ratio (y) = 0.04420 0.22511
# Poissons Ratio (z) = 0.21174 0.33201
#
# Static dielectric constant tensor:
#      x y z
#    x 2.162930 0.024260 -0.033230 
#    y 0.024260 2.476260 -0.288240 
#    z -0.033230 -0.288240 2.526650 
# 
# From -- ./inp_files/233590.got.cif
#   From: 2010.05.17/outbox.cif.g08.bks.cpg/sg2_117_cif.got.tgz:233590.got - 2010.06.03 11:33:40.
