data_PCOD9086364
_publ_section_title
;
Structure prediction by ZEFSAII (Michael W. Deem and Ramdas Pophale) SiO2 
 PCOD9086364
Probable space group: P -1
;
_chemical_formula_sum "Si O2"
_cell_formula_units_Z 16
_cell_length_a 15.588839
_cell_length_b 13.647115
_cell_length_c 12.730138
_cell_angle_alpha 128.157386
_cell_angle_beta 150.137173
_cell_angle_gamma 35.513057
_cell_volume 746.126491
_symmetry_space_group_name_H-M "P -1"
_symmetry_group_IT_number 2
_symmetry_cell_setting 'triclinic'
loop_
_space_group_symop_operation_xyz
x,y,z
-x,-y,-z
loop_
_atom_site_type_symbol
_atom_site_label
_atom_site_fract_x
_atom_site_fract_y
_atom_site_fract_z
Si Si1 0.628039 0.306335 0.618937
Si Si2 0.246655 0.589867 0.894404
Si Si3 0.515321 0.207863 0.999986
Si Si4 0.293184 0.837060 0.182169
Si Si5 0.070789 0.362855 0.225436
Si Si6 0.790526 0.936992 0.932655
Si Si7 0.457001 0.363269 0.245762
Si Si8 0.983266 0.415683 0.527803
O O1 0.592963 0.229579 0.625836
O O2 0.531959 0.304426 0.405704
O O3 0.510720 0.503355 0.648213
O O4 0.918593 0.185123 0.840403
O O5 0.661633 0.320457 0.925813
O O6 0.137996 0.638079 0.693623
O O7 0.039417 0.666646 0.814957
O O8 0.441294 0.378726 0.980224
O O9 0.589585 0.211144 0.198026
O O10 0.259232 0.262728 0.761033
O O11 0.696824 0.034415 0.008503
O O12 0.347741 0.914476 0.206681
O O13 0.000000 0.000000 0.000000
O O14 0.237684 0.191452 0.216900
O O15 0.154102 0.442170 0.430052
O O16 0.829400 0.516780 0.002026
O O17 0.000000 0.500000 0.500000
#
# Coordination Sequence:
#
# PCOD9086364 Si02
#       8
#     2   2   2   2   2   2   2   2
#     4   9  15  27  41  57  79 118 145 165 191 246
#     4   9  14  29  42  59  81 113 145 165 199 249
#     4   9  16  27  39  67  86 105 133 175 215 240
#     4  10  16  27  43  60  88 113 136 165 197 259
#     4   8  13  27  41  61  80 106 142 169 199 244
#     4  10  18  24  40  65  94 113 123 164 223 244
#     4   8  14  26  44  56  79 110 149 168 195 238
#     4   7  14  26  45  56  81 108 144 173 197 242
#
# _framework density 21.444085000000001
#
# number of rings (size 3 to 8) (size 9 to 14) (size 15 to 20)
#    0.000    3.750    5.000    0.000    0.000    1.000 
#    0.000    5.625    0.000    0.000    0.000   14.000 
#    0.000   36.500    0.000    7.375    0.000    0.000 
#
# Total GULP energy -89139.518782 kJ/mol
# GULP energy per Si atom -5571.219924 kJ/mol
# Density = 2.139528 g / cm^3
# Si number density = 21.444085 Si / 1000 Ang^3
#
#
#
# Elastic Constant Matrix: (Units=GPa)
#
#
# Indices 1 2 3 4 5 6 
#
# 1 43.9507 32.4904 40.8242 12.0737 -13.8391 -16.7198
# 2 32.4904 134.0109 45.6646 36.1989 -10.4745 -35.4897
# 3 40.8242 45.6646 123.2184 45.1255 -36.5858 -6.1226
# 4 12.0737 36.1989 45.1255 35.3841 -12.2284 -9.4926
# 5 -13.8391 -10.4745 -36.5858 -12.2284 36.0420 7.1718
# 6 -16.7198 -35.4897 -6.1226 -9.4926 7.1718 28.9127
#
#
#
# Elastic Compliance Matrix: (Units=1/GPa)
#
#
# Indices 1 2 3 4 5 6 
#
# 1 0.050187 -0.002872 -0.023119 0.021820 -0.003317 0.028588
# 2 -0.002872 0.014686 -0.001474 -0.009988 -0.004483 0.013886
# 3 -0.023119 -0.001474 0.031598 -0.031266 0.016718 -0.022900
# 4 0.021820 -0.009988 -0.031266 0.074424 -0.004868 0.019380
# 5 -0.003317 -0.004483 0.016718 -0.004868 0.043737 -0.016328
# 6 0.028588 0.013886 -0.022900 0.019380 -0.016328 0.073727
#
#
# Mechanical properties :
#
#
# Convention : Reuss Voigt Hill
#
# Bulk Modulus (GPa) = 24.07312 59.90426 41.98869
# Shear Modulus (GPa) = 14.00027 32.21448 23.10737
#
# Velocity S-wave (km/s) = 2.55791 3.88010 3.28619
# Velocity P-wave (km/s) = 4.46925 6.93320 5.83282
#
# Compressibility (1/GPa) = 0.04154012
#
# Stress axis : x y z
#
# Youngs Moduli (GPa) = 19.92555 68.09354 31.64747
#
# Poissons Ratio (x) = 0.19559 0.73165
# Poissons Ratio (y) = 0.05723 0.04666
# Poissons Ratio (z) = 0.46065 0.10039
#
# Static dielectric constant tensor:
#      x y z
#    x 1.837440 -0.025800 0.062870 
#    y -0.025800 1.816450 0.003130 
#    z 0.062870 0.003130 1.859060 
# 
# From -- ./inp_files/444197.got.cif
#   From: 2010.05.17/outbox.cif.g08.bks.cpg/sg2_223_cif.got.tgz:444197.got - 2010.06.03 11:33:40.
