data_PCOD9086733
_publ_section_title
;
Structure prediction by ZEFSAII (Michael W. Deem and Ramdas Pophale) SiO2 
 PCOD9086733
Probable space group: P -1
;
_chemical_formula_sum "Si O2"
_cell_formula_units_Z 16
_cell_length_a 17.843540
_cell_length_b 9.239069
_cell_length_c 21.138808
_cell_angle_alpha 148.395951
_cell_angle_beta 26.280116
_cell_angle_gamma 130.925749
_cell_volume 714.590443
_symmetry_space_group_name_H-M "P -1"
_symmetry_group_IT_number 2
_symmetry_cell_setting 'triclinic'
loop_
_space_group_symop_operation_xyz
x,y,z
-x,-y,-z
loop_
_atom_site_type_symbol
_atom_site_label
_atom_site_fract_x
_atom_site_fract_y
_atom_site_fract_z
Si Si1 0.551147 0.738098 0.202341
Si Si2 0.958923 0.572991 0.824946
Si Si3 0.127481 0.333840 0.280238
Si Si4 0.182439 0.909996 0.458201
Si Si5 0.851630 0.269222 0.362947
Si Si6 0.066739 0.564174 0.071685
Si Si7 0.535526 0.205759 0.102108
Si Si8 0.722987 0.764595 0.317695
O O1 0.382112 0.810789 0.306673
O O2 0.583685 0.445430 0.113952
O O3 0.467757 0.040196 0.425107
O O4 0.749817 0.657309 0.988013
O O5 0.906590 0.644453 0.964990
O O6 0.056333 0.749040 0.781369
O O7 0.110142 0.200628 0.572425
O O8 0.180636 0.605037 0.318894
O O9 0.000000 0.500000 0.500000
O O10 0.006786 0.264480 0.293563
O O11 0.308936 0.028271 0.054355
O O12 0.022030 0.088922 0.701684
O O13 0.660966 0.591556 0.637227
O O14 0.784101 0.014987 0.336394
O O15 0.890892 0.569189 0.167231
O O16 0.247242 0.451676 0.846348
O O17 0.500000 0.000000 0.000000
#
# Coordination Sequence:
#
# PCOD9086733 Si02
#       8
#     2   2   2   2   2   2   2   2
#     4  10  19  36  60  85 117 149 193 236 284 341
#     4  10  23  38  57  87 120 152 187 234 294 347
#     4  12  20  35  61  85 115 152 193 239 281 335
#     4   9  20  36  55  81 119 151 182 236 284 335
#     4  11  25  38  58  90 118 150 194 236 289 340
#     4   8  18  37  63  84 110 155 190 234 289 337
#     4  11  21  36  59  86 111 155 197 237 280 338
#     4   9  18  39  64  84 110 152 197 238 277 339
#
# _framework density 22.390447000000002
#
# number of rings (size 3 to 8) (size 9 to 14) (size 15 to 20)
#    0.750    1.250    2.500    2.250    1.750    2.500 
#    0.000    1.250    0.000    6.750    0.000    0.000 
#    0.000    0.000    0.000    0.000    0.000    0.000 
#
# Total GULP energy -89268.904926 kJ/mol
# GULP energy per Si atom -5579.306558 kJ/mol
# Density = 2.233949 g / cm^3
# Si number density = 22.390447 Si / 1000 Ang^3
#
#
#
# Elastic Constant Matrix: (Units=GPa)
#
#
# Indices 1 2 3 4 5 6 
#
# 1 46.2479 11.0467 34.5671 6.5005 -8.5078 2.5078
# 2 11.0467 53.0142 29.7243 -8.5339 -5.4489 3.6200
# 3 34.5671 29.7243 121.4867 11.8462 -27.3008 2.4592
# 4 6.5005 -8.5339 11.8462 29.5029 -2.4856 7.4988
# 5 -8.5078 -5.4489 -27.3008 -2.4856 38.9028 3.8323
# 6 2.5078 3.6200 2.4592 7.4988 3.8323 18.6240
#
#
#
# Elastic Compliance Matrix: (Units=1/GPa)
#
#
# Indices 1 2 3 4 5 6 
#
# 1 0.028041 -0.002505 -0.006771 -0.003849 0.000885 -0.001027
# 2 -0.002505 0.025856 -0.006674 0.013027 0.000117 -0.009077
# 3 -0.006771 -0.006674 0.013857 -0.005758 0.006814 0.001295
# 4 -0.003849 0.013027 -0.005758 0.046118 0.001880 -0.020210
# 5 0.000885 0.000117 0.006814 0.001880 0.031635 -0.008308
# 6 -0.001027 -0.009077 0.001295 -0.020210 -0.008308 0.065273
#
#
# Mechanical properties :
#
#
# Convention : Reuss Voigt Hill
#
# Bulk Modulus (GPa) = 27.89029 41.26944 34.57986
# Shear Modulus (GPa) = 19.63631 27.09999 23.36815
#
# Velocity S-wave (km/s) = 2.96462 3.48276 3.23409
# Velocity P-wave (km/s) = 4.91956 5.88597 5.42433
#
# Compressibility (1/GPa) = 0.03585478
#
# Stress axis : x y z
#
# Youngs Moduli (GPa) = 35.66195 38.67640 72.16547
#
# Poissons Ratio (x) = 0.09689 0.48861
# Poissons Ratio (y) = 0.08934 0.48161
# Poissons Ratio (z) = 0.24145 0.25811
#
# Static dielectric constant tensor:
#      x y z
#    x 1.862700 0.013620 0.027220 
#    y 0.013620 1.845010 0.006710 
#    z 0.027220 0.006710 1.906470 
# 
# From -- ./inp_files/599299.got.cif
#   From: 2010.05.17/outbox.cif.g08.bks.cpg/sg2_300_cif.got.tgz:599299.got - 2010.06.03 11:33:40.
