data_PCOD9086556
_publ_section_title
;
Structure prediction by ZEFSAII (Michael W. Deem and Ramdas Pophale) SiO2 
 PCOD9086556
Probable space group: P -1
;
_chemical_formula_sum "Si O2"
_cell_formula_units_Z 16
_cell_length_a 22.511027
_cell_length_b 19.288607
_cell_length_c 10.753314
_cell_angle_alpha 40.016302
_cell_angle_beta 151.099253
_cell_angle_gamma 160.966177
_cell_volume 677.133628
_symmetry_space_group_name_H-M "P -1"
_symmetry_group_IT_number 2
_symmetry_cell_setting 'triclinic'
loop_
_space_group_symop_operation_xyz
x,y,z
-x,-y,-z
loop_
_atom_site_type_symbol
_atom_site_label
_atom_site_fract_x
_atom_site_fract_y
_atom_site_fract_z
Si Si1 0.527688 0.641824 0.508878
Si Si2 0.579519 0.976544 0.850007
Si Si3 0.376874 0.768905 0.011879
Si Si4 0.064220 0.782658 0.602736
Si Si5 0.123367 0.584483 0.247816
Si Si6 0.383084 0.213280 0.946542
Si Si7 0.874475 0.840533 0.649824
Si Si8 0.673277 0.635057 0.007821
O O1 0.452892 0.701459 0.241811
O O2 0.742100 0.751445 0.662660
O O3 0.261154 0.365949 0.382816
O O4 0.627386 0.705697 0.745229
O O5 0.840355 0.147668 0.175202
O O6 0.359894 0.803242 0.794142
O O7 0.526761 0.837176 0.851901
O O8 0.647811 0.148711 0.690039
O O9 0.111407 0.571673 0.872551
O O10 0.662937 0.035785 0.217984
O O11 0.844357 0.519909 0.540380
O O12 0.959690 0.817713 0.323931
O O13 0.000000 0.500000 0.000000
O O14 0.208126 0.119503 0.637532
O O15 0.584131 0.467106 0.985467
O O16 0.184599 0.062837 0.906134
O O17 0.500000 0.500000 0.000000
#
# Coordination Sequence:
#
# PCOD9086556 Si02
#       8
#     2   2   2   2   2   2   2   2
#     4  10  20  34  56  87 121 149 198 239 298 354
#     4   9  20  36  64  88 110 152 208 251 286 339
#     4  10  20  34  62  89 116 147 204 251 294 338
#     4   9  22  39  55  87 122 152 199 238 305 349
#     4  10  20  36  63  90 114 149 202 262 294 336
#     4  10  19  36  59  82 120 152 204 238 293 349
#     4   9  18  32  57  85 111 157 197 247 279 345
#     4  11  26  38  55  86 131 163 184 238 307 371
#
# _framework density 23.629014000000002
#
# number of rings (size 3 to 8) (size 9 to 14) (size 15 to 20)
#    0.750    1.500    1.250    1.125   10.500    0.500 
#    0.000    0.625    0.000    0.750    0.000    0.000 
#    0.000    0.000    0.000    0.000    0.000    0.000 
#
# Total GULP energy -89228.526165 kJ/mol
# GULP energy per Si atom -5576.782885 kJ/mol
# Density = 2.357523 g / cm^3
# Si number density = 23.629014 Si / 1000 Ang^3
#
#
#
# Elastic Constant Matrix: (Units=GPa)
#
#
# Indices 1 2 3 4 5 6 
#
# 1 73.1576 19.8040 3.0168 -5.7192 -2.6028 14.1344
# 2 19.8040 110.5987 6.8145 -28.6735 -3.4395 -4.4164
# 3 3.0168 6.8145 40.3655 -11.1779 -3.9389 9.5468
# 4 -5.7192 -28.6735 -11.1779 27.1147 -1.0604 -0.9357
# 5 -2.6028 -3.4395 -3.9389 -1.0604 19.8217 4.1099
# 6 14.1344 -4.4164 9.5468 -0.9357 4.1099 52.8341
#
#
#
# Elastic Compliance Matrix: (Units=1/GPa)
#
#
# Indices 1 2 3 4 5 6 
#
# 1 0.015438 -0.002753 0.000874 0.000649 0.002736 -0.004720
# 2 -0.002753 0.013306 0.001854 0.014416 0.002765 0.001554
# 3 0.000874 0.001854 0.030814 0.014976 0.008616 -0.006052
# 4 0.000649 0.014416 0.014976 0.058741 0.008982 -0.001333
# 5 0.002736 0.002765 0.008616 0.008982 0.054758 -0.006158
# 6 -0.004720 0.001554 -0.006052 -0.001333 -0.006158 0.021869
#
#
# Mechanical properties :
#
#
# Convention : Reuss Voigt Hill
#
# Bulk Modulus (GPa) = 16.80452 31.48805 24.14629
# Shear Modulus (GPa) = 23.27591 32.91985 28.09788
#
# Velocity S-wave (km/s) = 3.14197 3.73660 3.45211
# Velocity P-wave (km/s) = 4.50443 5.65431 5.11180
#
# Compressibility (1/GPa) = 0.05950778
#
# Stress axis : x y z
#
# Youngs Moduli (GPa) = 64.77365 75.15371 32.45228
#
# Poissons Ratio (x) = 0.20692 -0.02836
# Poissons Ratio (y) = 0.17834 -0.06016
# Poissons Ratio (z) = -0.05661 -0.13932
#
# Static dielectric constant tensor:
#      x y z
#    x 1.943370 -0.023280 -0.013580 
#    y -0.023280 1.982090 0.045810 
#    z -0.013580 0.045810 1.925450 
# 
# From -- ./inp_files/475583.got.cif
#   From: 2010.05.17/outbox.cif.g08.bks.cpg/sg2_238_cif.got.tgz:475583.got - 2010.06.03 11:33:40.
