data_PCOD9086457
_publ_section_title
;
Structure prediction by ZEFSAII (Michael W. Deem and Ramdas Pophale) SiO2 
 PCOD9086457
Probable space group: P -1
;
_chemical_formula_sum "Si O2"
_cell_formula_units_Z 14
_cell_length_a 11.137258
_cell_length_b 13.846276
_cell_length_c 22.763480
_cell_angle_alpha 21.395607
_cell_angle_beta 149.990674
_cell_angle_gamma 145.908576
_cell_volume 635.856002
_symmetry_space_group_name_H-M "P -1"
_symmetry_group_IT_number 2
_symmetry_cell_setting 'triclinic'
loop_
_space_group_symop_operation_xyz
x,y,z
-x,-y,-z
loop_
_atom_site_type_symbol
_atom_site_label
_atom_site_fract_x
_atom_site_fract_y
_atom_site_fract_z
Si Si1 0.949137 0.758621 0.245865
Si Si2 0.704759 0.693949 0.712302
Si Si3 0.134207 0.976469 0.509456
Si Si4 0.830271 0.192454 0.567912
Si Si5 0.426452 0.865224 0.983020
Si Si6 0.312543 0.238463 0.622922
Si Si7 0.576307 0.147826 0.669550
O O1 0.956104 0.445475 0.441553
O O2 0.675468 0.803153 0.092762
O O3 0.026525 0.883229 0.271554
O O4 0.144640 0.869982 0.217388
O O5 0.418130 0.701762 0.574856
O O6 0.730296 0.412954 0.911094
O O7 0.845643 0.768433 0.669651
O O8 0.768116 0.937818 0.645352
O O9 0.953669 0.758125 0.521402
O O10 0.408268 0.968908 0.652702
O O11 0.000000 0.000000 0.500000
O O12 0.500000 0.000000 0.000000
O O13 0.303572 0.055372 0.779980
O O14 0.471225 0.108811 0.712985
O O15 0.438437 0.533275 0.524879
#
# Coordination Sequence:
#
# PCOD9086457 Si02
#       7
#     2   2   2   2   2   2   2
#     4  10  20  37  62  86 119 157 203 249 293 364
#     4  10  19  36  58  86 120 151 199 251 301 351
#     4  10  20  35  59  87 113 151 201 245 289 351
#     4   9  19  33  60  90 110 153 203 247 292 353
#     4  11  25  39  56  90 129 159 194 249 316 364
#     4  10  23  39  61  90 123 157 200 251 304 363
#     4  10  20  41  66  86 114 162 209 249 294 356
#
# _framework density 22.017565000000001
#
# number of rings (size 3 to 8) (size 9 to 14) (size 15 to 20)
#    0.000    2.000    1.429    1.714    6.000    1.143 
#    2.571    0.000    0.000    2.571    0.000    0.000 
#    0.000    0.000    0.000    0.000    0.000    0.000 
#
# Total GULP energy -78120.496747 kJ/mol
# GULP energy per Si atom -5580.035482 kJ/mol
# Density = 2.196745 g / cm^3
# Si number density = 22.017565 Si / 1000 Ang^3
#
#
#
# Elastic Constant Matrix: (Units=GPa)
#
#
# Indices 1 2 3 4 5 6 
#
# 1 112.6932 27.7800 17.4698 -3.2605 -15.0373 10.7360
# 2 27.7800 103.7645 15.1155 1.3668 -3.0878 1.0767
# 3 17.4698 15.1155 59.0905 -0.2908 -8.4598 -1.8776
# 4 -3.2605 1.3668 -0.2908 21.7641 7.5208 -1.9627
# 5 -15.0373 -3.0878 -8.4598 7.5208 29.1701 5.1350
# 6 10.7360 1.0767 -1.8776 -1.9627 5.1350 39.9011
#
#
#
# Elastic Compliance Matrix: (Units=1/GPa)
#
#
# Indices 1 2 3 4 5 6 
#
# 1 0.010843 -0.002414 -0.001912 -0.000502 0.005557 -0.003682
# 2 -0.002414 0.010576 -0.002067 -0.000832 -0.000562 0.000298
# 3 -0.001912 -0.002067 0.018669 -0.001360 0.004417 0.000813
# 4 -0.000502 -0.000832 -0.001360 0.051428 -0.014798 0.004528
# 5 0.005557 -0.000562 0.004417 -0.014798 0.043521 -0.007601
# 6 -0.003682 0.000298 0.000813 0.004528 -0.007601 0.027284
#
#
# Mechanical properties :
#
#
# Convention : Reuss Voigt Hill
#
# Bulk Modulus (GPa) = 36.62777 44.03095 40.32936
# Shear Modulus (GPa) = 27.14341 32.51257 29.82799
#
# Velocity S-wave (km/s) = 3.51494 3.84691 3.68467
# Velocity P-wave (km/s) = 5.75716 6.30659 6.03813
#
# Compressibility (1/GPa) = 0.02730169
#
# Stress axis : x y z
#
# Youngs Moduli (GPa) = 92.22573 94.55614 53.56561
#
# Poissons Ratio (x) = 0.22828 0.10242
# Poissons Ratio (y) = 0.22265 0.11070
# Poissons Ratio (z) = 0.17633 0.19542
#
# Static dielectric constant tensor:
#      x y z
#    x 1.868200 0.032230 0.040550 
#    y 0.032230 1.860960 0.022170 
#    z 0.040550 0.022170 1.769950 
# 
# From -- ./inp_files/273786.got.cif
#   From: 2010.05.17/outbox.cif.g08.bks.cpg/sg2_137_cif.got.tgz:273786.got - 2010.06.03 11:33:40.
