data_PCOD9086347
_publ_section_title
;
Structure prediction by ZEFSAII (Michael W. Deem and Ramdas Pophale) SiO2 
 PCOD9086347
Probable space group: P -1
;
_chemical_formula_sum "Si O2"
_cell_formula_units_Z 14
_cell_length_a 5.817895
_cell_length_b 11.649451
_cell_length_c 21.812285
_cell_angle_alpha 150.764592
_cell_angle_beta 115.282122
_cell_angle_gamma 54.633010
_cell_volume 577.372805
_symmetry_space_group_name_H-M "P -1"
_symmetry_group_IT_number 2
_symmetry_cell_setting 'triclinic'
loop_
_space_group_symop_operation_xyz
x,y,z
-x,-y,-z
loop_
_atom_site_type_symbol
_atom_site_label
_atom_site_fract_x
_atom_site_fract_y
_atom_site_fract_z
Si Si1 0.012188 0.884572 0.210153
Si Si2 0.492557 0.028501 0.727292
Si Si3 0.691864 0.604111 0.885967
Si Si4 0.185443 0.636978 0.986729
Si Si5 0.302705 0.436671 0.687912
Si Si6 0.306790 0.962239 0.543070
Si Si7 0.799247 0.951342 0.905538
O O1 0.174543 0.063940 0.298432
O O2 0.198314 0.643068 0.167652
O O3 0.021145 0.740681 0.080019
O O4 0.684769 0.032107 0.267585
O O5 0.335449 0.991630 0.632064
O O6 0.419984 0.333942 0.877201
O O7 0.505960 0.554119 0.791371
O O8 0.980762 0.600950 0.895644
O O9 0.506287 0.904490 0.029544
O O10 0.253750 0.854739 0.067451
O O11 0.431021 0.312604 0.579130
O O12 0.974014 0.657482 0.761989
O O13 0.350265 0.194227 0.624007
O O14 0.000000 0.000000 0.500000
O O15 0.000000 0.000000 0.000000
#
# Coordination Sequence:
#
# PCOD9086347 Si02
#       7
#     2   2   2   2   2   2   2
#     4  11  22  36  62  95 123 157 206 246 306 353
#     4  11  21  37  60  93 122 155 202 257 296 353
#     4  10  19  36  57  90 124 154 194 249 300 361
#     4  11  22  34  61  90 122 158 193 245 304 365
#     4  10  22  37  57  89 117 156 202 246 305 364
#     4  11  22  37  62  83 117 158 205 255 303 352
#     4  10  21  36  56  85 124 157 191 247 302 369
#
# _framework density 24.247765999999999
#
# number of rings (size 3 to 8) (size 9 to 14) (size 15 to 20)
#    0.000    1.429    2.857    4.714    4.000    3.429 
#    0.000    0.000    0.000    1.714    0.000    0.000 
#    0.000    0.000    0.000    0.000    0.000    0.000 
#
# Total GULP energy -78068.526274 kJ/mol
# GULP energy per Si atom -5576.323305 kJ/mol
# Density = 2.419258 g / cm^3
# Si number density = 24.247766 Si / 1000 Ang^3
#
#
#
# Elastic Constant Matrix: (Units=GPa)
#
#
# Indices 1 2 3 4 5 6 
#
# 1 121.9893 12.5599 22.7021 -6.4887 0.1254 0.8731
# 2 12.5599 50.7422 22.0073 -4.5741 -4.0414 -4.1838
# 3 22.7021 22.0073 113.0030 -11.1184 -22.3096 -0.3526
# 4 -6.4887 -4.5741 -11.1184 33.0141 -4.9960 -8.0128
# 5 0.1254 -4.0414 -22.3096 -4.9960 36.2218 -6.5567
# 6 0.8731 -4.1838 -0.3526 -8.0128 -6.5567 37.0696
#
#
#
# Elastic Compliance Matrix: (Units=1/GPa)
#
#
# Indices 1 2 3 4 5 6 
#
# 1 0.008696 -0.001522 -0.001622 0.000660 -0.001191 -0.000460
# 2 -0.001522 0.022210 -0.003501 0.002593 0.001281 0.003296
# 3 -0.001622 -0.003501 0.011949 0.004991 0.008073 0.002263
# 4 0.000660 0.002593 0.004991 0.036431 0.010197 0.010003
# 5 -0.001191 0.001281 0.008073 0.010197 0.035721 0.008772
# 6 -0.000460 0.003296 0.002263 0.010003 0.008772 0.031094
#
#
# Mechanical properties :
#
#
# Convention : Reuss Voigt Hill
#
# Bulk Modulus (GPa) = 33.82535 44.47478 39.15007
# Shear Modulus (GPa) = 29.54256 36.49209 33.01733
#
# Velocity S-wave (km/s) = 3.49429 3.88360 3.69408
# Velocity P-wave (km/s) = 5.50093 6.20414 5.86309
#
# Compressibility (1/GPa) = 0.02956362
#
# Stress axis : x y z
#
# Youngs Moduli (GPa) = 114.99977 45.02405 83.68896
#
# Poissons Ratio (x) = 0.06853 0.13576
# Poissons Ratio (y) = 0.17505 0.29302
# Poissons Ratio (z) = 0.18655 0.15764
#
# Static dielectric constant tensor:
#      x y z
#    x 2.063990 -0.063510 -0.020950 
#    y -0.063510 2.009720 -0.019920 
#    z -0.020950 -0.019920 1.928320 
# 
# From -- ./inp_files/70358.got.cif
#   From: 2010.05.17/outbox.cif.g08.bks.cpg/sg2_36_cif.got.tgz:70358.got - 2010.06.03 11:33:40.
