data_PCOD9086937
_publ_section_title
;
Structure prediction by ZEFSAII (Michael W. Deem and Ramdas Pophale) SiO2 
 PCOD9086937
Probable space group: P -1
;
_chemical_formula_sum "Si O2"
_cell_formula_units_Z 16
_cell_length_a 12.482197
_cell_length_b 11.595050
_cell_length_c 9.144031
_cell_angle_alpha 90.500933
_cell_angle_beta 122.618642
_cell_angle_gamma 133.292523
_cell_volume 638.374593
_symmetry_space_group_name_H-M "P -1"
_symmetry_group_IT_number 2
_symmetry_cell_setting 'triclinic'
loop_
_space_group_symop_operation_xyz
x,y,z
-x,-y,-z
loop_
_atom_site_type_symbol
_atom_site_label
_atom_site_fract_x
_atom_site_fract_y
_atom_site_fract_z
Si Si1 0.791481 0.259551 0.373027
Si Si2 0.992720 0.862732 0.044402
Si Si3 0.668375 0.315238 0.806185
Si Si4 0.266126 0.266465 0.861619
Si Si5 0.172700 0.770167 0.262214
Si Si6 0.663187 0.515018 0.590100
Si Si7 0.868863 0.655657 0.432865
Si Si8 0.520567 0.237038 0.016071
O O1 0.775886 0.222639 0.532622
O O2 0.577845 0.165689 0.150511
O O3 0.000000 0.500000 0.500000
O O4 0.888484 0.218025 0.364428
O O5 0.824850 0.748654 0.055840
O O6 0.179771 0.912706 0.238995
O O7 0.895837 0.725848 0.831986
O O8 0.000000 0.000000 0.000000
O O9 0.685316 0.203479 0.742061
O O10 0.593056 0.352590 0.630684
O O11 0.527050 0.214904 0.848565
O O12 0.918123 0.539213 0.040928
O O13 0.117451 0.205944 0.620093
O O14 0.500000 0.500000 0.000000
O O15 0.316038 0.167973 0.906753
O O16 0.500000 0.500000 0.500000
O O17 0.711175 0.529611 0.456555
O O18 0.736874 0.479985 0.214032
#
# Coordination Sequence:
#
# PCOD9086937 Si02
#       8
#     2   2   2   2   2   2   2   2
#     4  10  16  27  46  81 113 144 189 245 304 342
#     4  11  24  41  60  85 124 168 201 241 308 374
#     4  10  18  29  52  86 118 146 193 255 302 339
#     4  10  18  36  58  82 113 156 204 245 293 351
#     4  10  18  32  51  80 117 152 197 248 292 355
#     4  11  21  34  57  90 120 152 205 257 303 350
#     4  10  17  29  50  78 114 145 189 249 293 346
#     4  10  18  27  50  83 115 143 185 247 309 345
#
# _framework density 25.063652999999999
#
# number of rings (size 3 to 8) (size 9 to 14) (size 15 to 20)
#    0.000    1.750    3.750    6.000    3.500    0.000 
#    0.000    0.625    0.000    3.750    0.000    0.000 
#    0.000    0.000    0.000    0.000    0.000    0.000 
#
# Total GULP energy -89459.423902 kJ/mol
# GULP energy per Si atom -5591.213994 kJ/mol
# Density = 2.500661 g / cm^3
# Si number density = 25.063653 Si / 1000 Ang^3
#
#
#
# Elastic Constant Matrix: (Units=GPa)
#
#
# Indices 1 2 3 4 5 6 
#
# 1 191.5407 42.3756 55.0032 -36.3562 4.4806 -16.8229
# 2 42.3756 102.2816 56.9798 -26.0000 -1.8879 -18.5181
# 3 55.0032 56.9798 84.3751 -32.7579 4.7218 -11.0416
# 4 -36.3562 -26.0000 -32.7579 50.0365 -6.0654 5.7039
# 5 4.4806 -1.8879 4.7218 -6.0654 50.3537 -20.8964
# 6 -16.8229 -18.5181 -11.0416 5.7039 -20.8964 46.0904
#
#
#
# Elastic Compliance Matrix: (Units=1/GPa)
#
#
# Indices 1 2 3 4 5 6 
#
# 1 0.006787 -0.000038 -0.003153 0.002742 0.000724 0.001696
# 2 -0.000038 0.017230 -0.010254 0.002042 0.004434 0.006210
# 3 -0.003153 -0.010254 0.023821 0.007900 -0.001984 -0.001441
# 4 0.002742 0.002042 0.007900 0.028411 0.003198 0.001648
# 5 0.000724 0.004434 -0.001984 0.003198 0.025892 0.012913
# 6 0.001696 0.006210 -0.001441 0.001648 0.012913 0.030116
#
#
# Mechanical properties :
#
#
# Convention : Reuss Voigt Hill
#
# Bulk Modulus (GPa) = 47.73367 76.32384 62.02876
# Shear Modulus (GPa) = 30.09717 44.21872 37.15794
#
# Velocity S-wave (km/s) = 3.46906 4.20486 3.85456
# Velocity P-wave (km/s) = 5.92724 7.35477 6.67925
#
# Compressibility (1/GPa) = 0.02094957
#
# Stress axis : x y z
#
# Youngs Moduli (GPa) = 147.33930 58.03786 41.97967
#
# Poissons Ratio (x) = 0.00222 0.13235
# Poissons Ratio (y) = 0.00562 0.43044
# Poissons Ratio (z) = 0.46451 0.59509
#
# Static dielectric constant tensor:
#      x y z
#    x 1.992650 -0.126000 0.019730 
#    y -0.126000 2.058480 0.080190 
#    z 0.019730 0.080190 2.119960 
# 
# From -- ./inp_files/257538.got.cif
#   From: 2010.05.17/outbox.cif.g08.bks.cpg/sg2_129_cif.got.tgz:257538.got - 2010.06.03 11:33:40.
