data_PCOD9086709
_publ_section_title
;
Structure prediction by ZEFSAII (Michael W. Deem and Ramdas Pophale) SiO2 
 PCOD9086709
Probable space group: P -1
;
_chemical_formula_sum "Si O2"
_cell_formula_units_Z 14
_cell_length_a 12.304729
_cell_length_b 10.255626
_cell_length_c 8.189910
_cell_angle_alpha 136.398936
_cell_angle_beta 118.390728
_cell_angle_gamma 52.503530
_cell_volume 564.344876
_symmetry_space_group_name_H-M "P -1"
_symmetry_group_IT_number 2
_symmetry_cell_setting 'triclinic'
loop_
_space_group_symop_operation_xyz
x,y,z
-x,-y,-z
loop_
_atom_site_type_symbol
_atom_site_label
_atom_site_fract_x
_atom_site_fract_y
_atom_site_fract_z
Si Si1 0.672019 0.532669 0.813811
Si Si2 0.461755 0.394004 0.571230
Si Si3 0.804102 0.436020 0.300133
Si Si4 0.832735 0.992497 0.006790
Si Si5 0.902084 0.718386 0.492664
Si Si6 0.644246 0.973458 0.154000
Si Si7 0.908210 0.088014 0.671768
O O1 0.534153 0.541888 0.808618
O O2 0.629995 0.522438 0.584031
O O3 0.795939 0.318330 0.761794
O O4 0.702404 0.733279 0.036870
O O5 0.349124 0.393956 0.614429
O O6 0.585762 0.169278 0.414019
O O7 0.789058 0.219020 0.095814
O O8 0.854139 0.535653 0.278985
O O9 0.931166 0.384098 0.471229
O O10 0.738429 0.997553 0.098417
O O11 0.986445 0.924062 0.121611
O O12 0.843902 0.828204 0.726104
O O13 0.854983 0.912909 0.514207
O O14 0.500000 0.000000 0.000000
O O15 0.000000 0.000000 0.500000
#
# Coordination Sequence:
#
# PCOD9086709 Si02
#       7
#     2   2   2   2   2   2   2
#     4  10  20  35  55  84 118 149 189 246 292 335
#     4  10  19  36  60  83 114 156 201 239 287 347
#     4  10  19  36  63  85 113 158 200 240 285 348
#     4  11  22  39  62  89 121 157 196 240 294 356
#     4  10  22  39  61  88 118 156 196 236 297 360
#     4  10  20  34  59  89 114 152 202 239 283 348
#     4  11  22  38  60  90 123 152 195 249 296 348
#
# _framework density 24.807525999999999
#
# number of rings (size 3 to 8) (size 9 to 14) (size 15 to 20)
#    0.000    1.714    0.000    8.571    0.000    1.714 
#    0.000    7.857    0.000   18.000    0.000    0.000 
#    0.000    0.000    0.000    0.000    0.000    0.000 
#
# Total GULP energy -78245.650483 kJ/mol
# GULP energy per Si atom -5588.975035 kJ/mol
# Density = 2.475106 g / cm^3
# Si number density = 24.807526 Si / 1000 Ang^3
#
#
#
# Elastic Constant Matrix: (Units=GPa)
#
#
# Indices 1 2 3 4 5 6 
#
# 1 173.8913 48.6945 51.4240 34.2482 9.4905 5.6534
# 2 48.6945 186.5432 46.1098 51.0060 6.6737 2.6199
# 3 51.4240 46.1098 106.6873 35.0865 12.2493 9.3532
# 4 34.2482 51.0060 35.0865 44.1754 5.3182 12.7901
# 5 9.4905 6.6737 12.2493 5.3182 31.2095 12.0375
# 6 5.6534 2.6199 9.3532 12.7901 12.0375 32.7093
#
#
#
# Elastic Compliance Matrix: (Units=1/GPa)
#
#
# Indices 1 2 3 4 5 6 
#
# 1 0.007226 -0.000299 -0.002067 -0.003852 -0.001168 0.001302
# 2 -0.000299 0.008245 -0.000317 -0.009999 -0.001343 0.003886
# 3 -0.002067 -0.000317 0.013732 -0.008864 -0.003674 0.001274
# 4 -0.003852 -0.009999 -0.008864 0.048469 0.005007 -0.016793
# 5 -0.001168 -0.001343 -0.003674 0.005007 0.039045 -0.014967
# 6 0.001302 0.003886 0.001274 -0.016793 -0.014967 0.041746
#
#
# Mechanical properties :
#
#
# Convention : Reuss Voigt Hill
#
# Bulk Modulus (GPa) = 41.95293 84.39759 63.17526
# Shear Modulus (GPa) = 29.10799 43.01176 36.05987
#
# Velocity S-wave (km/s) = 3.42914 4.16843 3.81673
# Velocity P-wave (km/s) = 5.71198 7.56721 6.70408
#
# Compressibility (1/GPa) = 0.02383624
#
# Stress axis : x y z
#
# Youngs Moduli (GPa) = 138.39628 121.29087 72.82221
#
# Poissons Ratio (x) = 0.03621 0.15053
# Poissons Ratio (y) = 0.04132 0.02312
# Poissons Ratio (z) = 0.28608 0.03850
#
# Static dielectric constant tensor:
#      x y z
#    x 1.973230 0.023090 -0.018710 
#    y 0.023090 2.020540 -0.015340 
#    z -0.018710 -0.015340 2.101680 
# 
# From -- ./inp_files/246110.got.cif
#   From: 2010.05.17/outbox.cif.g08.bks.cpg/sg2_124_cif.got.tgz:246110.got - 2010.06.03 11:33:40.
