data_PCOD9086552
_publ_section_title
;
Structure prediction by ZEFSAII (Michael W. Deem and Ramdas Pophale) SiO2 
 PCOD9086552
Probable space group: P -1
;
_chemical_formula_sum "Si O2"
_cell_formula_units_Z 12
_cell_length_a 6.532197
_cell_length_b 25.811293
_cell_length_c 16.292173
_cell_angle_alpha 162.452627
_cell_angle_beta 52.660744
_cell_angle_gamma 135.345714
_cell_volume 547.710394
_symmetry_space_group_name_H-M "P -1"
_symmetry_group_IT_number 2
_symmetry_cell_setting 'triclinic'
loop_
_space_group_symop_operation_xyz
x,y,z
-x,-y,-z
loop_
_atom_site_type_symbol
_atom_site_label
_atom_site_fract_x
_atom_site_fract_y
_atom_site_fract_z
Si Si1 0.217444 0.839369 0.266119
Si Si2 0.569851 0.631238 0.856918
Si Si3 0.760450 0.353212 0.407684
Si Si4 0.198944 0.300905 0.332606
Si Si5 0.699250 0.025345 0.163541
Si Si6 0.811396 0.977028 0.626422
O O1 0.224369 0.927398 0.305978
O O2 0.500000 0.000000 0.500000
O O3 0.908376 0.816279 0.341675
O O4 0.289479 0.662920 0.981277
O O5 0.604488 0.468388 0.654887
O O6 0.500733 0.521159 0.618002
O O7 0.897941 0.843109 0.118184
O O8 0.020508 0.198470 0.307936
O O9 0.000000 0.500000 0.500000
O O10 0.956146 0.326084 0.384316
O O11 0.517302 0.133044 0.094703
O O12 0.257332 0.130578 0.027238
O O13 0.506173 0.102765 0.370296
#
# Coordination Sequence:
#
# PCOD9086552 Si02
#       6
#     2   2   2   2   2   2
#     4   9  20  35  57  86 109 141 188 245 278 322
#     4  10  20  35  55  83 111 148 183 237 275 326
#     4  11  21  34  57  87 113 151 188 228 275 335
#     4  10  23  37  55  83 124 147 185 226 288 335
#     4  10  22  38  56  84 114 157 181 231 282 334
#     4  10  19  36  59  82 110 143 197 231 279 330
#
# _framework density 21.909389999999998
#
# number of rings (size 3 to 8) (size 9 to 14) (size 15 to 20)
#    0.000    2.000    1.667    1.500    2.333    1.333 
#    0.000    0.833    0.000   10.000    0.000    0.000 
#    0.000    0.000    0.000    0.000    0.000    0.000 
#
# Total GULP energy -66811.570846 kJ/mol
# GULP energy per Si atom -5567.630904 kJ/mol
# Density = 2.185952 g / cm^3
# Si number density = 21.909390 Si / 1000 Ang^3
#
#
#
# Elastic Constant Matrix: (Units=GPa)
#
#
# Indices 1 2 3 4 5 6 
#
# 1 200.6754 25.6258 34.9624 -9.0031 -41.1751 0.7161
# 2 25.6258 33.5762 -0.8373 -2.8004 -11.4454 14.3253
# 3 34.9624 -0.8373 57.6228 -9.5536 -20.4659 3.2509
# 4 -9.0031 -2.8004 -9.5536 22.6212 11.8832 -11.5247
# 5 -41.1751 -11.4454 -20.4659 11.8832 63.5185 -15.3201
# 6 0.7161 14.3253 3.2509 -11.5247 -15.3201 43.6193
#
#
#
# Elastic Compliance Matrix: (Units=1/GPa)
#
#
# Indices 1 2 3 4 5 6 
#
# 1 0.006922 -0.005645 -0.003255 0.000726 0.003070 0.003253
# 2 -0.005645 0.040653 0.005179 -0.003361 0.002686 -0.013589
# 3 -0.003255 0.005179 0.022134 0.006182 0.004804 0.000024
# 4 0.000726 -0.003361 0.006182 0.056493 -0.005419 0.013654
# 5 0.003070 0.002686 0.004804 -0.005419 0.021985 0.004999
# 6 0.003253 -0.013589 0.000024 0.013654 0.004999 0.032697
#
#
# Mechanical properties :
#
#
# Convention : Reuss Voigt Hill
#
# Bulk Modulus (GPa) = 16.05937 45.70849 30.88393
# Shear Modulus (GPa) = 23.91414 41.42669 32.67041
#
# Velocity S-wave (km/s) = 3.30737 4.35307 3.86574
# Velocity P-wave (km/s) = 4.68303 6.79511 5.83542
#
# Compressibility (1/GPa) = 0.06226894
#
# Stress axis : x y z
#
# Youngs Moduli (GPa) = 144.46875 24.59813 45.17889
#
# Poissons Ratio (x) = 0.13885 0.14704
# Poissons Ratio (y) = 0.81550 -0.23399
# Poissons Ratio (z) = 0.47019 -0.12740
#
# Static dielectric constant tensor:
#      x y z
#    x 1.836060 -0.019820 -0.046830 
#    y -0.019820 1.934370 0.010050 
#    z -0.046830 0.010050 1.879030 
# 
# From -- ./inp_files/486007.got.cif
#   From: 2010.05.17/outbox.cif.g08.bks.cpg/sg2_244_cif.got.tgz:486007.got - 2010.06.03 11:33:40.
