data_PCOD9086878
_publ_section_title
;
Structure prediction by ZEFSAII (Michael W. Deem and Ramdas Pophale) SiO2 
 PCOD9086878
Probable space group: P -1
;
_chemical_formula_sum "Si O2"
_cell_formula_units_Z 16
_cell_length_a 29.658223
_cell_length_b 9.212470
_cell_length_c 12.276682
_cell_angle_alpha 35.450447
_cell_angle_beta 24.203150
_cell_angle_gamma 28.272058
_cell_volume 650.254498
_symmetry_space_group_name_H-M "P -1"
_symmetry_group_IT_number 2
_symmetry_cell_setting 'triclinic'
loop_
_space_group_symop_operation_xyz
x,y,z
-x,-y,-z
loop_
_atom_site_type_symbol
_atom_site_label
_atom_site_fract_x
_atom_site_fract_y
_atom_site_fract_z
Si Si1 0.827251 0.075328 0.524452
Si Si2 0.694959 0.697031 0.047909
Si Si3 0.525950 0.250581 0.820672
Si Si4 0.184922 0.877388 0.715677
Si Si5 0.865963 0.160534 0.627563
Si Si6 0.433704 0.331648 0.211122
Si Si7 0.680833 0.289032 0.150020
Si Si8 0.864960 0.715676 0.235330
O O1 0.886635 0.029776 0.300599
O O2 0.893716 0.016387 0.533387
O O3 0.715259 0.446790 0.548711
O O4 0.767199 0.872076 0.778325
O O5 0.759601 0.454520 0.152841
O O6 0.711755 0.501555 0.022172
O O7 0.535132 0.976356 0.237181
O O8 0.676039 0.139241 0.588531
O O9 0.471031 0.488044 0.696018
O O10 0.437443 0.377791 0.046568
O O11 0.500000 0.000000 0.000000
O O12 0.102818 0.131659 0.833509
O O13 0.822364 0.505422 0.502259
O O14 0.764234 0.155877 0.935200
O O15 0.000000 0.000000 0.500000
O O16 0.500000 0.500000 0.000000
O O17 0.738256 0.993783 0.278509
O O18 0.000000 0.500000 0.000000
#
# Coordination Sequence:
#
# PCOD9086878 Si02
#       8
#     2   2   2   2   2   2   2   2
#     4  11  23  43  65  98 136 174 225 279 335 412
#     4  10  22  41  63  96 141 178 220 267 331 410
#     4  12  20  38  68 102 143 176 220 276 333 414
#     4  11  25  42  69 100 138 184 218 274 349 402
#     4  12  25  44  74  95 124 180 229 287 349 391
#     4  10  19  36  60  93 139 176 206 268 327 397
#     4  11  23  42  70  99 138 179 225 285 337 393
#     4  11  25  47  69  96 135 173 239 290 324 402
#
# _framework density 24.605751999999999
#
# number of rings (size 3 to 8) (size 9 to 14) (size 15 to 20)
#    0.000    1.000    6.250    1.500    0.000    4.500 
#    0.000    3.125    0.000    0.000    0.000    0.000 
#    0.000    0.000    0.000    0.000    0.000    0.000 
#
# Total GULP energy -89435.690234 kJ/mol
# GULP energy per Si atom -5589.730640 kJ/mol
# Density = 2.454975 g / cm^3
# Si number density = 24.605752 Si / 1000 Ang^3
#
#
#
# Elastic Constant Matrix: (Units=GPa)
#
#
# Indices 1 2 3 4 5 6 
#
# 1 200.5167 59.4784 24.5436 -12.8426 14.7552 -5.7315
# 2 59.4784 118.6341 29.3267 -22.4953 8.9018 -0.3122
# 3 24.5436 29.3267 52.8349 -9.1888 9.5081 -1.8095
# 4 -12.8426 -22.4953 -9.1888 47.5601 1.4355 8.3267
# 5 14.7552 8.9018 9.5081 1.4355 39.8477 6.4698
# 6 -5.7315 -0.3122 -1.8095 8.3267 6.4698 34.4301
#
#
#
# Elastic Compliance Matrix: (Units=1/GPa)
#
#
# Indices 1 2 3 4 5 6 
#
# 1 0.006053 -0.002660 -0.001001 0.000016 -0.001608 0.001229
# 2 -0.002660 0.011707 -0.004495 0.004229 -0.000465 -0.001508
# 3 -0.001001 -0.004495 0.023069 0.001956 -0.004422 0.001363
# 4 0.000016 0.004229 0.001956 0.024413 -0.001404 -0.005496
# 5 -0.001608 -0.000465 -0.004422 -0.001404 0.027775 -0.005384
# 6 0.001229 -0.001508 0.001363 -0.005496 -0.005384 0.031648
#
#
# Mechanical properties :
#
#
# Convention : Reuss Voigt Hill
#
# Bulk Modulus (GPa) = 40.78757 66.52036 53.65396
# Shear Modulus (GPa) = 33.52332 41.61005 37.56669
#
# Velocity S-wave (km/s) = 3.69510 4.11672 3.91160
# Velocity P-wave (km/s) = 5.90063 7.04909 6.50027
#
# Compressibility (1/GPa) = 0.02451727
#
# Stress axis : x y z
#
# Youngs Moduli (GPa) = 165.19838 85.41897 43.34785
#
# Poissons Ratio (x) = 0.22726 0.04339
# Poissons Ratio (y) = 0.43951 0.19484
# Poissons Ratio (z) = 0.16534 0.38394
#
# Static dielectric constant tensor:
#      x y z
#    x 1.932400 -0.023500 -0.012280 
#    y -0.023500 1.972670 0.104630 
#    z -0.012280 0.104630 2.181220 
# 
# From -- ./inp_files/476368.got.cif
#   From: 2010.05.17/outbox.cif.g08.bks.cpg/sg2_239_cif.got.tgz:476368.got - 2010.06.03 11:33:40.
