data_PCOD9086353
_publ_section_title
;
Structure prediction by ZEFSAII (Michael W. Deem and Ramdas Pophale) SiO2 
 PCOD9086353
Probable space group: P -1
;
_chemical_formula_sum "Si O2"
_cell_formula_units_Z 16
_cell_length_a 9.155403
_cell_length_b 14.539905
_cell_length_c 11.169542
_cell_angle_alpha 136.123830
_cell_angle_beta 99.109394
_cell_angle_gamma 58.179929
_cell_volume 811.229997
_symmetry_space_group_name_H-M "P -1"
_symmetry_group_IT_number 2
_symmetry_cell_setting 'triclinic'
loop_
_space_group_symop_operation_xyz
x,y,z
-x,-y,-z
loop_
_atom_site_type_symbol
_atom_site_label
_atom_site_fract_x
_atom_site_fract_y
_atom_site_fract_z
Si Si1 0.633463 0.504016 0.427836
Si Si2 0.731774 0.724374 0.239280
Si Si3 0.155394 0.533591 0.183669
Si Si4 0.662434 0.722728 0.813239
Si Si5 0.284086 0.747872 0.479652
Si Si6 0.671334 0.940898 0.840825
Si Si7 0.572540 0.061856 0.399114
Si Si8 0.943614 0.156510 0.216687
O O1 0.500000 0.500000 0.500000
O O2 0.677290 0.618017 0.604198
O O3 0.502856 0.597137 0.385790
O O4 0.819240 0.319653 0.270705
O O5 0.576690 0.810167 0.401749
O O6 0.935645 0.634719 0.235892
O O7 0.679648 0.875555 0.287973
O O8 0.744331 0.586173 0.030208
O O9 0.225992 0.409939 0.191426
O O10 0.201218 0.663972 0.325833
O O11 0.713793 0.838463 0.873533
O O12 0.450807 0.862723 0.959824
O O13 0.287078 0.892962 0.562277
O O14 0.178580 0.811961 0.653651
O O15 0.542350 0.923870 0.719587
O O16 0.867568 0.872853 0.746369
O O17 0.000000 0.000000 0.000000
#
# Coordination Sequence:
#
# PCOD9086353 Si02
#       8
#     2   2   2   2   2   2   2   2
#     4  10  19  36  57  91 128 159 192 246 318 380
#     4  10  25  43  65  92 121 169 218 262 300 367
#     4  11  22  43  68  90 126 166 213 258 312 368
#     4  11  21  37  66  92 125 166 202 254 319 379
#     4  11  23  41  65  91 126 169 203 260 323 371
#     4  11  23  37  64  96 126 164 205 257 318 380
#     4  11  23  43  66  91 127 163 214 260 314 370
#     4  11  24  35  56  93 134 162 202 249 312 387
#
# _framework density 19.723136
#
# number of rings (size 3 to 8) (size 9 to 14) (size 15 to 20)
#    0.000    1.250    5.000    2.250    1.750    2.500 
#    0.000    1.250    0.000    0.000    0.000    0.000 
#    0.000    0.000    0.000    0.000    0.000    0.000 
#
# Total GULP energy -89292.896452 kJ/mol
# GULP energy per Si atom -5580.806028 kJ/mol
# Density = 1.967825 g / cm^3
# Si number density = 19.723136 Si / 1000 Ang^3
#
#
#
# Elastic Constant Matrix: (Units=GPa)
#
#
# Indices 1 2 3 4 5 6 
#
# 1 74.2534 37.5924 43.4430 3.2687 1.6519 -0.0783
# 2 37.5924 53.2773 15.5937 8.5170 0.6310 -4.9373
# 3 43.4430 15.5937 120.0771 11.0755 10.9618 -2.9198
# 4 3.2687 8.5170 11.0755 27.2049 -8.8950 -1.1088
# 5 1.6519 0.6310 10.9618 -8.8950 30.0731 -0.1556
# 6 -0.0783 -4.9373 -2.9198 -1.1088 -0.1556 24.1381
#
#
#
# Elastic Compliance Matrix: (Units=1/GPa)
#
#
# Indices 1 2 3 4 5 6 
#
# 1 0.027483 -0.018452 -0.008696 0.007194 0.004152 -0.004380
# 2 -0.018452 0.033040 0.003941 -0.010864 -0.004295 0.006648
# 3 -0.008696 0.003941 0.012225 -0.007100 -0.006151 0.001891
# 4 0.007194 -0.010864 -0.007100 0.047542 0.016479 -0.000768
# 5 0.004152 -0.004295 -0.006151 0.016479 0.040227 -0.000593
# 6 -0.004380 0.006648 0.001891 -0.000768 -0.000593 0.042964
#
#
# Mechanical properties :
#
#
# Convention : Reuss Voigt Hill
#
# Bulk Modulus (GPa) = 37.97443 48.98511 43.47977
# Shear Modulus (GPa) = 19.32946 26.34849 22.83897
#
# Velocity S-wave (km/s) = 3.13395 3.65899 3.40660
# Velocity P-wave (km/s) = 5.69132 6.53767 6.12912
#
# Compressibility (1/GPa) = 0.02633351
#
# Stress axis : x y z
#
# Youngs Moduli (GPa) = 36.38593 30.26663 81.80124
#
# Poissons Ratio (x) = 0.55848 0.71135
# Poissons Ratio (y) = 0.67139 -0.32238
# Poissons Ratio (z) = 0.31641 -0.11928
#
# Static dielectric constant tensor:
#      x y z
#    x 1.544950 0.004030 -0.035430 
#    y 0.004030 1.728430 0.003070 
#    z -0.035430 0.003070 1.682610 
# 
# From -- ./inp_files/245054.got.cif
#   From: 2010.05.17/outbox.cif.g08.bks.cpg/sg2_123_cif.got.tgz:245054.got - 2010.06.03 11:33:40.
