data_PCOD9086980
_publ_section_title
;
Structure prediction by ZEFSAII (Michael W. Deem and Ramdas Pophale) SiO2 
 PCOD9086980
Probable space group: P -1
;
_chemical_formula_sum "Si O2"
_cell_formula_units_Z 16
_cell_length_a 4.928726
_cell_length_b 18.541689
_cell_length_c 9.992521
_cell_angle_alpha 114.847860
_cell_angle_beta 122.024902
_cell_angle_gamma 64.969213
_cell_volume 678.321265
_symmetry_space_group_name_H-M "P -1"
_symmetry_group_IT_number 2
_symmetry_cell_setting 'triclinic'
loop_
_space_group_symop_operation_xyz
x,y,z
-x,-y,-z
loop_
_atom_site_type_symbol
_atom_site_label
_atom_site_fract_x
_atom_site_fract_y
_atom_site_fract_z
Si Si1 0.047796 0.408001 0.380468
Si Si2 0.616031 0.043172 0.261593
Si Si3 0.328425 0.435400 0.204552
Si Si4 0.363300 0.351482 0.870601
Si Si5 0.375211 0.898012 0.981803
Si Si6 0.353837 0.621049 0.317236
Si Si7 0.867469 0.184795 0.919304
Si Si8 0.324409 0.927613 0.423552
O O1 0.091646 0.414062 0.237546
O O2 0.381238 0.355657 0.496341
O O3 0.000000 0.500000 0.500000
O O4 0.704610 0.387140 0.304431
O O5 0.554589 0.102354 0.419584
O O6 0.370366 0.986641 0.116193
O O7 0.691749 0.084761 0.178384
O O8 0.938450 0.973719 0.340293
O O9 0.310759 0.532017 0.281974
O O10 0.272937 0.412544 0.020586
O O11 0.478700 0.386181 0.791203
O O12 0.676902 0.279120 0.939712
O O13 0.023091 0.323621 0.737279
O O14 0.140950 0.854895 0.968218
O O15 0.751044 0.839162 0.044910
O O16 0.642413 0.142669 0.732198
O O17 0.500000 0.000000 0.500000
#
# Coordination Sequence:
#
# PCOD9086980 Si02
#       8
#     2   2   2   2   2   2   2   2
#     4  10  20  37  62  90 119 147 195 256 301 340
#     4   9  20  34  61  90 110 146 196 246 283 344
#     4  11  21  38  63  90 118 155 203 248 293 355
#     4  12  24  39  59  87 124 161 197 245 303 349
#     4  10  21  38  60  85 114 152 196 238 290 345
#     4  11  21  39  63  88 115 156 206 247 290 354
#     4  11  24  40  57  82 124 157 190 241 296 349
#     4  10  19  36  61  87 116 146 194 241 294 339
#
# _framework density 23.587643
#
# number of rings (size 3 to 8) (size 9 to 14) (size 15 to 20)
#    0.000    1.500    1.250    6.000    1.750    1.500 
#    0.000    3.750    0.000    0.000    0.000    0.000 
#    0.000    0.000    0.000    0.000    0.000    0.000 
#
# Total GULP energy -89423.926191 kJ/mol
# GULP energy per Si atom -5588.995387 kJ/mol
# Density = 2.353396 g / cm^3
# Si number density = 23.587643 Si / 1000 Ang^3
#
#
#
# Elastic Constant Matrix: (Units=GPa)
#
#
# Indices 1 2 3 4 5 6 
#
# 1 92.4106 2.6340 6.6478 -3.8404 -5.8256 -11.9503
# 2 2.6340 49.1866 12.4716 -9.7181 -6.3160 -15.2479
# 3 6.6478 12.4716 97.0775 -15.6940 -16.6287 5.4233
# 4 -3.8404 -9.7181 -15.6940 23.1474 -2.5424 3.2082
# 5 -5.8256 -6.3160 -16.6287 -2.5424 43.1867 -11.9534
# 6 -11.9503 -15.2479 5.4233 3.2082 -11.9534 26.9585
#
#
#
# Elastic Compliance Matrix: (Units=1/GPa)
#
#
# Indices 1 2 3 4 5 6 
#
# 1 0.012366 0.003446 -0.000649 0.002273 0.004644 0.009350
# 2 0.003446 0.031481 -0.001942 0.010465 0.011458 0.023559
# 3 -0.000649 -0.001942 0.012909 0.008730 0.004244 -0.003140
# 4 0.002273 0.010465 0.008730 0.054518 0.009169 0.002748
# 5 0.004644 0.011458 0.004244 0.009169 0.033577 0.021483
# 6 0.009350 0.023559 -0.003140 0.002748 0.021483 0.064394
#
#
# Mechanical properties :
#
#
# Convention : Reuss Voigt Hill
#
# Bulk Modulus (GPa) = 17.10389 31.35349 24.22869
# Shear Modulus (GPa) = 22.02420 33.11995 27.57207
#
# Velocity S-wave (km/s) = 3.05899 3.75123 3.42266
# Velocity P-wave (km/s) = 4.44337 5.66423 5.09053
#
# Compressibility (1/GPa) = 0.05846622
#
# Stress axis : x y z
#
# Youngs Moduli (GPa) = 80.86643 31.76527 77.46702
#
# Poissons Ratio (x) = -0.10947 0.05028
# Poissons Ratio (y) = -0.27869 0.15044
# Poissons Ratio (z) = 0.05248 0.06169
#
# Static dielectric constant tensor:
#      x y z
#    x 1.931360 -0.036490 0.025570 
#    y -0.036490 1.945440 -0.003040 
#    z 0.025570 -0.003040 1.987810 
# 
# From -- ./inp_files/140751.got.cif
#   From: 2010.05.17/outbox.cif.g08.bks.cpg/sg2_71_cif.got.tgz:140751.got - 2010.06.03 11:33:40.
