data_PCOD9086045
_publ_section_title
;
Structure prediction by ZEFSAII (Michael W. Deem and Ramdas Pophale) SiO2 
 PCOD9086045
Probable space group: P -1
;
_chemical_formula_sum "Si O2"
_cell_formula_units_Z 12
_cell_length_a 11.287722
_cell_length_b 21.616052
_cell_length_c 21.531420
_cell_angle_alpha 166.644227
_cell_angle_beta 27.152830
_cell_angle_gamma 150.293746
_cell_volume 553.624967
_symmetry_space_group_name_H-M "P -1"
_symmetry_group_IT_number 2
_symmetry_cell_setting 'triclinic'
loop_
_space_group_symop_operation_xyz
x,y,z
-x,-y,-z
loop_
_atom_site_type_symbol
_atom_site_label
_atom_site_fract_x
_atom_site_fract_y
_atom_site_fract_z
Si Si1 0.293266 0.916548 0.709883
Si Si2 0.845994 0.735714 0.562587
Si Si3 0.677988 0.255182 0.100793
Si Si4 0.184404 0.258388 0.667320
Si Si5 0.961581 0.565191 0.709016
Si Si6 0.443730 0.889749 0.749091
O O1 0.580330 0.798434 0.450319
O O2 0.295682 0.987688 0.851740
O O3 0.098716 0.671015 0.543125
O O4 0.229262 0.186887 0.967524
O O5 0.801583 0.547184 0.339618
O O6 0.577574 0.744629 0.735884
O O7 0.038613 0.590828 0.378028
O O8 0.881505 0.040600 0.822682
O O9 0.571878 0.127774 0.961919
O O10 0.336897 0.281322 0.553593
O O11 0.000000 0.000000 0.500000
O O12 0.000000 0.500000 0.000000
O O13 0.242513 0.709979 0.707213
#
# Coordination Sequence:
#
# PCOD9086045 Si02
#       6
#     2   2   2   2   2   2
#     4  10  24  34  59  81 120 146 181 226 287 346
#     4  10  21  31  55  74 125 147 187 212 269 344
#     4  10  19  36  48  84 108 160 182 224 264 326
#     4  10  23  40  56  81 109 148 195 233 275 322
#     4  12  20  37  52  92 116 154 170 222 289 350
#     4  10  23  34  62  81 122 143 189 230 281 336
#
# _framework density 21.675324
#
# number of rings (size 3 to 8) (size 9 to 14) (size 15 to 20)
#    1.000    0.667    0.000    7.000    0.000    6.667 
#    0.000    0.000    0.000    0.000    0.000   23.333 
#    0.000    0.000    0.000    0.000    0.000    0.000 
#
# Total GULP energy -66935.475412 kJ/mol
# GULP energy per Si atom -5577.956284 kJ/mol
# Density = 2.162599 g / cm^3
# Si number density = 21.675324 Si / 1000 Ang^3
#
#
#
# Elastic Constant Matrix: (Units=GPa)
#
#
# Indices 1 2 3 4 5 6 
#
# 1 127.3484 12.6932 62.1295 -9.6128 -7.4322 6.0544
# 2 12.6932 33.0423 22.9761 -11.0529 -5.4129 13.5902
# 3 62.1295 22.9761 185.5609 -10.7402 -10.6981 11.4679
# 4 -9.6128 -11.0529 -10.7402 28.9235 1.5360 -3.0658
# 5 -7.4322 -5.4129 -10.6981 1.5360 46.1778 3.7459
# 6 6.0544 13.5902 11.4679 -3.0658 3.7459 3.5222
#
#
#
# Elastic Compliance Matrix: (Units=1/GPa)
#
#
# Indices 1 2 3 4 5 6 
#
# 1 0.009525 -0.002208 -0.002989 0.001500 0.000300 0.002864
# 2 -0.002208 -0.026675 -0.005774 0.003325 -0.016796 0.146276
# 3 -0.002989 -0.005774 0.006771 -0.000126 -0.000013 0.005275
# 4 0.001500 0.003325 -0.000126 0.038674 -0.002406 0.021221
# 5 0.000300 -0.016796 -0.000013 -0.002406 0.016157 0.045057
# 6 0.002864 0.146276 0.005275 0.021221 0.045057 -0.332031
#
#
# Mechanical properties :
#
#
# Convention : Reuss Voigt Hill
#
# Bulk Modulus (GPa) = -30.94087 60.17213 14.61563
# Shear Modulus (GPa) = -18.08893 32.26822 7.08964
#
# Velocity S-wave (km/s) = -2.89198 3.86256 1.81051
# Velocity P-wave (km/s) = 5.04550 6.90749 3.33590
#
# Compressibility (1/GPa) = -0.03231971
#
# Stress axis : x y z
#
# Youngs Moduli (GPa) = 104.98449 -37.48854 147.69704
#
# Poissons Ratio (x) = -0.08277 0.44143
# Poissons Ratio (y) = 0.23179 0.85277
# Poissons Ratio (z) = 0.31377 -0.21645
#
# Static dielectric constant tensor:
#      x y z
#    x 1.901680 0.002370 -0.055200 
#    y 0.002370 1.782290 -0.008840 
#    z -0.055200 -0.008840 1.800970 
# 
# From -- ./inp_files/610956.got.cif
#   From: 2010.05.17/outbox.cif.g08.bks.cpg/sg2_306_cif.got.tgz:610956.got - 2010.06.03 11:33:40.
