data_PCOD9086252
_publ_section_title
;
Structure prediction by ZEFSAII (Michael W. Deem and Ramdas Pophale) SiO2 
 PCOD9086252
Probable space group: P -1
;
_chemical_formula_sum "Si O2"
_cell_formula_units_Z 12
_cell_length_a 19.934445
_cell_length_b 11.481714
_cell_length_c 8.067805
_cell_angle_alpha 126.055844
_cell_angle_beta 36.949841
_cell_angle_gamma 149.772231
_cell_volume 526.168329
_symmetry_space_group_name_H-M "P -1"
_symmetry_group_IT_number 2
_symmetry_cell_setting 'triclinic'
loop_
_space_group_symop_operation_xyz
x,y,z
-x,-y,-z
loop_
_atom_site_type_symbol
_atom_site_label
_atom_site_fract_x
_atom_site_fract_y
_atom_site_fract_z
Si Si1 0.788263 0.271380 0.798759
Si Si2 0.158109 0.365640 0.402635
Si Si3 0.770712 0.844975 0.705321
Si Si4 0.525180 0.260164 0.169304
Si Si5 0.485353 0.616447 0.364735
Si Si6 0.301554 0.711412 0.675325
O O1 0.000000 0.500000 0.500000
O O2 0.659661 0.000661 0.772801
O O3 0.655241 0.263944 0.988122
O O4 0.807608 0.311260 0.991461
O O5 0.166534 0.243002 0.414020
O O6 0.199618 0.558089 0.578300
O O7 0.325292 0.516104 0.067509
O O8 0.949673 0.128100 0.539020
O O9 0.634152 0.652501 0.664897
O O10 0.654230 0.794881 0.044789
O O11 0.465028 0.300280 0.473627
O O12 0.355417 0.616195 0.572303
O O13 0.500000 0.000000 0.500000
#
# Coordination Sequence:
#
# PCOD9086252 Si02
#       6
#     2   2   2   2   2   2
#     4  10  22  38  55  84 119 149 182 227 286 339
#     4  10  20  36  58  83 110 147 187 231 277 333
#     4   9  20  38  56  79 112 148 190 227 275 332
#     4  10  21  38  57  84 115 146 187 234 279 330
#     4   9  20  37  56  79 112 149 184 234 276 330
#     4  10  19  36  57  81 113 145 183 232 283 331
#
# _framework density 22.806388999999999
#
# number of rings (size 3 to 8) (size 9 to 14) (size 15 to 20)
#    0.000    2.333    1.667    0.000    2.333    2.667 
#    3.000    1.667    0.000    0.000    0.000    0.000 
#    0.000    0.000    0.000    0.000    0.000    0.000 
#
# Total GULP energy -67003.547669 kJ/mol
# GULP energy per Si atom -5583.628972 kJ/mol
# Density = 2.275448 g / cm^3
# Si number density = 22.806389 Si / 1000 Ang^3
#
#
#
# Elastic Constant Matrix: (Units=GPa)
#
#
# Indices 1 2 3 4 5 6 
#
# 1 39.5765 26.2549 6.1997 9.6370 -6.8256 7.9310
# 2 26.2549 188.4916 123.3421 -4.9920 26.3370 23.7405
# 3 6.1997 123.3421 169.4905 -2.3277 23.0061 29.9736
# 4 9.6370 -4.9920 -2.3277 37.6937 2.2655 2.3497
# 5 -6.8256 26.3370 23.0061 2.2655 30.2934 2.6120
# 6 7.9310 23.7405 29.9736 2.3497 2.6120 28.8940
#
#
#
# Elastic Compliance Matrix: (Units=1/GPa)
#
#
# Indices 1 2 3 4 5 6 
#
# 1 0.037987 -0.010029 0.005143 -0.011121 0.014890 -0.007964
# 2 -0.010029 0.013225 -0.008282 0.004223 -0.007856 0.000845
# 3 0.005143 -0.008282 0.013315 -0.001017 -0.000965 -0.008249
# 4 -0.011121 0.004223 -0.001017 0.030397 -0.007579 -0.001149
# 5 0.014890 -0.007856 -0.000965 -0.007579 0.044499 -0.000037
# 6 -0.007964 0.000845 -0.008249 -0.001149 -0.000037 0.044755
#
#
# Mechanical properties :
#
#
# Convention : Reuss Voigt Hill
#
# Bulk Modulus (GPa) = 26.18425 78.79466 52.48946
# Shear Modulus (GPa) = 22.39710 35.49369 28.94540
#
# Velocity S-wave (km/s) = 3.13717 3.94928 3.56642
# Velocity P-wave (km/s) = 4.96271 7.44447 6.32648
#
# Compressibility (1/GPa) = 0.03819089
#
# Stress axis : x y z
#
# Youngs Moduli (GPa) = 26.32490 75.61482 75.10327
#
# Poissons Ratio (x) = 0.75831 -0.38626
# Poissons Ratio (y) = 0.26400 0.62203
# Poissons Ratio (z) = -0.13539 0.62627
#
# Static dielectric constant tensor:
#      x y z
#    x 1.993110 -0.004170 -0.008580 
#    y -0.004170 1.857740 0.025240 
#    z -0.008580 0.025240 1.826410 
# 
# From -- ./inp_files/161955.got.cif
#   From: 2010.05.17/outbox.cif.g08.bks.cpg/sg2_81_cif.got.tgz:161955.got - 2010.06.03 11:33:40.
