data_PCOD9086126
_publ_section_title
;
Structure prediction by ZEFSAII (Michael W. Deem and Ramdas Pophale) SiO2 
 PCOD9086126
Probable space group: P -1
;
_chemical_formula_sum "Si O2"
_cell_formula_units_Z 16
_cell_length_a 8.525019
_cell_length_b 7.408261
_cell_length_c 17.916937
_cell_angle_alpha 128.855438
_cell_angle_beta 69.724642
_cell_angle_gamma 127.536410
_cell_volume 697.575125
_symmetry_space_group_name_H-M "P -1"
_symmetry_group_IT_number 2
_symmetry_cell_setting 'triclinic'
loop_
_space_group_symop_operation_xyz
x,y,z
-x,-y,-z
loop_
_atom_site_type_symbol
_atom_site_label
_atom_site_fract_x
_atom_site_fract_y
_atom_site_fract_z
Si Si1 0.727000 0.595778 0.073275
Si Si2 0.945268 0.949841 0.583887
Si Si3 0.626082 0.779293 0.390498
Si Si4 0.340109 0.674948 0.532316
Si Si5 0.878425 0.054094 0.970669
Si Si6 0.427258 0.057124 0.899238
Si Si7 0.578333 0.978092 0.709320
Si Si8 0.425593 0.502611 0.209818
O O1 0.659995 0.785460 0.091140
O O2 0.638299 0.574697 0.163353
O O3 0.611296 0.300248 0.976692
O O4 0.956889 0.733075 0.057553
O O5 0.851659 0.624060 0.525954
O O6 0.774271 0.986671 0.654952
O O7 0.000000 0.000000 0.500000
O O8 0.157828 0.167394 0.640811
O O9 0.531568 0.699715 0.467562
O O10 0.454463 0.558543 0.307166
O O11 0.668256 0.079404 0.440501
O O12 0.396908 0.759249 0.630569
O O13 0.733147 0.784155 0.876011
O O14 0.741661 0.126093 0.059920
O O15 0.000000 0.000000 0.000000
O O16 0.505517 0.929499 0.794221
O O17 0.617068 0.274496 0.758119
#
# Coordination Sequence:
#
# PCOD9086126 Si02
#       8
#     2   2   2   2   2   2   2   2
#     4   8  14  28  49  77 116 143 182 232 283 328
#     4  12  24  40  59  85 118 155 198 243 295 343
#     4  10  22  41  61  84 114 158 197 237 293 346
#     4  10  22  42  61  81 117 155 196 247 290 343
#     4   9  15  28  51  82 115 145 187 235 283 333
#     4   8  15  28  46  79 115 144 179 237 283 331
#     4  10  19  36  55  82 117 149 191 242 289 338
#     4   9  19  34  54  85 117 148 188 239 283 340
#
# _framework density 22.936599999999999
#
# number of rings (size 3 to 8) (size 9 to 14) (size 15 to 20)
#    0.000    2.500    1.250    3.000    0.000    1.000 
#   11.250    0.000    0.000    3.000    0.000    7.875 
#    0.000    0.000    0.000    0.000    0.000    0.000 
#
# Total GULP energy -89341.837488 kJ/mol
# GULP energy per Si atom -5583.864843 kJ/mol
# Density = 2.288440 g / cm^3
# Si number density = 22.936600 Si / 1000 Ang^3
#
#
#
# Elastic Constant Matrix: (Units=GPa)
#
#
# Indices 1 2 3 4 5 6 
#
# 1 59.9355 33.2346 30.5262 2.5312 -10.6254 19.3916
# 2 33.2346 81.8671 46.7978 -8.6044 -13.8565 25.6770
# 3 30.5262 46.7978 118.0456 -27.4730 -2.2180 12.3363
# 4 2.5312 -8.6044 -27.4730 27.0699 5.1771 -13.1897
# 5 -10.6254 -13.8565 -2.2180 5.1771 33.4580 5.9580
# 6 19.3916 25.6770 12.3363 -13.1897 5.9580 37.0229
#
#
#
# Elastic Compliance Matrix: (Units=1/GPa)
#
#
# Indices 1 2 3 4 5 6 
#
# 1 0.047881 0.009436 -0.023313 -0.055910 0.035018 -0.049409
# 2 0.009436 0.030816 -0.017760 -0.031477 0.025822 -0.035767
# 3 -0.023313 -0.017760 0.028478 0.048419 -0.026883 0.036615
# 4 -0.055910 -0.031477 0.048419 0.140675 -0.066406 0.095784
# 5 0.035018 0.025822 -0.026883 -0.066406 0.071313 -0.062426
# 6 -0.049409 -0.035767 0.036615 0.095784 -0.062426 0.109664
#
#
# Mechanical properties :
#
#
# Convention : Reuss Voigt Hill
#
# Bulk Modulus (GPa) = 22.77823 53.44061 38.10942
# Shear Modulus (GPa) = 9.86711 29.46279 19.66495
#
# Velocity S-wave (km/s) = 2.07635 3.58792 2.93125
# Velocity P-wave (km/s) = 3.96243 6.36507 5.30165
#
# Compressibility (1/GPa) = 0.04390156
#
# Stress axis : x y z
#
# Youngs Moduli (GPa) = 20.88513 32.45051 35.11515
#
# Poissons Ratio (x) = -0.30622 0.81866
# Poissons Ratio (y) = -0.19708 0.62363
# Poissons Ratio (z) = 0.48690 0.57631
#
# Static dielectric constant tensor:
#      x y z
#    x 1.874660 -0.045120 -0.035750 
#    y -0.045120 1.860840 0.009750 
#    z -0.035750 0.009750 1.852840 
# 
# From -- ./inp_files/572862.got.cif
#   From: 2010.05.17/outbox.cif.g08.bks.cpg/sg2_287_cif.got.tgz:572862.got - 2010.06.03 11:33:40.
