data_PCOD9086936
_publ_section_title
;
Structure prediction by ZEFSAII (Michael W. Deem and Ramdas Pophale) SiO2 
 PCOD9086936
Probable space group: P -1
;
_chemical_formula_sum "Si O2"
_cell_formula_units_Z 16
_cell_length_a 19.052451
_cell_length_b 25.234695
_cell_length_c 5.722305
_cell_angle_alpha 55.719824
_cell_angle_beta 68.185058
_cell_angle_gamma 18.929529
_cell_volume 589.275620
_symmetry_space_group_name_H-M "P -1"
_symmetry_group_IT_number 2
_symmetry_cell_setting 'triclinic'
loop_
_space_group_symop_operation_xyz
x,y,z
-x,-y,-z
loop_
_atom_site_type_symbol
_atom_site_label
_atom_site_fract_x
_atom_site_fract_y
_atom_site_fract_z
Si Si1 0.992145 0.585648 0.027265
Si Si2 0.353412 0.328729 0.843765
Si Si3 0.858879 0.277948 0.129287
Si Si4 0.968097 0.719386 0.029068
Si Si5 0.440527 0.150015 0.882085
Si Si6 0.264902 0.819878 0.524523
Si Si7 0.754142 0.340898 0.592928
Si Si8 0.405039 0.752708 0.009553
O O1 0.220042 0.364804 0.453919
O O2 0.973693 0.676121 0.888408
O O3 0.713583 0.778670 0.958747
O O4 0.105157 0.491391 0.860660
O O5 0.539265 0.125514 0.994998
O O6 0.502012 0.251294 0.037534
O O7 0.223461 0.483920 0.439069
O O8 0.531719 0.556521 0.846733
O O9 0.901374 0.215376 0.972661
O O10 0.006817 0.225303 0.115708
O O11 0.908050 0.202491 0.502070
O O12 0.692376 0.921496 0.991184
O O13 0.255419 0.849007 0.193069
O O14 0.322385 0.819844 0.672842
O O15 0.000000 0.000000 0.500000
O O16 0.500000 0.500000 0.500000
O O17 0.649710 0.499835 0.326271
#
# Coordination Sequence:
#
# PCOD9086936 Si02
#       8
#     2   2   2   2   2   2   2   2
#     4  10  22  42  68  95 140 176 219 288 337 406
#     4  11  22  41  69  91 138 179 220 288 338 408
#     4  10  21  38  61  89 125 169 220 277 337 398
#     4  11  22  41  69  94 136 179 226 280 342 413
#     4  10  24  41  63 105 133 174 230 275 345 410
#     4  10  19  36  61  86 121 164 221 273 332 405
#     4  10  19  36  61  84 122 163 217 274 337 395
#     4  10  21  37  62  90 122 172 223 273 344 397
#
# _framework density 27.151978
#
# number of rings (size 3 to 8) (size 9 to 14) (size 15 to 20)
#    0.000    1.750    2.500    3.000    1.750    1.500 
#    0.000    7.500    0.000    0.000    0.000    0.000 
#    0.000    0.000    0.000    0.000    0.000    0.000 
#
# Total GULP energy -89624.754319 kJ/mol
# GULP energy per Si atom -5601.547145 kJ/mol
# Density = 2.709018 g / cm^3
# Si number density = 27.151978 Si / 1000 Ang^3
#
#
#
# Elastic Constant Matrix: (Units=GPa)
#
#
# Indices 1 2 3 4 5 6 
#
# 1 101.2742 9.6932 27.7506 8.6985 12.3086 4.3002
# 2 9.6932 151.9388 20.2492 33.2733 6.3861 4.9123
# 3 27.7506 20.2492 167.5823 24.4658 1.0752 5.4124
# 4 8.6985 33.2733 24.4658 42.4186 -3.6616 6.8586
# 5 12.3086 6.3861 1.0752 -3.6616 25.4355 13.5786
# 6 4.3002 4.9123 5.4124 6.8586 13.5786 57.8823
#
#
#
# Elastic Compliance Matrix: (Units=1/GPa)
#
#
# Indices 1 2 3 4 5 6 
#
# 1 0.011192 0.000225 -0.001539 -0.002296 -0.006294 0.001042
# 2 0.000225 0.008217 -0.000022 -0.006956 -0.003695 0.000979
# 3 -0.001539 -0.000022 0.006745 -0.003541 0.000007 -0.000097
# 4 -0.002296 -0.006956 -0.003541 0.033331 0.010667 -0.005360
# 5 -0.006294 -0.003695 0.000007 0.010667 0.051536 -0.012573
# 6 0.001042 0.000979 -0.000097 -0.005360 -0.012573 0.020710
#
#
# Mechanical properties :
#
#
# Convention : Reuss Voigt Hill
#
# Bulk Modulus (GPa) = 42.58741 59.57571 51.08156
# Shear Modulus (GPa) = 35.15415 49.35410 42.25413
#
# Velocity S-wave (km/s) = 3.60212 4.26807 3.94916
# Velocity P-wave (km/s) = 5.74624 6.80278 6.29671
#
# Compressibility (1/GPa) = 0.02348112
#
# Stress axis : x y z
#
# Youngs Moduli (GPa) = 89.34805 121.69608 148.26398
#
# Poissons Ratio (x) = -0.02733 0.22812
# Poissons Ratio (y) = -0.02007 0.00333
# Poissons Ratio (z) = 0.13747 0.00274
#
# Static dielectric constant tensor:
#      x y z
#    x 2.112570 -0.003530 -0.000730 
#    y -0.003530 2.102430 -0.056290 
#    z -0.000730 -0.056290 2.190240 
# 
# From -- ./inp_files/47693.got.cif
#   From: 2010.05.17/outbox.cif.g08.bks.cpg/sg2_24_cif.got.tgz:47693.got - 2010.06.03 11:33:40.
