data_PCOD9086359
_publ_section_title
;
Structure prediction by ZEFSAII (Michael W. Deem and Ramdas Pophale) SiO2 
 PCOD9086359
Probable space group: P -1
;
_chemical_formula_sum "Si O2"
_cell_formula_units_Z 16
_cell_length_a 8.528892
_cell_length_b 11.247650
_cell_length_c 11.329616
_cell_angle_alpha 62.558990
_cell_angle_beta 52.965910
_cell_angle_gamma 61.361018
_cell_volume 738.113686
_symmetry_space_group_name_H-M "P -1"
_symmetry_group_IT_number 2
_symmetry_cell_setting 'triclinic'
loop_
_space_group_symop_operation_xyz
x,y,z
-x,-y,-z
loop_
_atom_site_type_symbol
_atom_site_label
_atom_site_fract_x
_atom_site_fract_y
_atom_site_fract_z
Si Si1 0.559220 0.886717 0.423172
Si Si2 0.111818 0.419154 0.840451
Si Si3 0.885926 0.633483 0.415955
Si Si4 0.388524 0.729818 0.933175
Si Si5 0.997692 0.122897 0.815266
Si Si6 0.192151 0.114174 0.054596
Si Si7 0.418759 0.038570 0.214474
Si Si8 0.665199 0.515961 0.082897
O O1 0.652993 0.730027 0.501645
O O2 0.762141 0.907524 0.255315
O O3 0.500000 0.000000 0.500000
O O4 0.393855 0.927690 0.374837
O O5 0.124468 0.403488 0.701055
O O6 0.287758 0.468777 0.807141
O O7 0.122441 0.269843 0.964202
O O8 0.883927 0.515864 0.926772
O O9 0.000000 0.500000 0.500000
O O10 0.021742 0.742929 0.320660
O O11 0.161561 0.818835 0.034782
O O12 0.490386 0.639036 0.044002
O O13 0.521579 0.835746 0.803795
O O14 0.377732 0.625292 0.880686
O O15 0.951694 0.986572 0.850054
O O16 0.237582 0.109134 0.175342
O O17 0.398875 0.039162 0.922133
#
# Coordination Sequence:
#
# PCOD9086359 Si02
#       8
#     2   2   2   2   2   2   2   2
#     4  10  22  40  60  87 116 163 215 247 291 366
#     4  11  20  37  58  91 125 159 198 247 314 365
#     4  10  22  40  61  81 120 175 206 239 298 373
#     4  10  19  36  57  95 127 153 193 248 322 366
#     4   9  21  38  62  87 121 156 206 250 307 362
#     4  10  19  36  63  94 119 147 198 260 318 356
#     4  10  20  34  64  90 117 157 192 256 313 362
#     4  10  21  32  55  92 129 152 190 249 307 375
#
# _framework density 21.676877000000001
#
# number of rings (size 3 to 8) (size 9 to 14) (size 15 to 20)
#    0.750    1.250    3.750    0.000    1.750    2.500 
#    0.000    0.625    2.750    1.500    0.000    0.000 
#    0.000    0.000    0.000    0.000    0.000    0.000 
#
# Total GULP energy -89099.553267 kJ/mol
# GULP energy per Si atom -5568.722079 kJ/mol
# Density = 2.162754 g / cm^3
# Si number density = 21.676877 Si / 1000 Ang^3
#
#
#
# Elastic Constant Matrix: (Units=GPa)
#
#
# Indices 1 2 3 4 5 6 
#
# 1 98.5732 45.2787 36.6102 -10.0999 36.1007 7.3476
# 2 45.2787 98.0703 39.4357 -14.5291 24.8070 5.8386
# 3 36.6102 39.4357 72.2756 -18.3657 37.5273 -6.0208
# 4 -10.0999 -14.5291 -18.3657 37.0661 -4.1713 -0.0346
# 5 36.1007 24.8070 37.5273 -4.1713 36.0403 -3.7422
# 6 7.3476 5.8386 -6.0208 -0.0346 -3.7422 28.1086
#
#
#
# Elastic Compliance Matrix: (Units=1/GPa)
#
#
# Indices 1 2 3 4 5 6 
#
# 1 0.018781 -0.004236 0.003092 0.002799 -0.019410 -0.005948
# 2 -0.004236 0.014976 -0.005682 0.001867 -0.000271 -0.003254
# 3 0.003092 -0.005682 0.038469 0.013482 -0.037302 0.003662
# 4 0.002799 0.001867 0.013482 0.033549 -0.014253 -0.000088
# 5 -0.019410 -0.000271 -0.037302 -0.014253 0.085449 0.008499
# 6 -0.005948 -0.003254 0.003662 -0.000088 0.008499 0.039723
#
#
# Mechanical properties :
#
#
# Convention : Reuss Voigt Hill
#
# Bulk Modulus (GPa) = 17.07230 56.84092 36.95661
# Shear Modulus (GPa) = 18.93061 30.08262 24.50661
#
# Velocity S-wave (km/s) = 2.95839 3.72933 3.36600
# Velocity P-wave (km/s) = 4.42293 6.69497 5.67384
#
# Compressibility (1/GPa) = 0.05857440
#
# Stress axis : x y z
#
# Youngs Moduli (GPa) = 53.24616 66.77327 25.99519
#
# Poissons Ratio (x) = 0.28284 -0.08038
# Poissons Ratio (y) = 0.22554 0.14770
# Poissons Ratio (z) = -0.16463 0.37938
#
# Static dielectric constant tensor:
#      x y z
#    x 1.850280 -0.008130 0.038300 
#    y -0.008130 1.842270 -0.030740 
#    z 0.038300 -0.030740 1.836300 
# 
# From -- ./inp_files/389372.got.cif
#   From: 2010.05.17/outbox.cif.g08.bks.cpg/sg2_195_cif.got.tgz:389372.got - 2010.06.03 11:33:40.
