data_PCOD9086042
_publ_section_title
;
Structure prediction by ZEFSAII (Michael W. Deem and Ramdas Pophale) SiO2 
 PCOD9086042
Probable space group: P -1
;
_chemical_formula_sum "Si O2"
_cell_formula_units_Z 16
_cell_length_a 7.749115
_cell_length_b 14.011687
_cell_length_c 9.390424
_cell_angle_alpha 45.409939
_cell_angle_beta 98.817994
_cell_angle_gamma 104.069875
_cell_volume 704.096621
_symmetry_space_group_name_H-M "P -1"
_symmetry_group_IT_number 2
_symmetry_cell_setting 'triclinic'
loop_
_space_group_symop_operation_xyz
x,y,z
-x,-y,-z
loop_
_atom_site_type_symbol
_atom_site_label
_atom_site_fract_x
_atom_site_fract_y
_atom_site_fract_z
Si Si1 0.726981 0.873911 0.541574
Si Si2 0.122909 0.848084 0.631976
Si Si3 0.373930 0.392849 0.999175
Si Si4 0.080045 0.567973 0.794029
Si Si5 0.307307 0.309580 0.789616
Si Si6 0.165555 0.525209 0.387100
Si Si7 0.912823 0.198453 0.984715
Si Si8 0.351742 0.069872 0.836132
O O1 0.674809 0.740591 0.769847
O O2 0.618074 0.881640 0.375276
O O3 0.933746 0.875534 0.523145
O O4 0.736673 0.010773 0.493250
O O5 0.168783 0.723281 0.678676
O O6 0.091408 0.807133 0.837718
O O7 0.500000 0.500000 0.000000
O O8 0.215387 0.474304 0.857200
O O9 0.436464 0.345536 0.904359
O O10 0.914943 0.555043 0.680014
O O11 0.000000 0.500000 0.000000
O O12 0.303809 0.448847 0.558830
O O13 0.338677 0.197356 0.799488
O O14 0.112594 0.246065 0.901017
O O15 0.199885 0.686375 0.194583
O O16 0.000000 0.500000 0.500000
O O17 0.822839 0.050954 0.068450
O O18 0.500000 0.000000 0.000000
#
# Coordination Sequence:
#
# PCOD9086042 Si02
#       8
#     2   2   2   2   2   2   2   2
#     4  10  21  43  63  92 123 166 215 257 316 374
#     4  10  19  35  71  95 120 158 223 267 295 364
#     4  12  26  43  63  93 134 167 207 262 325 380
#     4  12  19  38  66  97 124 164 216 260 304 376
#     4  11  22  44  63  93 126 168 213 262 312 380
#     4  10  19  36  63  95 127 156 212 259 307 363
#     4  10  19  40  67  93 126 163 209 261 309 376
#     4  11  26  42  63  92 130 165 209 260 324 381
#
# _framework density 22.724153000000001
#
# number of rings (size 3 to 8) (size 9 to 14) (size 15 to 20)
#    0.000    1.250    6.250    1.125    0.000    3.000 
#    4.500    2.500    0.000    0.000    0.000    0.000 
#    0.000    0.000    0.000    0.000    0.000    0.000 
#
# Total GULP energy -89440.874500 kJ/mol
# GULP energy per Si atom -5590.054656 kJ/mol
# Density = 2.267243 g / cm^3
# Si number density = 22.724153 Si / 1000 Ang^3
#
#
#
# Elastic Constant Matrix: (Units=GPa)
#
#
# Indices 1 2 3 4 5 6 
#
# 1 21.7357 2.5379 18.1425 1.6612 6.7709 1.6954
# 2 2.5379 174.3449 66.2634 -6.0803 3.2220 -5.6921
# 3 18.1425 66.2634 150.6774 -0.2777 21.4642 4.9441
# 4 1.6612 -6.0803 -0.2777 50.9944 1.5813 8.5125
# 5 6.7709 3.2220 21.4642 1.5813 16.4138 -1.8466
# 6 1.6954 -5.6921 4.9441 8.5125 -1.8466 28.8157
#
#
#
# Elastic Compliance Matrix: (Units=1/GPa)
#
#
# Indices 1 2 3 4 5 6 
#
# 1 0.055416 0.001135 -0.004594 -0.000626 -0.017372 -0.003176
# 2 0.001135 0.007203 -0.003853 0.000341 0.003363 0.002132
# 3 -0.004594 -0.003853 0.010662 0.000657 -0.011723 -0.003265
# 4 -0.000626 0.000341 0.000657 0.020846 -0.003394 -0.006384
# 5 -0.017372 0.003363 -0.011723 -0.003394 0.084223 0.010098
# 6 -0.003176 0.002132 -0.003265 -0.006384 0.010098 0.038405
#
#
# Mechanical properties :
#
#
# Convention : Reuss Voigt Hill
#
# Bulk Modulus (GPa) = 17.04787 57.84951 37.44869
# Shear Modulus (GPa) = 19.92582 36.56572 28.24577
#
# Velocity S-wave (km/s) = 2.96439 4.01573 3.52942
# Velocity P-wave (km/s) = 4.38579 6.85667 5.75539
#
# Compressibility (1/GPa) = 0.05865835
#
# Stress axis : x y z
#
# Youngs Moduli (GPa) = 18.04524 138.83396 93.78811
#
# Poissons Ratio (x) = -0.15755 0.43083
# Poissons Ratio (y) = -0.02048 0.36133
# Poissons Ratio (z) = 0.08289 0.53488
#
# Static dielectric constant tensor:
#      x y z
#    x 1.917360 0.025350 0.028860 
#    y 0.025350 1.866200 -0.022080 
#    z 0.028860 -0.022080 1.821680 
# 
# From -- ./inp_files/199796.got.cif
#   From: 2010.05.17/outbox.cif.g08.bks.cpg/sg2_100_cif.got.tgz:199796.got - 2010.06.03 11:33:40.
