data_PCOD9086189
_publ_section_title
;
Structure prediction by ZEFSAII (Michael W. Deem and Ramdas Pophale) SiO2 
 PCOD9086189
Probable space group: P -1
;
_chemical_formula_sum "Si O2"
_cell_formula_units_Z 14
_cell_length_a 7.180753
_cell_length_b 17.884271
_cell_length_c 7.813889
_cell_angle_alpha 137.908976
_cell_angle_beta 104.494296
_cell_angle_gamma 62.463371
_cell_volume 589.129412
_symmetry_space_group_name_H-M "P -1"
_symmetry_group_IT_number 2
_symmetry_cell_setting 'triclinic'
loop_
_space_group_symop_operation_xyz
x,y,z
-x,-y,-z
loop_
_atom_site_type_symbol
_atom_site_label
_atom_site_fract_x
_atom_site_fract_y
_atom_site_fract_z
Si Si1 0.981370 0.715699 0.631356
Si Si2 0.522773 0.337301 0.785328
Si Si3 0.800316 0.974889 0.952048
Si Si4 0.304307 0.246532 0.827140
Si Si5 0.848361 0.400585 0.841835
Si Si6 0.594469 0.363063 0.216778
Si Si7 0.346662 0.117513 0.932813
O O1 0.184386 0.716511 0.776028
O O2 0.070288 0.597690 0.330722
O O3 0.410973 0.935518 0.040413
O O4 0.875225 0.831857 0.675797
O O5 0.440214 0.239088 0.671243
O O6 0.312601 0.461330 0.911086
O O7 0.631382 0.365751 0.026931
O O8 0.702048 0.323329 0.666029
O O9 0.746703 0.966772 0.127590
O O10 0.000000 0.000000 0.000000
O O11 0.423034 0.306555 0.081052
O O12 0.321405 0.130212 0.745100
O O13 0.059115 0.334655 0.888817
O O14 0.202463 0.251101 0.214390
O O15 0.500000 0.500000 0.500000
#
# Coordination Sequence:
#
# PCOD9086189 Si02
#       7
#     2   2   2   2   2   2   2
#     4  10  19  36  61  85 116 145 197 241 276 344
#     4   9  22  36  57  77 125 156 190 231 289 328
#     4   9  19  37  62  87 113 141 188 249 296 330
#     4  10  21  37  59  80 117 154 189 234 296 331
#     4  11  20  39  54  84 119 159 187 236 282 348
#     4  10  19  36  56  84 112 152 199 234 272 335
#     4   9  20  37  60  88 108 147 195 240 289 339
#
# _framework density 23.763881000000001
#
# number of rings (size 3 to 8) (size 9 to 14) (size 15 to 20)
#    1.714    0.571    1.429    2.143    0.000    0.000 
#    5.143    7.143    0.000    1.714    0.000    0.000 
#    0.000    0.000    0.000    0.000    0.000    0.000 
#
# Total GULP energy -77934.649508 kJ/mol
# GULP energy per Si atom -5566.760679 kJ/mol
# Density = 2.370979 g / cm^3
# Si number density = 23.763881 Si / 1000 Ang^3
#
#
#
# Elastic Constant Matrix: (Units=GPa)
#
#
# Indices 1 2 3 4 5 6 
#
# 1 194.9228 66.4989 27.1077 -8.1808 -3.4957 -15.7209
# 2 66.4989 120.8477 12.5330 -26.9430 -5.9240 -11.3172
# 3 27.1077 12.5330 35.7071 4.8402 -6.7532 -12.7730
# 4 -8.1808 -26.9430 4.8402 19.4290 -6.8551 -0.6284
# 5 -3.4957 -5.9240 -6.7532 -6.8551 32.4113 -4.8107
# 6 -15.7209 -11.3172 -12.7730 -0.6284 -4.8107 58.5138
#
#
#
# Elastic Compliance Matrix: (Units=1/GPa)
#
#
# Indices 1 2 3 4 5 6 
#
# 1 0.006885 -0.003865 -0.003764 -0.001916 -0.001129 0.000167
# 2 -0.003865 0.017310 -0.004437 0.026278 0.007716 0.002258
# 3 -0.003764 -0.004437 0.037669 -0.015375 0.004352 0.006546
# 4 -0.001916 0.026278 -0.015375 0.099179 0.022988 0.004167
# 5 -0.001129 0.007716 0.004352 0.022988 0.038738 0.005571
# 6 0.000167 0.002258 0.006546 0.004167 0.005571 0.019503
#
#
# Mechanical properties :
#
#
# Convention : Reuss Voigt Hill
#
# Bulk Modulus (GPa) = 26.50243 62.63965 44.57104
# Shear Modulus (GPa) = 19.53166 38.42670 28.97918
#
# Velocity S-wave (km/s) = 2.87000 4.02558 3.49587
# Velocity P-wave (km/s) = 4.70735 6.92990 5.92379
#
# Compressibility (1/GPa) = 0.03773239
#
# Stress axis : x y z
#
# Youngs Moduli (GPa) = 145.23949 57.76953 26.54677
#
# Poissons Ratio (x) = 0.22329 0.09993
# Poissons Ratio (y) = 0.56137 0.11778
# Poissons Ratio (z) = 0.54673 0.25631
#
# Static dielectric constant tensor:
#      x y z
#    x 1.981190 0.136270 -0.007710 
#    y 0.136270 2.018670 -0.005620 
#    z -0.007710 -0.005620 1.998560 
# 
# From -- ./inp_files/193701.got.cif
#   From: 2010.05.17/outbox.cif.g08.bks.cpg/sg2_97_cif.got.tgz:193701.got - 2010.06.03 11:33:40.
