data_PCOD9086082
_publ_section_title
;
Structure prediction by ZEFSAII (Michael W. Deem and Ramdas Pophale) SiO2 
 PCOD9086082
Probable space group: P -1
;
_chemical_formula_sum "Si O2"
_cell_formula_units_Z 14
_cell_length_a 9.501631
_cell_length_b 28.069167
_cell_length_c 12.046512
_cell_angle_alpha 152.468892
_cell_angle_beta 52.779827
_cell_angle_gamma 145.926496
_cell_volume 720.258124
_symmetry_space_group_name_H-M "P -1"
_symmetry_group_IT_number 2
_symmetry_cell_setting 'triclinic'
loop_
_space_group_symop_operation_xyz
x,y,z
-x,-y,-z
loop_
_atom_site_type_symbol
_atom_site_label
_atom_site_fract_x
_atom_site_fract_y
_atom_site_fract_z
Si Si1 0.164257 0.370523 0.587888
Si Si2 0.779481 0.570073 0.055758
Si Si3 0.389229 0.122729 0.788200
Si Si4 0.053932 0.489253 0.716693
Si Si5 0.828603 0.180653 0.800250
Si Si6 0.150726 0.138428 0.121666
Si Si7 0.277771 0.482311 0.381918
O O1 0.017715 0.390640 0.627730
O O2 0.012885 0.188489 0.280107
O O3 0.490419 0.497440 0.647771
O O4 0.199735 0.416406 0.794158
O O5 0.814850 0.468346 0.789449
O O6 0.500000 0.500000 0.000000
O O7 0.039895 0.750839 0.245088
O O8 0.556294 0.131043 0.819167
O O9 0.254695 0.976357 0.467377
O O10 0.637059 0.308033 0.998226
O O11 0.166229 0.089088 0.893758
O O12 0.093381 0.447786 0.496455
O O13 0.067327 0.337073 0.091327
O O14 0.488835 0.324554 0.374000
O O15 0.000000 0.000000 0.000000
#
# Coordination Sequence:
#
# PCOD9086082 Si02
#       7
#     2   2   2   2   2   2   2
#     4  10  20  35  59  84 115 152 193 232 284 344
#     4  11  20  34  57  87 113 144 191 243 279 331
#     4   9  20  32  56  81 115 149 188 235 286 342
#     4  10  21  37  57  85 115 155 193 225 290 347
#     4  10  19  36  53  86 115 145 191 241 285 329
#     4   9  18  33  54  83 108 147 192 233 281 333
#     4   9  20  34  61  80 117 150 192 236 278 344
#
# _framework density 19.437477000000001
#
# number of rings (size 3 to 8) (size 9 to 14) (size 15 to 20)
#    0.857    1.429    1.429    1.714    0.000    6.286 
#    0.000    0.714    0.000    0.000    0.000   21.000 
#    0.000    0.000    0.000    0.000    0.000    0.000 
#
# Total GULP energy -77975.588438 kJ/mol
# GULP energy per Si atom -5569.684888 kJ/mol
# Density = 1.939324 g / cm^3
# Si number density = 19.437477 Si / 1000 Ang^3
#
#
#
# Elastic Constant Matrix: (Units=GPa)
#
#
# Indices 1 2 3 4 5 6 
#
# 1 86.1644 31.9952 29.3258 0.3165 -19.2277 -1.8455
# 2 31.9952 59.5695 17.8843 -18.3839 -5.7082 -3.6633
# 3 29.3258 17.8843 102.1836 -5.3405 -6.1045 -12.8326
# 4 0.3165 -18.3839 -5.3405 22.6080 2.6902 -9.5447
# 5 -19.2277 -5.7082 -6.1045 2.6902 24.8467 0.9814
# 6 -1.8455 -3.6633 -12.8326 -9.5447 0.9814 26.6998
#
#
#
# Elastic Compliance Matrix: (Units=1/GPa)
#
#
# Indices 1 2 3 4 5 6 
#
# 1 0.022892 -0.016702 -0.005339 -0.021926 0.015402 -0.011680
# 2 -0.016702 0.038311 0.002294 0.041596 -0.008869 0.020400
# 3 -0.005339 0.002294 0.012430 0.008985 -0.001887 0.009201
# 4 -0.021926 0.041596 0.008985 0.101881 -0.018036 0.045594
# 5 0.015402 -0.008869 -0.001887 -0.018036 0.051989 -0.009418
# 6 -0.011680 0.020400 0.009201 0.045594 -0.009418 0.060512
#
#
# Mechanical properties :
#
#
# Convention : Reuss Voigt Hill
#
# Bulk Modulus (GPa) = 29.29232 45.14757 37.21994
# Shear Modulus (GPa) = 14.75417 26.07839 20.41628
#
# Velocity S-wave (km/s) = 2.75809 3.66684 3.24444
# Velocity P-wave (km/s) = 5.02449 6.41912 5.76414
#
# Compressibility (1/GPa) = 0.03413864
#
# Stress axis : x y z
#
# Youngs Moduli (GPa) = 43.68347 26.10235 80.45371
#
# Poissons Ratio (x) = 0.43595 0.42957
# Poissons Ratio (y) = 0.72958 -0.18457
# Poissons Ratio (z) = 0.23324 -0.05988
#
# Static dielectric constant tensor:
#      x y z
#    x 1.698000 0.056100 -0.018430 
#    y 0.056100 1.731780 -0.005950 
#    z -0.018430 -0.005950 1.710440 
# 
# From -- ./inp_files/407216.got.cif
#   From: 2010.05.17/outbox.cif.g08.bks.cpg/sg2_204_cif.got.tgz:407216.got - 2010.06.03 11:33:40.
