data_PCOD9086641
_publ_section_title
;
Structure prediction by ZEFSAII (Michael W. Deem and Ramdas Pophale) SiO2 
 PCOD9086641
Probable space group: P -1
;
_chemical_formula_sum "Si O2"
_cell_formula_units_Z 16
_cell_length_a 19.790686
_cell_length_b 12.820548
_cell_length_c 8.658219
_cell_angle_alpha 45.232088
_cell_angle_beta 43.034915
_cell_angle_gamma 31.991172
_cell_volume 772.370206
_symmetry_space_group_name_H-M "P -1"
_symmetry_group_IT_number 2
_symmetry_cell_setting 'triclinic'
loop_
_space_group_symop_operation_xyz
x,y,z
-x,-y,-z
loop_
_atom_site_type_symbol
_atom_site_label
_atom_site_fract_x
_atom_site_fract_y
_atom_site_fract_z
Si Si1 0.695577 0.839955 0.734421
Si Si2 0.234065 0.552932 0.476955
Si Si3 0.652889 0.409024 0.346397
Si Si4 0.612041 0.757446 0.233001
Si Si5 0.024739 0.317301 0.073141
Si Si6 0.059992 0.283431 0.685543
Si Si7 0.153563 0.904955 0.390759
Si Si8 0.801723 0.428814 0.838875
O O1 0.795234 0.866914 0.483842
O O2 0.735792 0.650608 0.772500
O O3 0.542434 0.037049 0.744238
O O4 0.700827 0.789195 0.959635
O O5 0.355334 0.320472 0.564895
O O6 0.249693 0.710323 0.319253
O O7 0.187405 0.581237 0.351838
O O8 0.119729 0.614766 0.725368
O O9 0.500000 0.500000 0.500000
O O10 0.636495 0.580970 0.283706
O O11 0.771732 0.201722 0.459145
O O12 0.710527 0.392326 0.099297
O O13 0.136102 0.095962 0.194804
O O14 0.061687 0.288538 0.861671
O O15 0.000000 0.500000 0.000000
O O16 0.000000 0.500000 0.500000
O O17 0.952213 0.271784 0.825385
O O18 0.000000 0.000000 0.500000
#
# Coordination Sequence:
#
# PCOD9086641 Si02
#       8
#     2   2   2   2   2   2   2   2
#     4   9  18  36  58  88 116 159 201 247 306 354
#     4  10  20  38  61  82 120 163 194 244 307 359
#     4  10  21  43  61  84 122 164 207 248 299 371
#     4   9  19  38  60  80 122 162 196 247 303 358
#     4  11  21  38  60  93 119 154 199 258 306 356
#     4  10  19  36  59  88 127 150 197 253 302 360
#     4   9  20  42  62  84 119 163 203 247 306 361
#     4  10  20  37  60  88 121 156 201 252 296 359
#
# _framework density 20.715454000000001
#
# number of rings (size 3 to 8) (size 9 to 14) (size 15 to 20)
#    0.000    2.250    0.000    5.250    0.000    0.500 
#   20.250    4.375    0.000    0.000    0.000    0.000 
#    0.000    0.000    0.000    0.000    0.000    0.000 
#
# Total GULP energy -89111.996612 kJ/mol
# GULP energy per Si atom -5569.499788 kJ/mol
# Density = 2.066830 g / cm^3
# Si number density = 20.715454 Si / 1000 Ang^3
#
#
#
# Elastic Constant Matrix: (Units=GPa)
#
#
# Indices 1 2 3 4 5 6 
#
# 1 66.3475 27.6314 47.4018 -4.1555 8.5482 -9.8862
# 2 27.6314 92.6872 55.6933 -15.6226 8.2805 -13.5534
# 3 47.4018 55.6933 122.7819 6.5115 4.4685 -18.2061
# 4 -4.1555 -15.6226 6.5115 37.9583 -4.8902 -3.2527
# 5 8.5482 8.2805 4.4685 -4.8902 29.9258 -3.2973
# 6 -9.8862 -13.5534 -18.2061 -3.2527 -3.2973 23.5343
#
#
#
# Elastic Compliance Matrix: (Units=1/GPa)
#
#
# Indices 1 2 3 4 5 6 
#
# 1 0.022083 -0.000509 -0.007912 0.003265 -0.004151 0.002733
# 2 -0.000509 0.017875 -0.007544 0.008831 -0.001655 0.005233
# 3 -0.007912 -0.007544 0.015430 -0.006121 0.001442 0.003625
# 4 0.003265 0.008831 -0.006121 0.032422 0.003575 0.006703
# 5 -0.004151 -0.001655 0.001442 0.003575 0.035862 0.003938
# 6 0.002733 0.005233 0.003625 0.006703 0.003938 0.050935
#
#
# Mechanical properties :
#
#
# Convention : Reuss Voigt Hill
#
# Bulk Modulus (GPa) = 42.62507 60.36330 51.49418
# Shear Modulus (GPa) = 23.32575 28.35636 25.84106
#
# Velocity S-wave (km/s) = 3.35924 3.70381 3.53573
# Velocity P-wave (km/s) = 5.97220 6.89155 6.44828
#
# Compressibility (1/GPa) = 0.02346037
#
# Stress axis : x y z
#
# Youngs Moduli (GPa) = 45.28391 55.94433 64.80724
#
# Poissons Ratio (x) = 0.02845 0.51273
# Poissons Ratio (y) = 0.02303 0.48889
# Poissons Ratio (z) = 0.35827 0.42203
#
# Static dielectric constant tensor:
#      x y z
#    x 1.799720 -0.037470 -0.050410 
#    y -0.037470 1.820140 -0.001360 
#    z -0.050410 -0.001360 1.813910 
# 
# From -- ./inp_files/347119.got.cif
#   From: 2010.05.17/outbox.cif.g08.bks.cpg/sg2_174_cif.got.tgz:347119.got - 2010.06.03 11:33:40.
