data_PCOD9086746
_publ_section_title
;
Structure prediction by ZEFSAII (Michael W. Deem and Ramdas Pophale) SiO2 
 PCOD9086746
Probable space group: P -1
;
_chemical_formula_sum "Si O2"
_cell_formula_units_Z 14
_cell_length_a 10.198307
_cell_length_b 7.530895
_cell_length_c 10.725495
_cell_angle_alpha 122.843393
_cell_angle_beta 56.183940
_cell_angle_gamma 115.492516
_cell_volume 565.157325
_symmetry_space_group_name_H-M "P -1"
_symmetry_group_IT_number 2
_symmetry_cell_setting 'triclinic'
loop_
_space_group_symop_operation_xyz
x,y,z
-x,-y,-z
loop_
_atom_site_type_symbol
_atom_site_label
_atom_site_fract_x
_atom_site_fract_y
_atom_site_fract_z
Si Si1 0.300317 0.841453 0.636220
Si Si2 0.013656 0.946900 0.682741
Si Si3 0.609665 0.853390 0.597496
Si Si4 0.898106 0.234957 0.655854
Si Si5 0.508203 0.530759 0.320955
Si Si6 0.116012 0.809502 0.979279
Si Si7 0.219010 0.475993 0.991953
O O1 0.188924 0.950211 0.648139
O O2 0.472965 0.960323 0.641640
O O3 0.351165 0.638933 0.461484
O O4 0.197346 0.795768 0.798830
O O5 0.995058 0.750322 0.519636
O O6 0.245421 0.966683 0.368570
O O7 0.000014 0.153987 0.682965
O O8 0.624000 0.662588 0.417877
O O9 0.537860 0.714881 0.703155
O O10 0.884999 0.962035 0.865225
O O11 0.818988 0.429564 0.818646
O O12 0.605696 0.562155 0.152687
O O13 0.926585 0.718871 0.029098
O O14 0.191077 0.657555 0.975301
#
# Coordination Sequence:
#
# PCOD9086746 Si02
#       7
#     2   2   2   2   2   2   2
#     4  10  20  37  64  88 111 149 201 239 278 340
#     4  10  22  38  58  86 120 151 195 233 293 336
#     4   9  18  36  62  83 116 143 200 231 288 334
#     4  10  22  38  57  89 116 154 187 243 290 340
#     4   9  18  36  61  87 110 155 192 231 284 350
#     4  10  19  36  63  83 113 155 200 232 274 352
#     4  10  19  36  60  86 114 155 195 230 284 346
#
# _framework density 24.771864000000001
#
# number of rings (size 3 to 8) (size 9 to 14) (size 15 to 20)
#    0.857    1.429    1.429    1.286    0.000    5.714 
#    0.000    3.571    0.000    0.000    0.000    0.000 
#    0.000    0.000    0.000    0.000    0.000    0.000 
#
# Total GULP energy -78105.626171 kJ/mol
# GULP energy per Si atom -5578.973298 kJ/mol
# Density = 2.471548 g / cm^3
# Si number density = 24.771864 Si / 1000 Ang^3
#
#
#
# Elastic Constant Matrix: (Units=GPa)
#
#
# Indices 1 2 3 4 5 6 
#
# 1 102.3601 22.4858 15.9340 6.7463 -20.2653 -8.6488
# 2 22.4858 44.4381 23.9635 6.3360 3.3522 -2.3620
# 3 15.9340 23.9635 219.7783 13.5342 -19.1510 -8.5276
# 4 6.7463 6.3360 13.5342 24.7595 -0.9492 0.2349
# 5 -20.2653 3.3522 -19.1510 -0.9492 22.4216 2.4100
# 6 -8.6488 -2.3620 -8.5276 0.2349 2.4100 25.0338
#
#
#
# Elastic Compliance Matrix: (Units=1/GPa)
#
#
# Indices 1 2 3 4 5 6 
#
# 1 0.015126 -0.009224 0.001553 -0.002031 0.015929 0.003370
# 2 -0.009224 0.031090 -0.003915 -0.003935 -0.016500 0.000038
# 3 0.001553 -0.003915 0.005631 -0.002263 0.006544 0.001477
# 4 -0.002031 -0.003935 -0.002263 0.043163 -0.001123 -0.002141
# 5 0.015929 -0.016500 0.006544 -0.001123 0.067035 -0.000267
# 6 0.003370 0.000038 0.001477 -0.002141 -0.000267 0.041663
#
#
# Mechanical properties :
#
#
# Convention : Reuss Voigt Hill
#
# Bulk Modulus (GPa) = 34.87413 54.59368 44.73391
# Shear Modulus (GPa) = 21.14714 34.72253 27.93483
#
# Velocity S-wave (km/s) = 2.92494 3.74798 3.36174
# Velocity P-wave (km/s) = 5.05131 6.38876 5.75899
#
# Compressibility (1/GPa) = 0.02867455
#
# Stress axis : x y z
#
# Youngs Moduli (GPa) = 66.11010 32.16491 177.58192
#
# Poissons Ratio (x) = 0.29670 -0.27578
# Poissons Ratio (y) = 0.60982 0.69524
# Poissons Ratio (z) = -0.10267 0.12593
#
# Static dielectric constant tensor:
#      x y z
#    x 1.961200 -0.019990 0.010130 
#    y -0.019990 1.977270 -0.012610 
#    z 0.010130 -0.012610 2.124480 
# 
# From -- ./inp_files/415520.got.cif
#   From: 2010.05.17/outbox.cif.g08.bks.cpg/sg2_208_cif.got.tgz:415520.got - 2010.06.03 11:33:40.
