data_PCOD9086914
_publ_section_title
;
Structure prediction by ZEFSAII (Michael W. Deem and Ramdas Pophale) SiO2 
 PCOD9086914
Probable space group: P -1
;
_chemical_formula_sum "Si O2"
_cell_formula_units_Z 12
_cell_length_a 11.935223
_cell_length_b 15.193756
_cell_length_c 11.068989
_cell_angle_alpha 27.647152
_cell_angle_beta 121.662369
_cell_angle_gamma 139.686435
_cell_volume 521.362653
_symmetry_space_group_name_H-M "P -1"
_symmetry_group_IT_number 2
_symmetry_cell_setting 'triclinic'
loop_
_space_group_symop_operation_xyz
x,y,z
-x,-y,-z
loop_
_atom_site_type_symbol
_atom_site_label
_atom_site_fract_x
_atom_site_fract_y
_atom_site_fract_z
Si Si1 0.809416 0.431140 0.994405
Si Si2 0.256698 0.564929 0.616549
Si Si3 0.262821 0.347663 0.132240
Si Si4 0.704860 0.955456 0.630728
Si Si5 0.982971 0.362218 0.499970
Si Si6 0.642122 0.110173 0.059168
O O1 0.841650 0.657774 0.810527
O O2 0.699097 0.328201 0.928432
O O3 0.679595 0.148262 0.348773
O O4 0.000000 0.500000 0.000000
O O5 0.221450 0.404746 0.910742
O O6 0.112327 0.376958 0.648226
O O7 0.187099 0.702350 0.448385
O O8 0.489212 0.806932 0.414066
O O9 0.497340 0.638326 0.938739
O O10 0.229620 0.094036 0.388892
O O11 0.871282 0.125193 0.621593
O O12 0.140898 0.679540 0.138052
O O13 0.500000 0.000000 0.000000
#
# Coordination Sequence:
#
# PCOD9086914 Si02
#       6
#     2   2   2   2   2   2
#     4  12  21  38  62  83 117 154 192 247 291 342
#     4  10  19  36  61  82 119 154 192 242 289 346
#     4  11  23  37  59  89 115 156 196 239 293 347
#     4  11  22  37  58  89 117 151 202 235 290 353
#     4  10  20  36  58  88 113 155 198 235 292 347
#     4  10  20  34  59  86 110 151 194 234 291 346
#
# _framework density 23.016608999999999
#
# number of rings (size 3 to 8) (size 9 to 14) (size 15 to 20)
#    0.000    1.333    5.000    1.500    0.000    1.333 
#    0.000    0.000    0.000    1.000    0.000    0.000 
#    0.000    0.000    0.000    0.000    0.000    0.000 
#
# Total GULP energy -66883.783510 kJ/mol
# GULP energy per Si atom -5573.648626 kJ/mol
# Density = 2.296422 g / cm^3
# Si number density = 23.016609 Si / 1000 Ang^3
#
#
#
# Elastic Constant Matrix: (Units=GPa)
#
#
# Indices 1 2 3 4 5 6 
#
# 1 122.3043 44.5416 31.5611 -21.8108 -9.3848 -10.5669
# 2 44.5416 199.2389 21.5125 -15.5783 6.7168 -18.3724
# 3 31.5611 21.5125 42.1168 -16.0591 -8.4242 6.1875
# 4 -21.8108 -15.5783 -16.0591 34.9361 -2.8268 -0.6022
# 5 -9.3848 6.7168 -8.4242 -2.8268 44.1752 -10.9885
# 6 -10.5669 -18.3724 6.1875 -0.6022 -10.9885 32.4671
#
#
#
# Elastic Compliance Matrix: (Units=1/GPa)
#
#
# Indices 1 2 3 4 5 6 
#
# 1 0.011827 -0.001163 -0.006964 0.004005 0.003014 0.005613
# 2 -0.001163 0.005929 -0.002492 0.000765 -0.000778 0.003202
# 3 -0.006964 -0.002492 0.036912 0.011714 0.004453 -0.008987
# 4 0.004005 0.000765 0.011714 0.037365 0.005906 0.002195
# 5 0.003014 -0.000778 0.004453 0.005906 0.026832 0.008883
# 6 0.005613 0.003202 -0.008987 0.002195 0.008883 0.039199
#
#
# Mechanical properties :
#
#
# Convention : Reuss Voigt Hill
#
# Bulk Modulus (GPa) = 29.91127 62.09892 46.00509
# Shear Modulus (GPa) = 26.25406 40.05198 33.15302
#
# Velocity S-wave (km/s) = 3.38103 4.17602 3.79937
# Velocity P-wave (km/s) = 5.31653 7.09160 6.26723
#
# Compressibility (1/GPa) = 0.03343222
#
# Stress axis : x y z
#
# Youngs Moduli (GPa) = 84.55012 168.64832 27.09136
#
# Poissons Ratio (x) = 0.19616 0.18865
# Poissons Ratio (y) = 0.09834 0.06750
# Poissons Ratio (z) = 0.58877 0.42021
#
# Static dielectric constant tensor:
#      x y z
#    x 1.913370 0.001200 -0.062890 
#    y 0.001200 1.879320 0.017190 
#    z -0.062890 0.017190 1.911270 
# 
# From -- ./inp_files/234144.got.cif
#   From: 2010.05.17/outbox.cif.g08.bks.cpg/sg2_118_cif.got.tgz:234144.got - 2010.06.03 11:33:40.
