data_PCOD9086787
_publ_section_title
;
Structure prediction by ZEFSAII (Michael W. Deem and Ramdas Pophale) SiO2 
 PCOD9086787
Probable space group: P -1
;
_chemical_formula_sum "Si O2"
_cell_formula_units_Z 16
_cell_length_a 20.954844
_cell_length_b 7.903682
_cell_length_c 11.655833
_cell_angle_alpha 97.588535
_cell_angle_beta 148.096598
_cell_angle_gamma 105.150971
_cell_volume 709.152970
_symmetry_space_group_name_H-M "P -1"
_symmetry_group_IT_number 2
_symmetry_cell_setting 'triclinic'
loop_
_space_group_symop_operation_xyz
x,y,z
-x,-y,-z
loop_
_atom_site_type_symbol
_atom_site_label
_atom_site_fract_x
_atom_site_fract_y
_atom_site_fract_z
Si Si1 0.203000 0.789540 0.970318
Si Si2 0.043303 0.737438 0.119774
Si Si3 0.511912 0.510466 0.786174
Si Si4 0.746769 0.848786 0.361612
Si Si5 0.243051 0.360850 0.198005
Si Si6 0.140142 0.992248 0.696595
Si Si7 0.438256 0.722992 0.319506
Si Si8 0.998030 0.186033 0.190898
O O1 0.269970 0.669378 0.029050
O O2 0.046413 0.676585 0.807847
O O3 0.381973 0.022915 0.331042
O O4 0.143895 0.834411 0.771264
O O5 0.901091 0.650351 0.987527
O O6 0.000000 0.500000 0.000000
O O7 0.021190 0.817660 0.974485
O O8 0.221238 0.987114 0.471192
O O9 0.565559 0.620928 0.004361
O O10 0.673611 0.735656 0.977027
O O11 0.348986 0.441667 0.483429
O O12 0.504801 0.309315 0.715084
O O13 0.850537 0.033855 0.427345
O O14 0.832896 0.752388 0.514909
O O15 0.365061 0.539007 0.297667
O O16 0.149743 0.087623 0.007849
O O17 0.000000 0.000000 0.500000
#
# Coordination Sequence:
#
# PCOD9086787 Si02
#       8
#     2   2   2   2   2   2   2   2
#     4  11  20  35  57  93 131 157 194 243 309 356
#     4  11  25  44  62  86 115 159 209 255 307 353
#     4  10  20  35  59  92 119 157 199 243 305 355
#     4   9  21  37  61  85 117 152 207 244 294 360
#     4  11  20  38  66  87 118 165 213 242 290 369
#     4  10  19  36  60  87 127 162 194 246 299 367
#     4  11  21  32  58  96 127 156 192 253 302 357
#     4  11  21  41  63  84 115 166 211 245 285 373
#
# _framework density 22.562128000000001
#
# number of rings (size 3 to 8) (size 9 to 14) (size 15 to 20)
#    0.750    0.750    3.750    3.375    1.750    0.000 
#    2.250    4.375    0.000    0.000    0.000    0.000 
#    0.000    0.000    0.000    0.000    0.000    0.000 
#
# Total GULP energy -89087.021177 kJ/mol
# GULP energy per Si atom -5567.938824 kJ/mol
# Density = 2.251078 g / cm^3
# Si number density = 22.562128 Si / 1000 Ang^3
#
#
#
# Elastic Constant Matrix: (Units=GPa)
#
#
# Indices 1 2 3 4 5 6 
#
# 1 91.1076 20.9950 22.3894 -11.1561 -19.7396 -5.1073
# 2 20.9950 50.7007 26.3467 -30.2304 -8.7833 -9.8376
# 3 22.3894 26.3467 107.1230 -31.7451 -21.2347 -10.7099
# 4 -11.1561 -30.2304 -31.7451 29.9342 7.4455 2.3506
# 5 -19.7396 -8.7833 -21.2347 7.4455 36.9433 -5.7922
# 6 -5.1073 -9.8376 -10.7099 2.3506 -5.7922 32.3196
#
#
#
# Elastic Compliance Matrix: (Units=1/GPa)
#
#
# Indices 1 2 3 4 5 6 
#
# 1 0.013576 -0.006001 -0.001154 -0.003858 0.006148 0.001319
# 2 -0.006001 0.061446 0.008535 0.066158 0.005605 0.016776
# 3 -0.001154 0.008535 0.016642 0.023391 0.007450 0.007564
# 4 -0.003858 0.066158 0.023391 0.120590 0.005876 0.019562
# 5 0.006148 0.005605 0.007450 0.005876 0.036551 0.011270
# 6 0.001319 0.016776 0.007564 0.019562 0.011270 0.039359
#
#
# Mechanical properties :
#
#
# Convention : Reuss Voigt Hill
#
# Bulk Modulus (GPa) = 10.59052 43.15482 26.87267
# Shear Modulus (GPa) = 15.77886 31.78610 23.78248
#
# Velocity S-wave (km/s) = 2.64739 3.75750 3.25019
# Velocity P-wave (km/s) = 3.74821 6.16391 5.10112
#
# Compressibility (1/GPa) = 0.09442404
#
# Stress axis : x y z
#
# Youngs Moduli (GPa) = 73.65815 16.27439 60.08915
#
# Poissons Ratio (x) = 0.09767 0.06935
# Poissons Ratio (y) = 0.44206 -0.51289
# Poissons Ratio (z) = 0.08502 -0.13891
#
# Static dielectric constant tensor:
#      x y z
#    x 2.110260 -0.409330 0.076840 
#    y -0.409330 2.561300 -0.108460 
#    z 0.076840 -0.108460 1.905010 
# 
# From -- ./inp_files/474220.got.cif
#   From: 2010.05.17/outbox.cif.g08.bks.cpg/sg2_238_cif.got.tgz:474220.got - 2010.06.03 11:33:40.
