data_PCOD9086056
_publ_section_title
;
Structure prediction by ZEFSAII (Michael W. Deem and Ramdas Pophale) SiO2 
 PCOD9086056
Probable space group: P -1
;
_chemical_formula_sum "Si O2"
_cell_formula_units_Z 16
_cell_length_a 8.597374
_cell_length_b 26.107446
_cell_length_c 15.124984
_cell_angle_alpha 162.872970
_cell_angle_beta 57.733106
_cell_angle_gamma 130.556743
_cell_volume 699.084857
_symmetry_space_group_name_H-M "P -1"
_symmetry_group_IT_number 2
_symmetry_cell_setting 'triclinic'
loop_
_space_group_symop_operation_xyz
x,y,z
-x,-y,-z
loop_
_atom_site_type_symbol
_atom_site_label
_atom_site_fract_x
_atom_site_fract_y
_atom_site_fract_z
Si Si1 0.864502 0.696538 0.844314
Si Si2 0.678306 0.147792 0.415974
Si Si3 0.621872 0.048351 0.450429
Si Si4 0.539261 0.169412 0.196034
Si Si5 0.037066 0.580914 0.745940
Si Si6 0.050955 0.575652 0.939787
Si Si7 0.632056 0.576631 0.399824
Si Si8 0.808659 0.883362 0.015804
O O1 0.027187 0.743436 0.953743
O O2 0.624993 0.613905 0.821696
O O3 0.823304 0.494144 0.469259
O O4 0.952009 0.870497 0.027808
O O5 0.574288 0.141031 0.531520
O O6 0.808760 0.371164 0.697432
O O7 0.859633 0.089852 0.289623
O O8 0.511420 0.958224 0.090361
O O9 0.500000 0.000000 0.500000
O O10 0.604790 0.851650 0.084740
O O11 0.876201 0.223492 0.691278
O O12 0.787035 0.370314 0.466449
O O13 0.384131 0.260592 0.389904
O O14 0.500000 0.000000 0.000000
O O15 0.082424 0.631407 0.918378
O O16 0.224625 0.516761 0.818532
O O17 0.737116 0.706160 0.673113
#
# Coordination Sequence:
#
# PCOD9086056 Si02
#       8
#     2   2   2   2   2   2   2   2
#     4  10  19  36  51  90 123 149 198 247 296 345
#     4   9  22  37  62  86 121 155 200 244 293 353
#     4  10  23  37  60  87 120 162 198 243 295 351
#     4  10  19  38  56  89 121 152 195 245 302 349
#     4  10  22  30  60  87 120 159 187 250 302 344
#     4  12  21  38  61  93 119 156 200 241 304 357
#     4  10  21  32  62  87 120 150 200 251 291 342
#     4   9  19  35  55  85 115 151 199 245 284 344
#
# _framework density 22.887063999999999
#
# number of rings (size 3 to 8) (size 9 to 14) (size 15 to 20)
#    0.750    1.250    2.500    1.500    1.750    4.000 
#    0.000    0.625    0.000    3.750    0.000    0.000 
#    0.000    0.000    0.000    0.000    0.000    0.000 
#
# Total GULP energy -89097.567233 kJ/mol
# GULP energy per Si atom -5568.597952 kJ/mol
# Density = 2.283497 g / cm^3
# Si number density = 22.887064 Si / 1000 Ang^3
#
#
#
# Elastic Constant Matrix: (Units=GPa)
#
#
# Indices 1 2 3 4 5 6 
#
# 1 82.2647 30.8552 12.6099 4.8072 2.9362 -30.5397
# 2 30.8552 60.0365 6.4395 -6.4807 2.0740 -29.2850
# 3 12.6099 6.4395 64.1542 -11.3269 16.0895 -10.1947
# 4 4.8072 -6.4807 -11.3269 38.1776 -8.2246 -0.5071
# 5 2.9362 2.0740 16.0895 -8.2246 27.9298 -0.0278
# 6 -30.5397 -29.2850 -10.1947 -0.5071 -0.0278 48.4536
#
#
#
# Elastic Compliance Matrix: (Units=1/GPa)
#
#
# Indices 1 2 3 4 5 6 
#
# 1 0.017546 -0.005699 -0.002104 -0.004004 -0.001381 0.007129
# 2 -0.005699 0.026221 0.001661 0.005697 -0.000614 0.012665
# 3 -0.002104 0.001661 0.019712 0.004295 -0.009989 0.003864
# 4 -0.004004 0.005697 0.004295 0.030360 0.006466 0.002145
# 5 -0.001381 -0.000614 -0.009989 0.006466 0.043650 -0.003251
# 6 0.007129 0.012665 0.003864 0.002145 -0.003251 0.033620
#
#
# Mechanical properties :
#
#
# Convention : Reuss Voigt Hill
#
# Bulk Modulus (GPa) = 19.53362 34.02940 26.78151
# Shear Modulus (GPa) = 24.94285 33.34893 29.14589
#
# Velocity S-wave (km/s) = 3.30483 3.82135 3.57244
# Velocity P-wave (km/s) = 4.80789 5.86268 5.36129
#
# Compressibility (1/GPa) = 0.05119379
#
# Stress axis : x y z
#
# Youngs Moduli (GPa) = 56.99383 38.13720 50.73101
#
# Poissons Ratio (x) = 0.21734 0.10676
# Poissons Ratio (y) = 0.32480 -0.08425
# Poissons Ratio (z) = 0.11994 -0.06334
#
# Static dielectric constant tensor:
#      x y z
#    x 1.950830 -0.026050 -0.041530 
#    y -0.026050 1.951680 0.039890 
#    z -0.041530 0.039890 1.829240 
# 
# From -- ./inp_files/508881.got.cif
#   From: 2010.05.17/outbox.cif.g08.bks.cpg/sg2_255_cif.got.tgz:508881.got - 2010.06.03 11:33:40.
