data_PCOD9086161
_publ_section_title
;
Structure prediction by ZEFSAII (Michael W. Deem and Ramdas Pophale) SiO2 
 PCOD9086161
Probable space group: P -1
;
_chemical_formula_sum "Si O2"
_cell_formula_units_Z 14
_cell_length_a 8.445110
_cell_length_b 19.139915
_cell_length_c 14.738253
_cell_angle_alpha 161.542144
_cell_angle_beta 57.400185
_cell_angle_gamma 130.279850
_cell_volume 547.359186
_symmetry_space_group_name_H-M "P -1"
_symmetry_group_IT_number 2
_symmetry_cell_setting 'triclinic'
loop_
_space_group_symop_operation_xyz
x,y,z
-x,-y,-z
loop_
_atom_site_type_symbol
_atom_site_label
_atom_site_fract_x
_atom_site_fract_y
_atom_site_fract_z
Si Si1 0.174093 0.153021 0.264845
Si Si2 0.969185 0.209471 0.710609
Si Si3 0.306192 0.553172 0.149868
Si Si4 0.486778 0.898179 0.275582
Si Si5 0.132444 0.156048 0.868267
Si Si6 0.934139 0.293160 0.385884
Si Si7 0.374778 0.694617 0.636984
O O1 0.420758 0.347468 0.460271
O O2 0.022634 0.270416 0.429123
O O3 0.049331 0.937824 0.115176
O O4 0.164533 0.988538 0.977234
O O5 0.763485 0.229685 0.830295
O O6 0.942685 0.102122 0.485934
O O7 0.000000 0.000000 0.500000
O O8 0.174162 0.476231 0.002031
O O9 0.400199 0.845457 0.503815
O O10 0.500000 0.500000 0.000000
O O11 0.161867 0.364523 0.042026
O O12 0.631896 0.767440 0.069212
O O13 0.500000 0.000000 0.500000
O O14 0.743136 0.346521 0.475501
O O15 0.165233 0.505361 0.529724
O O16 0.500000 0.000000 0.000000
#
# Coordination Sequence:
#
# PCOD9086161 Si02
#       7
#     2   2   2   2   2   2   2
#     4  10  20  39  57  87 124 144 198 245 290 352
#     4   9  18  35  58  77 107 153 192 227 292 338
#     4  11  19  38  59  76 112 160 189 236 293 339
#     4  10  19  36  56  79 111 150 194 237 285 345
#     4  10  22  38  53  89 116 145 198 246 280 345
#     4   9  19  38  64  85 111 164 187 231 306 352
#     4   9  18  37  64  85 113 153 195 233 291 365
#
# _framework density 25.577355000000001
#
# number of rings (size 3 to 8) (size 9 to 14) (size 15 to 20)
#    0.000    2.286    4.286    0.429    0.000    2.286 
#   15.429    0.000    0.000    0.000    0.000    0.000 
#    0.000    0.000    0.000    0.000    0.000    0.000 
#
# Total GULP energy -78143.783744 kJ/mol
# GULP energy per Si atom -5581.698839 kJ/mol
# Density = 2.551914 g / cm^3
# Si number density = 25.577355 Si / 1000 Ang^3
#
#
#
# Elastic Constant Matrix: (Units=GPa)
#
#
# Indices 1 2 3 4 5 6 
#
# 1 218.7722 43.7961 40.0218 9.4994 13.2486 32.6529
# 2 43.7961 46.7865 5.6394 16.6274 3.6138 -1.0617
# 3 40.0218 5.6394 77.2668 17.0415 4.2730 -2.9665
# 4 9.4994 16.6274 17.0415 35.4062 -2.4378 -2.8838
# 5 13.2486 3.6138 4.2730 -2.4378 55.4922 6.6082
# 6 32.6529 -1.0617 -2.9665 -2.8838 6.6082 44.3586
#
#
#
# Elastic Compliance Matrix: (Units=1/GPa)
#
#
# Indices 1 2 3 4 5 6 
#
# 1 0.007720 -0.007994 -0.004361 0.003289 -0.000136 -0.005931
# 2 -0.007994 0.034286 0.005597 -0.016287 -0.002227 0.006352
# 3 -0.004361 0.005597 0.017125 -0.009473 -0.001547 0.004104
# 4 0.003289 -0.016287 -0.009473 0.039663 0.002902 -0.001298
# 5 -0.000136 -0.002227 -0.001547 0.002902 0.018762 -0.002663
# 6 -0.005931 0.006352 0.004104 -0.001298 -0.002663 0.027649
#
#
# Mechanical properties :
#
#
# Convention : Reuss Voigt Hill
#
# Bulk Modulus (GPa) = 21.92208 57.97113 39.94661
# Shear Modulus (GPa) = 28.74813 43.94261 36.34537
#
# Velocity S-wave (km/s) = 3.35620 4.14941 3.77370
# Velocity P-wave (km/s) = 4.85883 6.75803 5.88554
#
# Compressibility (1/GPa) = 0.04561611
#
# Stress axis : x y z
#
# Youngs Moduli (GPa) = 129.53876 29.16631 58.39456
#
# Poissons Ratio (x) = 0.23315 0.25465
# Poissons Ratio (y) = 1.03550 -0.32685
# Poissons Ratio (z) = 0.56489 -0.16325
#
# Static dielectric constant tensor:
#      x y z
#    x 2.092060 -0.001070 -0.074170 
#    y -0.001070 2.032730 -0.025820 
#    z -0.074170 -0.025820 2.128630 
# 
# From -- ./inp_files/222524.got.cif
#   From: 2010.05.17/outbox.cif.g08.bks.cpg/sg2_112_cif.got.tgz:222524.got - 2010.06.03 11:33:40.
