data_PCOD9086427
_publ_section_title
;
Structure prediction by ZEFSAII (Michael W. Deem and Ramdas Pophale) SiO2 
 PCOD9086427
Probable space group: P -1
;
_chemical_formula_sum "Si O2"
_cell_formula_units_Z 14
_cell_length_a 22.666640
_cell_length_b 7.516527
_cell_length_c 4.989164
_cell_angle_alpha 105.037854
_cell_angle_beta 81.072847
_cell_angle_gamma 138.964231
_cell_volume 537.854063
_symmetry_space_group_name_H-M "P -1"
_symmetry_group_IT_number 2
_symmetry_cell_setting 'triclinic'
loop_
_space_group_symop_operation_xyz
x,y,z
-x,-y,-z
loop_
_atom_site_type_symbol
_atom_site_label
_atom_site_fract_x
_atom_site_fract_y
_atom_site_fract_z
Si Si1 0.460128 0.699550 0.399431
Si Si2 0.036461 0.429490 0.653674
Si Si3 0.858703 0.026802 0.862157
Si Si4 0.564285 0.837076 0.874027
Si Si5 0.270312 0.991635 0.296215
Si Si6 0.212586 0.650871 0.687043
Si Si7 0.301620 0.554125 0.231950
O O1 0.480395 0.669047 0.668681
O O2 0.362776 0.528803 0.286015
O O3 0.500000 0.000000 0.500000
O O4 0.528068 0.761109 0.167632
O O5 0.111167 0.444339 0.563937
O O6 0.000000 0.500000 0.500000
O O7 0.945406 0.129677 0.715364
O O8 0.093614 0.696808 0.908855
O O9 0.788125 0.736628 0.956134
O O10 0.794881 0.984953 0.680035
O O11 0.632573 0.163167 0.877165
O O12 0.624592 0.794947 0.768239
O O13 0.224544 0.734320 0.021769
O O14 0.266102 0.927541 0.584550
O O15 0.259769 0.574740 0.517507
#
# Coordination Sequence:
#
# PCOD9086427 Si02
#       7
#     2   2   2   2   2   2   2
#     4  10  19  36  58  84 121 158 188 237 296 348
#     4  10  20  42  61  82 116 165 192 232 310 361
#     4  10  22  39  62  85 122 151 200 249 290 350
#     4  10  20  37  61  82 120 160 194 232 292 354
#     4  10  19  38  59  87 114 163 197 230 296 358
#     4  10  21  37  62  84 119 154 197 240 291 359
#     4  10  21  38  58  95 115 151 201 251 285 338
#
# _framework density 26.029366
#
# number of rings (size 3 to 8) (size 9 to 14) (size 15 to 20)
#    0.000    2.000    1.429    4.286    0.000    1.714 
#   12.857    2.143    0.000    0.000    0.000    2.000 
#    0.000    0.000    0.000    0.000    0.000    0.000 
#
# Total GULP energy -78135.119393 kJ/mol
# GULP energy per Si atom -5581.079957 kJ/mol
# Density = 2.597012 g / cm^3
# Si number density = 26.029366 Si / 1000 Ang^3
#
#
#
# Elastic Constant Matrix: (Units=GPa)
#
#
# Indices 1 2 3 4 5 6 
#
# 1 128.4829 16.5144 3.0706 -11.0960 0.3669 30.3742
# 2 16.5144 140.5815 13.1705 -4.0162 -2.1994 36.8582
# 3 3.0706 13.1705 52.2088 -6.4978 4.1610 3.0001
# 4 -11.0960 -4.0162 -6.4978 23.5201 9.7060 -5.9064
# 5 0.3669 -2.1994 4.1610 9.7060 42.1957 -1.8949
# 6 30.3742 36.8582 3.0001 -5.9064 -1.8949 48.2156
#
#
#
# Elastic Compliance Matrix: (Units=1/GPa)
#
#
# Indices 1 2 3 4 5 6 
#
# 1 0.009433 0.000520 0.000194 0.003576 -0.001164 -0.005960
# 2 0.000520 0.009134 -0.002061 -0.000808 0.000535 -0.007260
# 3 0.000194 -0.002061 0.020820 0.007285 -0.003797 0.000901
# 4 0.003576 -0.000808 0.007285 0.052253 -0.012640 0.003816
# 5 -0.001164 0.000535 -0.003797 -0.012640 0.027022 0.000075
# 6 -0.005960 -0.007260 0.000901 0.003816 0.000075 0.030459
#
#
# Mechanical properties :
#
#
# Convention : Reuss Voigt Hill
#
# Bulk Modulus (GPa) = 27.25226 42.97602 35.11414
# Shear Modulus (GPa) = 30.47959 42.02080 36.25019
#
# Velocity S-wave (km/s) = 3.42566 4.02227 3.73589
# Velocity P-wave (km/s) = 5.11267 6.17398 5.66822
#
# Compressibility (1/GPa) = 0.03669420
#
# Stress axis : x y z
#
# Youngs Moduli (GPa) = 106.01371 109.48136 48.03110
#
# Poissons Ratio (x) = -0.05695 -0.00934
# Poissons Ratio (y) = -0.05515 0.09898
# Poissons Ratio (z) = -0.02061 0.22562
#
# Static dielectric constant tensor:
#      x y z
#    x 2.161730 -0.064800 -0.046640 
#    y -0.064800 2.298960 0.070640 
#    z -0.046640 0.070640 2.058470 
# 
# From -- ./inp_files/126299.got.cif
#   From: 2010.05.17/outbox.cif.g08.bks.cpg/sg2_64_cif.got.tgz:126299.got - 2010.06.03 11:33:40.
