data_PCOD9086197
_publ_section_title
;
Structure prediction by ZEFSAII (Michael W. Deem and Ramdas Pophale) SiO2 
 PCOD9086197
Probable space group: P -1
;
_chemical_formula_sum "Si O2"
_cell_formula_units_Z 14
_cell_length_a 17.244533
_cell_length_b 6.216309
_cell_length_c 19.297991
_cell_angle_alpha 85.897784
_cell_angle_beta 22.027573
_cell_angle_gamma 95.524421
_cell_volume 696.972010
_symmetry_space_group_name_H-M "P -1"
_symmetry_group_IT_number 2
_symmetry_cell_setting 'triclinic'
loop_
_space_group_symop_operation_xyz
x,y,z
-x,-y,-z
loop_
_atom_site_type_symbol
_atom_site_label
_atom_site_fract_x
_atom_site_fract_y
_atom_site_fract_z
Si Si1 0.054266 0.723310 0.769098
Si Si2 0.452291 0.509532 0.800072
Si Si3 0.909980 0.138190 0.625446
Si Si4 0.476719 0.585367 0.413068
Si Si5 0.123627 0.969356 0.558952
Si Si6 0.714153 0.317532 0.676244
Si Si7 0.685473 0.894301 0.354349
O O1 0.081056 0.876195 0.674085
O O2 0.253515 0.635742 0.605476
O O3 0.801217 0.510273 0.982916
O O4 0.093875 0.895464 0.798842
O O5 0.497543 0.344038 0.823471
O O6 0.472818 0.416286 0.709135
O O7 0.650992 0.777213 0.636106
O O8 0.699108 0.163354 0.761471
O O9 0.102457 0.410236 0.467254
O O10 0.915182 0.012035 0.696375
O O11 0.000000 0.000000 0.500000
O O12 0.681734 0.779076 0.285183
O O13 0.411813 0.327117 0.506541
O O14 0.179857 0.787920 0.468793
O O15 0.500000 0.000000 0.500000
#
# Coordination Sequence:
#
# PCOD9086197 Si02
#       7
#     2   2   2   2   2   2   2
#     4  11  22  37  59  88 116 153 195 237 290 344
#     4  11  22  35  60  88 115 154 198 234 288 346
#     4   8  16  31  59  85 113 159 192 228 293 334
#     4  10  20  40  59  83 118 151 191 246 286 338
#     4  10  19  36  56  85 121 151 192 244 281 339
#     4   9  17  34  57  84 118 156 188 238 289 331
#     4   9  20  39  62  81 116 153 191 240 290 343
#
# _framework density 20.086891000000001
#
# number of rings (size 3 to 8) (size 9 to 14) (size 15 to 20)
#    0.000    2.286    2.857    0.000    0.000    1.714 
#    0.000    7.143    0.000   29.143    0.000    0.000 
#    0.000    0.000    0.000    0.000    0.000    0.000 
#
# Total GULP energy -78008.551035 kJ/mol
# GULP energy per Si atom -5572.039360 kJ/mol
# Density = 2.004117 g / cm^3
# Si number density = 20.086891 Si / 1000 Ang^3
#
#
#
# Elastic Constant Matrix: (Units=GPa)
#
#
# Indices 1 2 3 4 5 6 
#
# 1 111.3070 47.4767 35.4599 -0.2291 -26.5342 -11.3651
# 2 47.4767 89.2205 18.3914 -4.3288 -6.2727 -6.1546
# 3 35.4599 18.3914 56.7784 2.3096 -6.1294 -0.2295
# 4 -0.2291 -4.3288 2.3096 16.0520 -0.1384 -11.6618
# 5 -26.5342 -6.2727 -6.1294 -0.1384 14.6563 -0.5521
# 6 -11.3651 -6.1546 -0.2295 -11.6618 -0.5521 41.0896
#
#
#
# Elastic Compliance Matrix: (Units=1/GPa)
#
#
# Indices 1 2 3 4 5 6 
#
# 1 0.025630 -0.008128 -0.009320 0.005627 0.039378 0.007946
# 2 -0.008128 0.015510 -0.001062 0.005184 -0.008418 0.001427
# 3 -0.009320 -0.001062 0.023205 -0.007303 -0.007872 -0.004786
# 4 0.005627 0.005184 -0.007303 0.084021 0.011136 0.026288
# 5 0.039378 -0.008418 -0.007872 0.011136 0.133278 0.014538
# 6 0.007946 0.001427 -0.004786 0.026288 0.014538 0.034378
#
#
# Mechanical properties :
#
#
# Convention : Reuss Voigt Hill
#
# Bulk Modulus (GPa) = 36.59514 51.10689 43.85101
# Shear Modulus (GPa) = 13.80645 24.75811 19.28228
#
# Velocity S-wave (km/s) = 2.62455 3.51458 3.10166
# Velocity P-wave (km/s) = 5.23854 6.47826 5.89110
#
# Compressibility (1/GPa) = 0.02732604
#
# Stress axis : x y z
#
# Youngs Moduli (GPa) = 39.01662 64.47369 43.09463
#
# Poissons Ratio (x) = 0.52402 0.40164
# Poissons Ratio (y) = 0.31712 0.04576
# Poissons Ratio (z) = 0.36363 0.06846
#
# Static dielectric constant tensor:
#      x y z
#    x 1.743710 -0.013790 -0.048860 
#    y -0.013790 1.703650 -0.000300 
#    z -0.048860 -0.000300 1.666520 
# 
# From -- ./inp_files/612617.got.cif
#   From: 2010.05.17/outbox.cif.g08.bks.cpg/sg2_307_cif.got.tgz:612617.got - 2010.06.03 11:33:40.
