data_PCOD9086932
_publ_section_title
;
Structure prediction by ZEFSAII (Michael W. Deem and Ramdas Pophale) SiO2 
 PCOD9086932
Probable space group: P -1
;
_chemical_formula_sum "Si O2"
_cell_formula_units_Z 15
_cell_length_a 11.341002
_cell_length_b 12.325418
_cell_length_c 9.662085
_cell_angle_alpha 49.251300
_cell_angle_beta 139.127227
_cell_angle_gamma 139.994717
_cell_volume 559.412523
_symmetry_space_group_name_H-M "P -1"
_symmetry_group_IT_number 2
_symmetry_cell_setting 'triclinic'
loop_
_space_group_symop_operation_xyz
x,y,z
-x,-y,-z
loop_
_atom_site_type_symbol
_atom_site_label
_atom_site_fract_x
_atom_site_fract_y
_atom_site_fract_z
Si Si1 0.307442 0.725504 0.577145
Si Si2 0.636168 0.049828 0.794852
Si Si3 0.119936 0.270863 0.430965
Si Si4 0.262348 0.221753 0.181998
Si Si5 0.000000 0.500000 0.000000
Si Si6 0.238865 0.198945 0.864087
Si Si7 0.294800 0.078372 0.606475
Si Si8 0.251656 0.538513 0.933037
O O1 0.445873 0.892595 0.663870
O O2 0.482137 0.694516 0.687728
O O3 0.169922 0.571784 0.689167
O O4 0.236310 0.793899 0.329721
O O5 0.521659 0.097557 0.768855
O O6 0.770205 0.975122 0.033762
O O7 0.151008 0.435401 0.251555
O O8 0.133938 0.266565 0.612635
O O9 0.287496 0.224104 0.561438
O O10 0.882333 0.101544 0.332208
O O11 0.217102 0.087005 0.373703
O O12 0.173274 0.175740 0.985240
O O13 0.201963 0.351659 0.070817
O O14 0.841098 0.412834 0.064860
O O15 0.491988 0.344102 0.953986
#
# Coordination Sequence:
#
# PCOD9086932 Si02
#       8
#     2   2   2   2   1   2   2   2
#     4   8  14  27  56  86 111 142 190 232 287 340
#     4   8  15  31  56  88 110 146 187 244 287 347
#     4  11  24  39  59  86 118 164 194 244 287 353
#     4   9  17  36  62  87 116 154 193 238 295 354
#     4  12  24  40  58  82 120 168 196 226 306 358
#     4  10  21  36  62  93 116 142 206 253 288 328
#     4  10  20  39  62  81 122 162 195 223 306 363
#     4  10  19  36  61  84 118 161 193 237 290 359
#
# _framework density 26.813842999999999
#
# number of rings (size 3 to 8) (size 9 to 14) (size 15 to 20)
#    0.000    2.667    1.333    4.000    0.000    1.600 
#    0.000    0.667   11.733    0.000    0.000    0.000 
#    0.000    0.000    0.000    0.000    0.000    0.000 
#
# Total GULP energy -83650.724633 kJ/mol
# GULP energy per Si atom -5576.714976 kJ/mol
# Density = 2.675281 g / cm^3
# Si number density = 26.813843 Si / 1000 Ang^3
#
#
#
# Elastic Constant Matrix: (Units=GPa)
#
#
# Indices 1 2 3 4 5 6 
#
# 1 55.3872 9.2386 -11.5261 -1.9417 -7.1223 4.7197
# 2 9.2386 39.5021 16.1086 -11.7933 6.1201 2.5437
# 3 -11.5261 16.1086 153.5724 -14.6077 -6.7428 -0.8551
# 4 -1.9417 -11.7933 -14.6077 29.8629 -11.3554 1.0627
# 5 -7.1223 6.1201 -6.7428 -11.3554 43.3467 -11.3917
# 6 4.7197 2.5437 -0.8551 1.0627 -11.3917 28.7086
#
#
#
# Elastic Compliance Matrix: (Units=1/GPa)
#
#
# Indices 1 2 3 4 5 6 
#
# 1 0.020345 -0.005860 0.002557 0.002154 0.004900 -0.000885
# 2 -0.005860 0.031620 -0.003132 0.008953 -0.004649 -0.004108
# 3 0.002557 -0.003132 0.007556 0.003868 0.003388 0.001284
# 4 0.002154 0.008953 0.003868 0.043384 0.011570 0.001953
# 5 0.004900 -0.004649 0.003388 0.011570 0.031148 0.011639
# 6 -0.000885 -0.004108 0.001284 0.001953 0.011639 0.039926
#
#
# Mechanical properties :
#
#
# Convention : Reuss Voigt Hill
#
# Bulk Modulus (GPa) = 21.43572 30.67821 26.05696
# Shear Modulus (GPa) = 24.70348 36.02635 30.36491
#
# Velocity S-wave (km/s) = 3.03858 3.66945 3.36882
# Velocity P-wave (km/s) = 4.50802 5.42395 4.98706
#
# Compressibility (1/GPa) = 0.04665110
#
# Stress axis : x y z
#
# Youngs Moduli (GPa) = 49.15168 31.62516 132.34797
#
# Poissons Ratio (x) = 0.18532 -0.33838
# Poissons Ratio (y) = 0.28803 0.41450
# Poissons Ratio (z) = -0.12567 0.09905
#
# Static dielectric constant tensor:
#      x y z
#    x 2.011860 -0.052400 0.017810 
#    y -0.052400 2.183570 0.042160 
#    z 0.017810 0.042160 2.080640 
# 
# From -- ./inp_files/256537.got.cif
#   From: 2010.05.17/outbox.cif.g08.bks.cpg/sg2_129_cif.got.tgz:256537.got - 2010.06.03 11:33:40.
