data_PCOD9086386
_publ_section_title
;
Structure prediction by ZEFSAII (Michael W. Deem and Ramdas Pophale) SiO2 
 PCOD9086386
Probable space group: P -1
;
_chemical_formula_sum "Si O2"
_cell_formula_units_Z 14
_cell_length_a 15.472975
_cell_length_b 6.627606
_cell_length_c 9.033460
_cell_angle_alpha 88.932498
_cell_angle_beta 105.600003
_cell_angle_gamma 121.324409
_cell_volume 753.877582
_symmetry_space_group_name_H-M "P -1"
_symmetry_group_IT_number 2
_symmetry_cell_setting 'triclinic'
loop_
_space_group_symop_operation_xyz
x,y,z
-x,-y,-z
loop_
_atom_site_type_symbol
_atom_site_label
_atom_site_fract_x
_atom_site_fract_y
_atom_site_fract_z
Si Si1 0.581610 0.221201 0.933707
Si Si2 0.856579 0.922292 0.814317
Si Si3 0.506770 0.797051 0.425742
Si Si4 0.722728 0.695079 0.178749
Si Si5 0.902461 0.675365 0.103469
Si Si6 0.324205 0.312432 0.499942
Si Si7 0.770450 0.136469 0.006082
O O1 0.525431 0.231283 0.760321
O O2 0.634079 0.468180 0.045907
O O3 0.674712 0.176507 0.932987
O O4 0.500000 0.000000 0.000000
O O5 0.780876 0.787150 0.643946
O O6 0.871059 0.747157 0.932381
O O7 0.973452 0.136820 0.820231
O O8 0.801476 0.030816 0.885558
O O9 0.418154 0.558877 0.471320
O O10 0.624791 0.848440 0.488811
O O11 0.500000 0.000000 0.500000
O O12 0.831153 0.704955 0.191584
O O13 0.695186 0.660808 0.338463
O O14 0.737149 0.939836 0.121939
O O15 0.868625 0.401147 0.087719
#
# Coordination Sequence:
#
# PCOD9086386 Si02
#       7
#     2   2   2   2   2   2   2
#     4  11  22  37  59  83 111 150 188 225 271 327
#     4  10  20  37  60  83 109 143 186 232 276 326
#     4  11  23  38  56  82 113 147 185 226 273 325
#     4  10  22  37  55  83 114 145 184 227 275 331
#     4   9  20  38  60  83 107 144 188 228 275 331
#     4  11  23  37  55  82 115 146 180 228 278 324
#     4  10  19  36  58  81 109 144 187 228 271 327
#
# _framework density 18.570656
#
# number of rings (size 3 to 8) (size 9 to 14) (size 15 to 20)
#    0.000    1.714    0.000    5.571    0.000    6.286 
#    0.000    0.714    0.000    0.000    0.000    0.000 
#    0.000    0.000    0.000    0.000    0.000    0.000 
#
# Total GULP energy -78195.562287 kJ/mol
# GULP energy per Si atom -5585.397306 kJ/mol
# Density = 1.852839 g / cm^3
# Si number density = 18.570656 Si / 1000 Ang^3
#
#
#
# Elastic Constant Matrix: (Units=GPa)
#
#
# Indices 1 2 3 4 5 6 
#
# 1 52.6412 26.5565 48.4633 4.4746 4.1587 14.7219
# 2 26.5565 115.8444 38.1150 1.1960 -1.5410 6.6569
# 3 48.4633 38.1150 106.9415 2.3865 0.2664 6.0920
# 4 4.4746 1.1960 2.3865 23.0542 7.6084 -4.3260
# 5 4.1587 -1.5410 0.2664 7.6084 25.3973 0.5957
# 6 14.7219 6.6569 6.0920 -4.3260 0.5957 33.7120
#
#
#
# Elastic Compliance Matrix: (Units=1/GPa)
#
#
# Indices 1 2 3 4 5 6 
#
# 1 0.040811 -0.003080 -0.016354 -0.007568 -0.004075 -0.015157
# 2 -0.003080 0.010091 -0.002184 -0.000148 0.001191 -0.000293
# 3 -0.016354 -0.002184 0.017230 0.001814 0.001712 0.004662
# 4 -0.007568 -0.000148 0.001814 0.051254 -0.014374 0.009837
# 5 -0.004075 0.001191 0.001712 -0.014374 0.044435 -0.001394
# 6 -0.015157 -0.000293 0.004662 0.009837 -0.001394 0.036785
#
#
# Mechanical properties :
#
#
# Convention : Reuss Voigt Hill
#
# Bulk Modulus (GPa) = 40.16664 55.74409 47.95537
# Shear Modulus (GPa) = 19.83020 27.25217 23.54118
#
# Velocity S-wave (km/s) = 3.27130 3.83493 3.56428
# Velocity P-wave (km/s) = 5.99538 7.04921 6.54355
#
# Compressibility (1/GPa) = 0.02489628
#
# Stress axis : x y z
#
# Youngs Moduli (GPa) = 24.50328 99.09807 58.03715
#
# Poissons Ratio (x) = 0.30520 0.94916
# Poissons Ratio (y) = 0.07546 0.12674
# Poissons Ratio (z) = 0.40074 0.21641
#
# Static dielectric constant tensor:
#      x y z
#    x 1.647700 -0.010850 0.016980 
#    y -0.010850 1.657600 -0.021120 
#    z 0.016980 -0.021120 1.615700 
# 
# From -- ./inp_files/27099.got.cif
#   From: 2010.05.17/outbox.cif.g08.bks.cpg/sg2_14_cif.got.tgz:27099.got - 2010.06.03 11:33:40.
