data_PCOD9086478
_publ_section_title
;
Structure prediction by ZEFSAII (Michael W. Deem and Ramdas Pophale) SiO2 
 PCOD9086478
Probable space group: P -1
;
_chemical_formula_sum "Si O2"
_cell_formula_units_Z 14
_cell_length_a 13.222023
_cell_length_b 15.620296
_cell_length_c 9.383730
_cell_angle_alpha 53.754653
_cell_angle_beta 115.660662
_cell_angle_gamma 152.600561
_cell_volume 696.896733
_symmetry_space_group_name_H-M "P -1"
_symmetry_group_IT_number 2
_symmetry_cell_setting 'triclinic'
loop_
_space_group_symop_operation_xyz
x,y,z
-x,-y,-z
loop_
_atom_site_type_symbol
_atom_site_label
_atom_site_fract_x
_atom_site_fract_y
_atom_site_fract_z
Si Si1 0.003198 0.389392 0.930603
Si Si2 0.935410 0.958570 0.238372
Si Si3 0.857196 0.504509 0.756213
Si Si4 0.339060 0.070564 0.775890
Si Si5 0.664464 0.648382 0.125327
Si Si6 0.419612 0.615507 0.838114
Si Si7 0.818878 0.038566 0.526944
O O1 0.192967 0.493782 0.843792
O O2 0.950438 0.468507 0.793030
O O3 0.100976 0.460481 0.081831
O O4 0.776895 0.132335 0.037201
O O5 0.816819 0.959826 0.238371
O O6 0.754299 0.747393 0.237967
O O7 0.048632 0.964117 0.402897
O O8 0.130080 0.160119 0.049768
O O9 0.593292 0.295002 0.763850
O O10 0.002673 0.721877 0.571189
O O11 0.316634 0.046559 0.615439
O O12 0.589532 0.467219 0.225718
O O13 0.469555 0.571602 0.037457
O O14 0.636232 0.869617 0.706221
#
# Coordination Sequence:
#
# PCOD9086478 Si02
#       7
#     2   2   2   2   2   2   2
#     4  10  21  41  64  82 110 153 200 237 276 332
#     4  10  19  36  58  88 116 150 188 234 286 342
#     4  10  23  40  59  86 115 150 196 237 278 342
#     4  11  21  39  60  86 116 154 188 234 288 339
#     4   9  19  33  60  88 115 147 193 232 282 342
#     4  10  19  38  59  86 117 150 188 240 282 338
#     4  10  24  37  56  88 124 147 184 237 292 340
#
# _framework density 20.089061999999998
#
# number of rings (size 3 to 8) (size 9 to 14) (size 15 to 20)
#    0.000    2.000    1.429    1.714    2.000    1.143 
#    0.000    0.714    0.000    0.000    0.000    0.000 
#    0.000    0.000    0.000    0.000    0.000    0.000 
#
# Total GULP energy -78205.490213 kJ/mol
# GULP energy per Si atom -5586.106444 kJ/mol
# Density = 2.004334 g / cm^3
# Si number density = 20.089062 Si / 1000 Ang^3
#
#
#
# Elastic Constant Matrix: (Units=GPa)
#
#
# Indices 1 2 3 4 5 6 
#
# 1 72.7434 8.3662 28.3461 -25.2843 19.7277 3.0472
# 2 8.3662 108.9502 22.3124 -23.6193 9.0404 -7.7006
# 3 28.3461 22.3124 43.1395 -23.6955 17.7411 -2.2971
# 4 -25.2843 -23.6193 -23.6955 29.0736 -11.2257 2.6988
# 5 19.7277 9.0404 17.7411 -11.2257 18.9926 -1.1181
# 6 3.0472 -7.7006 -2.2971 2.6988 -1.1181 24.4692
#
#
#
# Elastic Compliance Matrix: (Units=1/GPa)
#
#
# Indices 1 2 3 4 5 6 
#
# 1 0.024309 0.003093 -0.002980 0.015958 -0.014787 -0.004769
# 2 0.003093 0.011757 -0.002252 0.009949 -0.000709 0.001974
# 3 -0.002980 -0.002252 0.053891 0.028057 -0.029573 0.000276
# 4 0.015958 0.009949 0.028057 0.079331 -0.000925 -0.005014
# 5 -0.014787 -0.000709 -0.029573 -0.000925 0.095622 0.003314
# 6 -0.004769 0.001974 0.000276 -0.005014 0.003314 0.042813
#
#
# Mechanical properties :
#
#
# Convention : Reuss Voigt Hill
#
# Bulk Modulus (GPa) = 11.67139 38.09806 24.88473
# Shear Modulus (GPa) = 14.68160 25.56099 20.12129
#
# Velocity S-wave (km/s) = 2.70631 3.57092 3.16825
# Velocity P-wave (km/s) = 3.94816 6.00064 5.07915
#
# Compressibility (1/GPa) = 0.08567957
#
# Stress axis : x y z
#
# Youngs Moduli (GPa) = 41.13660 85.05278 18.55586
#
# Poissons Ratio (x) = -0.26307 0.05530
# Poissons Ratio (y) = -0.12724 0.04179
# Poissons Ratio (z) = 0.12260 0.19154
#
# Static dielectric constant tensor:
#      x y z
#    x 1.675200 -0.012090 0.000900 
#    y -0.012090 1.729740 -0.008870 
#    z 0.000900 -0.008870 1.709580 
# 
# From -- ./inp_files/187916.got.cif
#   From: 2010.05.17/outbox.cif.g08.bks.cpg/sg2_94_cif.got.tgz:187916.got - 2010.06.03 11:33:40.
