data_PCOD9086820
_publ_section_title
;
Structure prediction by ZEFSAII (Michael W. Deem and Ramdas Pophale) SiO2 
 PCOD9086820
Probable space group: P -1
;
_chemical_formula_sum "Si O2"
_cell_formula_units_Z 15
_cell_length_a 10.811809
_cell_length_b 9.431715
_cell_length_c 8.397777
_cell_angle_alpha 71.357526
_cell_angle_beta 86.439535
_cell_angle_gamma 52.942668
_cell_volume 637.821066
_symmetry_space_group_name_H-M "P -1"
_symmetry_group_IT_number 2
_symmetry_cell_setting 'triclinic'
loop_
_space_group_symop_operation_xyz
x,y,z
-x,-y,-z
loop_
_atom_site_type_symbol
_atom_site_label
_atom_site_fract_x
_atom_site_fract_y
_atom_site_fract_z
Si Si1 0.144189 0.597503 0.509378
Si Si2 0.399808 0.467357 0.135387
Si Si3 0.814173 0.108232 0.958232
Si Si4 0.194825 0.477514 0.879396
Si Si5 0.000000 0.000000 0.500000
Si Si6 0.200544 0.281167 0.429690
Si Si7 0.301653 0.914654 0.677925
Si Si8 0.850227 0.796353 0.876945
O O1 0.249310 0.488706 0.697881
O O2 0.209385 0.448960 0.412717
O O3 0.979763 0.635410 0.553568
O O4 0.092003 0.808075 0.442032
O O5 0.527283 0.282746 0.292811
O O6 0.500000 0.500000 0.000000
O O7 0.277621 0.671683 0.152269
O O8 0.310384 0.430023 0.029184
O O9 0.753885 0.091030 0.139159
O O10 0.784569 0.998571 0.874464
O O11 0.000000 0.000000 0.000000
O O12 0.033243 0.688618 0.854012
O O13 0.152291 0.333626 0.944894
O O14 0.829772 0.055906 0.438903
O O15 0.228843 0.212653 0.270275
O O16 0.302529 0.093238 0.595901
#
# Coordination Sequence:
#
# PCOD9086820 Si02
#       8
#     2   2   2   2   1   2   2   2
#     4   9  17  33  56  85 116 154 206 253 295 368
#     4  10  21  39  60  91 126 161 207 265 317 372
#     4  11  21  37  63  94 125 161 212 262 318 366
#     4  10  19  36  60  89 121 158 206 262 311 362
#     4  10  20  34  64  90 116 154 212 252 304 360
#     4   9  19  36  56  83 122 159 205 248 312 371
#     4  10  22  38  62  88 122 164 209 260 310 382
#     4  10  21  36  61  92 122 160 211 262 310 375
#
# _framework density 23.517569999999999
#
# number of rings (size 3 to 8) (size 9 to 14) (size 15 to 20)
#    0.000    2.133    1.333    2.400    3.733    3.200 
#    0.000    8.667    0.000    0.000    0.000    0.000 
#    0.000    0.000    0.000    0.000    0.000    0.000 
#
# Total GULP energy -83550.898623 kJ/mol
# GULP energy per Si atom -5570.059908 kJ/mol
# Density = 2.346404 g / cm^3
# Si number density = 23.517570 Si / 1000 Ang^3
#
#
#
# Elastic Constant Matrix: (Units=GPa)
#
#
# Indices 1 2 3 4 5 6 
#
# 1 54.7739 56.8408 19.7316 11.3554 11.6960 5.2722
# 2 56.8408 201.8231 64.3894 3.3160 20.9208 22.3777
# 3 19.7316 64.3894 62.2926 1.1859 11.9524 6.5204
# 4 11.3554 3.3160 1.1859 33.9936 4.1090 12.7290
# 5 11.6960 20.9208 11.9524 4.1090 35.2986 0.7324
# 6 5.2722 22.3777 6.5204 12.7290 0.7324 38.2863
#
#
#
# Elastic Compliance Matrix: (Units=1/GPa)
#
#
# Indices 1 2 3 4 5 6 
#
# 1 0.029185 -0.007953 -0.000559 -0.010059 -0.003682 0.004139
# 2 -0.007953 0.010116 -0.007263 0.003891 -0.001253 -0.004850
# 3 -0.000559 -0.007263 0.024460 0.000481 -0.003850 0.000070
# 4 -0.010059 0.003891 0.000481 0.037824 -0.003259 -0.013484
# 5 -0.003682 -0.001253 -0.003850 -0.003259 0.031926 0.002368
# 6 0.004139 -0.004850 0.000070 -0.013484 0.002368 0.032809
#
#
# Mechanical properties :
#
#
# Convention : Reuss Voigt Hill
#
# Bulk Modulus (GPa) = 31.04586 66.75703 48.90145
# Shear Modulus (GPa) = 23.96860 33.37757 28.67308
#
# Velocity S-wave (km/s) = 3.19592 3.77139 3.49552
# Velocity P-wave (km/s) = 5.18154 6.88565 6.09346
#
# Compressibility (1/GPa) = 0.03221041
#
# Stress axis : x y z
#
# Youngs Moduli (GPa) = 34.26462 98.85733 40.88342
#
# Poissons Ratio (x) = 0.78623 0.02284
# Poissons Ratio (y) = 0.27251 0.29693
# Poissons Ratio (z) = 0.01915 0.71798
#
# Static dielectric constant tensor:
#      x y z
#    x 1.948130 -0.004480 -0.119400 
#    y -0.004480 1.884920 -0.035370 
#    z -0.119400 -0.035370 2.012860 
# 
# From -- ./inp_files/239136.got.cif
#   From: 2010.05.17/outbox.cif.g08.bks.cpg/sg2_120_cif.got.tgz:239136.got - 2010.06.03 11:33:40.
