data_PCOD9086705
_publ_section_title
;
Structure prediction by ZEFSAII (Michael W. Deem and Ramdas Pophale) SiO2 
 PCOD9086705
Probable space group: P -1
;
_chemical_formula_sum "Si O2"
_cell_formula_units_Z 14
_cell_length_a 9.605346
_cell_length_b 12.254146
_cell_length_c 8.621165
_cell_angle_alpha 52.966650
_cell_angle_beta 55.709754
_cell_angle_gamma 47.212530
_cell_volume 573.508007
_symmetry_space_group_name_H-M "P -1"
_symmetry_group_IT_number 2
_symmetry_cell_setting 'triclinic'
loop_
_space_group_symop_operation_xyz
x,y,z
-x,-y,-z
loop_
_atom_site_type_symbol
_atom_site_label
_atom_site_fract_x
_atom_site_fract_y
_atom_site_fract_z
Si Si1 0.847276 0.885345 0.640555
Si Si2 0.480186 0.166920 0.256458
Si Si3 0.907221 0.346188 0.038033
Si Si4 0.856398 0.944333 0.079833
Si Si5 0.471848 0.571749 0.190733
Si Si6 0.801968 0.549261 0.667011
Si Si7 0.757252 0.163836 0.671329
O O1 0.669122 0.868907 0.708520
O O2 0.951496 0.753788 0.825482
O O3 0.032385 0.845966 0.447797
O O4 0.765997 0.067660 0.593909
O O5 0.362928 0.264467 0.397843
O O6 0.688761 0.003718 0.264358
O O7 0.523788 0.297334 0.037478
O O8 0.684637 0.410135 0.181729
O O9 0.871627 0.507167 0.840903
O O10 0.005950 0.229676 0.927839
O O11 0.748765 0.049997 0.905157
O O12 0.000000 0.000000 0.000000
O O13 0.308410 0.536810 0.258741
O O14 0.409680 0.659892 0.321538
O O15 0.000000 0.500000 0.500000
#
# Coordination Sequence:
#
# PCOD9086705 Si02
#       7
#     2   2   2   2   2   2   2
#     4  10  21  39  57  85 114 151 190 220 280 332
#     4  10  21  37  61  81 115 152 180 231 281 336
#     4  10  21  36  58  82 113 150 189 229 269 343
#     4  10  19  36  60  83 109 148 190 228 277 331
#     4  10  20  37  59  84 112 149 186 231 288 323
#     4  11  22  39  59  84 115 145 186 238 287 325
#     4   9  20  37  59  82 119 148 179 235 275 328
#
# _framework density 24.411166000000001
#
# number of rings (size 3 to 8) (size 9 to 14) (size 15 to 20)
#    0.000    2.000    0.000    5.143    0.000    8.000 
#    0.000   10.000    0.000    0.000    0.000    0.000 
#    0.000    0.000    0.000    0.000    0.000    0.000 
#
# Total GULP energy -78044.044468 kJ/mol
# GULP energy per Si atom -5574.574605 kJ/mol
# Density = 2.435560 g / cm^3
# Si number density = 24.411166 Si / 1000 Ang^3
#
#
#
# Elastic Constant Matrix: (Units=GPa)
#
#
# Indices 1 2 3 4 5 6 
#
# 1 117.4416 53.9846 25.2356 2.3624 -41.5168 -6.8957
# 2 53.9846 199.0415 38.9060 41.5382 -21.0791 -8.9651
# 3 25.2356 38.9060 82.7097 3.9451 -19.6260 -7.7021
# 4 2.3624 41.5382 3.9451 51.1715 -7.9186 -10.1536
# 5 -41.5168 -21.0791 -19.6260 -7.9186 37.6847 -2.3004
# 6 -6.8957 -8.9651 -7.7021 -10.1536 -2.3004 29.4684
#
#
#
# Elastic Compliance Matrix: (Units=1/GPa)
#
#
# Indices 1 2 3 4 5 6 
#
# 1 0.017091 -0.003983 0.001559 0.006692 0.019247 0.007003
# 2 -0.003983 0.007661 -0.003008 -0.006682 -0.003191 -0.001939
# 3 0.001559 -0.003008 0.015562 0.003695 0.009253 0.005513
# 4 0.006692 -0.006682 0.003695 0.028503 0.012237 0.011275
# 5 0.019247 -0.003191 0.009253 0.012237 0.054224 0.014401
# 6 0.007003 -0.001939 0.005513 0.011275 0.014401 0.041434
#
#
# Mechanical properties :
#
#
# Convention : Reuss Voigt Hill
#
# Bulk Modulus (GPa) = 33.95435 70.60505 52.27970
# Shear Modulus (GPa) = 27.00405 42.40269 34.70337
#
# Velocity S-wave (km/s) = 3.32959 4.17228 3.77453
# Velocity P-wave (km/s) = 5.35921 7.22472 6.36073
#
# Compressibility (1/GPa) = 0.02945131
#
# Stress axis : x y z
#
# Youngs Moduli (GPa) = 58.50894 130.52375 64.25764
#
# Poissons Ratio (x) = 0.51989 -0.10017
# Poissons Ratio (y) = 0.23305 0.19327
# Poissons Ratio (z) = -0.09121 0.39258
#
# Static dielectric constant tensor:
#      x y z
#    x 1.951520 -0.081400 0.075100 
#    y -0.081400 2.163050 -0.022000 
#    z 0.075100 -0.022000 2.057320 
# 
# From -- ./inp_files/184776.got.cif
#   From: 2010.05.17/outbox.cif.g08.bks.cpg/sg2_93_cif.got.tgz:184776.got - 2010.06.03 11:33:40.
