data_PCOD9086930
_publ_section_title
;
Structure prediction by ZEFSAII (Michael W. Deem and Ramdas Pophale) SiO2 
 PCOD9086930
Probable space group: P -1
;
_chemical_formula_sum "Si O2"
_cell_formula_units_Z 14
_cell_length_a 11.772748
_cell_length_b 13.281337
_cell_length_c 9.638404
_cell_angle_alpha 144.141116
_cell_angle_beta 62.515005
_cell_angle_gamma 116.399592
_cell_volume 775.910758
_symmetry_space_group_name_H-M "P -1"
_symmetry_group_IT_number 2
_symmetry_cell_setting 'triclinic'
loop_
_space_group_symop_operation_xyz
x,y,z
-x,-y,-z
loop_
_atom_site_type_symbol
_atom_site_label
_atom_site_fract_x
_atom_site_fract_y
_atom_site_fract_z
Si Si1 0.996482 0.443191 0.278184
Si Si2 0.166187 0.131928 0.805970
Si Si3 0.760998 0.852444 0.528766
Si Si4 0.963328 0.782613 0.541576
Si Si5 0.746403 0.184115 0.094035
Si Si6 0.470005 0.297214 0.319026
Si Si7 0.264119 0.111154 0.024792
O O1 0.026460 0.613751 0.357201
O O2 0.852826 0.351078 0.218187
O O3 0.000000 0.500000 0.500000
O O4 0.090269 0.298390 0.043482
O O5 0.236162 0.136159 0.623946
O O6 0.256791 0.129090 0.885567
O O7 0.063392 0.957405 0.677613
O O8 0.882989 0.769124 0.428388
O O9 0.630921 0.748318 0.549299
O O10 0.774598 0.042524 0.805224
O O11 0.855209 0.805023 0.745486
O O12 0.603039 0.225760 0.196216
O O13 0.754931 0.085164 0.125511
O O14 0.500000 0.500000 0.500000
O O15 0.394583 0.203388 0.125168
#
# Coordination Sequence:
#
# PCOD9086930 Si02
#       7
#     2   2   2   2   2   2   2
#     4  12  22  34  65  92 119 157 198 241 291 351
#     4  12  22  39  57  92 131 145 193 250 301 346
#     4  10  22  39  60  87 120 159 190 251 297 340
#     4  10  20  37  57  87 121 163 196 227 294 357
#     4  10  20  40  64  83 112 162 207 232 287 361
#     4  10  21  41  63  84 111 155 213 238 279 362
#     4  10  19  36  61  84 116 159 195 242 285 348
#
# _framework density 18.043312
#
# number of rings (size 3 to 8) (size 9 to 14) (size 15 to 20)
#    0.000    1.714    4.286    5.143    0.000    0.571 
#    2.571    3.571    0.000    0.000    0.000    0.000 
#    0.000    0.000    0.000    0.000    0.000    0.000 
#
# Total GULP energy -78174.972503 kJ/mol
# GULP energy per Si atom -5583.926607 kJ/mol
# Density = 1.800224 g / cm^3
# Si number density = 18.043312 Si / 1000 Ang^3
#
#
#
# Elastic Constant Matrix: (Units=GPa)
#
#
# Indices 1 2 3 4 5 6 
#
# 1 92.0102 46.3443 37.5794 -12.4937 -5.1148 -16.9760
# 2 46.3443 89.8474 67.1223 0.7609 8.2917 -23.5956
# 3 37.5794 67.1223 68.8217 0.7085 3.7087 -10.1429
# 4 -12.4937 0.7609 0.7085 37.6087 -17.3598 6.9826
# 5 -5.1148 8.2917 3.7087 -17.3598 21.2576 2.2060
# 6 -16.9760 -23.5956 -10.1429 6.9826 2.2060 35.0224
#
#
#
# Elastic Compliance Matrix: (Units=1/GPa)
#
#
# Indices 1 2 3 4 5 6 
#
# 1 0.023906 -0.021851 0.004633 0.026829 0.036356 -0.009431
# 2 -0.021851 0.090998 -0.065216 -0.052029 -0.076745 0.047036
# 3 0.004633 -0.065216 0.069113 0.024036 0.037113 -0.028806
# 4 0.026829 -0.052029 0.024036 0.089341 0.099581 -0.039173
# 5 0.036356 -0.076745 0.037113 0.099581 0.166139 -0.053654
# 6 -0.009431 0.047036 -0.028806 -0.039173 -0.053654 0.058518
#
#
# Mechanical properties :
#
#
# Convention : Reuss Voigt Hill
#
# Bulk Modulus (GPa) = 52.22309 61.41904 56.82106
# Shear Modulus (GPa) = 7.47085 25.41996 16.44541
#
# Velocity S-wave (km/s) = 2.03703 3.75751 3.02228
# Velocity P-wave (km/s) = 5.87696 7.27591 6.61353
#
# Compressibility (1/GPa) = 0.01914862
#
# Stress axis : x y z
#
# Youngs Moduli (GPa) = 41.82968 10.98929 14.46902
#
# Poissons Ratio (x) = 0.24013 -0.06703
# Poissons Ratio (y) = 0.91404 0.94361
# Poissons Ratio (z) = -0.19378 0.71667
#
# Static dielectric constant tensor:
#      x y z
#    x 1.620450 -0.012620 -0.002630 
#    y -0.012620 1.621490 0.015130 
#    z -0.002630 0.015130 1.615960 
# 
# From -- ./inp_files/255654.got.cif
#   From: 2010.05.17/outbox.cif.g08.bks.cpg/sg2_128_cif.got.tgz:255654.got - 2010.06.03 11:33:40.
