data_PCOD9086224
_publ_section_title
;
Structure prediction by ZEFSAII (Michael W. Deem and Ramdas Pophale) SiO2 
 PCOD9086224
Probable space group: P -1
;
_chemical_formula_sum "Si O2"
_cell_formula_units_Z 16
_cell_length_a 7.945772
_cell_length_b 18.441334
_cell_length_c 9.833880
_cell_angle_alpha 145.841511
_cell_angle_beta 102.682992
_cell_angle_gamma 61.554145
_cell_volume 665.422581
_symmetry_space_group_name_H-M "P -1"
_symmetry_group_IT_number 2
_symmetry_cell_setting 'triclinic'
loop_
_space_group_symop_operation_xyz
x,y,z
-x,-y,-z
loop_
_atom_site_type_symbol
_atom_site_label
_atom_site_fract_x
_atom_site_fract_y
_atom_site_fract_z
Si Si1 0.661610 0.863146 0.666833
Si Si2 0.921027 0.630962 0.892132
Si Si3 0.266992 0.931389 0.828045
Si Si4 0.055603 0.655965 0.232157
Si Si5 0.261736 0.499772 0.524816
Si Si6 0.720855 0.341800 0.463530
Si Si7 0.374920 0.021456 0.643831
Si Si8 0.150677 0.887559 0.466189
O O1 0.508068 0.826163 0.658186
O O2 0.837293 0.755972 0.425633
O O3 0.500361 0.013262 0.784910
O O4 0.758620 0.920361 0.880137
O O5 0.745895 0.611379 0.762494
O O6 0.109582 0.535381 0.676320
O O7 0.828498 0.812103 0.145328
O O8 0.002912 0.576721 0.977074
O O9 0.224740 0.827100 0.753652
O O10 0.127027 0.973054 0.736095
O O11 0.213937 0.599977 0.301330
O O12 0.132028 0.748801 0.297733
O O13 0.479736 0.442158 0.541093
O O14 0.184012 0.646811 0.642648
O O15 0.500000 0.000000 0.500000
O O16 0.357605 0.872260 0.424011
O O17 0.000000 0.000000 0.500000
#
# Coordination Sequence:
#
# PCOD9086224 Si02
#       8
#     2   2   2   2   2   2   2   2
#     4  10  20  37  60  99 130 170 204 252 330 394
#     4  11  23  43  68  96 125 175 219 267 316 388
#     4   9  21  36  62  90 132 169 206 259 315 392
#     4  11  23  40  66  98 130 166 214 269 323 381
#     4  10  25  46  67  89 125 176 227 268 321 371
#     4  10  23  46  63  94 125 170 223 275 320 366
#     4  11  20  37  63  94 132 166 203 253 325 395
#     4  10  19  36  56  94 131 160 201 250 323 384
#
# _framework density 24.044872000000002
#
# number of rings (size 3 to 8) (size 9 to 14) (size 15 to 20)
#    0.000    1.750    2.500    0.750    0.000    9.000 
#    6.750    0.000    0.000    0.000    0.000    0.000 
#    0.000    0.000    0.000    0.000    0.000    0.000 
#
# Total GULP energy -89168.404798 kJ/mol
# GULP energy per Si atom -5573.025300 kJ/mol
# Density = 2.399014 g / cm^3
# Si number density = 24.044872 Si / 1000 Ang^3
#
#
#
# Elastic Constant Matrix: (Units=GPa)
#
#
# Indices 1 2 3 4 5 6 
#
# 1 71.7547 19.1975 29.9018 -10.8896 11.7617 -7.2621
# 2 19.1975 143.0922 32.4570 -31.2147 8.1472 -27.7714
# 3 29.9018 32.4570 66.3126 -28.3013 7.8649 -3.3408
# 4 -10.8896 -31.2147 -28.3013 42.3015 -0.9945 10.6588
# 5 11.7617 8.1472 7.8649 -0.9945 30.4962 -12.8106
# 6 -7.2621 -27.7714 -3.3408 10.6588 -12.8106 49.6040
#
#
#
# Elastic Compliance Matrix: (Units=1/GPa)
#
#
# Indices 1 2 3 4 5 6 
#
# 1 0.017959 -0.000476 -0.007867 -0.001343 -0.004400 0.000985
# 2 -0.000476 0.009279 -0.002400 0.004081 0.000195 0.004137
# 3 -0.007867 -0.002400 0.026610 0.015211 -0.004890 -0.005235
# 4 -0.001343 0.004081 0.015211 0.038007 -0.006034 -0.006612
# 5 -0.004400 0.000195 -0.004890 -0.006034 0.040024 0.010768
# 6 0.000985 0.004137 -0.005235 -0.006612 0.010768 0.026469
#
#
# Mechanical properties :
#
#
# Convention : Reuss Voigt Hill
#
# Bulk Modulus (GPa) = 30.89975 49.36355 40.13165
# Shear Modulus (GPa) = 26.23002 37.78721 32.00861
#
# Velocity S-wave (km/s) = 3.30643 3.96855 3.65252
# Velocity P-wave (km/s) = 5.23979 6.44775 5.87490
#
# Compressibility (1/GPa) = 0.03236272
#
# Stress axis : x y z
#
# Youngs Moduli (GPa) = 55.68169 107.77302 37.57955
#
# Poissons Ratio (x) = 0.05134 0.29563
# Poissons Ratio (y) = 0.02652 0.09018
# Poissons Ratio (z) = 0.43803 0.25862
#
# Static dielectric constant tensor:
#      x y z
#    x 1.391900 0.128880 -0.341980 
#    y 0.128880 1.934000 0.041450 
#    z -0.341980 0.041450 1.712430 
# 
# From -- ./inp_files/218917.got.cif
#   From: 2010.05.17/outbox.cif.g08.bks.cpg/sg2_110_cif.got.tgz:218917.got - 2010.06.03 11:33:40.
