data_PCOD9086803
_publ_section_title
;
Structure prediction by ZEFSAII (Michael W. Deem and Ramdas Pophale) SiO2 
 PCOD9086803
Probable space group: P -1
;
_chemical_formula_sum "Si O2"
_cell_formula_units_Z 16
_cell_length_a 11.912649
_cell_length_b 13.603464
_cell_length_c 6.887835
_cell_angle_alpha 100.519168
_cell_angle_beta 124.669092
_cell_angle_gamma 48.145610
_cell_volume 647.462740
_symmetry_space_group_name_H-M "P -1"
_symmetry_group_IT_number 2
_symmetry_cell_setting 'triclinic'
loop_
_space_group_symop_operation_xyz
x,y,z
-x,-y,-z
loop_
_atom_site_type_symbol
_atom_site_label
_atom_site_fract_x
_atom_site_fract_y
_atom_site_fract_z
Si Si1 0.451829 0.958483 0.245593
Si Si2 0.974732 0.890772 0.606349
Si Si3 0.598470 0.366068 0.174887
Si Si4 0.814376 0.354438 0.719924
Si Si5 0.818496 0.738420 0.011108
Si Si6 0.864064 0.730805 0.587246
Si Si7 0.924014 0.957363 0.124482
Si Si8 0.757705 0.552325 0.054871
O O1 0.655233 0.809567 0.328794
O O2 0.500000 0.000000 0.500000
O O3 0.346165 0.095646 0.057445
O O4 0.289283 0.958514 0.126247
O O5 0.201158 0.763579 0.765793
O O6 0.888285 0.833856 0.585897
O O7 0.906112 0.949448 0.340427
O O8 0.961529 0.997264 0.760550
O O9 0.653995 0.387097 0.442951
O O10 0.451506 0.350244 0.027378
O O11 0.500000 0.500000 0.000000
O O12 0.751715 0.466727 0.855911
O O13 0.935352 0.200899 0.871102
O O14 0.977050 0.325542 0.738290
O O15 0.845068 0.723076 0.797815
O O16 0.785367 0.644929 0.018501
O O17 0.059797 0.571430 0.679520
#
# Coordination Sequence:
#
# PCOD9086803 Si02
#       8
#     2   2   2   2   2   2   2   2
#     4   9  19  38  60  88 122 157 206 260 299 353
#     4  10  21  39  61  88 125 166 202 245 312 376
#     4  11  22  40  57  85 125 158 204 249 297 361
#     4   9  19  38  64  87 116 159 201 251 304 356
#     4   9  20  39  61  88 121 157 202 248 309 361
#     4  10  19  36  60  88 122 153 200 258 295 357
#     4   9  20  39  61  87 125 163 202 247 313 375
#     4  11  21  40  65  88 123 164 201 251 308 363
#
# _framework density 24.711845
#
# number of rings (size 3 to 8) (size 9 to 14) (size 15 to 20)
#    0.000    2.250    1.250    2.625    0.000    3.500 
#    6.750   13.125    0.000    0.000    0.000    0.000 
#    0.000    0.000    0.000    0.000    0.000    0.000 
#
# Total GULP energy -89420.091987 kJ/mol
# GULP energy per Si atom -5588.755749 kJ/mol
# Density = 2.465560 g / cm^3
# Si number density = 24.711845 Si / 1000 Ang^3
#
#
#
# Elastic Constant Matrix: (Units=GPa)
#
#
# Indices 1 2 3 4 5 6 
#
# 1 131.3966 32.0368 47.2376 -7.3621 32.7986 34.9337
# 2 32.0368 66.3300 23.4378 11.5180 19.6559 13.9845
# 3 47.2376 23.4378 126.0907 -15.3697 32.1883 -3.4991
# 4 -7.3621 11.5180 -15.3697 42.6517 -9.7509 5.7909
# 5 32.7986 19.6559 32.1883 -9.7509 55.4497 5.1986
# 6 34.9337 13.9845 -3.4991 5.7909 5.1986 48.5671
#
#
#
# Elastic Compliance Matrix: (Units=1/GPa)
#
#
# Indices 1 2 3 4 5 6 
#
# 1 0.012679 -0.002425 -0.003396 0.001972 -0.003523 -0.008524
# 2 -0.002425 0.020767 -0.002572 -0.007827 -0.005539 -0.002895
# 3 -0.003396 -0.002572 0.010982 0.002758 -0.003345 0.004004
# 4 0.001972 -0.007827 0.002758 0.028502 0.005294 -0.002931
# 5 -0.003523 -0.005539 -0.003345 0.005294 0.024899 0.000591
# 6 -0.008524 -0.002895 0.004004 -0.002931 0.000591 0.028129
#
#
# Mechanical properties :
#
#
# Convention : Reuss Voigt Hill
#
# Bulk Modulus (GPa) = 36.17716 58.80462 47.49089
# Shear Modulus (GPa) = 32.90374 44.07404 38.48889
#
# Velocity S-wave (km/s) = 3.65293 4.22775 3.95081
# Velocity P-wave (km/s) = 5.69765 6.90505 6.33020
#
# Compressibility (1/GPa) = 0.02764175
#
# Stress axis : x y z
#
# Youngs Moduli (GPa) = 78.87232 48.15323 91.05513
#
# Poissons Ratio (x) = 0.11677 0.30923
# Poissons Ratio (y) = 0.19127 0.23420
# Poissons Ratio (z) = 0.26786 0.12385
#
# Static dielectric constant tensor:
#      x y z
#    x 2.128730 -0.306060 -0.126090 
#    y -0.306060 2.559990 0.266110 
#    z -0.126090 0.266110 2.105290 
# 
# From -- ./inp_files/267956.got.cif
#   From: 2010.05.17/outbox.cif.g08.bks.cpg/sg2_134_cif.got.tgz:267956.got - 2010.06.03 11:33:40.
