data_PCOD9086260
_publ_section_title
;
Structure prediction by ZEFSAII (Michael W. Deem and Ramdas Pophale) SiO2 
 PCOD9086260
Probable space group: P -1
;
_chemical_formula_sum "Si O2"
_cell_formula_units_Z 14
_cell_length_a 9.599426
_cell_length_b 17.683946
_cell_length_c 5.315789
_cell_angle_alpha 102.889955
_cell_angle_beta 140.389118
_cell_angle_gamma 80.895637
_cell_volume 560.701274
_symmetry_space_group_name_H-M "P -1"
_symmetry_group_IT_number 2
_symmetry_cell_setting 'triclinic'
loop_
_space_group_symop_operation_xyz
x,y,z
-x,-y,-z
loop_
_atom_site_type_symbol
_atom_site_label
_atom_site_fract_x
_atom_site_fract_y
_atom_site_fract_z
Si Si1 0.080503 0.171063 0.979028
Si Si2 0.587948 0.591237 0.997538
Si Si3 0.374068 0.242893 0.032884
Si Si4 0.852354 0.993208 0.039818
Si Si5 0.310869 0.568393 0.092875
Si Si6 0.349629 0.858996 0.935247
Si Si7 0.195952 0.731985 0.008409
O O1 0.230303 0.096079 0.145581
O O2 0.844860 0.137922 0.536480
O O3 0.012610 0.219682 0.161676
O O4 0.187409 0.227999 0.966643
O O5 0.661966 0.678924 0.113328
O O6 0.398833 0.574581 0.507543
O O7 0.750816 0.521079 0.114803
O O8 0.501059 0.584260 0.157384
O O9 0.425513 0.162024 0.903066
O O10 0.603237 0.260147 0.510190
O O11 0.686178 0.064038 0.891438
O O12 0.000000 0.000000 0.500000
O O13 0.000000 0.000000 0.000000
O O14 0.154508 0.640005 0.871354
O O15 0.292330 0.778949 0.942045
#
# Coordination Sequence:
#
# PCOD9086260 Si02
#       7
#     2   2   2   2   2   2   2
#     4  10  22  37  57  82 114 148 187 235 285 331
#     4   9  17  32  53  82 110 146 185 231 273 337
#     4  10  21  36  56  86 112 145 191 235 279 335
#     4  10  20  38  59  81 113 152 189 230 283 340
#     4   9  17  31  56  79 109 149 188 221 282 333
#     4  10  20  37  59  77 114 149 189 228 284 337
#     4  10  19  36  57  82 109 152 185 233 277 341
#
# _framework density 24.968733
#
# number of rings (size 3 to 8) (size 9 to 14) (size 15 to 20)
#    0.000    2.286    2.857    0.000    0.000    1.714 
#    0.000    1.429    0.000    0.857    0.000    0.000 
#    0.000    0.000    0.000    0.000    0.000    0.000 
#
# Total GULP energy -78142.141687 kJ/mol
# GULP energy per Si atom -5581.581549 kJ/mol
# Density = 2.491190 g / cm^3
# Si number density = 24.968733 Si / 1000 Ang^3
#
#
#
# Elastic Constant Matrix: (Units=GPa)
#
#
# Indices 1 2 3 4 5 6 
#
# 1 86.1776 -0.7173 1.2482 -9.6221 -17.9482 -7.1881
# 2 -0.7173 144.2834 11.6719 -18.2809 0.9195 -20.3826
# 3 1.2482 11.6719 75.5142 -4.8389 -8.1888 -10.0879
# 4 -9.6221 -18.2809 -4.8389 39.4761 -6.1014 0.3688
# 5 -17.9482 0.9195 -8.1888 -6.1014 31.3622 -12.6354
# 6 -7.1881 -20.3826 -10.0879 0.3688 -12.6354 50.7373
#
#
#
# Elastic Compliance Matrix: (Units=1/GPa)
#
#
# Indices 1 2 3 4 5 6 
#
# 1 0.015744 0.001624 0.002298 0.006911 0.013597 0.006676
# 2 0.001624 0.008109 -0.000058 0.004613 0.003291 0.004262
# 3 0.002298 -0.000058 0.015020 0.003570 0.008056 0.005269
# 4 0.006911 0.004613 0.003570 0.031630 0.013605 0.006700
# 5 0.013597 0.003291 0.008056 0.013605 0.051391 0.017549
# 6 0.006676 0.004262 0.005269 0.006700 0.017549 0.027737
#
#
# Mechanical properties :
#
#
# Convention : Reuss Voigt Hill
#
# Bulk Modulus (GPa) = 21.45878 36.70899 29.08388
# Shear Modulus (GPa) = 31.75873 43.89993 37.82933
#
# Velocity S-wave (km/s) = 3.57030 4.19763 3.89661
# Velocity P-wave (km/s) = 5.06053 6.18283 5.64962
#
# Compressibility (1/GPa) = 0.04660098
#
# Stress axis : x y z
#
# Youngs Moduli (GPa) = 63.51468 123.31636 66.57916
#
# Poissons Ratio (x) = -0.20032 -0.15298
# Poissons Ratio (y) = -0.10317 0.00388
# Poissons Ratio (z) = -0.14594 0.00719
#
# Static dielectric constant tensor:
#      x y z
#    x 1.905020 -0.060250 -0.017650 
#    y -0.060250 2.031830 -0.015940 
#    z -0.017650 -0.015940 1.923030 
# 
# From -- ./inp_files/7897.got.cif
#   From: 2010.05.17/outbox.cif.g08.bks.cpg/sg2_4_cif.got.tgz:7897.got - 2010.06.03 11:33:40.
