data_PCOD9086204
_publ_section_title
;
Structure prediction by ZEFSAII (Michael W. Deem and Ramdas Pophale) SiO2 
 PCOD9086204
Probable space group: P -1
;
_chemical_formula_sum "Si O2"
_cell_formula_units_Z 16
_cell_length_a 11.634184
_cell_length_b 7.600807
_cell_length_c 18.140679
_cell_angle_alpha 90.701233
_cell_angle_beta 50.961444
_cell_angle_gamma 53.874880
_cell_volume 796.430576
_symmetry_space_group_name_H-M "P -1"
_symmetry_group_IT_number 2
_symmetry_cell_setting 'triclinic'
loop_
_space_group_symop_operation_xyz
x,y,z
-x,-y,-z
loop_
_atom_site_type_symbol
_atom_site_label
_atom_site_fract_x
_atom_site_fract_y
_atom_site_fract_z
Si Si1 0.962891 0.365945 0.740242
Si Si2 0.284535 0.797088 0.806194
Si Si3 0.720883 0.565879 0.147672
Si Si4 0.612416 0.277748 0.392326
Si Si5 0.773065 0.500658 0.660401
Si Si6 0.233284 0.105110 0.401863
Si Si7 0.032407 0.571727 0.094319
Si Si8 0.686425 0.766340 0.481782
O O1 0.881673 0.485087 0.856496
O O2 0.078138 0.437277 0.659820
O O3 0.811852 0.438395 0.732316
O O4 0.168428 0.034222 0.668073
O O5 0.196324 0.711290 0.886976
O O6 0.317053 0.689120 0.710044
O O7 0.527089 0.646338 0.738954
O O8 0.125445 0.113486 0.859383
O O9 0.867272 0.554162 0.145289
O O10 0.449985 0.806430 0.278766
O O11 0.768185 0.609484 0.048996
O O12 0.500000 0.500000 0.500000
O O13 0.408983 0.328988 0.451579
O O14 0.786519 0.698170 0.637524
O O15 0.987540 0.238654 0.520475
O O16 0.304341 0.108598 0.454123
O O17 0.500000 0.000000 0.500000
#
# Coordination Sequence:
#
# PCOD9086204 Si02
#       8
#     2   2   2   2   2   2   2   2
#     4   9  20  36  57  78 116 157 188 235 302 334
#     4  11  22  38  61  89 121 153 191 247 296 345
#     4  11  22  37  68  85 112 156 207 243 283 347
#     4  10  20  31  50  86 117 144 193 241 285 352
#     4  10  20  37  59  84 123 158 182 235 307 357
#     4  10  19  36  56  87 116 157 188 229 299 354
#     4  10  22  43  60  87 114 153 207 249 282 333
#     4   9  16  30  54  78 111 146 182 236 291 333
#
# _framework density 20.089634
#
# number of rings (size 3 to 8) (size 9 to 14) (size 15 to 20)
#    0.000    2.000    2.500    1.875    7.000    0.500 
#    0.000    1.250    0.000    0.000    0.000    0.000 
#    0.000    0.000    0.000    0.000    0.000    0.000 
#
# Total GULP energy -89120.576377 kJ/mol
# GULP energy per Si atom -5570.036024 kJ/mol
# Density = 2.004391 g / cm^3
# Si number density = 20.089634 Si / 1000 Ang^3
#
#
#
# Elastic Constant Matrix: (Units=GPa)
#
#
# Indices 1 2 3 4 5 6 
#
# 1 46.9907 26.1203 20.2344 -9.8782 13.5993 -12.8405
# 2 26.1203 54.1088 17.2552 -10.0161 4.2440 -9.2840
# 3 20.2344 17.2552 77.7620 -9.7765 17.9811 -12.2520
# 4 -9.8782 -10.0161 -9.7765 30.0802 1.5317 8.5457
# 5 13.5993 4.2440 17.9811 1.5317 27.4166 -12.7233
# 6 -12.8405 -9.2840 -12.2520 8.5457 -12.7233 33.7345
#
#
#
# Elastic Compliance Matrix: (Units=1/GPa)
#
#
# Indices 1 2 3 4 5 6 
#
# 1 0.035845 -0.014032 -0.001866 0.006541 -0.013689 0.002284
# 2 -0.014032 0.026583 -0.002901 0.002288 0.005793 0.002526
# 3 -0.001866 -0.002901 0.016831 0.004499 -0.010070 -0.000334
# 4 0.006541 0.002288 0.004499 0.041460 -0.013980 -0.011022
# 5 -0.013689 0.005793 -0.010070 -0.013980 0.058210 0.018222
# 6 0.002284 0.002526 -0.000334 -0.011022 0.018222 0.040752
#
#
# Mechanical properties :
#
#
# Convention : Reuss Voigt Hill
#
# Bulk Modulus (GPa) = 24.00374 34.00901 29.00637
# Shear Modulus (GPa) = 18.43894 25.92970 22.18432
#
# Velocity S-wave (km/s) = 3.03286 3.59653 3.32666
# Velocity P-wave (km/s) = 4.92327 5.84911 5.40605
#
# Compressibility (1/GPa) = 0.04166018
#
# Stress axis : x y z
#
# Youngs Moduli (GPa) = 27.89769 37.61802 59.41569
#
# Poissons Ratio (x) = 0.52787 0.11086
# Poissons Ratio (y) = 0.39147 0.17237
# Poissons Ratio (z) = 0.05205 0.10913
#
# Static dielectric constant tensor:
#      x y z
#    x 1.739010 0.014670 -0.006830 
#    y 0.014670 1.773360 0.009430 
#    z -0.006830 0.009430 1.776610 
# 
# From -- ./inp_files/515521.got.cif
#   From: 2010.05.17/outbox.cif.g08.bks.cpg/sg2_258_cif.got.tgz:515521.got - 2010.06.03 11:33:40.
