data_PCOD9086720
_publ_section_title
;
Structure prediction by ZEFSAII (Michael W. Deem and Ramdas Pophale) SiO2 
 PCOD9086720
Probable space group: P -1
;
_chemical_formula_sum "Si O2"
_cell_formula_units_Z 16
_cell_length_a 14.966438
_cell_length_b 12.242928
_cell_length_c 21.711786
_cell_angle_alpha 151.407830
_cell_angle_beta 151.978794
_cell_angle_gamma 46.780365
_cell_volume 819.104534
_symmetry_space_group_name_H-M "P -1"
_symmetry_group_IT_number 2
_symmetry_cell_setting 'triclinic'
loop_
_space_group_symop_operation_xyz
x,y,z
-x,-y,-z
loop_
_atom_site_type_symbol
_atom_site_label
_atom_site_fract_x
_atom_site_fract_y
_atom_site_fract_z
Si Si1 0.500728 0.090230 0.664632
Si Si2 0.614371 0.421117 0.443274
Si Si3 0.869824 0.759700 0.262115
Si Si4 0.676229 0.894974 0.790653
Si Si5 0.119869 0.501335 0.975643
Si Si6 0.942213 0.421378 0.240428
Si Si7 0.723511 0.461665 0.778586
Si Si8 0.578917 0.488636 0.112254
O O1 0.696176 0.268010 0.830979
O O2 0.389244 0.263139 0.707811
O O3 0.578686 0.992239 0.723775
O O4 0.358248 0.839755 0.418659
O O5 0.700546 0.651833 0.658976
O O6 0.485151 0.187359 0.291686
O O7 0.455067 0.469441 0.324831
O O8 0.812741 0.426581 0.530034
O O9 0.881719 0.531860 0.196424
O O10 0.950260 0.727611 0.228333
O O11 0.630262 0.721366 0.090705
O O12 0.000000 0.000000 0.500000
O O13 0.881910 0.127399 0.050805
O O14 0.206452 0.441703 0.062520
O O15 0.922187 0.557257 0.901777
O O16 0.789385 0.449259 0.213040
O O17 0.500000 0.500000 0.000000
#
# Coordination Sequence:
#
# PCOD9086720 Si02
#       8
#     2   2   2   2   2   2   2   2
#     4  10  19  36  60  84 116 144 192 244 291 334
#     4  10  24  33  53  83 116 159 189 229 287 352
#     4  10  22  33  62  91 115 146 191 247 298 329
#     4  10  20  35  52  82 122 148 190 240 287 342
#     4  10  21  39  59  87 113 150 193 239 288 339
#     4  11  21  34  55  84 119 148 185 236 302 332
#     4  10  23  38  59  83 119 154 193 230 282 353
#     4   9  18  33  51  87 116 140 183 239 289 340
#
# _framework density 19.533526999999999
#
# number of rings (size 3 to 8) (size 9 to 14) (size 15 to 20)
#    0.000    2.000    3.750    0.750   10.500    2.000 
#    0.000    0.000    0.000    3.750    0.000    0.000 
#    0.000    0.000    0.000    0.000    0.000    0.000 
#
# Total GULP energy -89246.097966 kJ/mol
# GULP energy per Si atom -5577.881123 kJ/mol
# Density = 1.948907 g / cm^3
# Si number density = 19.533527 Si / 1000 Ang^3
#
#
#
# Elastic Constant Matrix: (Units=GPa)
#
#
# Indices 1 2 3 4 5 6 
#
# 1 112.8244 43.9253 46.9245 -12.5013 10.0386 -7.8406
# 2 43.9253 35.5951 15.8517 -12.6219 10.9262 -4.0619
# 3 46.9245 15.8517 68.5073 3.7266 4.5219 5.1280
# 4 -12.5013 -12.6219 3.7266 31.3356 -6.2627 8.9262
# 5 10.0386 10.9262 4.5219 -6.2627 39.1267 -7.3134
# 6 -7.8406 -4.0619 5.1280 8.9262 -7.3134 15.8026
#
#
#
# Elastic Compliance Matrix: (Units=1/GPa)
#
#
# Indices 1 2 3 4 5 6 
#
# 1 0.023295 -0.024115 -0.011442 -0.001632 0.004036 0.011862
# 2 -0.024115 0.065379 0.002034 0.017272 -0.011585 -0.010937
# 3 -0.011442 0.002034 0.023279 -0.003706 -0.003175 -0.012084
# 4 -0.001632 0.017272 -0.003706 0.044374 -0.000717 -0.020564
# 5 0.004036 -0.011585 -0.003175 -0.000717 0.030756 0.014694
# 6 0.011862 -0.010937 -0.012084 -0.020564 0.014694 0.088692
#
#
# Mechanical properties :
#
#
# Convention : Reuss Voigt Hill
#
# Bulk Modulus (GPa) = 22.26809 47.81443 35.04126
# Shear Modulus (GPa) = 13.97465 24.60135 19.28800
#
# Velocity S-wave (km/s) = 2.67763 3.55271 3.14575
# Velocity P-wave (km/s) = 4.58086 6.43120 5.58322
#
# Compressibility (1/GPa) = 0.04490732
#
# Stress axis : x y z
#
# Youngs Moduli (GPa) = 42.92759 15.29535 42.95693
#
# Poissons Ratio (x) = 0.36885 0.49150
# Poissons Ratio (y) = 1.03520 -0.08736
# Poissons Ratio (z) = 0.49116 -0.03111
#
# Static dielectric constant tensor:
#      x y z
#    x 1.731280 -0.028870 0.020640 
#    y -0.028870 1.683150 0.022040 
#    z 0.020640 0.022040 1.747710 
# 
# From -- ./inp_files/523843.got.cif
#   From: 2010.05.17/outbox.cif.g08.bks.cpg/sg2_262_cif.got.tgz:523843.got - 2010.06.03 11:33:40.
