data_PCOD9086772
_publ_section_title
;
Structure prediction by ZEFSAII (Michael W. Deem and Ramdas Pophale) SiO2 
 PCOD9086772
Probable space group: P -1
;
_chemical_formula_sum "Si O2"
_cell_formula_units_Z 16
_cell_length_a 16.745306
_cell_length_b 11.530207
_cell_length_c 6.632006
_cell_angle_alpha 121.920561
_cell_angle_beta 52.693534
_cell_angle_gamma 111.559077
_cell_volume 862.391829
_symmetry_space_group_name_H-M "P -1"
_symmetry_group_IT_number 2
_symmetry_cell_setting 'triclinic'
loop_
_space_group_symop_operation_xyz
x,y,z
-x,-y,-z
loop_
_atom_site_type_symbol
_atom_site_label
_atom_site_fract_x
_atom_site_fract_y
_atom_site_fract_z
Si Si1 0.132941 0.128771 0.369562
Si Si2 0.405248 0.809993 0.746142
Si Si3 0.327536 0.029947 0.793245
Si Si4 0.357198 0.620976 0.268751
Si Si5 0.259982 0.832797 0.366507
Si Si6 0.473956 0.351819 0.304287
Si Si7 0.311996 0.320835 0.209321
Si Si8 0.942408 0.046996 0.325388
O O1 0.195283 0.273229 0.377531
O O2 0.028081 0.117948 0.403070
O O3 0.109719 0.080614 0.587144
O O4 0.213870 0.025999 0.060337
O O5 0.400833 0.948140 0.748768
O O6 0.379131 0.689775 0.514794
O O7 0.500785 0.767276 0.688410
O O8 0.319585 0.816721 0.053364
O O9 0.314142 0.956236 0.531318
O O10 0.356249 0.191882 0.906851
O O11 0.270222 0.699081 0.364954
O O12 0.333093 0.460665 0.187410
O O13 0.452537 0.650791 0.004437
O O14 0.146583 0.861850 0.519352
O O15 0.500000 0.500000 0.500000
O O16 0.364198 0.334047 0.360074
O O17 0.000000 0.000000 0.000000
#
# Coordination Sequence:
#
# PCOD9086772 Si02
#       8
#     2   2   2   2   2   2   2   2
#     4   9  21  34  58  87 115 147 181 246 288 330
#     4  10  20  38  57  86 116 154 195 231 293 343
#     4   9  19  37  55  84 118 143 183 246 287 325
#     4  10  22  38  61  82 119 156 192 237 287 342
#     4  10  19  36  60  87 113 153 193 230 292 351
#     4  11  22  38  61  86 110 163 201 230 282 352
#     4  10  20  41  56  86 121 148 193 244 288 331
#     4  11  18  36  61  88 113 149 197 230 291 352
#
# _framework density 18.553049999999999
#
# number of rings (size 3 to 8) (size 9 to 14) (size 15 to 20)
#    0.750    1.250    3.750    0.375    0.000    0.500 
#    6.750    6.250    0.000    1.500    0.000    0.000 
#    0.000    0.000    0.000    0.000    0.000    0.000 
#
# Total GULP energy -89218.299699 kJ/mol
# GULP energy per Si atom -5576.143731 kJ/mol
# Density = 1.851082 g / cm^3
# Si number density = 18.553050 Si / 1000 Ang^3
#
#
#
# Elastic Constant Matrix: (Units=GPa)
#
#
# Indices 1 2 3 4 5 6 
#
# 1 88.1739 42.7964 10.2027 0.1390 7.4952 -20.7276
# 2 42.7964 115.5509 26.6722 11.9049 11.3617 -9.3451
# 3 10.2027 26.6722 101.1824 -4.5004 19.1584 -3.1723
# 4 0.1390 11.9049 -4.5004 31.1969 -0.0299 -2.0819
# 5 7.4952 11.3617 19.1584 -0.0299 18.9009 -0.5018
# 6 -20.7276 -9.3451 -3.1723 -2.0819 -0.5018 26.2598
#
#
#
# Elastic Compliance Matrix: (Units=1/GPa)
#
#
# Indices 1 2 3 4 5 6 
#
# 1 0.016987 -0.005470 0.001016 0.002938 -0.004161 0.011738
# 2 -0.005470 0.011922 -0.002330 -0.004917 -0.002664 -0.000797
# 3 0.001016 -0.002330 0.012834 0.002826 -0.011966 0.001518
# 4 0.002938 -0.004917 0.002826 0.034567 -0.000923 0.003633
# 5 -0.004161 -0.002664 -0.011966 -0.000923 0.068169 -0.004449
# 6 0.011738 -0.000797 0.001518 0.003633 -0.004449 0.047449
#
#
# Mechanical properties :
#
#
# Convention : Reuss Voigt Hill
#
# Bulk Modulus (GPa) = 35.49431 51.58332 43.53881
# Shear Modulus (GPa) = 23.26787 30.28725 26.77756
#
# Velocity S-wave (km/s) = 3.54521 4.04476 3.80320
# Velocity P-wave (km/s) = 5.99423 7.04819 6.54247
#
# Compressibility (1/GPa) = 0.02817353
#
# Stress axis : x y z
#
# Youngs Moduli (GPa) = 58.86826 83.87749 77.91771
#
# Poissons Ratio (x) = 0.45882 -0.07914
# Poissons Ratio (y) = 0.32202 0.18158
# Poissons Ratio (z) = -0.05979 0.19547
#
# Static dielectric constant tensor:
#      x y z
#    x 1.646990 -0.022940 -0.001470 
#    y -0.022940 1.641990 0.006660 
#    z -0.001470 0.006660 1.649170 
# 
# From -- ./inp_files/108439.got.cif
#   From: 2010.05.17/outbox.cif.g08.bks.cpg/sg2_55_cif.got.tgz:108439.got - 2010.06.03 11:33:40.
