data_PCOD9086971
_publ_section_title
;
Structure prediction by ZEFSAII (Michael W. Deem and Ramdas Pophale) SiO2 
 PCOD9086971
Probable space group: P -1
;
_chemical_formula_sum "Si O2"
_cell_formula_units_Z 16
_cell_length_a 12.684076
_cell_length_b 11.794937
_cell_length_c 15.031101
_cell_angle_alpha 65.490868
_cell_angle_beta 19.480877
_cell_angle_gamma 61.153460
_cell_volume 650.700393
_symmetry_space_group_name_H-M "P -1"
_symmetry_group_IT_number 2
_symmetry_cell_setting 'triclinic'
loop_
_space_group_symop_operation_xyz
x,y,z
-x,-y,-z
loop_
_atom_site_type_symbol
_atom_site_label
_atom_site_fract_x
_atom_site_fract_y
_atom_site_fract_z
Si Si1 0.294572 0.517421 0.525198
Si Si2 0.268943 0.427846 0.158878
Si Si3 0.882361 0.258947 0.626157
Si Si4 0.652620 0.205616 0.653277
Si Si5 0.177852 0.151571 0.616152
Si Si6 0.431955 0.863716 0.438469
Si Si7 0.886037 0.156642 0.033821
Si Si8 0.885103 0.362298 0.192013
O O1 0.220581 0.670754 0.511344
O O2 0.684881 0.442545 0.240858
O O3 0.181953 0.527255 0.713484
O O4 0.057328 0.475406 0.659399
O O5 0.129000 0.337511 0.366506
O O6 0.500000 0.500000 0.000000
O O7 0.510243 0.351141 0.913380
O O8 0.817766 0.164584 0.630692
O O9 0.013215 0.200153 0.636655
O O10 0.704572 0.104945 0.563602
O O11 0.260345 0.276197 0.936552
O O12 0.940202 0.190470 0.877377
O O13 0.301072 0.992566 0.560730
O O14 0.505264 0.197645 0.350891
O O15 0.308969 0.744549 0.605306
O O16 0.831420 0.812108 0.142418
O O17 0.000000 0.000000 0.000000
#
# Coordination Sequence:
#
# PCOD9086971 Si02
#       8
#     2   2   2   2   2   2   2   2
#     4   9  20  37  58  88 120 162 210 261 331 367
#     4  11  23  44  65  95 126 169 217 267 311 385
#     4  11  24  44  66  92 134 172 211 259 325 379
#     4  10  21  38  62  88 130 166 209 267 318 378
#     4  11  24  42  66  93 131 176 209 258 322 384
#     4  10  23  37  61  96 121 164 215 262 315 379
#     4  10  22  42  64  89 128 168 210 267 317 365
#     4  10  19  36  61  86 121 162 210 265 318 376
#
# _framework density 24.588889999999999
#
# number of rings (size 3 to 8) (size 9 to 14) (size 15 to 20)
#    0.000    1.750    1.250    3.000    5.250    2.500 
#    0.000    0.625    0.000    0.000    0.000    0.000 
#    0.000    0.000    0.000    0.000    0.000    0.000 
#
# Total GULP energy -89341.319132 kJ/mol
# GULP energy per Si atom -5583.832446 kJ/mol
# Density = 2.453292 g / cm^3
# Si number density = 24.588890 Si / 1000 Ang^3
#
#
#
# Elastic Constant Matrix: (Units=GPa)
#
#
# Indices 1 2 3 4 5 6 
#
# 1 174.7946 19.9400 38.1566 -21.8461 -28.0362 -9.5884
# 2 19.9400 50.3646 25.2242 -2.8849 -0.4488 2.2402
# 3 38.1566 25.2242 124.9038 -20.4566 -4.5094 -1.9403
# 4 -21.8461 -2.8849 -20.4566 25.0614 -0.3053 -6.1590
# 5 -28.0362 -0.4488 -4.5094 -0.3053 44.1870 6.3590
# 6 -9.5884 2.2402 -1.9403 -6.1590 6.3590 29.8625
#
#
#
# Elastic Compliance Matrix: (Units=1/GPa)
#
#
# Indices 1 2 3 4 5 6 
#
# 1 0.007904 -0.002559 -0.000540 0.006989 0.004526 0.003173
# 2 -0.002559 0.023113 -0.004687 -0.004259 -0.001402 -0.003440
# 3 -0.000540 -0.004687 0.010509 0.008178 0.000384 0.002466
# 4 0.006989 -0.004259 0.008178 0.055614 0.003625 0.013793
# 5 0.004526 -0.001402 0.000384 0.003625 0.026014 -0.003209
# 6 0.003173 -0.003440 0.002466 0.013793 -0.003209 0.038452
#
#
# Mechanical properties :
#
#
# Convention : Reuss Voigt Hill
#
# Bulk Modulus (GPa) = 38.53196 57.41164 47.97180
# Shear Modulus (GPa) = 26.90607 37.60499 32.25553
#
# Velocity S-wave (km/s) = 3.31151 3.91493 3.62580
# Velocity P-wave (km/s) = 5.50690 6.62079 6.08937
#
# Compressibility (1/GPa) = 0.02595248
#
# Stress axis : x y z
#
# Youngs Moduli (GPa) = 126.51127 43.26653 95.15211
#
# Poissons Ratio (x) = 0.11073 0.05143
# Poissons Ratio (y) = 0.32377 0.44601
# Poissons Ratio (z) = 0.06838 0.20280
#
# Static dielectric constant tensor:
#      x y z
#    x 2.043970 0.017920 0.024330 
#    y 0.017920 1.976620 0.019680 
#    z 0.024330 0.019680 1.991710 
# 
# From -- ./inp_files/468057.got.cif
#   From: 2010.05.17/outbox.cif.g08.bks.cpg/sg2_235_cif.got.tgz:468057.got - 2010.06.03 11:33:40.
