data_PCOD9086149
_publ_section_title
;
Structure prediction by ZEFSAII (Michael W. Deem and Ramdas Pophale) SiO2 
 PCOD9086149
Probable space group: P -1
;
_chemical_formula_sum "Si O2"
_cell_formula_units_Z 12
_cell_length_a 7.187477
_cell_length_b 5.260269
_cell_length_c 14.088958
_cell_angle_alpha 91.043445
_cell_angle_beta 72.869121
_cell_angle_gamma 84.516936
_cell_volume 506.112568
_symmetry_space_group_name_H-M "P -1"
_symmetry_group_IT_number 2
_symmetry_cell_setting 'triclinic'
loop_
_space_group_symop_operation_xyz
x,y,z
-x,-y,-z
loop_
_atom_site_type_symbol
_atom_site_label
_atom_site_fract_x
_atom_site_fract_y
_atom_site_fract_z
Si Si1 0.790076 0.743289 0.353485
Si Si2 0.238401 0.856445 0.970334
Si Si3 0.627968 0.034525 0.854455
Si Si4 0.840690 0.034186 0.637922
Si Si5 0.748427 0.652529 0.138003
Si Si6 0.760239 0.248945 0.461901
O O1 0.773535 0.667433 0.246545
O O2 0.711318 0.531895 0.432185
O O3 0.019392 0.762137 0.341571
O O4 0.701855 0.032069 0.396089
O O5 0.178957 0.611964 0.923598
O O6 0.477088 0.848238 0.917541
O O7 0.162543 0.114545 0.927606
O O8 0.227330 0.892136 0.084964
O O9 0.729627 0.932686 0.742633
O O10 0.482453 0.281250 0.848005
O O11 0.708420 0.168268 0.575242
O O12 0.999754 0.810802 0.572614
#
# Coordination Sequence:
#
# PCOD9086149 Si02
#       6
#     2   2   2   2   2   2
#     4  10  19  36  56  77 108 141 170 218 269 305
#     4   9  20  36  56  76 109 140 174 215 261 313
#     4   9  20  36  58  79 103 141 182 213 257 315
#     4   9  20  36  58  79 103 141 182 213 257 315
#     4  10  19  36  56  77 108 141 170 218 269 305
#     4   9  20  36  56  76 109 140 174 215 261 313
#
# _framework density 23.710139000000002
#
# number of rings (size 3 to 8) (size 9 to 14) (size 15 to 20)
#    2.000    0.667    0.000    2.000    0.000    1.333 
#    0.000    3.333    0.000    0.000    0.000    0.000 
#    0.000    0.000    0.000    0.000    0.000    0.000 
#
# Total GULP energy -66936.797208 kJ/mol
# GULP energy per Si atom -5578.066434 kJ/mol
# Density = 2.365617 g / cm^3
# Si number density = 23.710139 Si / 1000 Ang^3
#
#
#
# Elastic Constant Matrix: (Units=GPa)
#
#
# Indices 1 2 3 4 5 6 
#
# 1 56.6500 -0.5123 11.4972 2.0864 15.1414 -0.4331
# 2 -0.5123 96.5008 4.7185 7.4526 18.0806 22.2457
# 3 11.4972 4.7185 136.5193 -1.2805 18.7733 9.1000
# 4 2.0864 7.4526 -1.2805 25.4058 3.1972 1.7525
# 5 15.1414 18.0806 18.7733 3.1972 41.2960 3.3208
# 6 -0.4331 22.2457 9.1000 1.7525 3.3208 16.5474
#
#
#
# Elastic Compliance Matrix: (Units=1/GPa)
#
#
# Indices 1 2 3 4 5 6 
#
# 1 0.019889 0.001539 -0.000730 -0.001202 -0.007581 0.000502
# 2 0.001539 0.016769 0.001639 -0.002617 -0.006697 -0.021784
# 3 -0.000730 0.001639 0.008266 0.000893 -0.003786 -0.006103
# 4 -0.001202 -0.002617 0.000893 0.040574 -0.001886 -0.000922
# 5 -0.007581 -0.006697 -0.003786 -0.001886 0.031410 0.004783
# 6 0.000502 -0.021784 -0.006103 -0.000922 0.004783 0.092225
#
#
# Mechanical properties :
#
#
# Convention : Reuss Voigt Hill
#
# Bulk Modulus (GPa) = 20.07256 35.67519 27.87387
# Shear Modulus (GPa) = 22.64049 34.91430 28.77740
#
# Velocity S-wave (km/s) = 3.09348 3.84154 3.48762
# Velocity P-wave (km/s) = 4.60908 5.89539 5.29147
#
# Compressibility (1/GPa) = 0.04981926
#
# Stress axis : x y z
#
# Youngs Moduli (GPa) = 50.27935 59.63294 120.98284
#
# Poissons Ratio (x) = -0.09177 0.08836
# Poissons Ratio (y) = -0.07737 -0.19832
# Poissons Ratio (z) = 0.03672 -0.09775
#
# Static dielectric constant tensor:
#      x y z
#    x 2.071870 -0.011780 -0.068380 
#    y -0.011780 1.851180 -0.009230 
#    z -0.068380 -0.009230 1.877500 
# 
# From -- ./inp_files/92114.got.cif
#   From: 2010.05.17/outbox.cif.g08.bks.cpg/sg2_47_cif.got.tgz:92114.got - 2010.06.03 11:33:40.
