data_PCOD9086225
_publ_section_title
;
Structure prediction by ZEFSAII (Michael W. Deem and Ramdas Pophale) SiO2 
 PCOD9086225
Probable space group: P -1
;
_chemical_formula_sum "Si O2"
_cell_formula_units_Z 12
_cell_length_a 18.560999
_cell_length_b 19.256729
_cell_length_c 12.851432
_cell_angle_alpha 154.652400
_cell_angle_beta 26.529686
_cell_angle_gamma 164.740884
_cell_volume 506.805765
_symmetry_space_group_name_H-M "P -1"
_symmetry_group_IT_number 2
_symmetry_cell_setting 'triclinic'
loop_
_space_group_symop_operation_xyz
x,y,z
-x,-y,-z
loop_
_atom_site_type_symbol
_atom_site_label
_atom_site_fract_x
_atom_site_fract_y
_atom_site_fract_z
Si Si1 0.418129 0.643554 0.364878
Si Si2 0.431637 0.129477 0.739879
Si Si3 0.176739 0.275950 0.990731
Si Si4 0.028488 0.538705 0.174125
Si Si5 0.360164 0.532103 0.666065
Si Si6 0.219254 0.921259 0.278294
O O1 0.582644 0.868248 0.364268
O O2 0.630709 0.723695 0.275609
O O3 0.180437 0.562443 0.608826
O O4 0.240638 0.362582 0.148422
O O5 0.500000 0.000000 0.500000
O O6 0.685212 0.457533 0.884594
O O7 0.151393 0.977515 0.942785
O O8 0.200126 0.825849 0.287732
O O9 0.815666 0.273849 0.009743
O O10 0.250090 0.575659 0.951422
O O11 0.500000 0.500000 0.500000
O O12 0.083667 0.245880 0.575343
O O13 0.557289 0.784599 0.670424
#
# Coordination Sequence:
#
# PCOD9086225 Si02
#       6
#     2   2   2   2   2   2
#     4   9  20  35  57  82 107 146 184 226 265 321
#     4  10  19  36  57  76 111 145 174 225 279 319
#     4   9  20  36  55  79 107 145 182 221 270 319
#     4   9  20  35  57  82 107 146 184 226 265 321
#     4  10  19  36  57  76 111 145 174 225 279 319
#     4   9  20  36  55  79 107 145 182 221 270 319
#
# _framework density 23.677710000000001
#
# number of rings (size 3 to 8) (size 9 to 14) (size 15 to 20)
#    2.000    0.667    0.000    2.000    0.000    1.333 
#    0.000    3.333    0.000    0.000    0.000    0.000 
#    0.000    0.000    0.000    0.000    0.000    0.000 
#
# Total GULP energy -66866.819290 kJ/mol
# GULP energy per Si atom -5572.234941 kJ/mol
# Density = 2.362382 g / cm^3
# Si number density = 23.677710 Si / 1000 Ang^3
#
#
#
# Elastic Constant Matrix: (Units=GPa)
#
#
# Indices 1 2 3 4 5 6 
#
# 1 40.4416 20.5950 40.9518 -8.0571 -31.2518 -9.9264
# 2 20.5950 155.4918 45.8613 -32.6522 -14.6759 -23.2953
# 3 40.9518 45.8613 151.5549 -24.3438 -38.4980 -17.3133
# 4 -8.0571 -32.6522 -24.3438 34.0428 4.3389 -4.0302
# 5 -31.2518 -14.6759 -38.4980 4.3389 50.1823 2.4154
# 6 -9.9264 -23.2953 -17.3133 -4.0302 2.4154 20.6676
#
#
#
# Elastic Compliance Matrix: (Units=1/GPa)
#
#
# Indices 1 2 3 4 5 6 
#
# 1 0.065026 0.003840 -0.003426 0.015755 0.036110 0.031541
# 2 0.003840 0.011870 0.000929 0.014563 0.004435 0.018324
# 3 -0.003426 0.000929 0.011098 0.008472 0.005452 0.009714
# 4 0.015755 0.014563 0.008472 0.056160 0.013769 0.040421
# 5 0.036110 0.004435 0.005452 0.013769 0.045536 0.024272
# 6 0.031541 0.018324 0.009714 0.040421 0.024272 0.097371
#
#
# Mechanical properties :
#
#
# Convention : Reuss Voigt Hill
#
# Bulk Modulus (GPa) = 11.02766 62.47827 36.75297
# Shear Modulus (GPa) = 15.89302 36.98390 26.43846
#
# Velocity S-wave (km/s) = 2.59361 3.95647 3.34518
# Velocity P-wave (km/s) = 3.69277 6.87864 5.52052
#
# Compressibility (1/GPa) = 0.09068107
#
# Stress axis : x y z
#
# Youngs Moduli (GPa) = 15.37841 84.24276 90.10354
#
# Poissons Ratio (x) = -0.32347 0.30871
# Poissons Ratio (y) = -0.05905 -0.08374
# Poissons Ratio (z) = 0.05269 -0.07830
#
# Static dielectric constant tensor:
#      x y z
#    x 1.959620 0.065020 0.079800 
#    y 0.065020 1.935000 0.023880 
#    z 0.079800 0.023880 1.944680 
# 
# From -- ./inp_files/579384.got.cif
#   From: 2010.05.17/outbox.cif.g08.bks.cpg/sg2_290_cif.got.tgz:579384.got - 2010.06.03 11:33:40.
