data_PCOD9086300
_publ_section_title
;
Structure prediction by ZEFSAII (Michael W. Deem and Ramdas Pophale) SiO2 
 PCOD9086300
Probable space group: P -1
;
_chemical_formula_sum "Si O2"
_cell_formula_units_Z 16
_cell_length_a 11.455997
_cell_length_b 16.164165
_cell_length_c 9.503494
_cell_angle_alpha 123.629631
_cell_angle_beta 78.309525
_cell_angle_gamma 55.879496
_cell_volume 809.675990
_symmetry_space_group_name_H-M "P -1"
_symmetry_group_IT_number 2
_symmetry_cell_setting 'triclinic'
loop_
_space_group_symop_operation_xyz
x,y,z
-x,-y,-z
loop_
_atom_site_type_symbol
_atom_site_label
_atom_site_fract_x
_atom_site_fract_y
_atom_site_fract_z
Si Si1 0.919323 0.679100 0.326511
Si Si2 0.467063 0.048340 0.716346
Si Si3 0.354872 0.650616 0.060296
Si Si4 0.971955 0.176750 0.486847
Si Si5 0.440343 0.798648 0.055752
Si Si6 0.013121 0.390707 0.089545
Si Si7 0.633856 0.569233 0.529549
Si Si8 0.354392 0.635596 0.499755
O O1 0.015043 0.712012 0.405145
O O2 0.008152 0.514686 0.208956
O O3 0.661624 0.860614 0.571782
O O4 0.971925 0.646954 0.115733
O O5 0.502284 0.140455 0.821985
O O6 0.500000 0.000000 0.500000
O O7 0.216860 0.205705 0.947032
O O8 0.423478 0.716734 0.086280
O O9 0.121572 0.795311 0.313506
O O10 0.500000 0.500000 0.000000
O O11 0.424947 0.549494 0.804238
O O12 0.820018 0.241315 0.462672
O O13 0.205441 0.975864 0.220790
O O14 0.593008 0.667518 0.765857
O O15 0.802277 0.497133 0.313850
O O16 0.413613 0.694342 0.622704
O O17 0.703996 0.414490 0.430249
#
# Coordination Sequence:
#
# PCOD9086300 Si02
#       8
#     2   2   2   2   2   2   2   2
#     4   9  20  37  59  89 113 140 202 243 284 340
#     4   9  20  39  57  85 116 146 192 244 283 332
#     4   9  18  32  58  86 107 144 191 234 286 336
#     4  10  19  36  57  84 115 148 187 243 295 327
#     4  10  21  36  56  84 122 147 188 243 282 351
#     4  10  20  37  63  81 112 158 187 241 294 335
#     4  10  21  38  54  83 114 154 195 226 288 359
#     4   9  20  37  56  80 116 147 191 239 279 350
#
# _framework density 19.76099
#
# number of rings (size 3 to 8) (size 9 to 14) (size 15 to 20)
#    0.000    2.500    0.000    1.125    5.250    1.000 
#    9.000    2.500    0.000    0.000    0.000    0.000 
#    0.000    0.000    0.000    0.000    0.000    0.000 
#
# Total GULP energy -89186.352877 kJ/mol
# GULP energy per Si atom -5574.147055 kJ/mol
# Density = 1.971601 g / cm^3
# Si number density = 19.760990 Si / 1000 Ang^3
#
#
#
# Elastic Constant Matrix: (Units=GPa)
#
#
# Indices 1 2 3 4 5 6 
#
# 1 67.0614 22.3805 38.0298 -4.2057 3.6426 -12.3637
# 2 22.3805 53.1375 29.7303 -3.0602 -3.9352 -2.5400
# 3 38.0298 29.7303 72.8888 3.0790 -6.3480 8.3763
# 4 -4.2057 -3.0602 3.0790 23.3041 1.2568 -6.7313
# 5 3.6426 -3.9352 -6.3480 1.2568 33.5063 -1.8737
# 6 -12.3637 -2.5400 8.3763 -6.7313 -1.8737 23.4660
#
#
#
# Elastic Compliance Matrix: (Units=1/GPa)
#
#
# Indices 1 2 3 4 5 6 
#
# 1 0.036326 0.000551 -0.024454 0.019795 -0.007414 0.033014
# 2 0.000551 0.026638 -0.012570 0.008114 0.000946 0.010063
# 3 -0.024454 -0.012570 0.036873 -0.020794 0.007114 -0.032803
# 4 0.019795 0.008114 -0.020794 0.060922 -0.005423 0.035773
# 5 -0.007414 0.000946 0.007114 -0.005423 0.032015 -0.005342
# 6 0.033014 0.010063 -0.032803 0.035773 -0.005342 0.082643
#
#
# Mechanical properties :
#
#
# Convention : Reuss Voigt Hill
#
# Bulk Modulus (GPa) = 37.18533 41.48544 39.33539
# Shear Modulus (GPa) = 13.99290 22.91841 18.45565
#
# Velocity S-wave (km/s) = 2.66391 3.40925 3.05936
# Velocity P-wave (km/s) = 5.32168 6.04454 5.69459
#
# Compressibility (1/GPa) = 0.02689232
#
# Stress axis : x y z
#
# Youngs Moduli (GPa) = 27.52866 37.54021 27.12021
#
# Poissons Ratio (x) = -0.02069 0.66318
# Poissons Ratio (y) = -0.01517 0.34089
# Poissons Ratio (z) = 0.67317 0.47187
#
# Static dielectric constant tensor:
#      x y z
#    x 1.715930 -0.031110 -0.009030 
#    y -0.031110 1.697370 0.013110 
#    z -0.009030 0.013110 1.728450 
# 
# From -- ./inp_files/274055.got.cif
#   From: 2010.05.17/outbox.cif.g08.bks.cpg/sg2_138_cif.got.tgz:274055.got - 2010.06.03 11:33:40.
