data_PCOD9086026
_publ_section_title
;
Structure prediction by ZEFSAII (Michael W. Deem and Ramdas Pophale) SiO2 
 PCOD9086026
Probable space group: P -1
;
_chemical_formula_sum "Si O2"
_cell_formula_units_Z 12
_cell_length_a 8.211443
_cell_length_b 5.380373
_cell_length_c 14.016459
_cell_angle_alpha 77.144226
_cell_angle_beta 92.955848
_cell_angle_gamma 55.376889
_cell_volume 484.436378
_symmetry_space_group_name_H-M "P -1"
_symmetry_group_IT_number 2
_symmetry_cell_setting 'triclinic'
loop_
_space_group_symop_operation_xyz
x,y,z
-x,-y,-z
loop_
_atom_site_type_symbol
_atom_site_label
_atom_site_fract_x
_atom_site_fract_y
_atom_site_fract_z
Si Si1 0.114806 0.230773 0.826526
Si Si2 0.854275 0.331323 0.112910
Si Si3 0.594734 0.781597 0.894433
Si Si4 0.532135 0.391613 0.796726
Si Si5 0.078733 0.487971 0.397481
Si Si6 0.335813 0.758864 0.399454
O O1 0.021967 0.538814 0.861710
O O2 0.087482 0.334954 0.707001
O O3 0.024257 0.040174 0.862418
O O4 0.349965 0.996822 0.885760
O O5 0.700044 0.411504 0.189290
O O6 0.719177 0.522667 0.001585
O O7 0.608889 0.597981 0.814523
O O8 0.633871 0.046785 0.875621
O O9 0.555151 0.319550 0.692310
O O10 0.175315 0.679317 0.389162
O O11 0.000000 0.500000 0.500000
O O12 0.232245 0.118391 0.400838
O O13 0.500000 0.500000 0.500000
#
# Coordination Sequence:
#
# PCOD9086026 Si02
#       6
#     2   2   2   2   2   2
#     4  10  20  35  62  91 133 161 220 271 330 369
#     4  10  19  35  67  99 128 174 227 265 314 404
#     4  10  19  35  67  99 128 174 227 265 314 404
#     4  10  20  35  62  91 133 161 220 271 330 369
#     4  12  28  46  70  97 137 179 229 280 344 402
#     4  12  28  46  70  97 137 179 229 280 344 402
#
# _framework density 24.771052999999998
#
# number of rings (size 3 to 8) (size 9 to 14) (size 15 to 20)
#    0.000    1.333    0.000    8.000    9.333    0.000 
#    0.000    0.000    0.000   34.000    0.000    0.000 
#    0.000    0.000    0.000    0.000    0.000    0.000 
#
# Total GULP energy -67173.136393 kJ/mol
# GULP energy per Si atom -5597.761366 kJ/mol
# Density = 2.471467 g / cm^3
# Si number density = 24.771053 Si / 1000 Ang^3
#
#
#
# Elastic Constant Matrix: (Units=GPa)
#
#
# Indices 1 2 3 4 5 6 
#
# 1 51.1259 29.3204 1.7067 1.7545 2.2848 16.8661
# 2 29.3204 147.3902 16.9197 6.6076 4.1638 28.7289
# 3 1.7067 16.9197 151.4262 -6.2384 7.9970 -2.0549
# 4 1.7545 6.6076 -6.2384 42.3600 5.6311 -2.8083
# 5 2.2848 4.1638 7.9970 5.6311 29.4021 8.9316
# 6 16.8661 28.7289 -2.0549 -2.8083 8.9316 60.9102
#
#
#
# Elastic Compliance Matrix: (Units=1/GPa)
#
#
# Indices 1 2 3 4 5 6 
#
# 1 0.023255 -0.003673 0.000037 -0.000741 0.000298 -0.004783
# 2 -0.003673 0.008289 -0.001025 -0.001581 0.000633 -0.003093
# 3 0.000037 -0.001025 0.006924 0.001570 -0.002385 0.001129
# 4 -0.000741 -0.001581 0.001570 0.025096 -0.005870 0.003022
# 5 0.000298 0.000633 -0.002385 -0.005870 0.037567 -0.006241
# 6 -0.004783 -0.003093 0.001129 0.003022 -0.006241 0.020293
#
#
# Mechanical properties :
#
#
# Convention : Reuss Voigt Hill
#
# Bulk Modulus (GPa) = 34.31094 49.53732 41.92413
# Shear Modulus (GPa) = 35.59676 46.66751 41.13213
#
# Velocity S-wave (km/s) = 3.79493 4.34516 4.07933
# Velocity P-wave (km/s) = 5.75181 6.72424 6.25694
#
# Compressibility (1/GPa) = 0.02914522
#
# Stress axis : x y z
#
# Youngs Moduli (GPa) = 43.00142 120.64269 144.42638
#
# Poissons Ratio (x) = 0.44314 -0.00536
# Poissons Ratio (y) = 0.15795 0.14808
# Poissons Ratio (z) = -0.00160 0.12369
#
# Static dielectric constant tensor:
#      x y z
#    x 2.049280 0.064430 0.003030 
#    y 0.064430 2.026400 0.035690 
#    z 0.003030 0.035690 1.922880 
# 
# From -- ./inp_files/287614.got.cif
#   From: 2010.05.17/outbox.cif.g08.bks.cpg/sg2_144_cif.got.tgz:287614.got - 2010.06.03 11:33:40.
