data_PCOD9086071
_publ_section_title
;
Structure prediction by ZEFSAII (Michael W. Deem and Ramdas Pophale) SiO2 
 PCOD9086071
Probable space group: P -1
;
_chemical_formula_sum "Si O2"
_cell_formula_units_Z 14
_cell_length_a 8.879103
_cell_length_b 15.659551
_cell_length_c 14.453224
_cell_angle_alpha 57.468796
_cell_angle_beta 97.280903
_cell_angle_gamma 145.467800
_cell_volume 720.058574
_symmetry_space_group_name_H-M "P -1"
_symmetry_group_IT_number 2
_symmetry_cell_setting 'triclinic'
loop_
_space_group_symop_operation_xyz
x,y,z
-x,-y,-z
loop_
_atom_site_type_symbol
_atom_site_label
_atom_site_fract_x
_atom_site_fract_y
_atom_site_fract_z
Si Si1 0.788937 0.425480 0.319824
Si Si2 0.410595 0.565380 0.542394
Si Si3 0.433863 0.312895 0.025443
Si Si4 0.224527 0.227053 0.739823
Si Si5 0.201330 0.485930 0.244777
Si Si6 0.979369 0.133579 0.446323
Si Si7 0.413169 0.528694 0.851123
O O1 0.775234 0.454966 0.407082
O O2 0.831161 0.552238 0.187779
O O3 0.062447 0.504209 0.268486
O O4 0.400053 0.146282 0.427246
O O5 0.193083 0.329622 0.672255
O O6 0.509647 0.641890 0.399620
O O7 0.777888 0.763725 0.511547
O O8 0.545049 0.389870 0.095698
O O9 0.749269 0.477756 0.882671
O O10 0.298301 0.344285 0.969360
O O11 0.134345 0.048975 0.142223
O O12 0.417242 0.313059 0.799472
O O13 0.960475 0.243395 0.391337
O O14 0.212772 0.254991 0.301094
#
# Coordination Sequence:
#
# PCOD9086071 Si02
#       7
#     2   2   2   2   2   2   2
#     4  11  19  33  51  76 105 126 159 213 250 285
#     4   9  19  33  56  77  92 126 176 204 238 292
#     4  10  19  36  53  71  99 134 167 203 239 290
#     4  10  19  36  53  71  99 134 167 203 239 290
#     4  10  22  31  48  77 106 133 160 194 252 304
#     4   9  17  34  54  75  97 129 166 207 247 283
#     4   9  19  33  56  77  92 126 176 204 238 292
#
# _framework density 19.442862999999999
#
# number of rings (size 3 to 8) (size 9 to 14) (size 15 to 20)
#    0.000    2.286    0.000    5.143    0.000    1.143 
#    0.000    2.857    0.000    0.000    0.000    0.000 
#    0.000    0.000    0.000    0.000    0.000    0.000 
#
# Total GULP energy -78128.061883 kJ/mol
# GULP energy per Si atom -5580.575849 kJ/mol
# Density = 1.939861 g / cm^3
# Si number density = 19.442863 Si / 1000 Ang^3
#
#
#
# Elastic Constant Matrix: (Units=GPa)
#
#
# Indices 1 2 3 4 5 6 
#
# 1 66.0574 -9.4887 -1.2641 3.8645 -6.3809 -22.1931
# 2 -9.4887 55.0765 9.9118 7.2272 -3.7176 -22.9622
# 3 -1.2641 9.9118 27.6228 4.2577 5.8337 -2.0801
# 4 3.8645 7.2272 4.2577 41.4864 -13.8756 2.0107
# 5 -6.3809 -3.7176 5.8337 -13.8756 17.1008 3.7928
# 6 -22.1931 -22.9622 -2.0801 2.0107 3.7928 25.0504
#
#
#
# Elastic Compliance Matrix: (Units=1/GPa)
#
#
# Indices 1 2 3 4 5 6 
#
# 1 0.066508 0.066458 -0.006498 -0.025006 -0.005913 0.122203
# 2 0.066458 0.099605 -0.014281 -0.032488 -0.008962 0.152958
# 3 -0.006498 -0.014281 0.048050 -0.010963 -0.028680 -0.009635
# 4 -0.025006 -0.032488 -0.010963 0.050438 0.042311 -0.063299
# 5 -0.005913 -0.008962 -0.028680 0.042311 0.106271 -0.035322
# 6 0.122203 0.152958 -0.009635 -0.063299 -0.035322 0.298019
#
#
# Mechanical properties :
#
#
# Convention : Reuss Voigt Hill
#
# Bulk Modulus (GPa) = 3.27311 16.34164 9.80737
# Shear Modulus (GPa) = 7.35972 26.70069 17.03021
#
# Velocity S-wave (km/s) = 1.94770 3.70981 2.96279
# Velocity P-wave (km/s) = 2.59714 5.17431 4.09381
#
# Compressibility (1/GPa) = 0.30552023
#
# Stress axis : x y z
#
# Youngs Moduli (GPa) = 15.03578 10.03969 20.81155
#
# Poissons Ratio (x) = -0.66722 0.13523
# Poissons Ratio (y) = -0.99925 0.29721
# Poissons Ratio (z) = 0.09770 0.14338
#
# Static dielectric constant tensor:
#      x y z
#    x 1.689980 -0.022630 0.012630 
#    y -0.022630 1.667180 0.010090 
#    z 0.012630 0.010090 1.683780 
# 
# From -- ./inp_files/165996.got.cif
#   From: 2010.05.17/outbox.cif.g08.bks.cpg/sg2_83_cif.got.tgz:165996.got - 2010.06.03 11:33:40.
