data_PCOD9086405
_publ_section_title
;
Structure prediction by ZEFSAII (Michael W. Deem and Ramdas Pophale) SiO2 
 PCOD9086405
Probable space group: P -1
;
_chemical_formula_sum "Si O2"
_cell_formula_units_Z 14
_cell_length_a 9.732425
_cell_length_b 11.360287
_cell_length_c 11.165207
_cell_angle_alpha 44.924700
_cell_angle_beta 73.371390
_cell_angle_gamma 56.204818
_cell_volume 712.154195
_symmetry_space_group_name_H-M "P -1"
_symmetry_group_IT_number 2
_symmetry_cell_setting 'triclinic'
loop_
_space_group_symop_operation_xyz
x,y,z
-x,-y,-z
loop_
_atom_site_type_symbol
_atom_site_label
_atom_site_fract_x
_atom_site_fract_y
_atom_site_fract_z
Si Si1 0.048416 0.603867 0.015376
Si Si2 0.171164 0.222031 0.595997
Si Si3 0.024141 0.007489 0.686778
Si Si4 0.337921 0.619674 0.537898
Si Si5 0.845211 0.597593 0.291800
Si Si6 0.329966 0.891248 0.540687
Si Si7 0.638735 0.765496 0.696478
O O1 0.235431 0.441197 0.128854
O O2 0.927469 0.650019 0.126407
O O3 0.000000 0.500000 0.000000
O O4 0.037587 0.801628 0.837858
O O5 0.228970 0.247987 0.692788
O O6 0.292039 0.218366 0.463751
O O7 0.125451 0.053727 0.727707
O O8 0.995139 0.408631 0.459355
O O9 0.830086 0.183054 0.610889
O O10 0.134486 0.996178 0.551370
O O11 0.500000 0.500000 0.500000
O O12 0.274688 0.470358 0.684229
O O13 0.381267 0.707949 0.576467
O O14 0.454039 0.810410 0.682773
O O15 0.354451 0.062638 0.358243
#
# Coordination Sequence:
#
# PCOD9086405 Si02
#       7
#     2   2   2   2   2   2   2
#     4  11  21  35  55  84 119 149 180 223 286 342
#     4   8  16  34  54  78 104 138 190 226 266 320
#     4  10  21  35  56  83 113 149 184 229 280 334
#     4  11  21  35  58  83 110 146 192 237 274 325
#     4   9  18  33  54  75 107 147 179 225 274 322
#     4  10  19  36  58  83 110 145 195 232 269 325
#     4   9  19  34  59  84 108 145 186 235 274 323
#
# _framework density 19.658664000000002
#
# number of rings (size 3 to 8) (size 9 to 14) (size 15 to 20)
#    0.000    2.286    0.000    3.857    0.000    2.286 
#    0.000    0.714    0.000    0.000    0.000    0.000 
#    0.000    0.000    0.000    0.000    0.000    0.000 
#
# Total GULP energy -77956.313273 kJ/mol
# GULP energy per Si atom -5568.308091 kJ/mol
# Density = 1.961392 g / cm^3
# Si number density = 19.658664 Si / 1000 Ang^3
#
#
#
# Elastic Constant Matrix: (Units=GPa)
#
#
# Indices 1 2 3 4 5 6 
#
# 1 99.8858 44.7773 32.4561 -13.8521 -7.2075 0.9177
# 2 44.7773 102.9512 14.7529 -9.6665 0.0270 11.0450
# 3 32.4561 14.7529 55.3271 -18.5542 -6.2205 4.3570
# 4 -13.8521 -9.6665 -18.5542 25.2428 4.0957 2.2919
# 5 -7.2075 0.0270 -6.2205 4.0957 23.0664 -10.3752
# 6 0.9177 11.0450 4.3570 2.2919 -10.3752 49.1261
#
#
#
# Elastic Compliance Matrix: (Units=1/GPa)
#
#
# Indices 1 2 3 4 5 6 
#
# 1 0.015217 -0.005869 -0.007111 0.000005 0.003969 0.002504
# 2 -0.005869 0.012857 0.001035 0.003450 -0.003919 -0.003861
# 3 -0.007111 0.001035 0.028128 0.017327 0.000835 -0.003227
# 4 0.000005 0.003450 0.017327 0.055606 -0.008188 -0.006636
# 5 0.003969 -0.003919 0.000835 -0.008188 0.051689 0.012031
# 6 0.002504 -0.003861 -0.003227 -0.006636 0.012031 0.024314
#
#
# Mechanical properties :
#
#
# Convention : Reuss Voigt Hill
#
# Bulk Modulus (GPa) = 30.94763 49.12630 40.03696
# Shear Modulus (GPa) = 22.47487 30.56560 26.52023
#
# Velocity S-wave (km/s) = 3.38487 3.94739 3.67691
# Velocity P-wave (km/s) = 5.57254 6.76903 6.19972
#
# Compressibility (1/GPa) = 0.03231265
#
# Stress axis : x y z
#
# Youngs Moduli (GPa) = 65.71623 77.78015 35.55120
#
# Poissons Ratio (x) = 0.45646 0.25281
# Poissons Ratio (y) = 0.38566 -0.03679
# Poissons Ratio (z) = 0.46731 -0.08049
#
# Static dielectric constant tensor:
#      x y z
#    x 1.744530 0.013750 0.012360 
#    y 0.013750 1.781080 -0.013200 
#    z 0.012360 -0.013200 1.660020 
# 
# From -- ./inp_files/270511.got.cif
#   From: 2010.05.17/outbox.cif.g08.bks.cpg/sg2_136_cif.got.tgz:270511.got - 2010.06.03 11:33:40.
