data_PCOD9086599
_publ_section_title
;
Structure prediction by ZEFSAII (Michael W. Deem and Ramdas Pophale) SiO2 
 PCOD9086599
Probable space group: P -1
;
_chemical_formula_sum "Si O2"
_cell_formula_units_Z 14
_cell_length_a 9.872478
_cell_length_b 8.083104
_cell_length_c 8.117148
_cell_angle_alpha 83.637916
_cell_angle_beta 79.400325
_cell_angle_gamma 58.238677
_cell_volume 541.275204
_symmetry_space_group_name_H-M "P -1"
_symmetry_group_IT_number 2
_symmetry_cell_setting 'triclinic'
loop_
_space_group_symop_operation_xyz
x,y,z
-x,-y,-z
loop_
_atom_site_type_symbol
_atom_site_label
_atom_site_fract_x
_atom_site_fract_y
_atom_site_fract_z
Si Si1 0.697486 0.840712 0.100501
Si Si2 0.458871 0.146431 0.344328
Si Si3 0.056984 0.086251 0.123771
Si Si4 0.208750 0.556056 0.003507
Si Si5 0.780334 0.564461 0.409937
Si Si6 0.842074 0.266533 0.660764
Si Si7 0.458580 0.530552 0.727265
O O1 0.792272 0.706142 0.257556
O O2 0.524167 0.005374 0.188099
O O3 0.778334 0.942605 0.978488
O O4 0.721514 0.671078 0.993340
O O5 0.279928 0.311937 0.418799
O O6 0.552877 0.264049 0.321990
O O7 0.500000 0.000000 0.500000
O O8 0.076622 0.961877 0.294877
O O9 0.927338 0.317275 0.117587
O O10 0.000000 0.000000 0.000000
O O11 0.136604 0.646324 0.183707
O O12 0.362163 0.568168 0.914951
O O13 0.894091 0.349949 0.487121
O O14 0.638260 0.536992 0.362008
O O15 0.646415 0.364775 0.692409
#
# Coordination Sequence:
#
# PCOD9086599 Si02
#       7
#     2   2   2   2   2   2   2
#     4  10  20  37  57  80 114 154 187 226 283 340
#     4   9  16  29  52  80 108 142 181 224 274 327
#     4  10  21  38  59  82 112 151 190 232 280 334
#     4  10  21  36  57  83 115 152 187 230 280 335
#     4   9  20  37  59  85 115 147 186 237 286 329
#     4  10  19  36  59  86 112 146 190 235 278 331
#     4  10  19  37  59  84 114 150 187 234 284 332
#
# _framework density 25.864849
#
# number of rings (size 3 to 8) (size 9 to 14) (size 15 to 20)
#    0.000    2.286    0.000    4.286    0.000    1.143 
#    0.000   25.714    0.000    3.429    0.000    0.000 
#    0.000    0.000    0.000    0.000    0.000    0.000 
#
# Total GULP energy -78044.926175 kJ/mol
# GULP energy per Si atom -5574.637584 kJ/mol
# Density = 2.580598 g / cm^3
# Si number density = 25.864849 Si / 1000 Ang^3
#
#
#
# Elastic Constant Matrix: (Units=GPa)
#
#
# Indices 1 2 3 4 5 6 
#
# 1 52.4112 4.4606 4.4411 -6.7771 -4.6454 4.6411
# 2 4.4606 155.3375 28.1688 -11.2079 12.9980 -1.5078
# 3 4.4411 28.1688 97.7534 -22.6914 6.4913 -0.3777
# 4 -6.7771 -11.2079 -22.6914 56.6641 -0.9212 -0.1220
# 5 -4.6454 12.9980 6.4913 -0.9212 14.8666 -12.9493
# 6 4.6411 -1.5078 -0.3777 -0.1220 -12.9493 35.3608
#
#
#
# Elastic Compliance Matrix: (Units=1/GPa)
#
#
# Indices 1 2 3 4 5 6 
#
# 1 0.020153 -0.000946 -0.000667 0.002081 0.007644 0.000114
# 2 -0.000946 0.007450 -0.001398 0.000657 -0.008494 -0.002681
# 3 -0.000667 -0.001398 0.012043 0.004371 -0.005616 -0.001885
# 4 0.002081 0.000657 0.004371 0.019759 -0.001060 -0.000518
# 5 0.007644 -0.008494 -0.005616 -0.001060 0.114858 0.040632
# 6 0.000114 -0.002681 -0.001885 -0.000518 0.040632 0.043008
#
#
# Mechanical properties :
#
#
# Convention : Reuss Voigt Hill
#
# Bulk Modulus (GPa) = 29.73988 42.18258 35.96123
# Shear Modulus (GPa) = 21.32172 39.27374 30.29773
#
# Velocity S-wave (km/s) = 2.87427 3.90092 3.42627
# Velocity P-wave (km/s) = 4.74746 6.05259 5.43931
#
# Compressibility (1/GPa) = 0.03362488
#
# Stress axis : x y z
#
# Youngs Moduli (GPa) = 49.61937 134.22186 83.03430
#
# Poissons Ratio (x) = 0.12699 0.05540
# Poissons Ratio (y) = 0.04695 0.11606
# Poissons Ratio (z) = 0.03310 0.18761
#
# Static dielectric constant tensor:
#      x y z
#    x 1.625400 -0.061910 -0.110320 
#    y -0.061910 2.111250 -0.004250 
#    z -0.110320 -0.004250 2.088610 
# 
# From -- ./inp_files/238430.got.cif
#   From: 2010.05.17/outbox.cif.g08.bks.cpg/sg2_120_cif.got.tgz:238430.got - 2010.06.03 11:33:40.
