data_PCOD9086917
_publ_section_title
;
Structure prediction by ZEFSAII (Michael W. Deem and Ramdas Pophale) SiO2 
 PCOD9086917
Probable space group: P -1
;
_chemical_formula_sum "Si O2"
_cell_formula_units_Z 14
_cell_length_a 9.653075
_cell_length_b 16.870745
_cell_length_c 9.007756
_cell_angle_alpha 116.059447
_cell_angle_beta 31.157832
_cell_angle_gamma 128.181173
_cell_volume 581.934568
_symmetry_space_group_name_H-M "P -1"
_symmetry_group_IT_number 2
_symmetry_cell_setting 'triclinic'
loop_
_space_group_symop_operation_xyz
x,y,z
-x,-y,-z
loop_
_atom_site_type_symbol
_atom_site_label
_atom_site_fract_x
_atom_site_fract_y
_atom_site_fract_z
Si Si1 0.495099 0.005459 0.333088
Si Si2 0.147014 0.928237 0.323309
Si Si3 0.356726 0.636891 0.990521
Si Si4 0.827394 0.868756 0.290417
Si Si5 0.193953 0.407625 0.030020
Si Si6 0.766957 0.622402 0.364118
Si Si7 0.569097 0.318099 0.712635
O O1 0.425960 0.096514 0.432468
O O2 0.500000 0.000000 0.500000
O O3 0.217550 0.911086 0.413546
O O4 0.841195 0.035287 0.991312
O O5 0.934454 0.842631 0.326155
O O6 0.000000 0.000000 0.500000
O O7 0.500000 0.000000 0.000000
O O8 0.606662 0.666524 0.655013
O O9 0.251097 0.520238 0.039522
O O10 0.457652 0.700500 0.102904
O O11 0.064864 0.637389 0.190201
O O12 0.691124 0.780540 0.220282
O O13 0.903389 0.349766 0.361809
O O14 0.134989 0.352997 0.878080
O O15 0.493462 0.407622 0.820127
O O16 0.500000 0.500000 0.500000
#
# Coordination Sequence:
#
# PCOD9086917 Si02
#       7
#     2   2   2   2   2   2   2
#     4  10  19  36  61  83 105 141 185 225 267 339
#     4   8  16  32  55  76 102 136 172 209 261 328
#     4  11  21  37  58  82 112 153 195 237 283 329
#     4  10  21  37  54  82 114 144 176 225 288 330
#     4  11  21  37  57  81 108 154 202 230 272 340
#     4  10  20  37  58  78 105 143 194 246 281 325
#     4  12  23  36  56  84 119 149 185 242 284 329
#
# _framework density 24.057687999999999
#
# number of rings (size 3 to 8) (size 9 to 14) (size 15 to 20)
#    0.000    1.714    0.000    7.286    0.000    0.000 
#    0.000    4.286    0.000    0.000    0.000    0.000 
#    0.000    0.000    0.000    0.000    0.000    0.000 
#
# Total GULP energy -78189.407064 kJ/mol
# GULP energy per Si atom -5584.957647 kJ/mol
# Density = 2.400293 g / cm^3
# Si number density = 24.057688 Si / 1000 Ang^3
#
#
#
# Elastic Constant Matrix: (Units=GPa)
#
#
# Indices 1 2 3 4 5 6 
#
# 1 193.5363 39.1826 57.9588 58.3539 20.9876 33.8361
# 2 39.1826 56.1826 22.2863 15.9307 12.1120 33.9098
# 3 57.9588 22.2863 170.4722 33.7447 2.4146 5.3707
# 4 58.3539 15.9307 33.7447 128.8851 18.5000 -35.1489
# 5 20.9876 12.1120 2.4146 18.5000 50.1407 4.8333
# 6 33.8361 33.9098 5.3707 -35.1489 4.8333 60.0952
#
#
#
# Elastic Compliance Matrix: (Units=1/GPa)
#
#
# Indices 1 2 3 4 5 6 
#
# 1 0.009042 0.002628 -0.001776 -0.006606 -0.000913 -0.010205
# 2 0.002628 0.041126 -0.002408 -0.014149 -0.002561 -0.032540
# 3 -0.001776 -0.002408 0.006814 -0.000446 0.001026 0.001406
# 4 -0.006606 -0.014149 -0.000446 0.019455 -0.003228 0.023382
# 5 -0.000913 -0.002561 0.001026 -0.003228 0.022261 -0.001811
# 6 -0.010205 -0.032540 0.001406 0.023382 -0.001811 0.054443
#
#
# Mechanical properties :
#
#
# Convention : Reuss Voigt Hill
#
# Bulk Modulus (GPa) = 18.56309 73.22739 45.89524
# Shear Modulus (GPa) = 28.70137 67.87509 48.28823
#
# Velocity S-wave (km/s) = 3.45776 5.31740 4.48502
# Velocity P-wave (km/s) = 4.86563 8.25857 6.77784
#
# Compressibility (1/GPa) = 0.05387033
#
# Stress axis : x y z
#
# Youngs Moduli (GPa) = 110.60100 24.31578 146.75563
#
# Poissons Ratio (x) = -0.06390 0.26057
# Poissons Ratio (y) = -0.29064 0.35333
# Poissons Ratio (z) = 0.19638 0.05854
#
# Static dielectric constant tensor:
#      x y z
#    x 1.956350 0.033470 0.066460 
#    y 0.033470 1.983600 0.050510 
#    z 0.066460 0.050510 1.873150 
# 
# From -- ./inp_files/106340.got.cif
#   From: 2010.05.17/outbox.cif.g08.bks.cpg/sg2_54_cif.got.tgz:106340.got - 2010.06.03 11:33:40.
