data_PCOD9086553
_publ_section_title
;
Structure prediction by ZEFSAII (Michael W. Deem and Ramdas Pophale) SiO2 
 PCOD9086553
Probable space group: P -1
;
_chemical_formula_sum "Si O2"
_cell_formula_units_Z 16
_cell_length_a 17.843248
_cell_length_b 20.891541
_cell_length_c 8.654606
_cell_angle_alpha 41.578438
_cell_angle_beta 126.213325
_cell_angle_gamma 158.877068
_cell_volume 690.053009
_symmetry_space_group_name_H-M "P -1"
_symmetry_group_IT_number 2
_symmetry_cell_setting 'triclinic'
loop_
_space_group_symop_operation_xyz
x,y,z
-x,-y,-z
loop_
_atom_site_type_symbol
_atom_site_label
_atom_site_fract_x
_atom_site_fract_y
_atom_site_fract_z
Si Si1 0.520495 0.440439 0.417517
Si Si2 0.763756 0.328987 0.471577
Si Si3 0.511480 0.807439 0.054891
Si Si4 0.605291 0.373434 0.056874
Si Si5 0.634551 0.996995 0.186377
Si Si6 0.626268 0.763136 0.698800
Si Si7 0.150747 0.218993 0.532149
Si Si8 0.903899 0.472667 0.067848
O O1 0.482369 0.293686 0.688477
O O2 0.534173 0.445183 0.242496
O O3 0.294069 0.281554 0.487948
O O4 0.742459 0.690251 0.330086
O O5 0.746465 0.427644 0.228238
O O6 0.574351 0.149558 0.705132
O O7 0.745767 0.273776 0.370337
O O8 0.000000 0.500000 0.500000
O O9 0.612869 0.972003 0.017021
O O10 0.579664 0.856185 0.868600
O O11 0.253946 0.601122 0.080953
O O12 0.475724 0.324269 0.098287
O O13 0.777681 0.605610 0.752763
O O14 0.640327 0.889744 0.437004
O O15 0.872342 0.270111 0.040017
O O16 0.877468 0.954212 0.662326
O O17 0.000000 0.500000 0.000000
#
# Coordination Sequence:
#
# PCOD9086553 Si02
#       8
#     2   2   2   2   2   2   2   2
#     4   9  19  34  57  84 112 150 189 228 279 337
#     4  10  21  37  57  85 113 144 189 230 272 335
#     4   9  19  39  57  80 116 147 187 233 275 333
#     4   9  20  37  57  84 113 146 192 233 275 337
#     4  10  21  39  61  81 111 151 184 230 284 328
#     4  10  19  36  59  82 111 149 190 229 278 334
#     4  10  19  37  57  80 118 150 182 236 284 322
#     4  11  23  39  61  86 113 148 187 229 281 336
#
# _framework density 23.186624999999999
#
# number of rings (size 3 to 8) (size 9 to 14) (size 15 to 20)
#    0.000    2.250    0.000    3.375    0.000    3.000 
#    0.000   21.875    0.000    0.000    0.000    0.000 
#    0.000    0.000    0.000    0.000    0.000    0.000 
#
# Total GULP energy -89164.750229 kJ/mol
# GULP energy per Si atom -5572.796889 kJ/mol
# Density = 2.313385 g / cm^3
# Si number density = 23.186625 Si / 1000 Ang^3
#
#
#
# Elastic Constant Matrix: (Units=GPa)
#
#
# Indices 1 2 3 4 5 6 
#
# 1 150.4425 71.9668 26.6833 18.3821 -22.3006 -23.9305
# 2 71.9668 134.7311 40.3837 6.6748 -6.3240 -6.6172
# 3 26.6833 40.3837 64.2665 14.1859 -8.4288 -7.4552
# 4 18.3821 6.6748 14.1859 21.0192 4.3569 7.6489
# 5 -22.3006 -6.3240 -8.4288 4.3569 32.5801 11.6885
# 6 -23.9305 -6.6172 -7.4552 7.6489 11.6885 48.4887
#
#
#
# Elastic Compliance Matrix: (Units=1/GPa)
#
#
# Indices 1 2 3 4 5 6 
#
# 1 0.013853 -0.007138 0.004595 -0.017422 0.009055 0.007134
# 2 -0.007138 0.012847 -0.008338 0.010030 -0.004629 -0.003518
# 3 0.004595 -0.008338 0.025942 -0.023141 0.008962 0.006609
# 4 -0.017422 0.010030 -0.023141 0.086599 -0.020552 -0.019494
# 5 0.009055 -0.004629 0.008962 -0.020552 0.041626 -0.001577
# 6 0.007134 -0.003518 0.006609 -0.019494 -0.001577 0.028136
#
#
# Mechanical properties :
#
#
# Convention : Reuss Voigt Hill
#
# Bulk Modulus (GPa) = 32.38460 69.72309 51.05384
# Shear Modulus (GPa) = 20.74178 34.44468 27.59323
#
# Velocity S-wave (km/s) = 2.99416 3.85845 3.45345
# Velocity P-wave (km/s) = 5.09417 7.07007 6.16184
#
# Compressibility (1/GPa) = 0.03087888
#
# Stress axis : x y z
#
# Youngs Moduli (GPa) = 72.18829 77.83677 38.54708
#
# Poissons Ratio (x) = 0.55561 -0.17712
# Poissons Ratio (y) = 0.51529 0.32142
# Poissons Ratio (z) = -0.33169 0.64904
#
# Static dielectric constant tensor:
#      x y z
#    x 1.978140 -0.044100 -0.032540 
#    y -0.044100 1.860670 0.053770 
#    z -0.032540 0.053770 1.994140 
# 
# From -- ./inp_files/337600.got.cif
#   From: 2010.05.17/outbox.cif.g08.bks.cpg/sg2_169_cif.got.tgz:337600.got - 2010.06.03 11:33:40.
