data_PCOD9086486
_publ_section_title
;
Structure prediction by ZEFSAII (Michael W. Deem and Ramdas Pophale) SiO2 
 PCOD9086486
Probable space group: P -1
;
_chemical_formula_sum "Si O2"
_cell_formula_units_Z 14
_cell_length_a 9.433965
_cell_length_b 9.698938
_cell_length_c 11.811452
_cell_angle_alpha 141.155819
_cell_angle_beta 53.664215
_cell_angle_gamma 117.332657
_cell_volume 546.038616
_symmetry_space_group_name_H-M "P -1"
_symmetry_group_IT_number 2
_symmetry_cell_setting 'triclinic'
loop_
_space_group_symop_operation_xyz
x,y,z
-x,-y,-z
loop_
_atom_site_type_symbol
_atom_site_label
_atom_site_fract_x
_atom_site_fract_y
_atom_site_fract_z
Si Si1 0.717672 0.636712 0.816841
Si Si2 0.642902 0.168412 0.934912
Si Si3 0.272942 0.498203 0.692105
Si Si4 0.066923 0.132676 0.316820
Si Si5 0.927062 0.251295 0.678510
Si Si6 0.386952 0.702011 0.531091
Si Si7 0.133462 0.102954 0.908903
O O1 0.878970 0.707627 0.706739
O O2 0.635468 0.427558 0.659465
O O3 0.561670 0.821280 0.992230
O O4 0.788162 0.673539 0.934232
O O5 0.750620 0.272751 0.846609
O O6 0.748490 0.941966 0.762103
O O7 0.669988 0.307569 0.126244
O O8 0.077932 0.415504 0.752771
O O9 0.295963 0.575905 0.600675
O O10 0.409805 0.303384 0.532772
O O11 0.934442 0.254276 0.541094
O O12 0.973753 0.918217 0.170357
O O13 0.000000 0.000000 0.500000
O O14 0.294298 0.934180 0.712066
O O15 0.000000 0.000000 0.000000
#
# Coordination Sequence:
#
# PCOD9086486 Si02
#       7
#     2   2   2   2   2   2   2
#     4  10  20  37  60  84 116 150 194 239 283 335
#     4  10  21  35  61  84 112 152 196 237 283 339
#     4  10  19  36  58  89 114 146 196 241 286 333
#     4  10  20  37  55  88 115 151 192 234 293 339
#     4  10  21  35  57  84 118 151 189 237 288 338
#     4  10  21  35  61  91 115 148 193 244 287 336
#     4  10  22  36  56  88 122 150 187 239 294 340
#
# _framework density 25.639209999999999
#
# number of rings (size 3 to 8) (size 9 to 14) (size 15 to 20)
#    0.000    2.000    1.429    2.571    4.000    2.286 
#    2.571    0.714    0.000    1.714    0.000    0.000 
#    0.000    0.000    0.000    0.000    0.000    0.000 
#
# Total GULP energy -78302.348902 kJ/mol
# GULP energy per Si atom -5593.024922 kJ/mol
# Density = 2.558085 g / cm^3
# Si number density = 25.639210 Si / 1000 Ang^3
#
#
#
# Elastic Constant Matrix: (Units=GPa)
#
#
# Indices 1 2 3 4 5 6 
#
# 1 122.3497 11.1528 47.3676 9.5257 10.6252 6.8478
# 2 11.1528 45.4084 6.4939 -14.5146 -4.9404 7.4133
# 3 47.3676 6.4939 125.4769 5.0464 3.2728 7.2335
# 4 9.5257 -14.5146 5.0464 39.7060 8.2381 -7.0878
# 5 10.6252 -4.9404 3.2728 8.2381 50.6047 15.6520
# 6 6.8478 7.4133 7.2335 -7.0878 15.6520 21.7925
#
#
#
# Elastic Compliance Matrix: (Units=1/GPa)
#
#
# Indices 1 2 3 4 5 6 
#
# 1 0.010200 -0.002946 -0.003485 -0.002966 -0.001413 -0.000996
# 2 -0.002946 0.027388 -0.000231 0.008121 0.004808 -0.009126
# 3 -0.003485 -0.000231 0.009512 -0.001348 0.001366 -0.003403
# 4 -0.002966 0.008121 -0.001348 0.033753 -0.008947 0.016021
# 5 -0.001413 0.004808 0.001366 -0.008947 0.029960 -0.026073
# 6 -0.000996 -0.009126 -0.003403 0.016021 -0.026073 0.074371
#
#
# Mechanical properties :
#
#
# Convention : Reuss Voigt Hill
#
# Bulk Modulus (GPa) = 29.60664 47.02931 38.31797
# Shear Modulus (GPa) = 23.83608 37.63535 30.73572
#
# Velocity S-wave (km/s) = 3.05236 3.83545 3.46609
# Velocity P-wave (km/s) = 4.89847 6.16415 5.56740
#
# Compressibility (1/GPa) = 0.03377621
#
# Stress axis : x y z
#
# Youngs Moduli (GPa) = 98.03659 36.51244 105.13281
#
# Poissons Ratio (x) = 0.10757 0.36634
# Poissons Ratio (y) = 0.28883 0.02431
# Poissons Ratio (z) = 0.34162 0.00844
#
# Static dielectric constant tensor:
#      x y z
#    x 2.093440 -0.103970 0.032660 
#    y -0.103970 2.069430 0.025360 
#    z 0.032660 0.025360 2.043270 
# 
# From -- ./inp_files/158847.got.cif
#   From: 2010.05.17/outbox.cif.g08.bks.cpg/sg2_80_cif.got.tgz:158847.got - 2010.06.03 11:33:40.
