data_PCOD9086075
_publ_section_title
;
Structure prediction by ZEFSAII (Michael W. Deem and Ramdas Pophale) SiO2 
 PCOD9086075
Probable space group: P -1
;
_chemical_formula_sum "Si O2"
_cell_formula_units_Z 12
_cell_length_a 13.608518
_cell_length_b 7.171568
_cell_length_c 10.506748
_cell_angle_alpha 52.119530
_cell_angle_beta 44.190831
_cell_angle_gamma 39.815000
_cell_volume 453.045348
_symmetry_space_group_name_H-M "P -1"
_symmetry_group_IT_number 2
_symmetry_cell_setting 'triclinic'
loop_
_space_group_symop_operation_xyz
x,y,z
-x,-y,-z
loop_
_atom_site_type_symbol
_atom_site_label
_atom_site_fract_x
_atom_site_fract_y
_atom_site_fract_z
Si Si1 0.576708 0.766796 0.843226
Si Si2 0.179665 0.564613 0.455820
Si Si3 0.751194 0.327983 0.214825
Si Si4 0.396291 0.745399 0.264002
Si Si5 0.001876 0.672876 0.190686
Si Si6 0.716882 0.773579 0.260366
O O1 0.751863 0.499949 0.724004
O O2 0.613943 0.991998 0.767910
O O3 0.431536 0.940657 0.794828
O O4 0.479710 0.711505 0.062627
O O5 0.307593 0.277872 0.548855
O O6 0.217398 0.780803 0.391697
O O7 0.008960 0.572662 0.631292
O O8 0.449516 0.545010 0.679680
O O9 0.754528 0.502860 0.255873
O O10 0.886130 0.977505 0.248178
O O11 0.815634 0.410074 0.995020
O O12 0.892707 0.752004 0.125512
#
# Coordination Sequence:
#
# PCOD9086075 Si02
#       6
#     2   2   2   2   2   2
#     4  10  20  36  51  81 108 134 172 213 261 309
#     4  10  21  32  55  82 102 133 177 218 253 298
#     4  10  19  36  53  78 107 138 170 209 266 308
#     4  10  22  34  56  76 106 142 168 212 261 308
#     4   9  21  33  53  81 104 135 172 218 255 302
#     4   9  20  32  58  77 103 133 175 216 254 300
#
# _framework density 26.487414999999999
#
# number of rings (size 3 to 8) (size 9 to 14) (size 15 to 20)
#    1.000    1.333    0.000    2.500    4.667    1.333 
#    0.000    0.833    0.000    9.000    0.000    0.000 
#    0.000    0.000    0.000    0.000    0.000    0.000 
#
# Total GULP energy -67049.434807 kJ/mol
# GULP energy per Si atom -5587.452901 kJ/mol
# Density = 2.642713 g / cm^3
# Si number density = 26.487415 Si / 1000 Ang^3
#
#
#
# Elastic Constant Matrix: (Units=GPa)
#
#
# Indices 1 2 3 4 5 6 
#
# 1 67.5082 14.3198 9.7324 2.5540 -12.9764 -3.1037
# 2 14.3198 75.4779 5.7946 -7.1905 -9.4493 0.0316
# 3 9.7324 5.7946 86.7748 -5.5482 -12.4226 -1.8193
# 4 2.5540 -7.1905 -5.5482 25.2398 16.9975 -2.7482
# 5 -12.9764 -9.4493 -12.4226 16.9975 52.6320 -4.9888
# 6 -3.1037 0.0316 -1.8193 -2.7482 -4.9888 30.4171
#
#
#
# Elastic Compliance Matrix: (Units=1/GPa)
#
#
# Indices 1 2 3 4 5 6 
#
# 1 0.017062 -0.003049 -0.001274 -0.006449 0.005632 0.002009
# 2 -0.003049 0.014290 -0.000288 0.004019 0.000457 0.000095
# 3 -0.001274 -0.000288 0.012104 0.001378 0.002148 0.001071
# 4 -0.006449 0.004019 0.001378 0.053862 -0.017809 0.001366
# 5 0.005632 0.000457 0.002148 -0.017809 0.027063 0.003532
# 6 0.002009 0.000095 0.001071 0.001366 0.003532 0.033848
#
#
# Mechanical properties :
#
#
# Convention : Reuss Voigt Hill
#
# Bulk Modulus (GPa) = 29.21118 32.16160 30.68639
# Shear Modulus (GPa) = 27.95426 34.98538 31.46982
#
# Velocity S-wave (km/s) = 3.25218 3.63827 3.45063
# Velocity P-wave (km/s) = 5.01543 5.46058 5.24273
#
# Compressibility (1/GPa) = 0.03423346
#
# Stress axis : x y z
#
# Youngs Moduli (GPa) = 58.60829 69.98106 82.61585
#
# Poissons Ratio (x) = 0.21341 0.10525
# Poissons Ratio (y) = 0.17873 0.02378
# Poissons Ratio (z) = 0.07467 0.02014
#
# Static dielectric constant tensor:
#      x y z
#    x 2.097020 -0.014620 -0.035500 
#    y -0.014620 2.042260 -0.013350 
#    z -0.035500 -0.013350 2.112180 
# 
# From -- ./inp_files/440885.got.cif
#   From: 2010.05.17/outbox.cif.g08.bks.cpg/sg2_221_cif.got.tgz:440885.got - 2010.06.03 11:33:40.
