data_PCOD9086174
_publ_section_title
;
Structure prediction by ZEFSAII (Michael W. Deem and Ramdas Pophale) SiO2 
 PCOD9086174
Probable space group: P -1
;
_chemical_formula_sum "Si O2"
_cell_formula_units_Z 16
_cell_length_a 16.500533
_cell_length_b 7.738536
_cell_length_c 23.035423
_cell_angle_alpha 41.068140
_cell_angle_beta 27.020253
_cell_angle_gamma 27.681039
_cell_volume 612.197435
_symmetry_space_group_name_H-M "P -1"
_symmetry_group_IT_number 2
_symmetry_cell_setting 'triclinic'
loop_
_space_group_symop_operation_xyz
x,y,z
-x,-y,-z
loop_
_atom_site_type_symbol
_atom_site_label
_atom_site_fract_x
_atom_site_fract_y
_atom_site_fract_z
Si Si1 0.264157 0.117495 0.703325
Si Si2 0.705390 0.537026 0.986200
Si Si3 0.652486 0.807601 0.233991
Si Si4 0.814827 0.595041 0.022956
Si Si5 0.257900 0.804740 0.616557
Si Si6 0.268600 0.750497 0.148350
Si Si7 0.785062 0.563267 0.465723
Si Si8 0.686835 0.868078 0.727456
O O1 0.321093 0.140000 0.728177
O O2 0.228359 0.379676 0.609505
O O3 0.980503 0.288630 0.843434
O O4 0.526147 0.700304 0.619297
O O5 0.771444 0.445438 0.034625
O O6 0.530122 0.501561 0.079087
O O7 0.500000 0.000000 0.000000
O O8 0.714038 0.431381 0.289571
O O9 0.884804 0.713878 0.077294
O O10 0.372302 0.124864 0.304361
O O11 0.763551 0.950132 0.943794
O O12 0.590783 0.758313 0.167615
O O13 0.500000 0.500000 0.500000
O O14 0.245365 0.115027 0.566667
O O15 0.986093 0.005786 0.711567
O O16 0.266662 0.471906 0.187980
O O17 0.076272 0.197435 0.391968
#
# Coordination Sequence:
#
# PCOD9086174 Si02
#       8
#     2   2   2   2   2   2   2   2
#     4  10  20  37  54  81 110 148 188 221 271 337
#     4   9  17  31  55  79 106 142 184 229 263 312
#     4  10  21  36  58  82 116 145 180 232 282 323
#     4   9  18  34  55  80 113 148 186 218 274 333
#     4  10  19  36  56  82 107 147 186 225 272 334
#     4   9  19  33  55  84 109 147 184 228 270 327
#     4  10  21  35  60  80 108 149 190 223 270 331
#     4  11  21  35  55  91 112 141 183 235 281 317
#
# _framework density 26.135361
#
# number of rings (size 3 to 8) (size 9 to 14) (size 15 to 20)
#    0.000    2.250    1.250    3.000    0.000    2.500 
#    0.000    3.750    0.000    3.000    0.000    0.000 
#    0.000    0.000    0.000    0.000    0.000    0.000 
#
# Total GULP energy -89285.819304 kJ/mol
# GULP energy per Si atom -5580.363707 kJ/mol
# Density = 2.607588 g / cm^3
# Si number density = 26.135361 Si / 1000 Ang^3
#
#
#
# Elastic Constant Matrix: (Units=GPa)
#
#
# Indices 1 2 3 4 5 6 
#
# 1 120.2277 19.3668 77.1938 17.7631 -24.5899 -26.9227
# 2 19.3668 89.6442 41.2319 10.3938 -15.1169 -14.1352
# 3 77.1938 41.2319 220.2830 47.7129 -31.6718 -6.6870
# 4 17.7631 10.3938 47.7129 43.8422 1.0166 -21.7005
# 5 -24.5899 -15.1169 -31.6718 1.0166 46.1942 16.1735
# 6 -26.9227 -14.1352 -6.6870 -21.7005 16.1735 32.5604
#
#
#
# Elastic Compliance Matrix: (Units=1/GPa)
#
#
# Indices 1 2 3 4 5 6 
#
# 1 0.017221 0.002455 -0.011202 0.020112 -0.008956 0.030858
# 2 0.002455 0.013787 -0.005263 0.008463 -0.002880 0.014006
# 3 -0.011202 -0.005263 0.019075 -0.036418 0.021019 -0.042342
# 4 0.020112 0.008463 -0.036418 0.108767 -0.052969 0.111626
# 5 -0.008956 -0.002880 0.021019 -0.052969 0.054951 -0.066937
# 6 0.030858 0.014006 -0.042342 0.111626 -0.066937 0.161255
#
#
# Mechanical properties :
#
#
# Convention : Reuss Voigt Hill
#
# Bulk Modulus (GPa) = 45.32256 78.41557 61.86907
# Shear Modulus (GPa) = 12.18236 44.01019 28.09628
#
# Velocity S-wave (km/s) = 2.16134 4.10803 3.28232
# Velocity P-wave (km/s) = 4.85877 7.25051 6.17161
#
# Compressibility (1/GPa) = 0.02206407
#
# Stress axis : x y z
#
# Youngs Moduli (GPa) = 58.06916 72.53189 52.42468
#
# Poissons Ratio (x) = -0.17808 0.58724
# Poissons Ratio (y) = -0.14257 0.27591
# Poissons Ratio (z) = 0.65047 0.38174
#
# Static dielectric constant tensor:
#      x y z
#    x 2.153140 0.017040 -0.011110 
#    y 0.017040 2.139310 0.015840 
#    z -0.011110 0.015840 2.099620 
# 
# From -- ./inp_files/178997.got.cif
#   From: 2010.05.17/outbox.cif.g08.bks.cpg/sg2_90_cif.got.tgz:178997.got - 2010.06.03 11:33:40.
