data_PCOD9086421
_publ_section_title
;
Structure prediction by ZEFSAII (Michael W. Deem and Ramdas Pophale) SiO2 
 PCOD9086421
Probable space group: P -1
;
_chemical_formula_sum "Si O2"
_cell_formula_units_Z 14
_cell_length_a 4.966137
_cell_length_b 9.343122
_cell_length_c 12.322968
_cell_angle_alpha 76.942336
_cell_angle_beta 78.872432
_cell_angle_gamma 75.155629
_cell_volume 532.831122
_symmetry_space_group_name_H-M "P -1"
_symmetry_group_IT_number 2
_symmetry_cell_setting 'triclinic'
loop_
_space_group_symop_operation_xyz
x,y,z
-x,-y,-z
loop_
_atom_site_type_symbol
_atom_site_label
_atom_site_fract_x
_atom_site_fract_y
_atom_site_fract_z
Si Si1 0.970372 0.312780 0.418796
Si Si2 0.571451 0.126182 0.391086
Si Si3 0.334950 0.494949 0.775727
Si Si4 0.433405 0.672698 0.929832
Si Si5 0.418730 0.087367 0.764950
Si Si6 0.861987 0.276504 0.677919
Si Si7 0.830777 0.768333 0.033523
O O1 0.848284 0.174442 0.404147
O O2 0.837026 0.450668 0.328410
O O3 0.869092 0.335999 0.545817
O O4 0.305595 0.266136 0.398978
O O5 0.500000 0.000000 0.500000
O O6 0.590488 0.056927 0.281071
O O7 0.645035 0.397048 0.744122
O O8 0.362735 0.639638 0.818338
O O9 0.183948 0.388041 0.877406
O O10 0.683452 0.750198 0.933169
O O11 0.153528 0.767693 0.991793
O O12 0.500000 0.500000 0.000000
O O13 0.715048 0.133121 0.717699
O O14 0.332150 0.102207 0.895587
O O15 0.175088 0.217649 0.707255
#
# Coordination Sequence:
#
# PCOD9086421 Si02
#       7
#     2   2   2   2   2   2   2
#     4  12  24  38  59  86 122 157 183 239 288 339
#     4  12  23  41  60  81 116 158 203 233 271 338
#     4  10  23  37  59  91 121 149 188 231 300 351
#     4  10  19  36  58  84 116 148 188 233 284 344
#     4  11  21  37  62  84 111 151 203 237 275 330
#     4  11  21  37  57  86 120 152 184 236 286 346
#     4  10  21  37  60  86 112 149 188 242 284 336
#
# _framework density 26.274739
#
# number of rings (size 3 to 8) (size 9 to 14) (size 15 to 20)
#    0.000    1.143    2.857    6.000    0.000    6.857 
#    0.000    5.000    0.000    5.143    0.000    0.000 
#    0.000    0.000    0.000    0.000    0.000    0.000 
#
# Total GULP energy -78559.662029 kJ/mol
# GULP energy per Si atom -5611.404431 kJ/mol
# Density = 2.621494 g / cm^3
# Si number density = 26.274739 Si / 1000 Ang^3
#
#
#
# Elastic Constant Matrix: (Units=GPa)
#
#
# Indices 1 2 3 4 5 6 
#
# 1 87.7017 2.2670 11.8246 0.7076 1.9101 -3.7376
# 2 2.2670 75.0078 10.2649 4.5060 -5.5579 12.1151
# 3 11.8246 10.2649 106.4747 16.6114 13.1772 -5.6027
# 4 0.7076 4.5060 16.6114 37.0223 -3.3996 5.1819
# 5 1.9101 -5.5579 13.1772 -3.3996 42.5647 2.9791
# 6 -3.7376 12.1151 -5.6027 5.1819 2.9791 41.6920
#
#
#
# Elastic Compliance Matrix: (Units=1/GPa)
#
#
# Indices 1 2 3 4 5 6 
#
# 1 0.011620 -0.000376 -0.001203 0.000203 -0.000251 0.000982
# 2 -0.000376 0.014591 -0.001977 0.000047 0.002871 -0.004750
# 3 -0.001203 -0.001977 0.011290 -0.005621 -0.004358 0.002994
# 4 0.000203 0.000047 -0.005621 0.030622 0.004525 -0.004880
# 5 -0.000251 0.002871 -0.004358 0.004525 0.025860 -0.003852
# 6 0.000982 -0.004750 0.002994 -0.004880 -0.003852 0.026738
#
#
# Mechanical properties :
#
#
# Convention : Reuss Voigt Hill
#
# Bulk Modulus (GPa) = 32.90798 35.32192 34.11495
# Shear Modulus (GPa) = 36.24158 40.57766 38.40962
#
# Velocity S-wave (km/s) = 3.71796 3.93410 3.82756
# Velocity P-wave (km/s) = 5.56622 5.84026 5.70489
#
# Compressibility (1/GPa) = 0.03038777
#
# Stress axis : x y z
#
# Youngs Moduli (GPa) = 86.05935 68.53511 88.57378
#
# Poissons Ratio (x) = 0.02576 0.10657
# Poissons Ratio (y) = 0.03235 0.17515
# Poissons Ratio (z) = 0.10355 0.13553
#
# Static dielectric constant tensor:
#      x y z
#    x 1.988430 0.084060 0.011300 
#    y 0.084060 2.083640 -0.041580 
#    z 0.011300 -0.041580 2.084960 
# 
# From -- ./inp_files/364478.got.cif
#   From: 2010.05.17/outbox.cif.g08.bks.cpg/sg2_183_cif.got.tgz:364478.got - 2010.06.03 11:33:40.
