data_PCOD9086616
_publ_section_title
;
Structure prediction by ZEFSAII (Michael W. Deem and Ramdas Pophale) SiO2 
 PCOD9086616
Probable space group: P -1
;
_chemical_formula_sum "Si O2"
_cell_formula_units_Z 16
_cell_length_a 11.742395
_cell_length_b 9.164028
_cell_length_c 8.594174
_cell_angle_alpha 94.594236
_cell_angle_beta 123.933956
_cell_angle_gamma 99.338598
_cell_volume 740.482207
_symmetry_space_group_name_H-M "P -1"
_symmetry_group_IT_number 2
_symmetry_cell_setting 'triclinic'
loop_
_space_group_symop_operation_xyz
x,y,z
-x,-y,-z
loop_
_atom_site_type_symbol
_atom_site_label
_atom_site_fract_x
_atom_site_fract_y
_atom_site_fract_z
Si Si1 0.657024 0.105255 0.772481
Si Si2 0.365213 0.060151 0.706336
Si Si3 0.978616 0.660022 0.792662
Si Si4 0.529752 0.344450 0.066585
Si Si5 0.221208 0.782471 0.790611
Si Si6 0.409732 0.382698 0.300109
Si Si7 0.785183 0.420709 0.809983
Si Si8 0.788717 0.877505 0.686832
O O1 0.490677 0.035307 0.683156
O O2 0.667769 0.262796 0.703544
O O3 0.764475 0.030145 0.753537
O O4 0.725620 0.132865 0.999057
O O5 0.252114 0.119348 0.523750
O O6 0.280532 0.908257 0.715674
O O7 0.441408 0.194808 0.894157
O O8 0.848660 0.510786 0.708829
O O9 0.923380 0.808303 0.805755
O O10 0.057382 0.700405 0.691175
O O11 0.092219 0.622865 0.997848
O O12 0.692200 0.343889 0.169747
O O13 0.491908 0.334877 0.217312
O O14 0.500000 0.500000 0.000000
O O15 0.500000 0.500000 0.500000
O O16 0.288647 0.461756 0.151431
O O17 0.334099 0.240260 0.328353
#
# Coordination Sequence:
#
# PCOD9086616 Si02
#       8
#     2   2   2   2   2   2   2   2
#     4  10  19  36  59  87 111 147 195 245 290 330
#     4  11  22  37  57  87 120 151 186 240 299 337
#     4   9  20  38  56  81 116 161 194 229 282 340
#     4  11  21  37  61  87 115 149 188 237 298 348
#     4  10  21  37  57  81 121 156 188 231 290 354
#     4  11  21  37  62  90 113 143 191 246 291 337
#     4   9  19  36  60  83 116 148 190 244 286 335
#     4  11  22  35  58  85 116 152 200 239 273 340
#
# _framework density 21.607541999999999
#
# number of rings (size 3 to 8) (size 9 to 14) (size 15 to 20)
#    0.000    1.750    0.000    7.125    0.000    3.500 
#    0.000    2.500    0.000   20.250    0.000    0.000 
#    0.000    0.000    0.000    0.000    0.000    0.000 
#
# Total GULP energy -89172.513106 kJ/mol
# GULP energy per Si atom -5573.282069 kJ/mol
# Density = 2.155836 g / cm^3
# Si number density = 21.607542 Si / 1000 Ang^3
#
#
#
# Elastic Constant Matrix: (Units=GPa)
#
#
# Indices 1 2 3 4 5 6 
#
# 1 129.6987 32.0807 18.3536 -5.1213 -16.1766 13.0575
# 2 32.0807 80.7213 -4.3102 -19.0840 -18.4898 18.2932
# 3 18.3536 -4.3102 48.4660 -8.5242 -5.9739 -10.0569
# 4 -5.1213 -19.0840 -8.5242 23.0513 -2.9263 -2.1552
# 5 -16.1766 -18.4898 -5.9739 -2.9263 20.5068 -3.8550
# 6 13.0575 18.2932 -10.0569 -2.1552 -3.8550 50.4118
#
#
#
# Elastic Compliance Matrix: (Units=1/GPa)
#
#
# Indices 1 2 3 4 5 6 
#
# 1 0.009654 -0.003734 -0.004585 -0.002553 0.002173 -0.002004
# 2 -0.003734 0.030840 0.013339 0.033466 0.032842 -0.003621
# 3 -0.004585 0.013339 0.031869 0.025156 0.022316 0.005487
# 4 -0.002553 0.033466 0.025156 0.085989 0.047924 0.000877
# 5 0.002173 0.032842 0.022316 0.047924 0.093652 0.001182
# 6 -0.002004 -0.003621 0.005487 0.000877 0.001182 0.022892
#
#
# Mechanical properties :
#
#
# Convention : Reuss Voigt Hill
#
# Bulk Modulus (GPa) = 12.13524 39.01492 25.57508
# Shear Modulus (GPa) = 17.10437 32.97811 25.04124
#
# Velocity S-wave (km/s) = 2.81658 3.91094 3.40797
# Velocity P-wave (km/s) = 4.02565 6.20397 5.22949
#
# Compressibility (1/GPa) = 0.08240463
#
# Stress axis : x y z
#
# Youngs Moduli (GPa) = 103.57987 32.42585 31.37824
#
# Poissons Ratio (x) = 0.12107 0.14387
# Poissons Ratio (y) = 0.38673 -0.41857
# Poissons Ratio (z) = 0.47492 -0.43254
#
# Static dielectric constant tensor:
#      x y z
#    x 1.811940 0.050970 0.048050 
#    y 0.050970 1.807260 0.004660 
#    z 0.048050 0.004660 1.826290 
# 
# From -- ./inp_files/207731.got.cif
#   From: 2010.05.17/outbox.cif.g08.bks.cpg/sg2_104_cif.got.tgz:207731.got - 2010.06.03 11:33:40.
