data_PCOD9086846
_publ_section_title
;
Structure prediction by ZEFSAII (Michael W. Deem and Ramdas Pophale) SiO2 
 PCOD9086846
Probable space group: P -1
;
_chemical_formula_sum "Si O2"
_cell_formula_units_Z 16
_cell_length_a 11.291428
_cell_length_b 16.265038
_cell_length_c 5.425031
_cell_angle_alpha 121.048628
_cell_angle_beta 70.365062
_cell_angle_gamma 121.501809
_cell_volume 724.767822
_symmetry_space_group_name_H-M "P -1"
_symmetry_group_IT_number 2
_symmetry_cell_setting 'triclinic'
loop_
_space_group_symop_operation_xyz
x,y,z
-x,-y,-z
loop_
_atom_site_type_symbol
_atom_site_label
_atom_site_fract_x
_atom_site_fract_y
_atom_site_fract_z
Si Si1 0.372771 0.855275 0.820740
Si Si2 0.045740 0.960888 0.152744
Si Si3 0.308259 0.944250 0.517801
Si Si4 0.149787 0.638634 0.800412
Si Si5 0.165737 0.252954 0.835245
Si Si6 0.047122 0.740375 0.409327
Si Si7 0.138142 0.432261 0.340890
Si Si8 0.675456 0.887200 0.583524
O O1 0.384678 0.923403 0.668558
O O2 0.239948 0.739634 0.719920
O O3 0.518396 0.846997 0.725836
O O4 0.347505 0.905631 0.169183
O O5 0.952202 0.833888 0.039116
O O6 0.212364 0.020757 0.176162
O O7 0.000000 0.000000 0.500000
O O8 0.000000 0.000000 0.000000
O O9 0.149594 0.863548 0.569753
O O10 0.317809 0.057936 0.604103
O O11 0.205591 0.549863 0.586218
O O12 0.981558 0.575511 0.782319
O O13 0.150786 0.695273 0.143572
O O14 0.274044 0.205564 0.621398
O O15 0.070474 0.254488 0.678174
O O16 0.227149 0.372845 0.083367
O O17 0.960780 0.651307 0.523323
#
# Coordination Sequence:
#
# PCOD9086846 Si02
#       8
#     2   2   2   2   2   2   2   2
#     4  11  24  43  63  93 126 167 216 252 306 380
#     4  10  23  38  58  87 122 163 204 243 300 364
#     4  11  23  41  64  92 125 168 210 257 304 372
#     4   9  20  37  60  92 117 160 205 263 314 359
#     4  10  23  37  55  93 122 161 204 255 311 374
#     4  10  19  36  60  90 125 152 208 262 312 365
#     4  10  19  36  64  87 122 155 208 263 317 357
#     4  11  24  42  62  90 132 170 201 254 312 373
#
# _framework density 22.076035999999998
#
# number of rings (size 3 to 8) (size 9 to 14) (size 15 to 20)
#    0.000    1.750    2.500    1.125    3.500    4.000 
#    0.000    0.625    0.000    0.750    0.000    0.000 
#    0.000    0.000    0.000    0.000    0.000    0.000 
#
# Total GULP energy -89225.803798 kJ/mol
# GULP energy per Si atom -5576.612737 kJ/mol
# Density = 2.202579 g / cm^3
# Si number density = 22.076036 Si / 1000 Ang^3
#
#
#
# Elastic Constant Matrix: (Units=GPa)
#
#
# Indices 1 2 3 4 5 6 
#
# 1 91.1454 5.2523 36.2916 1.8316 -16.7804 -9.0456
# 2 5.2523 60.4010 33.9451 21.7093 0.0298 -12.5851
# 3 36.2916 33.9451 84.6437 14.2557 -14.2069 -21.9098
# 4 1.8316 21.7093 14.2557 46.3393 -12.9343 -4.3893
# 5 -16.7804 0.0298 -14.2069 -12.9343 27.1665 5.1147
# 6 -9.0456 -12.5851 -21.9098 -4.3893 5.1147 23.7707
#
#
#
# Elastic Compliance Matrix: (Units=1/GPa)
#
#
# Indices 1 2 3 4 5 6 
#
# 1 0.014540 0.001009 -0.006029 0.002781 0.007252 -0.000537
# 2 0.001009 0.027903 -0.009826 -0.012794 -0.011820 0.006281
# 3 -0.006029 -0.009826 0.022308 0.000808 0.006097 0.011902
# 4 0.002781 -0.012794 0.000808 0.031937 0.017911 -0.002927
# 5 0.007252 -0.011820 0.006097 0.017911 0.054192 -0.006232
# 6 -0.000537 0.006281 0.011902 -0.002927 -0.006232 0.056961
#
#
# Mechanical properties :
#
#
# Convention : Reuss Voigt Hill
#
# Bulk Modulus (GPa) = 28.52327 43.01870 35.77098
# Shear Modulus (GPa) = 20.06269 30.16870 25.11570
#
# Velocity S-wave (km/s) = 3.01790 3.70074 3.37663
# Velocity P-wave (km/s) = 5.00921 6.14732 5.60721
#
# Compressibility (1/GPa) = 0.03505909
#
# Stress axis : x y z
#
# Youngs Moduli (GPa) = 68.77675 35.83804 44.82744
#
# Poissons Ratio (x) = -0.03616 0.27025
# Poissons Ratio (y) = -0.06939 0.44048
# Poissons Ratio (z) = 0.41463 0.35215
#
# Static dielectric constant tensor:
#      x y z
#    x 1.890030 -0.038580 -0.004940 
#    y -0.038580 1.820260 0.028300 
#    z -0.004940 0.028300 1.998390 
# 
# From -- ./inp_files/78564.got.cif
#   From: 2010.05.17/outbox.cif.g08.bks.cpg/sg2_40_cif.got.tgz:78564.got - 2010.06.03 11:33:40.
