data_PCOD9086790
_publ_section_title
;
Structure prediction by ZEFSAII (Michael W. Deem and Ramdas Pophale) SiO2 
 PCOD9086790
Probable space group: P -1
;
_chemical_formula_sum "Si O2"
_cell_formula_units_Z 16
_cell_length_a 13.779014
_cell_length_b 13.304815
_cell_length_c 6.946604
_cell_angle_alpha 86.795268
_cell_angle_beta 79.213836
_cell_angle_gamma 137.872062
_cell_volume 801.689708
_symmetry_space_group_name_H-M "P -1"
_symmetry_group_IT_number 2
_symmetry_cell_setting 'triclinic'
loop_
_space_group_symop_operation_xyz
x,y,z
-x,-y,-z
loop_
_atom_site_type_symbol
_atom_site_label
_atom_site_fract_x
_atom_site_fract_y
_atom_site_fract_z
Si Si1 0.520513 0.398167 0.471690
Si Si2 0.976104 0.818339 0.123051
Si Si3 0.751259 0.819177 0.140063
Si Si4 0.553890 0.739615 0.892256
Si Si5 0.991611 0.303203 0.204155
Si Si6 0.157332 0.668947 0.504881
Si Si7 0.297455 0.586096 0.308991
Si Si8 0.173710 0.905022 0.383339
O O1 0.500000 0.500000 0.500000
O O2 0.363398 0.233234 0.645379
O O3 0.525457 0.373010 0.249855
O O4 0.657933 0.461446 0.542522
O O5 0.825832 0.770194 0.169929
O O6 0.035219 0.835506 0.309127
O O7 0.965987 0.708537 0.014504
O O8 0.112208 0.995654 0.969301
O O9 0.651087 0.737945 0.989265
O O10 0.675857 0.915895 0.747346
O O11 0.431509 0.692722 0.088197
O O12 0.142672 0.438965 0.264196
O O13 0.887621 0.322921 0.267029
O O14 0.888015 0.139136 0.371452
O O15 0.278655 0.676300 0.421526
O O16 0.197375 0.803060 0.361938
O O17 0.000000 0.500000 0.500000
#
# Coordination Sequence:
#
# PCOD9086790 Si02
#       8
#     2   2   2   2   2   2   2   2
#     4  11  25  37  58  82 118 154 191 227 283 342
#     4  10  19  36  60  88 108 153 188 234 286 337
#     4   9  22  36  56  84 121 141 194 239 274 335
#     4  10  22  40  56  84 116 154 188 232 281 338
#     4   9  20  35  61  82 115 144 185 240 286 323
#     4   8  18  40  58  84 117 143 182 247 281 325
#     4  10  22  40  56  85 119 145 192 238 277 337
#     4   9  20  37  62  82 115 148 190 230 281 342
#
# _framework density 19.957847999999998
#
# number of rings (size 3 to 8) (size 9 to 14) (size 15 to 20)
#    0.750    1.750    0.000    0.750    5.250    1.500 
#    2.250    5.625    0.000    0.000    0.000    0.000 
#    0.000    0.000    0.000    0.000    0.000    0.000 
#
# Total GULP energy -89122.352756 kJ/mol
# GULP energy per Si atom -5570.147047 kJ/mol
# Density = 1.991242 g / cm^3
# Si number density = 19.957848 Si / 1000 Ang^3
#
#
#
# Elastic Constant Matrix: (Units=GPa)
#
#
# Indices 1 2 3 4 5 6 
#
# 1 53.4102 5.7935 7.9439 -3.8955 -7.6345 1.4270
# 2 5.7935 50.7697 5.2448 -1.4172 -0.4947 4.4289
# 3 7.9439 5.2448 50.3072 10.7050 -13.2569 5.7840
# 4 -3.8955 -1.4172 10.7050 30.1769 -4.9957 -3.8799
# 5 -7.6345 -0.4947 -13.2569 -4.9957 23.8270 -5.9122
# 6 1.4270 4.4289 5.7840 -3.8799 -5.9122 23.7896
#
#
#
# Elastic Compliance Matrix: (Units=1/GPa)
#
#
# Indices 1 2 3 4 5 6 
#
# 1 0.020582 -0.002078 -0.002559 0.004864 0.006702 0.002233
# 2 -0.002078 0.020461 -0.002092 0.000610 -0.002175 -0.003617
# 3 -0.002559 -0.002092 0.025548 -0.008319 0.010512 -0.004413
# 4 0.004864 0.000610 -0.008319 0.039286 0.007642 0.009924
# 5 0.006702 -0.002175 0.010512 0.007642 0.054563 0.012253
# 6 0.002233 -0.003617 -0.004413 0.009924 0.012253 0.048311
#
#
# Mechanical properties :
#
#
# Convention : Reuss Voigt Hill
#
# Bulk Modulus (GPa) = 18.82084 21.38352 20.10218
# Shear Modulus (GPa) = 20.84023 24.59235 22.71629
#
# Velocity S-wave (km/s) = 3.23493 3.51410 3.37740
# Velocity P-wave (km/s) = 4.83775 5.21563 5.03024
#
# Compressibility (1/GPa) = 0.05313259
#
# Stress axis : x y z
#
# Youngs Moduli (GPa) = 48.58596 48.87248 39.14258
#
# Poissons Ratio (x) = 0.10156 0.10017
# Poissons Ratio (y) = 0.10097 0.08189
# Poissons Ratio (z) = 0.12434 0.10224
#
# Static dielectric constant tensor:
#      x y z
#    x 1.709120 0.007530 -0.014950 
#    y 0.007530 1.718680 -0.029390 
#    z -0.014950 -0.029390 1.712920 
# 
# From -- ./inp_files/97367.got.cif
#   From: 2010.05.17/outbox.cif.g08.bks.cpg/sg2_49_cif.got.tgz:97367.got - 2010.06.03 11:33:40.
