data_PCOD9086043
_publ_section_title
;
Structure prediction by ZEFSAII (Michael W. Deem and Ramdas Pophale) SiO2 
 PCOD9086043
Probable space group: P -1
;
_chemical_formula_sum "Si O2"
_cell_formula_units_Z 15
_cell_length_a 10.127996
_cell_length_b 14.837238
_cell_length_c 9.741517
_cell_angle_alpha 97.171501
_cell_angle_beta 123.546244
_cell_angle_gamma 43.422386
_cell_volume 734.462936
_symmetry_space_group_name_H-M "P -1"
_symmetry_group_IT_number 2
_symmetry_cell_setting 'triclinic'
loop_
_space_group_symop_operation_xyz
x,y,z
-x,-y,-z
loop_
_atom_site_type_symbol
_atom_site_label
_atom_site_fract_x
_atom_site_fract_y
_atom_site_fract_z
Si Si1 0.825700 0.627653 0.622623
Si Si2 0.428577 0.596249 0.104529
Si Si3 0.692224 0.141060 0.990095
Si Si4 0.500000 0.000000 0.500000
Si Si5 0.688303 0.829476 0.093995
Si Si6 0.035690 0.623496 0.481988
Si Si7 0.090946 0.269809 0.096594
Si Si8 0.257883 0.924027 0.312897
O O1 0.950027 0.479535 0.608656
O O2 0.952784 0.615050 0.825719
O O3 0.515529 0.755125 0.482953
O O4 0.866589 0.684565 0.535207
O O5 0.674793 0.482587 0.326664
O O6 0.500000 0.500000 0.000000
O O7 0.392155 0.716391 0.056278
O O8 0.162012 0.679078 0.029798
O O9 0.485187 0.177260 0.961213
O O10 0.718130 0.087705 0.841760
O O11 0.976950 0.010708 0.198167
O O12 0.672367 0.883246 0.710838
O O13 0.292149 0.010593 0.399658
O O14 0.889077 0.755948 0.319782
O O15 0.834560 0.747211 0.020113
O O16 0.500000 0.000000 0.000000
#
# Coordination Sequence:
#
# PCOD9086043 Si02
#       8
#     2   2   2   1   2   2   2   2
#     4  10  20  41  69 100 126 184 227 275 336 411
#     4  12  24  42  72 105 130 181 240 281 325 416
#     4  11  22  42  67 101 132 175 233 278 334 404
#     4  10  20  40  66 100 128 178 224 280 324 412
#     4  12  28  44  67 102 143 182 219 289 357 401
#     4  11  22  42  68  95 138 177 230 279 341 407
#     4  11  25  41  70 102 137 177 229 281 345 398
#     4  10  19  35  72  95 127 173 230 278 325 402
#
# _framework density 20.423088
#
# number of rings (size 3 to 8) (size 9 to 14) (size 15 to 20)
#    0.000    1.067    5.333    1.600    3.733    1.067 
#    0.000    2.667    0.000    0.000    0.000    0.000 
#    0.000    0.000    0.000    0.000    0.000    0.000 
#
# Total GULP energy -83583.950109 kJ/mol
# GULP energy per Si atom -5572.263341 kJ/mol
# Density = 2.037660 g / cm^3
# Si number density = 20.423088 Si / 1000 Ang^3
#
#
#
# Elastic Constant Matrix: (Units=GPa)
#
#
# Indices 1 2 3 4 5 6 
#
# 1 133.6739 39.4428 71.8222 -0.8576 20.8734 -19.1437
# 2 39.4428 50.7957 48.7248 6.0034 -1.7514 -1.1090
# 3 71.8222 48.7248 133.5827 -11.9763 21.0458 -4.4764
# 4 -0.8576 6.0034 -11.9763 36.0782 -4.3437 1.1338
# 5 20.8734 -1.7514 21.0458 -4.3437 37.8553 1.6528
# 6 -19.1437 -1.1090 -4.4764 1.1338 1.6528 24.6015
#
#
#
# Elastic Compliance Matrix: (Units=1/GPa)
#
#
# Indices 1 2 3 4 5 6 
#
# 1 0.014141 -0.007538 -0.003503 -0.000714 -0.006739 0.010512
# 2 -0.007538 0.040103 -0.013692 -0.009635 0.012823 -0.006967
# 3 -0.003503 -0.013692 0.016032 0.006703 -0.006834 -0.000276
# 4 -0.000714 -0.009635 0.006703 0.031555 -0.000105 -0.001218
# 5 -0.006739 0.012823 -0.006834 -0.000105 0.034873 -0.008248
# 6 0.010512 -0.006967 -0.000276 -0.001218 -0.008248 0.049074
#
#
# Mechanical properties :
#
#
# Convention : Reuss Voigt Hill
#
# Bulk Modulus (GPa) = 48.05757 70.89243 59.47500
# Shear Modulus (GPa) = 20.64577 30.24449 25.44513
#
# Velocity S-wave (km/s) = 3.18292 3.85242 3.53356
# Velocity P-wave (km/s) = 6.09016 7.38752 6.76999
#
# Compressibility (1/GPa) = 0.02080838
#
# Stress axis : x y z
#
# Youngs Moduli (GPa) = 70.71811 24.93594 62.37436
#
# Poissons Ratio (x) = 0.18797 0.21852
# Poissons Ratio (y) = 0.53308 0.85404
# Poissons Ratio (z) = 0.24775 0.34143
#
# Static dielectric constant tensor:
#      x y z
#    x 1.694560 0.010370 0.012040 
#    y 0.010370 1.813110 -0.016740 
#    z 0.012040 -0.016740 1.716910 
# 
# From -- ./inp_files/202136.got.cif
#   From: 2010.05.17/outbox.cif.g08.bks.cpg/sg2_102_cif.got.tgz:202136.got - 2010.06.03 11:33:40.
