data_PCOD9086953
_publ_section_title
;
Structure prediction by ZEFSAII (Michael W. Deem and Ramdas Pophale) SiO2 
 PCOD9086953
Probable space group: P -1
;
_chemical_formula_sum "Si O2"
_cell_formula_units_Z 16
_cell_length_a 13.199750
_cell_length_b 13.462777
_cell_length_c 11.471135
_cell_angle_alpha 43.033047
_cell_angle_beta 32.080695
_cell_angle_gamma 60.658963
_cell_volume 690.189285
_symmetry_space_group_name_H-M "P -1"
_symmetry_group_IT_number 2
_symmetry_cell_setting 'triclinic'
loop_
_space_group_symop_operation_xyz
x,y,z
-x,-y,-z
loop_
_atom_site_type_symbol
_atom_site_label
_atom_site_fract_x
_atom_site_fract_y
_atom_site_fract_z
Si Si1 0.886975 0.535119 0.909462
Si Si2 0.652229 0.851582 0.603558
Si Si3 0.870213 0.679606 0.423862
Si Si4 0.446978 0.676520 0.436297
Si Si5 0.185110 0.374207 0.743124
Si Si6 0.306999 0.219501 0.125973
Si Si7 0.285904 0.631459 0.016255
Si Si8 0.765402 0.107242 0.446447
O O1 0.768099 0.461283 0.207024
O O2 0.107628 0.521783 0.691931
O O3 0.864102 0.701431 0.776640
O O4 0.753142 0.422918 0.033012
O O5 0.853422 0.826809 0.381196
O O6 0.697001 0.024937 0.457497
O O7 0.589750 0.752660 0.870278
O O8 0.486464 0.772695 0.735568
O O9 0.735496 0.524788 0.757588
O O10 0.096665 0.678579 0.200423
O O11 0.795582 0.665871 0.376032
O O12 0.535629 0.712148 0.189822
O O13 0.400205 0.825655 0.400928
O O14 0.616619 0.631834 0.380269
O O15 0.985181 0.240427 0.105974
O O16 0.219853 0.032340 0.368112
#
# Coordination Sequence:
#
# PCOD9086953 Si02
#       8
#     2   2   2   2   2   2   2   2
#     4  10  21  41  60  92 119 144 200 250 286 352
#     4  10  21  36  59  87 115 152 195 239 285 342
#     4  10  20  35  58  88 118 153 194 235 291 355
#     4  11  22  41  63  83 119 162 191 244 302 335
#     4  10  23  38  60  86 121 159 189 241 300 344
#     4  10  22  40  63  88 116 153 205 243 283 354
#     4  10  19  36  61  85 122 154 184 243 296 346
#     4   9  23  42  57  87 121 152 206 240 278 357
#
# _framework density 23.182047000000001
#
# number of rings (size 3 to 8) (size 9 to 14) (size 15 to 20)
#    0.750    1.250    1.250    1.875    1.750    2.500 
#    0.000   12.500    0.000    0.000    0.000    0.000 
#    0.000    0.000    0.000    0.000    0.000    0.000 
#
# Total GULP energy -89402.117950 kJ/mol
# GULP energy per Si atom -5587.632372 kJ/mol
# Density = 2.312928 g / cm^3
# Si number density = 23.182047 Si / 1000 Ang^3
#
#
#
# Elastic Constant Matrix: (Units=GPa)
#
#
# Indices 1 2 3 4 5 6 
#
# 1 84.4046 36.3364 26.4801 13.2848 10.8229 -6.4356
# 2 36.3364 188.5518 28.0458 19.8472 -6.8295 -2.0377
# 3 26.4801 28.0458 61.5935 13.6158 4.9499 -4.1146
# 4 13.2848 19.8472 13.6158 41.3066 3.5662 8.3740
# 5 10.8229 -6.8295 4.9499 3.5662 34.4426 1.9156
# 6 -6.4356 -2.0377 -4.1146 8.3740 1.9156 19.3434
#
#
#
# Elastic Compliance Matrix: (Units=1/GPa)
#
#
# Indices 1 2 3 4 5 6 
#
# 1 0.015709 -0.002141 -0.004231 -0.003449 -0.004733 0.006063
# 2 -0.002141 0.006264 -0.001656 -0.002026 0.002349 0.000240
# 3 -0.004231 -0.001656 0.020528 -0.005551 -0.001672 0.005353
# 4 -0.003449 -0.002026 -0.005551 0.031457 -0.000883 -0.016072
# 5 -0.004733 0.002349 -0.001672 -0.000883 0.031565 -0.004426
# 6 0.006063 0.000240 0.005353 -0.016072 -0.004426 0.062274
#
#
# Mechanical properties :
#
#
# Convention : Reuss Voigt Hill
#
# Bulk Modulus (GPa) = 37.81607 57.36383 47.58995
# Shear Modulus (GPa) = 25.95164 35.26438 30.60801
#
# Velocity S-wave (km/s) = 3.34948 3.90448 3.63758
# Velocity P-wave (km/s) = 5.59524 6.71753 6.18191
#
# Compressibility (1/GPa) = 0.02644378
#
# Stress axis : x y z
#
# Youngs Moduli (GPa) = 63.65916 159.65490 48.71489
#
# Poissons Ratio (x) = 0.34178 0.20610
# Poissons Ratio (y) = 0.13628 0.08069
# Poissons Ratio (z) = 0.26933 0.26446
#
# Static dielectric constant tensor:
#      x y z
#    x 1.900520 0.009860 0.017360 
#    y 0.009860 1.903140 -0.034950 
#    z 0.017360 -0.034950 1.840960 
# 
# From -- ./inp_files/455440.got.cif
#   From: 2010.05.17/outbox.cif.g08.bks.cpg/sg2_228_cif.got.tgz:455440.got - 2010.06.03 11:33:40.
