data_PCOD9086851
_publ_section_title
;
Structure prediction by ZEFSAII (Michael W. Deem and Ramdas Pophale) SiO2 
 PCOD9086851
Probable space group: P -1
;
_chemical_formula_sum "Si O2"
_cell_formula_units_Z 16
_cell_length_a 9.537522
_cell_length_b 14.642431
_cell_length_c 13.418686
_cell_angle_alpha 55.295154
_cell_angle_beta 33.272730
_cell_angle_gamma 67.936057
_cell_volume 823.998836
_symmetry_space_group_name_H-M "P -1"
_symmetry_group_IT_number 2
_symmetry_cell_setting 'triclinic'
loop_
_space_group_symop_operation_xyz
x,y,z
-x,-y,-z
loop_
_atom_site_type_symbol
_atom_site_label
_atom_site_fract_x
_atom_site_fract_y
_atom_site_fract_z
Si Si1 0.268304 0.465494 0.951594
Si Si2 0.390640 0.322430 0.139320
Si Si3 0.045075 0.657313 0.454100
Si Si4 0.913432 0.347017 0.937234
Si Si5 0.047762 0.230622 0.114624
Si Si6 0.439474 0.870087 0.155069
Si Si7 0.748077 0.561765 0.493081
Si Si8 0.942742 0.123174 0.443506
O O1 0.097896 0.536596 0.069830
O O2 0.454955 0.549725 0.713151
O O3 0.436416 0.417978 0.966558
O O4 0.126959 0.354763 0.043550
O O5 0.660619 0.316037 0.034962
O O6 0.199039 0.349604 0.322386
O O7 0.211748 0.211258 0.262513
O O8 0.228544 0.782966 0.267749
O O9 0.204242 0.566625 0.457393
O O10 0.937651 0.623060 0.429833
O O11 0.911940 0.251119 0.079887
O O12 0.168978 0.374992 0.698412
O O13 0.890887 0.149890 0.343280
O O14 0.300935 0.179865 0.970937
O O15 0.293964 0.863417 0.352339
O O16 0.500000 0.000000 0.000000
O O17 0.000000 0.000000 0.500000
#
# Coordination Sequence:
#
# PCOD9086851 Si02
#       8
#     2   2   2   2   2   2   2   2
#     4  11  21  39  58  86 123 164 201 233 287 361
#     4  10  20  37  62  86 119 153 204 243 281 358
#     4  10  19  36  60  91 111 156 208 244 284 347
#     4  12  24  37  55  92 129 157 191 240 306 356
#     4  11  25  40  58  89 125 156 192 250 304 353
#     4  11  22  40  67  87 113 151 209 252 289 353
#     4  11  21  32  60  86 122 155 196 244 293 346
#     4  10  22  41  69  87 106 155 208 247 295 348
#
# _framework density 19.417503
#
# number of rings (size 3 to 8) (size 9 to 14) (size 15 to 20)
#    0.000    1.250    5.000    2.250    1.750    1.500 
#    0.000    0.625    0.000    1.500    0.000    0.000 
#    0.000    0.000    0.000    0.000    0.000    0.000 
#
# Total GULP energy -89382.892348 kJ/mol
# GULP energy per Si atom -5586.430772 kJ/mol
# Density = 1.937331 g / cm^3
# Si number density = 19.417503 Si / 1000 Ang^3
#
#
#
# Elastic Constant Matrix: (Units=GPa)
#
#
# Indices 1 2 3 4 5 6 
#
# 1 75.2220 12.7061 35.8879 -8.5164 25.7396 -8.2997
# 2 12.7061 56.3735 28.1929 -4.4371 8.0395 10.2169
# 3 35.8879 28.1929 112.5907 3.9134 25.2918 4.3839
# 4 -8.5164 -4.4371 3.9134 35.2633 2.3728 -0.0779
# 5 25.7396 8.0395 25.2918 2.3728 31.3609 -3.5909
# 6 -8.2997 10.2169 4.3839 -0.0779 -3.5909 15.5111
#
#
#
# Elastic Compliance Matrix: (Units=1/GPa)
#
#
# Indices 1 2 3 4 5 6 
#
# 1 0.022354 -0.002695 -0.004106 0.006448 -0.013481 0.011808
# 2 -0.002695 0.024015 -0.003950 0.002968 -0.002907 -0.016802
# 3 -0.004106 -0.003950 0.012878 -0.002501 -0.006354 -0.004718
# 4 0.006448 0.002968 -0.002501 0.030991 -0.006278 0.000905
# 5 -0.013481 -0.002907 -0.006354 -0.006278 0.050222 0.008092
# 6 0.011808 -0.016802 -0.004718 0.000905 0.008092 0.085067
#
#
# Mechanical properties :
#
#
# Convention : Reuss Voigt Hill
#
# Bulk Modulus (GPa) = 26.49437 44.19556 35.34497
# Shear Modulus (GPa) = 19.25960 27.58702 23.42331
#
# Velocity S-wave (km/s) = 3.15281 3.77335 3.47695
# Velocity P-wave (km/s) = 5.18920 6.46485 5.86183
#
# Compressibility (1/GPa) = 0.03774387
#
# Stress axis : x y z
#
# Youngs Moduli (GPa) = 44.73478 41.64030 77.65425
#
# Poissons Ratio (x) = 0.11222 0.31886
# Poissons Ratio (y) = 0.12056 0.30676
# Poissons Ratio (z) = 0.18369 0.16449
#
# Static dielectric constant tensor:
#      x y z
#    x 1.687190 0.008510 -0.001050 
#    y 0.008510 1.678680 0.021630 
#    z -0.001050 0.021630 1.697750 
# 
# From -- ./inp_files/258345.got.cif
#   From: 2010.05.17/outbox.cif.g08.bks.cpg/sg2_130_cif.got.tgz:258345.got - 2010.06.03 11:33:40.
