data_PCOD9086873
_publ_section_title
;
Structure prediction by ZEFSAII (Michael W. Deem and Ramdas Pophale) SiO2 
 PCOD9086873
Probable space group: P -1
;
_chemical_formula_sum "Si O2"
_cell_formula_units_Z 14
_cell_length_a 7.630742
_cell_length_b 8.392091
_cell_length_c 11.660705
_cell_angle_alpha 57.437440
_cell_angle_beta 60.280188
_cell_angle_gamma 52.063722
_cell_volume 480.850780
_symmetry_space_group_name_H-M "P -1"
_symmetry_group_IT_number 2
_symmetry_cell_setting 'triclinic'
loop_
_space_group_symop_operation_xyz
x,y,z
-x,-y,-z
loop_
_atom_site_type_symbol
_atom_site_label
_atom_site_fract_x
_atom_site_fract_y
_atom_site_fract_z
Si Si1 0.832748 0.016838 0.892027
Si Si2 0.234414 0.839378 0.382103
Si Si3 0.975433 0.344792 0.335791
Si Si4 0.414639 0.385846 0.203847
Si Si5 0.413132 0.226635 0.510010
Si Si6 0.197576 0.559277 0.877910
Si Si7 0.787722 0.911363 0.180977
O O1 0.059576 0.815112 0.846604
O O2 0.947994 0.138462 0.875819
O O3 0.696315 0.150500 0.775082
O O4 0.735476 0.921687 0.057706
O O5 0.409758 0.766863 0.458527
O O6 0.106312 0.694960 0.497886
O O7 0.092519 0.093967 0.356649
O O8 0.168322 0.419423 0.228490
O O9 0.782872 0.470724 0.253941
O O10 0.383647 0.376389 0.354784
O O11 0.567651 0.512564 0.097858
O O12 0.587052 0.146187 0.193255
O O13 0.500000 0.000000 0.500000
O O14 0.224853 0.242101 0.657093
O O15 0.000000 0.500000 0.000000
#
# Coordination Sequence:
#
# PCOD9086873 Si02
#       7
#     2   2   2   2   2   2   2
#     4   9  19  31  47  72 106 132 157 198 253 304
#     4  10  17  27  47  77 106 120 160 203 250 304
#     4  10  18  29  49  76  97 127 161 204 249 288
#     4  10  18  32  51  75 103 127 164 204 250 295
#     4  10  16  27  46  75 105 127 153 201 250 304
#     4  10  21  35  50  70  98 134 175 207 233 284
#     4   9  17  30  46  74 106 132 150 196 263 307
#
# _framework density 29.11506
#
# number of rings (size 3 to 8) (size 9 to 14) (size 15 to 20)
#    0.000    2.286    4.286    0.857    4.000    1.143 
#    0.000    0.000    0.000    0.857    0.000   10.000 
#    0.000    0.000    0.000    0.000    0.000    0.000 
#
# Total GULP energy -78125.135469 kJ/mol
# GULP energy per Si atom -5580.366819 kJ/mol
# Density = 2.904879 g / cm^3
# Si number density = 29.115060 Si / 1000 Ang^3
#
#
#
# Elastic Constant Matrix: (Units=GPa)
#
#
# Indices 1 2 3 4 5 6 
#
# 1 186.9055 7.5783 74.7189 -5.9986 -10.0865 6.4476
# 2 7.5783 103.3130 15.3500 6.2847 0.4838 2.0440
# 3 74.7189 15.3500 183.3171 12.1208 11.8539 21.8600
# 4 -5.9986 6.2847 12.1208 57.2531 20.2259 -5.5079
# 5 -10.0865 0.4838 11.8539 20.2259 67.4614 -0.1114
# 6 6.4476 2.0440 21.8600 -5.5079 -0.1114 22.9751
#
#
#
# Elastic Compliance Matrix: (Units=1/GPa)
#
#
# Indices 1 2 3 4 5 6 
#
# 1 0.006599 -0.000135 -0.002972 0.001030 0.001203 0.001241
# 2 -0.000135 0.009864 -0.000662 -0.001131 0.000364 -0.000479
# 3 -0.002972 -0.000662 0.007778 -0.002147 -0.001174 -0.007028
# 4 0.001030 -0.001131 -0.002147 0.020819 -0.005691 0.006817
# 5 0.001203 0.000364 -0.001174 -0.005691 0.016912 -0.000535
# 6 0.001241 -0.000479 -0.007028 0.006817 -0.000535 0.051538
#
#
# Mechanical properties :
#
#
# Convention : Reuss Voigt Hill
#
# Bulk Modulus (GPa) = 59.87603 74.31445 67.09524
# Shear Modulus (GPa) = 39.48879 54.59716 47.04298
#
# Velocity S-wave (km/s) = 3.68679 4.33508 4.02401
# Velocity P-wave (km/s) = 6.22360 7.11597 6.68469
#
# Compressibility (1/GPa) = 0.01670117
#
# Stress axis : x y z
#
# Youngs Moduli (GPa) = 151.53343 101.37608 128.56962
#
# Poissons Ratio (x) = 0.01371 0.38215
# Poissons Ratio (y) = 0.02050 0.08517
# Poissons Ratio (z) = 0.45041 0.06716
#
# Static dielectric constant tensor:
#      x y z
#    x 2.376050 0.101480 -0.081290 
#    y 0.101480 2.453380 -0.035770 
#    z -0.081290 -0.035770 2.339440 
# 
# From -- ./inp_files/248226.got.cif
#   From: 2010.05.17/outbox.cif.g08.bks.cpg/sg2_125_cif.got.tgz:248226.got - 2010.06.03 11:33:40.
