data_PCOD9086411
_publ_section_title
;
Structure prediction by ZEFSAII (Michael W. Deem and Ramdas Pophale) SiO2 
 PCOD9086411
Probable space group: P -1
;
_chemical_formula_sum "Si O2"
_cell_formula_units_Z 16
_cell_length_a 14.227758
_cell_length_b 12.961921
_cell_length_c 10.480489
_cell_angle_alpha 63.368644
_cell_angle_beta 82.008369
_cell_angle_gamma 30.637462
_cell_volume 740.242913
_symmetry_space_group_name_H-M "P -1"
_symmetry_group_IT_number 2
_symmetry_cell_setting 'triclinic'
loop_
_space_group_symop_operation_xyz
x,y,z
-x,-y,-z
loop_
_atom_site_type_symbol
_atom_site_label
_atom_site_fract_x
_atom_site_fract_y
_atom_site_fract_z
Si Si1 0.106306 0.854294 0.697362
Si Si2 0.322819 0.767110 0.310711
Si Si3 0.282785 0.250545 0.314379
Si Si4 0.079151 0.040941 0.982408
Si Si5 0.419662 0.866739 0.413207
Si Si6 0.701398 0.107421 0.312204
Si Si7 0.299215 0.457273 0.038305
Si Si8 0.920200 0.390479 0.621210
O O1 0.234969 0.827737 0.728893
O O2 0.236323 0.590244 0.843193
O O3 0.000000 0.000000 0.500000
O O4 0.893720 0.067591 0.706082
O O5 0.500000 0.500000 0.500000
O O6 0.338572 0.876738 0.307204
O O7 0.313681 0.785610 0.149569
O O8 0.325207 0.294653 0.165444
O O9 0.110248 0.483546 0.326921
O O10 0.500000 0.000000 0.500000
O O11 0.263220 0.148111 0.308927
O O12 0.906205 0.289213 0.972576
O O13 0.043456 0.149536 0.800971
O O14 0.000000 0.000000 0.000000
O O15 0.675484 0.625869 0.489679
O O16 0.401968 0.810726 0.576077
O O17 0.906120 0.792983 0.425430
O O18 0.513648 0.285248 0.147024
#
# Coordination Sequence:
#
# PCOD9086411 Si02
#       8
#     2   2   2   2   2   2   2   2
#     4  11  23  37  55  89 126 156 205 251 311 378
#     4  11  23  37  61  87 122 164 197 254 315 366
#     4   9  18  39  63  87 121 159 210 261 292 369
#     4  10  19  36  58  83 119 155 207 250 295 370
#     4  11  21  41  62  90 125 162 202 253 316 359
#     4  12  21  37  65  90 123 164 200 258 315 362
#     4  10  21  38  59  88 120 162 204 253 309 354
#     4  10  21  37  59  92 117 156 214 248 298 370
#
# _framework density 21.614526999999999
#
# number of rings (size 3 to 8) (size 9 to 14) (size 15 to 20)
#    0.000    1.500    5.000    3.375    0.000    1.500 
#    0.000    5.625    0.000    0.000    0.000    7.000 
#    0.000    0.000    0.000    0.000    0.000    0.000 
#
# Total GULP energy -89085.416455 kJ/mol
# GULP energy per Si atom -5567.838528 kJ/mol
# Density = 2.156533 g / cm^3
# Si number density = 21.614527 Si / 1000 Ang^3
#
#
#
# Elastic Constant Matrix: (Units=GPa)
#
#
# Indices 1 2 3 4 5 6 
#
# 1 92.6877 -12.4349 38.5949 1.4004 -8.0050 19.0846
# 2 -12.4349 36.1475 10.7137 -1.1980 6.9508 -4.7339
# 3 38.5949 10.7137 105.0880 -2.1284 -12.8332 8.6472
# 4 1.4004 -1.1980 -2.1284 19.5580 3.1976 3.2182
# 5 -8.0050 6.9508 -12.8332 3.1976 32.9163 -3.2392
# 6 19.0846 -4.7339 8.6472 3.2182 -3.2392 36.5493
#
#
#
# Elastic Compliance Matrix: (Units=1/GPa)
#
#
# Indices 1 2 3 4 5 6 
#
# 1 0.015202 0.006267 -0.005806 -0.000319 -0.000426 -0.005762
# 2 0.006267 0.033751 -0.006865 0.001927 -0.008288 0.001819
# 3 -0.005806 -0.006865 0.013017 0.000687 0.004991 -0.000555
# 4 -0.000319 0.001927 0.000687 0.053117 -0.005863 -0.004943
# 5 -0.000426 -0.008288 0.004991 -0.005863 0.034696 0.001559
# 6 -0.005762 0.001819 -0.000555 -0.004943 0.001559 0.031310
#
#
# Mechanical properties :
#
#
# Convention : Reuss Voigt Hill
#
# Bulk Modulus (GPa) = 20.34125 34.18563 27.26344
# Shear Modulus (GPa) = 23.77683 30.94137 27.35910
#
# Velocity S-wave (km/s) = 3.32028 3.78763 3.56163
# Velocity P-wave (km/s) = 4.91227 5.91427 5.43640
#
# Compressibility (1/GPa) = 0.04916119
#
# Stress axis : x y z
#
# Youngs Moduli (GPa) = 65.78117 29.62885 76.82039
#
# Poissons Ratio (x) = -0.18569 0.44605
# Poissons Ratio (y) = -0.41227 0.52740
# Poissons Ratio (z) = 0.38195 0.20341
#
# Static dielectric constant tensor:
#      x y z
#    x 1.782810 -0.018300 -0.055470 
#    y -0.018300 1.970440 0.097610 
#    z -0.055470 0.097610 2.025170 
# 
# From -- ./inp_files/455551.got.cif
#   From: 2010.05.17/outbox.cif.g08.bks.cpg/sg2_228_cif.got.tgz:455551.got - 2010.06.03 11:33:40.
