data_PCOD9086007
_publ_section_title
;
Structure prediction by ZEFSAII (Michael W. Deem and Ramdas Pophale) SiO2 
 PCOD9086007
Probable space group: P -1
;
_chemical_formula_sum "Si O2"
_cell_formula_units_Z 14
_cell_length_a 9.492663
_cell_length_b 8.105752
_cell_length_c 15.789500
_cell_angle_alpha 122.269785
_cell_angle_beta 43.584848
_cell_angle_gamma 94.702172
_cell_volume 603.735358
_symmetry_space_group_name_H-M "P -1"
_symmetry_group_IT_number 2
_symmetry_cell_setting 'triclinic'
loop_
_space_group_symop_operation_xyz
x,y,z
-x,-y,-z
loop_
_atom_site_type_symbol
_atom_site_label
_atom_site_fract_x
_atom_site_fract_y
_atom_site_fract_z
Si Si1 0.065550 0.060875 0.856395
Si Si2 0.008435 0.496260 0.394116
Si Si3 0.413357 0.318492 0.496209
Si Si4 0.073842 0.042103 0.272532
Si Si5 0.018918 0.670065 0.871589
Si Si6 0.476065 0.298414 0.913033
Si Si7 0.775616 0.215963 0.611622
O O1 0.348223 0.926926 0.674862
O O2 0.933225 0.119077 0.839854
O O3 0.032667 0.870801 0.869975
O O4 0.980654 0.269187 0.014014
O O5 0.756794 0.658137 0.501599
O O6 0.000000 0.500000 0.500000
O O7 0.074624 0.243143 0.275538
O O8 0.194746 0.572836 0.316408
O O9 0.500000 0.500000 0.500000
O O10 0.237014 0.421168 0.681027
O O11 0.839441 0.156955 0.468302
O O12 0.307458 0.923806 0.196091
O O13 0.775845 0.678788 0.957410
O O14 0.539711 0.265679 0.776055
O O15 0.500000 0.500000 0.000000
O O16 0.000000 0.000000 0.500000
#
# Coordination Sequence:
#
# PCOD9086007 Si02
#       7
#     2   2   2   2   2   2   2
#     4  10  22  41  66  98 129 168 220 280 318 385
#     4  10  19  35  66  99 120 163 229 271 306 383
#     4  10  19  38  62  93 131 162 207 270 333 371
#     4  10  21  42  65  97 123 165 235 266 317 389
#     4  10  22  41  64  96 130 173 214 265 340 385
#     4  11  24  43  64  92 138 172 206 275 341 393
#     4   9  21  39  62  89 130 172 208 261 331 390
#
# _framework density 23.188967999999999
#
# number of rings (size 3 to 8) (size 9 to 14) (size 15 to 20)
#    0.000    2.000    2.857    0.857    6.000    0.571 
#    2.571    1.429    0.000    0.000    0.000    0.000 
#    0.000    0.000    0.000    0.000    0.000    0.000 
#
# Total GULP energy -78160.733654 kJ/mol
# GULP energy per Si atom -5582.909547 kJ/mol
# Density = 2.313619 g / cm^3
# Si number density = 23.188968 Si / 1000 Ang^3
#
#
#
# Elastic Constant Matrix: (Units=GPa)
#
#
# Indices 1 2 3 4 5 6 
#
# 1 120.1111 5.4275 59.2306 -14.4101 26.5532 8.1514
# 2 5.4275 40.1971 27.7912 -8.1963 -2.7350 1.2956
# 3 59.2306 27.7912 152.8864 -27.8198 11.4083 9.3922
# 4 -14.4101 -8.1963 -27.8198 20.0609 3.9017 -1.0773
# 5 26.5532 -2.7350 11.4083 3.9017 48.9814 -5.4062
# 6 8.1514 1.2956 9.3922 -1.0773 -5.4062 14.9038
#
#
#
# Elastic Compliance Matrix: (Units=1/GPa)
#
#
# Indices 1 2 3 4 5 6 
#
# 1 0.012658 0.001411 -0.002941 0.006640 -0.007445 -0.007413
# 2 0.001411 0.029425 -0.005019 0.005794 0.001681 0.000862
# 3 -0.002941 -0.005019 0.011255 0.011712 -0.002817 -0.005223
# 4 0.006640 0.005794 0.011712 0.075209 -0.013194 -0.010866
# 5 -0.007445 0.001681 -0.002817 -0.013194 0.027894 0.014865
# 6 -0.007413 0.000862 -0.005223 -0.010866 0.014865 0.078975
#
#
# Mechanical properties :
#
#
# Convention : Reuss Voigt Hill
#
# Bulk Modulus (GPa) = 24.85205 55.34368 40.09786
# Shear Modulus (GPa) = 19.08922 31.50557 25.29740
#
# Velocity S-wave (km/s) = 2.87226 3.68998 3.30650
# Velocity P-wave (km/s) = 4.66265 6.48635 5.64859
#
# Compressibility (1/GPa) = 0.04023814
#
# Stress axis : x y z
#
# Youngs Moduli (GPa) = 79.00213 33.98441 88.85147
#
# Poissons Ratio (x) = -0.04794 0.26132
# Poissons Ratio (y) = -0.11144 0.44598
# Poissons Ratio (z) = 0.23235 0.17058
#
# Static dielectric constant tensor:
#      x y z
#    x 1.842520 0.026510 0.077460 
#    y 0.026510 1.920680 -0.003840 
#    z 0.077460 -0.003840 1.909730 
# 
# From -- ./inp_files/201552.got.cif
#   From: 2010.05.17/outbox.cif.g08.bks.cpg/sg2_101_cif.got.tgz:201552.got - 2010.06.03 11:33:40.
