data_PCOD9086372
_publ_section_title
;
Structure prediction by ZEFSAII (Michael W. Deem and Ramdas Pophale) SiO2 
 PCOD9086372
Probable space group: P -1
;
_chemical_formula_sum "Si O2"
_cell_formula_units_Z 16
_cell_length_a 20.386975
_cell_length_b 22.623774
_cell_length_c 11.701619
_cell_angle_alpha 40.294558
_cell_angle_beta 147.838406
_cell_angle_gamma 161.374626
_cell_volume 892.469666
_symmetry_space_group_name_H-M "P -1"
_symmetry_group_IT_number 2
_symmetry_cell_setting 'triclinic'
loop_
_space_group_symop_operation_xyz
x,y,z
-x,-y,-z
loop_
_atom_site_type_symbol
_atom_site_label
_atom_site_fract_x
_atom_site_fract_y
_atom_site_fract_z
Si Si1 0.524296 0.664927 0.127293
Si Si2 0.329149 0.944396 0.738415
Si Si3 0.227214 0.707953 0.787251
Si Si4 0.306071 0.710707 0.651685
Si Si5 0.009299 0.878060 0.506790
Si Si6 0.882894 0.655200 0.831230
Si Si7 0.268289 0.741340 0.305961
Si Si8 0.546264 0.747309 0.282061
O O1 0.283734 0.451626 0.140153
O O2 0.645520 0.785259 0.245898
O O3 0.740182 0.745522 0.267903
O O4 0.423383 0.686126 0.877837
O O5 0.211121 0.792420 0.703390
O O6 0.123265 0.873336 0.602257
O O7 0.522299 0.129515 0.673743
O O8 0.500000 0.000000 0.000000
O O9 0.342535 0.787687 0.711368
O O10 0.954423 0.479217 0.712460
O O11 0.410028 0.757339 0.053909
O O12 0.386616 0.808741 0.507448
O O13 0.000000 0.500000 0.500000
O O14 0.962377 0.800474 0.676276
O O15 0.228147 0.096750 0.525469
O O16 0.684504 0.475541 0.715624
O O17 0.120972 0.742440 0.073290
#
# Coordination Sequence:
#
# PCOD9086372 Si02
#       8
#     2   2   2   2   2   2   2   2
#     4   9  19  33  54  80 100 136 178 220 265 298
#     4  12  23  32  50  81 114 147 167 203 268 326
#     4   9  18  35  54  80 106 131 182 221 256 306
#     4   9  16  36  63  77  97 135 183 231 258 288
#     4  12  20  33  49  75 119 139 164 211 263 327
#     4   9  18  31  54  80  99 133 174 220 266 296
#     4  10  19  36  58  79 101 137 182 222 260 298
#     4   8  17  31  50  75 104 134 172 215 261 298
#
# _framework density 17.927779999999998
#
# number of rings (size 3 to 8) (size 9 to 14) (size 15 to 20)
#    0.750    1.500    5.000    0.750    0.000    2.000 
#    0.000    0.625    0.000    3.000    0.000    0.000 
#    0.000    0.000    0.000    0.000    0.000    0.000 
#
# Total GULP energy -89098.042789 kJ/mol
# GULP energy per Si atom -5568.627674 kJ/mol
# Density = 1.788698 g / cm^3
# Si number density = 17.927780 Si / 1000 Ang^3
#
#
#
# Elastic Constant Matrix: (Units=GPa)
#
#
# Indices 1 2 3 4 5 6 
#
# 1 55.1796 10.0112 34.1891 -0.1375 17.8542 7.7249
# 2 10.0112 41.4911 13.1403 -5.9955 1.1195 4.7262
# 3 34.1891 13.1403 73.0688 -1.3527 18.2555 8.9891
# 4 -0.1375 -5.9955 -1.3527 16.3575 9.2516 -2.1416
# 5 17.8542 1.1195 18.2555 9.2516 31.6780 2.6598
# 6 7.7249 4.7262 8.9891 -2.1416 2.6598 20.5853
#
#
#
# Elastic Compliance Matrix: (Units=1/GPa)
#
#
# Indices 1 2 3 4 5 6 
#
# 1 0.028851 -0.002491 -0.009546 0.004605 -0.011673 -0.004099
# 2 -0.002491 0.027425 -0.003155 0.009546 -0.000287 -0.002954
# 3 -0.009546 -0.003155 0.021151 0.004408 -0.007693 -0.003477
# 4 0.004605 0.009546 0.004408 0.083047 -0.030291 0.006709
# 5 -0.011673 -0.000287 -0.007693 -0.030291 0.051606 -0.002014
# 6 -0.004099 -0.002954 -0.003477 0.006709 -0.002014 0.053271
#
#
# Mechanical properties :
#
#
# Convention : Reuss Voigt Hill
#
# Bulk Modulus (GPa) = 21.25624 31.60228 26.42926
# Shear Modulus (GPa) = 16.05573 21.21742 18.63658
#
# Velocity S-wave (km/s) = 2.99587 3.44393 3.22768
# Velocity P-wave (km/s) = 4.88357 5.78619 5.35394
#
# Compressibility (1/GPa) = 0.04704500
#
# Stress axis : x y z
#
# Youngs Moduli (GPa) = 34.66039 36.46273 47.27943
#
# Poissons Ratio (x) = 0.09082 0.45132
# Poissons Ratio (y) = 0.08633 0.14915
# Poissons Ratio (z) = 0.33086 0.11503
#
# Static dielectric constant tensor:
#      x y z
#    x 1.628910 -0.001710 -0.002020 
#    y -0.001710 1.641880 0.010620 
#    z -0.002020 0.010620 1.608600 
# 
# From -- ./inp_files/428953.got.cif
#   From: 2010.05.17/outbox.cif.g08.bks.cpg/sg2_215_cif.got.tgz:428953.got - 2010.06.03 11:33:40.
