data_PCOD9086050
_publ_section_title
;
Structure prediction by ZEFSAII (Michael W. Deem and Ramdas Pophale) SiO2 
 PCOD9086050
Probable space group: P -1
;
_chemical_formula_sum "Si O2"
_cell_formula_units_Z 16
_cell_length_a 22.095515
_cell_length_b 14.911678
_cell_length_c 7.914874
_cell_angle_alpha 54.175264
_cell_angle_beta 67.168608
_cell_angle_gamma 22.067206
_cell_volume 684.760563
_symmetry_space_group_name_H-M "P -1"
_symmetry_group_IT_number 2
_symmetry_cell_setting 'triclinic'
loop_
_space_group_symop_operation_xyz
x,y,z
-x,-y,-z
loop_
_atom_site_type_symbol
_atom_site_label
_atom_site_fract_x
_atom_site_fract_y
_atom_site_fract_z
Si Si1 0.652644 0.194164 0.280467
Si Si2 0.608504 0.061791 0.292879
Si Si3 0.645867 0.923739 0.064217
Si Si4 0.961785 0.143097 0.077099
Si Si5 0.252265 0.435771 0.841829
Si Si6 0.484526 0.396210 0.579450
Si Si7 0.721244 0.494849 0.633529
Si Si8 0.248630 0.741728 0.746682
O O1 0.732089 0.966317 0.339599
O O2 0.532779 0.324892 0.412032
O O3 0.780057 0.088984 0.341310
O O4 0.500000 0.500000 0.000000
O O5 0.492784 0.176212 0.432646
O O6 0.436366 0.395966 0.012178
O O7 0.705874 0.836480 0.290682
O O8 0.444462 0.177629 0.002781
O O9 0.623809 0.083769 0.846399
O O10 0.758603 0.674076 0.083006
O O11 0.902740 0.296534 0.143138
O O12 0.905768 0.103654 0.217281
O O13 0.834384 0.375245 0.797242
O O14 0.176477 0.787606 0.183362
O O15 0.264660 0.475533 0.600403
O O16 0.500000 0.500000 0.500000
O O17 0.291682 0.669400 0.579731
#
# Coordination Sequence:
#
# PCOD9086050 Si02
#       8
#     2   2   2   2   2   2   2   2
#     4   9  16  25  46  72 100 124 163 218 264 308
#     4   9  16  30  44  74 108 127 171 212 256 313
#     4  10  20  33  48  75 112 141 166 219 261 327
#     4  10  19  36  51  76 111 134 183 220 245 315
#     4  11  20  34  50  73 111 146 172 206 269 320
#     4   9  15  28  47  67  99 130 166 213 262 300
#     4  10  20  32  54  74 104 147 176 217 257 302
#     4   8  15  28  44  69 101 125 164 212 259 302
#
# _framework density 23.365829999999999
#
# number of rings (size 3 to 8) (size 9 to 14) (size 15 to 20)
#    0.000    2.500    3.750    1.875    0.000    0.500 
#    2.250    0.000    0.000    0.000    0.000    4.375 
#    0.000    6.000    0.000    0.000    0.000    0.000 
#
# Total GULP energy -89109.818094 kJ/mol
# GULP energy per Si atom -5569.363631 kJ/mol
# Density = 2.331265 g / cm^3
# Si number density = 23.365830 Si / 1000 Ang^3
#
#
#
# Elastic Constant Matrix: (Units=GPa)
#
#
# Indices 1 2 3 4 5 6 
#
# 1 86.5722 40.3858 11.4177 -7.5934 -12.9920 37.0961
# 2 40.3858 126.0940 32.3873 24.4548 -4.5950 46.9237
# 3 11.4177 32.3873 46.5902 20.4972 -9.7281 17.5301
# 4 -7.5934 24.4548 20.4972 30.8281 2.5250 1.7926
# 5 -12.9920 -4.5950 -9.7281 2.5250 18.3986 -1.8793
# 6 37.0961 46.9237 17.5301 1.7926 -1.8793 40.6557
#
#
#
# Elastic Compliance Matrix: (Units=1/GPa)
#
#
# Indices 1 2 3 4 5 6 
#
# 1 0.023410 -0.000286 0.005503 0.002286 0.016734 -0.022730
# 2 -0.000286 0.018697 0.004321 -0.017049 0.006833 -0.022114
# 3 0.005503 0.004321 0.051879 -0.037706 0.034596 -0.029115
# 4 0.002286 -0.017049 -0.037706 0.072309 -0.029511 0.029297
# 5 0.016734 0.006833 0.034596 -0.029511 0.086871 -0.032755
# 6 -0.022730 -0.022114 -0.029115 0.029297 -0.032755 0.080609
#
#
# Mechanical properties :
#
#
# Convention : Reuss Voigt Hill
#
# Bulk Modulus (GPa) = 8.84477 47.51534 28.18005
# Shear Modulus (GPa) = 14.18890 29.64754 21.91822
#
# Velocity S-wave (km/s) = 2.46692 3.56595 3.06608
# Velocity P-wave (km/s) = 3.45077 6.11017 4.96195
#
# Compressibility (1/GPa) = 0.11306122
#
# Stress axis : x y z
#
# Youngs Moduli (GPa) = 42.71591 53.48342 19.27560
#
# Poissons Ratio (x) = 0.01531 -0.10607
# Poissons Ratio (y) = 0.01222 -0.08328
# Poissons Ratio (z) = -0.23505 -0.23108
#
# Static dielectric constant tensor:
#      x y z
#    x 1.961460 0.053930 0.009060 
#    y 0.053930 1.956380 0.005650 
#    z 0.009060 0.005650 1.994510 
# 
# From -- ./inp_files/357259.got.cif
#   From: 2010.05.17/outbox.cif.g08.bks.cpg/sg2_179_cif.got.tgz:357259.got - 2010.06.03 11:33:40.
