data_PCOD9086177
_publ_section_title
;
Structure prediction by ZEFSAII (Michael W. Deem and Ramdas Pophale) SiO2 
 PCOD9086177
Probable space group: P -1
;
_chemical_formula_sum "Si O2"
_cell_formula_units_Z 14
_cell_length_a 14.564628
_cell_length_b 9.058155
_cell_length_c 7.147821
_cell_angle_alpha 69.300590
_cell_angle_beta 53.908553
_cell_angle_gamma 44.335588
_cell_volume 528.684016
_symmetry_space_group_name_H-M "P -1"
_symmetry_group_IT_number 2
_symmetry_cell_setting 'triclinic'
loop_
_space_group_symop_operation_xyz
x,y,z
-x,-y,-z
loop_
_atom_site_type_symbol
_atom_site_label
_atom_site_fract_x
_atom_site_fract_y
_atom_site_fract_z
Si Si1 0.774071 0.734116 0.783915
Si Si2 0.367223 0.816400 0.370746
Si Si3 0.336134 0.163883 0.719020
Si Si4 0.121812 0.826824 0.752565
Si Si5 0.698796 0.473891 0.985065
Si Si6 0.049429 0.589707 0.752160
Si Si7 0.251385 0.896743 0.851699
O O1 0.939227 0.645253 0.689198
O O2 0.696362 0.946615 0.668323
O O3 0.671254 0.800146 0.065735
O O4 0.773693 0.560417 0.774511
O O5 0.234745 0.814976 0.480518
O O6 0.517888 0.660612 0.138299
O O7 0.389183 0.759400 0.592066
O O8 0.230634 0.384726 0.634242
O O9 0.500000 0.000000 0.500000
O O10 0.263038 0.057220 0.844337
O O11 0.222375 0.623078 0.861668
O O12 0.025858 0.791802 0.760901
O O13 0.104594 0.996105 0.846186
O O14 0.735103 0.265579 0.956891
O O15 0.000000 0.500000 0.000000
#
# Coordination Sequence:
#
# PCOD9086177 Si02
#       7
#     2   2   2   2   2   2   2
#     4  11  21  36  56  85 112 144 183 229 272 325
#     4   9  19  32  59  80 110 143 193 218 269 329
#     4  11  21  33  59  85 108 142 188 232 271 317
#     4   8  17  33  58  77 105 151 189 214 263 337
#     4   9  16  32  57  77 105 148 186 216 260 334
#     4  10  19  36  56  82 111 147 185 221 268 336
#     4   8  18  33  53  80 103 141 186 224 264 319
#
# _framework density 26.480847000000001
#
# number of rings (size 3 to 8) (size 9 to 14) (size 15 to 20)
#    1.714    0.571    2.857    3.000    2.000    0.571 
#    0.000    7.857    3.143    0.000    0.000    0.000 
#    0.000    0.000    0.000    0.000    0.000    0.000 
#
# Total GULP energy -78036.478217 kJ/mol
# GULP energy per Si atom -5574.034158 kJ/mol
# Density = 2.642058 g / cm^3
# Si number density = 26.480847 Si / 1000 Ang^3
#
#
#
# Elastic Constant Matrix: (Units=GPa)
#
#
# Indices 1 2 3 4 5 6 
#
# 1 130.7878 53.2284 87.2100 6.8098 -42.3265 18.0246
# 2 53.2284 148.4913 35.8462 -16.6909 -21.3692 22.9592
# 3 87.2100 35.8462 166.5257 30.6901 -42.7476 -18.8241
# 4 6.8098 -16.6909 30.6901 57.4979 -13.4762 -26.5823
# 5 -42.3265 -21.3692 -42.7476 -13.4762 57.8074 2.6424
# 6 18.0246 22.9592 -18.8241 -26.5823 2.6424 55.0867
#
#
#
# Elastic Compliance Matrix: (Units=1/GPa)
#
#
# Indices 1 2 3 4 5 6 
#
# 1 0.016451 -0.002173 -0.007329 -0.000805 0.005985 -0.007657
# 2 -0.002173 0.008606 -0.001050 0.002766 0.001549 -0.001974
# 3 -0.007329 -0.001050 0.011699 -0.002694 0.002020 0.005436
# 4 -0.000805 0.002766 -0.002694 0.025378 0.003889 0.010250
# 5 0.005985 0.001549 0.002020 0.003889 0.024710 -0.001222
# 6 -0.007657 -0.001974 0.005436 0.010250 -0.001222 0.028343
#
#
# Mechanical properties :
#
#
# Convention : Reuss Voigt Hill
#
# Bulk Modulus (GPa) = 63.88612 88.70822 76.29717
# Shear Modulus (GPa) = 35.33351 52.04641 43.68996
#
# Velocity S-wave (km/s) = 3.65678 4.43813 4.06627
# Velocity P-wave (km/s) = 6.48129 7.73527 7.13588
#
# Compressibility (1/GPa) = 0.01565285
#
# Stress axis : x y z
#
# Youngs Moduli (GPa) = 60.78522 116.20004 85.47937
#
# Poissons Ratio (x) = 0.25253 0.62644
# Poissons Ratio (y) = 0.13210 0.08973
# Poissons Ratio (z) = 0.44547 0.12197
#
# Static dielectric constant tensor:
#      x y z
#    x 2.163770 0.017310 -0.084530 
#    y 0.017310 2.091150 0.166850 
#    z -0.084530 0.166850 2.338740 
# 
# From -- ./inp_files/294698.got.cif
#   From: 2010.05.17/outbox.cif.g08.bks.cpg/sg2_148_cif.got.tgz:294698.got - 2010.06.03 11:33:40.
