data_PCOD9086495
_publ_section_title
;
Structure prediction by ZEFSAII (Michael W. Deem and Ramdas Pophale) SiO2 
 PCOD9086495
Probable space group: P -1
;
_chemical_formula_sum "Si O2"
_cell_formula_units_Z 16
_cell_length_a 10.098258
_cell_length_b 16.541945
_cell_length_c 20.147059
_cell_angle_alpha 159.863271
_cell_angle_beta 147.264997
_cell_angle_gamma 33.271164
_cell_volume 606.812951
_symmetry_space_group_name_H-M "P -1"
_symmetry_group_IT_number 2
_symmetry_cell_setting 'triclinic'
loop_
_space_group_symop_operation_xyz
x,y,z
-x,-y,-z
loop_
_atom_site_type_symbol
_atom_site_label
_atom_site_fract_x
_atom_site_fract_y
_atom_site_fract_z
Si Si1 0.890218 0.954644 0.257491
Si Si2 0.544923 0.787590 0.207165
Si Si3 0.947708 0.573952 0.882795
Si Si4 0.189955 0.798389 0.381295
Si Si5 0.129138 0.599129 0.548761
Si Si6 0.915950 0.910293 0.824203
Si Si7 0.276685 0.234214 0.601609
Si Si8 0.465262 0.200225 0.197806
O O1 0.017093 0.768591 0.223206
O O2 0.589701 0.067749 0.215146
O O3 0.962112 0.819202 0.113964
O O4 0.046682 0.156627 0.482665
O O5 0.579846 0.666292 0.201830
O O6 0.785939 0.613895 0.140193
O O7 0.600999 0.060914 0.443493
O O8 0.280748 0.858963 0.113161
O O9 0.751419 0.450004 0.744339
O O10 0.820919 0.647413 0.814105
O O11 0.000000 0.000000 0.500000
O O12 0.194260 0.320871 0.383095
O O13 0.339927 0.643744 0.621510
O O14 0.099984 0.782893 0.741789
O O15 0.861624 0.646460 0.431354
O O16 0.000000 0.000000 0.000000
O O17 0.500000 0.000000 0.500000
O O18 0.500000 0.000000 0.000000
#
# Coordination Sequence:
#
# PCOD9086495 Si02
#       8
#     2   2   2   2   2   2   2   2
#     4   9  19  34  57  86 117 158 202 243 307 363
#     4  10  21  39  59  92 121 153 209 253 304 373
#     4  10  19  36  58  90 120 153 196 255 303 363
#     4   9  18  34  55  81 120 155 197 246 297 364
#     4  10  22  44  68  91 127 172 204 260 322 361
#     4  11  24  44  64  95 128 163 216 259 310 379
#     4  10  19  39  64  83 118 163 201 251 309 363
#     4   9  19  39  64  89 124 161 205 250 315 374
#
# _framework density 26.367269
#
# number of rings (size 3 to 8) (size 9 to 14) (size 15 to 20)
#    0.000    2.250    1.250    1.125    0.000    1.000 
#   20.250   11.250    0.000    0.000    0.000    0.000 
#    0.000    0.000    0.000    0.000    0.000    0.000 
#
# Total GULP energy -89210.488643 kJ/mol
# GULP energy per Si atom -5575.655540 kJ/mol
# Density = 2.630726 g / cm^3
# Si number density = 26.367269 Si / 1000 Ang^3
#
#
#
# Elastic Constant Matrix: (Units=GPa)
#
#
# Indices 1 2 3 4 5 6 
#
# 1 46.4330 10.5424 15.4827 -8.6378 1.4176 0.5689
# 2 10.5424 208.9026 51.6350 -22.7522 -10.9892 6.8930
# 3 15.4827 51.6350 102.0610 -9.0065 -13.9243 -5.4368
# 4 -8.6378 -22.7522 -9.0065 47.5099 9.3950 -8.4311
# 5 1.4176 -10.9892 -13.9243 9.3950 45.1935 3.3183
# 6 0.5689 6.8930 -5.4368 -8.4311 3.3183 28.5619
#
#
#
# Elastic Compliance Matrix: (Units=1/GPa)
#
#
# Indices 1 2 3 4 5 6 
#
# 1 0.023589 -0.000010 -0.003552 0.004229 -0.002747 0.000424
# 2 -0.000010 0.005741 -0.002773 0.001931 0.000241 -0.001371
# 3 -0.003552 -0.002773 0.012319 0.000275 0.002968 0.002821
# 4 0.004229 0.001931 0.000275 0.025199 -0.005372 0.007565
# 5 -0.002747 0.000241 0.002968 -0.005372 0.024588 -0.003881
# 6 0.000424 -0.001371 0.002821 0.007565 -0.003881 0.038555
#
#
# Mechanical properties :
#
#
# Convention : Reuss Voigt Hill
#
# Bulk Modulus (GPa) = 34.50844 56.96852 45.73848
# Shear Modulus (GPa) = 32.82546 42.90215 37.86381
#
# Velocity S-wave (km/s) = 3.53219 4.03811 3.79359
# Velocity P-wave (km/s) = 5.45446 6.58744 6.04754
#
# Compressibility (1/GPa) = 0.02897842
#
# Stress axis : x y z
#
# Youngs Moduli (GPa) = 42.39348 174.18586 81.17367
#
# Poissons Ratio (x) = 0.00180 0.28834
# Poissons Ratio (y) = 0.00044 0.22507
# Poissons Ratio (z) = 0.15059 0.48296
#
# Static dielectric constant tensor:
#      x y z
#    x 2.063540 -0.010110 0.017450 
#    y -0.010110 2.121930 -0.072270 
#    z 0.017450 -0.072270 2.138990 
# 
# From -- ./inp_files/596084.got.cif
#   From: 2010.05.17/outbox.cif.g08.bks.cpg/sg2_299_cif.got.tgz:596084.got - 2010.06.03 11:33:40.
