data_PCOD9086578
_publ_section_title
;
Structure prediction by ZEFSAII (Michael W. Deem and Ramdas Pophale) SiO2 
 PCOD9086578
Probable space group: P -1
;
_chemical_formula_sum "Si O2"
_cell_formula_units_Z 16
_cell_length_a 6.855668
_cell_length_b 14.066866
_cell_length_c 8.994805
_cell_angle_alpha 54.222945
_cell_angle_beta 93.040243
_cell_angle_gamma 74.626008
_cell_volume 654.133143
_symmetry_space_group_name_H-M "P -1"
_symmetry_group_IT_number 2
_symmetry_cell_setting 'triclinic'
loop_
_space_group_symop_operation_xyz
x,y,z
-x,-y,-z
loop_
_atom_site_type_symbol
_atom_site_label
_atom_site_fract_x
_atom_site_fract_y
_atom_site_fract_z
Si Si1 0.788076 0.417389 0.222707
Si Si2 0.527925 0.764186 0.134679
Si Si3 0.774420 0.062007 0.824139
Si Si4 0.962719 0.781525 0.044534
Si Si5 0.336406 0.916196 0.524103
Si Si6 0.718792 0.332496 0.604452
Si Si7 0.942323 0.825801 0.652086
Si Si8 0.470286 0.325741 0.102255
O O1 0.719939 0.420490 0.388989
O O2 0.625613 0.376934 0.152568
O O3 0.009172 0.303604 0.317517
O O4 0.747137 0.558154 0.039009
O O5 0.376410 0.896420 0.077235
O O6 0.751835 0.767992 0.107733
O O7 0.504994 0.666528 0.347080
O O8 0.448597 0.729363 0.007162
O O9 0.648490 0.057075 0.673024
O O10 0.826417 0.187674 0.681490
O O11 0.948428 0.922803 0.961915
O O12 0.147007 0.673264 0.237268
O O13 0.965442 0.784563 0.864285
O O14 0.527221 0.795771 0.698627
O O15 0.134377 0.873670 0.578183
O O16 0.263377 0.047564 0.489242
#
# Coordination Sequence:
#
# PCOD9086578 Si02
#       8
#     2   2   2   2   2   2   2   2
#     4  10  20  37  60  87 113 158 202 238 295 353
#     4  10  22  36  56  87 118 154 197 241 292 353
#     4   9  19  36  57  87 119 153 193 241 298 351
#     4  11  21  36  58  88 121 154 193 240 300 355
#     4   9  16  33  60  83 114 151 192 240 291 347
#     4  10  20  36  60  83 117 155 195 240 296 346
#     4   9  17  32  55  85 117 144 192 242 285 347
#     4  10  19  36  59  84 117 154 199 243 290 350
#
# _framework density 24.459852999999999
#
# number of rings (size 3 to 8) (size 9 to 14) (size 15 to 20)
#    0.750    1.500    2.500    2.250    0.000    1.500 
#    0.000    7.500    0.000    0.000    0.000    0.000 
#    0.000    0.000    0.000    0.000    0.000    0.000 
#
# Total GULP energy -89209.838780 kJ/mol
# GULP energy per Si atom -5575.614924 kJ/mol
# Density = 2.440418 g / cm^3
# Si number density = 24.459853 Si / 1000 Ang^3
#
#
#
# Elastic Constant Matrix: (Units=GPa)
#
#
# Indices 1 2 3 4 5 6 
#
# 1 69.5381 5.9737 22.7922 1.6351 -17.2102 -1.0611
# 2 5.9737 102.3225 49.4379 -14.1207 1.1990 -23.8844
# 3 22.7922 49.4379 97.5767 -9.5846 -1.2540 -8.7541
# 4 1.6351 -14.1207 -9.5846 45.5639 -9.8915 -0.7542
# 5 -17.2102 1.1990 -1.2540 -9.8915 26.4042 2.7669
# 6 -1.0611 -23.8844 -8.7541 -0.7542 2.7669 20.2217
#
#
#
# Elastic Compliance Matrix: (Units=1/GPa)
#
#
# Indices 1 2 3 4 5 6 
#
# 1 0.018955 0.000759 -0.004684 0.001315 0.012783 -0.001836
# 2 0.000759 0.018223 -0.007340 0.004150 -0.001085 0.018689
# 3 -0.004684 -0.007340 0.014906 0.000660 -0.001531 -0.002228
# 4 0.001315 0.004150 0.000660 0.025522 0.009750 0.004874
# 5 0.012783 -0.001085 -0.001531 0.009750 0.050655 -0.007841
# 6 -0.001836 0.018689 -0.002228 0.004874 -0.007841 0.071720
#
#
# Mechanical properties :
#
#
# Convention : Reuss Voigt Hill
#
# Bulk Modulus (GPa) = 33.83359 47.31610 40.57484
# Shear Modulus (GPa) = 21.51813 31.18686 26.35249
#
# Velocity S-wave (km/s) = 2.96925 3.57462 3.28590
# Velocity P-wave (km/s) = 5.06138 6.03520 5.56961
#
# Compressibility (1/GPa) = 0.02955643
#
# Stress axis : x y z
#
# Youngs Moduli (GPa) = 52.75572 54.87632 67.08550
#
# Poissons Ratio (x) = -0.04167 0.31421
# Poissons Ratio (y) = -0.04006 0.49239
# Poissons Ratio (z) = 0.24709 0.40277
#
# Static dielectric constant tensor:
#      x y z
#    x 1.998630 0.006190 0.052950 
#    y 0.006190 2.007800 -0.022790 
#    z 0.052950 -0.022790 1.954620 
# 
# From -- ./inp_files/200257.got.cif
#   From: 2010.05.17/outbox.cif.g08.bks.cpg/sg2_101_cif.got.tgz:200257.got - 2010.06.03 11:33:40.
