data_PCOD9086141
_publ_section_title
;
Structure prediction by ZEFSAII (Michael W. Deem and Ramdas Pophale) SiO2 
 PCOD9086141
Probable space group: P -1
;
_chemical_formula_sum "Si O2"
_cell_formula_units_Z 16
_cell_length_a 9.358958
_cell_length_b 11.774025
_cell_length_c 14.262317
_cell_angle_alpha 88.834614
_cell_angle_beta 72.029442
_cell_angle_gamma 141.806528
_cell_volume 826.924762
_symmetry_space_group_name_H-M "P -1"
_symmetry_group_IT_number 2
_symmetry_cell_setting 'triclinic'
loop_
_space_group_symop_operation_xyz
x,y,z
-x,-y,-z
loop_
_atom_site_type_symbol
_atom_site_label
_atom_site_fract_x
_atom_site_fract_y
_atom_site_fract_z
Si Si1 0.374648 0.351285 0.440374
Si Si2 0.567026 0.426822 0.706374
Si Si3 0.284787 0.668336 0.188919
Si Si4 0.143615 0.406675 0.065373
Si Si5 0.258706 0.914983 0.998857
Si Si6 0.648203 0.651542 0.844751
Si Si7 0.068323 0.087970 0.669220
Si Si8 0.963019 0.697930 0.249005
O O1 0.500000 0.500000 0.500000
O O2 0.257294 0.376192 0.397054
O O3 0.186014 0.147301 0.539623
O O4 0.640439 0.471401 0.330548
O O5 0.701841 0.398550 0.719326
O O6 0.516189 0.470488 0.809221
O O7 0.306370 0.232804 0.698176
O O8 0.140718 0.505751 0.138845
O O9 0.131651 0.690548 0.233708
O O10 0.589642 0.884546 0.084672
O O11 0.170620 0.304768 0.118113
O O12 0.418259 0.578446 0.945259
O O13 0.890377 0.247663 0.049952
O O14 0.043436 0.794706 0.127937
O O15 0.500000 0.000000 0.000000
O O16 0.837960 0.853984 0.744167
O O17 0.963399 0.151606 0.699677
#
# Coordination Sequence:
#
# PCOD9086141 Si02
#       8
#     2   2   2   2   2   2   2   2
#     4   8  17  34  53  73 100 136 176 218 258 306
#     4   9  18  34  53  75 103 136 175 216 259 306
#     4  10  20  33  53  77 108 140 168 214 265 312
#     4  10  20  34  51  82 111 135 176 212 258 315
#     4  10  20  33  51  75 107 143 172 205 256 317
#     4  10  20  32  56  81 105 140 173 217 260 308
#     4  10  19  36  56  74 102 138 179 217 259 311
#     4   9  18  33  51  75 103 135 172 212 261 304
#
# _framework density 19.348799
#
# number of rings (size 3 to 8) (size 9 to 14) (size 15 to 20)
#    0.000    2.750    0.000    3.000    0.000    2.500 
#    0.000   17.500    0.000    3.000    0.000    0.000 
#    0.000    1.000    0.000    0.000    0.000    0.000 
#
# Total GULP energy -89093.153741 kJ/mol
# GULP energy per Si atom -5568.322109 kJ/mol
# Density = 1.930476 g / cm^3
# Si number density = 19.348799 Si / 1000 Ang^3
#
#
#
# Elastic Constant Matrix: (Units=GPa)
#
#
# Indices 1 2 3 4 5 6 
#
# 1 87.3891 36.7279 44.3206 -15.9887 12.1546 6.4542
# 2 36.7279 81.9892 23.9070 0.4626 1.3400 6.1939
# 3 44.3206 23.9070 110.9586 -24.8986 18.7825 -1.6576
# 4 -15.9887 0.4626 -24.8986 32.6183 -6.2778 14.3357
# 5 12.1546 1.3400 18.7825 -6.2778 26.8214 1.6497
# 6 6.4542 6.1939 -1.6576 14.3357 1.6497 22.3156
#
#
#
# Elastic Compliance Matrix: (Units=1/GPa)
#
#
# Indices 1 2 3 4 5 6 
#
# 1 0.019291 -0.006837 -0.003416 0.011240 -0.002703 -0.010956
# 2 -0.006837 0.015870 -0.002248 -0.004939 0.002700 0.000379
# 3 -0.003416 -0.002248 0.013808 0.008984 -0.005740 -0.002709
# 4 0.011240 -0.004939 0.008984 0.062710 0.006120 -0.041950
# 5 -0.002703 0.002700 -0.005740 0.006120 0.044293 -0.007600
# 6 -0.010956 0.000379 -0.002709 -0.041950 -0.007600 0.075185
#
#
# Mechanical properties :
#
#
# Convention : Reuss Voigt Hill
#
# Bulk Modulus (GPa) = 41.72479 54.47198 48.09839
# Shear Modulus (GPa) = 18.92868 28.04313 23.48590
#
# Velocity S-wave (km/s) = 3.13115 3.81116 3.48777
# Velocity P-wave (km/s) = 5.88927 6.89785 6.41342
#
# Compressibility (1/GPa) = 0.02396657
#
# Stress axis : x y z
#
# Youngs Moduli (GPa) = 51.83839 63.01168 72.41990
#
# Poissons Ratio (x) = 0.43081 0.24739
# Poissons Ratio (y) = 0.35441 0.16282
# Poissons Ratio (z) = 0.17708 0.14167
#
# Static dielectric constant tensor:
#      x y z
#    x 1.694190 0.005520 0.026140 
#    y 0.005520 1.714730 -0.022260 
#    z 0.026140 -0.022260 1.749150 
# 
# From -- ./inp_files/500407.got.cif
#   From: 2010.05.17/outbox.cif.g08.bks.cpg/sg2_251_cif.got.tgz:500407.got - 2010.06.03 11:33:40.
