data_PCOD9086348
_publ_section_title
;
Structure prediction by ZEFSAII (Michael W. Deem and Ramdas Pophale) SiO2 
 PCOD9086348
Probable space group: P -1
;
_chemical_formula_sum "Si O2"
_cell_formula_units_Z 16
_cell_length_a 10.114883
_cell_length_b 11.776880
_cell_length_c 11.589405
_cell_angle_alpha 127.709128
_cell_angle_beta 73.556513
_cell_angle_gamma 67.906495
_cell_volume 722.706816
_symmetry_space_group_name_H-M "P -1"
_symmetry_group_IT_number 2
_symmetry_cell_setting 'triclinic'
loop_
_space_group_symop_operation_xyz
x,y,z
-x,-y,-z
loop_
_atom_site_type_symbol
_atom_site_label
_atom_site_fract_x
_atom_site_fract_y
_atom_site_fract_z
Si Si1 0.265729 0.159778 0.136429
Si Si2 0.814766 0.492621 0.719829
Si Si3 0.508410 0.295076 0.587064
Si Si4 0.124238 0.430411 0.765506
Si Si5 0.867396 0.946318 0.693204
Si Si6 0.552702 0.396603 0.049965
Si Si7 0.229098 0.117874 0.852222
Si Si8 0.404725 0.974104 0.391738
O O1 0.193543 0.380239 0.298023
O O2 0.180708 0.113793 0.221283
O O3 0.500000 0.000000 0.000000
O O4 0.219226 0.134203 0.004016
O O5 0.597882 0.623983 0.906671
O O6 0.963575 0.459936 0.751203
O O7 0.908451 0.267752 0.526024
O O8 0.300215 0.395891 0.644013
O O9 0.486357 0.471751 0.748546
O O10 0.696699 0.093855 0.342616
O O11 0.527701 0.197697 0.644184
O O12 0.265356 0.195109 0.630329
O O13 0.978729 0.655822 0.002757
O O14 0.735538 0.986124 0.645369
O O15 0.782303 0.170463 0.861882
O O16 0.500000 0.500000 0.000000
O O17 0.414420 0.080377 0.748077
#
# Coordination Sequence:
#
# PCOD9086348 Si02
#       8
#     2   2   2   2   2   2   2   2
#     4  11  19  38  73  94 122 164 212 276 315 359
#     4  10  23  41  67  98 122 162 219 265 315 371
#     4  11  24  38  59  89 132 170 203 254 315 380
#     4   9  20  37  60  89 120 159 209 259 306 361
#     4  11  21  41  64  94 129 163 218 265 308 370
#     4  12  25  43  61  91 135 176 208 249 318 391
#     4  10  20  37  59  92 123 155 212 258 317 362
#     4  10  19  36  57  90 124 163 205 260 306 369
#
# _framework density 22.138991000000001
#
# number of rings (size 3 to 8) (size 9 to 14) (size 15 to 20)
#    0.000    1.500    3.750    2.625    0.000    3.500 
#    2.250    0.625    0.000    3.750    0.000    0.000 
#    0.000    0.000    0.000    0.000    0.000    0.000 
#
# Total GULP energy -89093.207399 kJ/mol
# GULP energy per Si atom -5568.325462 kJ/mol
# Density = 2.208860 g / cm^3
# Si number density = 22.138991 Si / 1000 Ang^3
#
#
#
# Elastic Constant Matrix: (Units=GPa)
#
#
# Indices 1 2 3 4 5 6 
#
# 1 53.0547 -7.5451 11.0485 2.0755 13.2959 3.3009
# 2 -7.5451 49.1771 -4.1531 1.5093 4.3302 -1.4026
# 3 11.0485 -4.1531 150.0912 32.4562 10.9734 8.3842
# 4 2.0755 1.5093 32.4562 34.4053 6.8367 9.6844
# 5 13.2959 4.3302 10.9734 6.8367 35.3800 -1.1675
# 6 3.3009 -1.4026 8.3842 9.6844 -1.1675 7.1125
#
#
#
# Elastic Compliance Matrix: (Units=1/GPa)
#
#
# Indices 1 2 3 4 5 6 
#
# 1 0.023401 0.003612 -0.001327 0.007778 -0.011020 -0.020983
# 2 0.003612 0.021484 0.000893 -0.002490 -0.003641 0.004300
# 3 -0.001327 0.000893 0.008547 -0.008559 -0.000532 0.002283
# 4 0.007778 -0.002490 -0.008559 0.062778 -0.014798 -0.081918
# 5 -0.011020 -0.003641 -0.000532 -0.014798 0.036907 0.031231
# 6 -0.020983 0.004300 0.002283 -0.081918 0.031231 0.265158
#
#
# Mechanical properties :
#
#
# Convention : Reuss Voigt Hill
#
# Bulk Modulus (GPa) = 16.72579 27.89153 22.30866
# Shear Modulus (GPa) = 11.57812 32.24441 21.91127
#
# Velocity S-wave (km/s) = 2.28934 3.82049 3.14938
# Velocity P-wave (km/s) = 3.81568 5.66456 4.82943
#
# Compressibility (1/GPa) = 0.05978790
#
# Stress axis : x y z
#
# Youngs Moduli (GPa) = 42.73266 46.54669 116.99742
#
# Poissons Ratio (x) = -0.16811 0.15522
# Poissons Ratio (y) = -0.15433 -0.10447
# Poissons Ratio (z) = 0.05669 -0.04156
#
# Static dielectric constant tensor:
#      x y z
#    x 1.830320 -0.002660 0.030110 
#    y -0.002660 1.811860 0.015280 
#    z 0.030110 0.015280 1.816610 
# 
# From -- ./inp_files/518180.got.cif
#   From: 2010.05.17/outbox.cif.g08.bks.cpg/sg2_260_cif.got.tgz:518180.got - 2010.06.03 11:33:40.
