data_PCOD9086168
_publ_section_title
;
Structure prediction by ZEFSAII (Michael W. Deem and Ramdas Pophale) SiO2 
 PCOD9086168
Probable space group: P -1
;
_chemical_formula_sum "Si O2"
_cell_formula_units_Z 16
_cell_length_a 9.006989
_cell_length_b 14.226487
_cell_length_c 9.337989
_cell_angle_alpha 92.348582
_cell_angle_beta 113.226321
_cell_angle_gamma 54.526159
_cell_volume 866.792886
_symmetry_space_group_name_H-M "P -1"
_symmetry_group_IT_number 2
_symmetry_cell_setting 'triclinic'
loop_
_space_group_symop_operation_xyz
x,y,z
-x,-y,-z
loop_
_atom_site_type_symbol
_atom_site_label
_atom_site_fract_x
_atom_site_fract_y
_atom_site_fract_z
Si Si1 0.190778 0.199160 0.097950
Si Si2 0.570595 0.163498 0.146356
Si Si3 0.203890 0.168903 0.423098
Si Si4 0.160260 0.618937 0.859908
Si Si5 0.504358 0.352067 0.911428
Si Si6 0.214279 0.949050 0.503476
Si Si7 0.547260 0.173236 0.693900
Si Si8 0.840600 0.987087 0.011908
O O1 0.367790 0.173222 0.063414
O O2 0.276912 0.135650 0.282653
O O3 0.018956 0.335466 0.088869
O O4 0.089359 0.144164 0.985582
O O5 0.619279 0.153752 0.331010
O O6 0.531387 0.271577 0.050285
O O7 0.768407 0.043355 0.143660
O O8 0.343906 0.196944 0.554548
O O9 0.968702 0.286009 0.312680
O O10 0.219548 0.060910 0.493645
O O11 0.291549 0.484110 0.850206
O O12 0.315513 0.636560 0.995039
O O13 0.518059 0.283573 0.769414
O O14 0.280112 0.886479 0.368716
O O15 0.000000 0.000000 0.500000
O O16 0.634568 0.075129 0.846076
O O17 0.000000 0.000000 0.000000
#
# Coordination Sequence:
#
# PCOD9086168 Si02
#       8
#     2   2   2   2   2   2   2   2
#     4  10  19  36  56  80 116 151 184 238 284 338
#     4  11  22  33  55  91 115 148 188 240 287 339
#     4  10  21  38  58  84 116 156 184 232 294 346
#     4   9  20  41  61  81 110 159 193 238 287 343
#     4  10  22  39  63  84 110 153 200 238 283 347
#     4  12  21  34  58  86 119 152 185 236 289 350
#     4  11  20  37  58  83 117 152 190 232 288 346
#     4  11  21  35  56  85 121 154 192 233 281 352
#
# _framework density 18.458850999999999
#
# number of rings (size 3 to 8) (size 9 to 14) (size 15 to 20)
#    0.750    0.750    2.500    4.500    0.000    2.000 
#    0.000    0.000    0.000    8.250    0.000    0.000 
#    0.000    0.000    0.000    0.000    0.000    0.000 
#
# Total GULP energy -89097.090037 kJ/mol
# GULP energy per Si atom -5568.568127 kJ/mol
# Density = 1.841684 g / cm^3
# Si number density = 18.458851 Si / 1000 Ang^3
#
#
#
# Elastic Constant Matrix: (Units=GPa)
#
#
# Indices 1 2 3 4 5 6 
#
# 1 93.3265 29.4591 17.1061 15.2015 -3.8131 -13.3232
# 2 29.4591 118.0093 38.3803 18.0708 4.1999 -13.9468
# 3 17.1061 38.3803 80.5815 8.8776 -1.8160 1.5710
# 4 15.2015 18.0708 8.8776 26.1312 -0.7366 4.8438
# 5 -3.8131 4.1999 -1.8160 -0.7366 30.8427 -0.1165
# 6 -13.3232 -13.9468 1.5710 4.8438 -0.1165 19.6992
#
#
#
# Elastic Compliance Matrix: (Units=1/GPa)
#
#
# Indices 1 2 3 4 5 6 
#
# 1 0.014601 0.000055 -0.002229 -0.010064 0.001474 0.012575
# 2 0.000055 0.013277 -0.005562 -0.009659 -0.002313 0.012242
# 3 -0.002229 -0.005562 0.015569 0.001185 0.001401 -0.006970
# 4 -0.010064 -0.009659 0.001185 0.055514 0.001363 -0.027382
# 5 0.001474 -0.002313 0.001401 0.001363 0.033031 -0.000893
# 6 0.012575 0.012242 -0.006970 -0.027382 -0.000893 0.075219
#
#
# Mechanical properties :
#
#
# Convention : Reuss Voigt Hill
#
# Bulk Modulus (GPa) = 35.74640 51.31205 43.52922
# Shear Modulus (GPa) = 21.55086 29.13275 25.34180
#
# Velocity S-wave (km/s) = 3.42059 3.97703 3.70926
# Velocity P-wave (km/s) = 5.91676 6.99625 6.47903
#
# Compressibility (1/GPa) = 0.02797485
#
# Stress axis : x y z
#
# Youngs Moduli (GPa) = 68.48855 75.31570 64.22984
#
# Poissons Ratio (x) = -0.00413 0.14316
# Poissons Ratio (y) = -0.00376 0.35727
# Poissons Ratio (z) = 0.15265 0.41893
#
# Static dielectric constant tensor:
#      x y z
#    x 1.669290 -0.018800 0.048210 
#    y -0.018800 1.632630 0.011710 
#    z 0.048210 0.011710 1.674760 
# 
# From -- ./inp_files/202651.got.cif
#   From: 2010.05.17/outbox.cif.g08.bks.cpg/sg2_102_cif.got.tgz:202651.got - 2010.06.03 11:33:40.
