data_PCOD9086375
_publ_section_title
;
Structure prediction by ZEFSAII (Michael W. Deem and Ramdas Pophale) SiO2 
 PCOD9086375
Probable space group: P -1
;
_chemical_formula_sum "Si O2"
_cell_formula_units_Z 16
_cell_length_a 21.040553
_cell_length_b 7.126517
_cell_length_c 9.286880
_cell_angle_alpha 32.935352
_cell_angle_beta 85.985083
_cell_angle_gamma 88.305561
_cell_volume 754.154527
_symmetry_space_group_name_H-M "P -1"
_symmetry_group_IT_number 2
_symmetry_cell_setting 'triclinic'
loop_
_space_group_symop_operation_xyz
x,y,z
-x,-y,-z
loop_
_atom_site_type_symbol
_atom_site_label
_atom_site_fract_x
_atom_site_fract_y
_atom_site_fract_z
Si Si1 0.061181 0.713028 0.917831
Si Si2 0.676053 0.588081 0.075647
Si Si3 0.942057 0.514628 0.611691
Si Si4 0.447427 0.630893 0.317919
Si Si5 0.533533 0.567942 0.100628
Si Si6 0.812469 0.470888 0.142134
Si Si7 0.820508 0.280626 0.596413
Si Si8 0.314350 0.602421 0.481201
O O1 0.130070 0.591032 0.936104
O O2 0.058391 0.086012 0.605462
O O3 0.055875 0.703297 0.100023
O O4 0.000000 0.500000 0.000000
O O5 0.604237 0.424138 0.172447
O O6 0.739476 0.389463 0.150954
O O7 0.682419 0.603118 0.238211
O O8 0.679770 0.979044 0.759496
O O9 0.879995 0.431636 0.578410
O O10 0.000000 0.500000 0.500000
O O11 0.500000 0.500000 0.500000
O O12 0.474063 0.461479 0.280512
O O13 0.374827 0.514819 0.434961
O O14 0.450887 0.045124 0.083518
O O15 0.500000 0.500000 0.000000
O O16 0.824882 0.310569 0.401723
O O17 0.813768 0.882067 0.897472
O O18 0.755539 0.459078 0.533370
#
# Coordination Sequence:
#
# PCOD9086375 Si02
#       8
#     2   2   2   2   2   2   2   2
#     4  12  24  40  61  88 120 154 192 234 287 344
#     4   9  18  35  57  81 113 152 192 233 291 356
#     4  12  24  40  61  89 120 150 193 240 282 341
#     4  10  19  36  58  79 116 154 199 244 299 358
#     4  10  21  36  55  85 114 154 199 249 298 352
#     4  10  20  38  62  83 113 155 191 233 293 348
#     4  10  20  38  61  85 113 152 194 236 290 344
#     4   9  18  34  59  81 110 155 192 232 292 355
#
# _framework density 21.215812
#
# number of rings (size 3 to 8) (size 9 to 14) (size 15 to 20)
#    0.000    1.750    1.250    3.750    0.000    0.500 
#    2.250    1.250    0.000    0.000    0.000    0.000 
#    0.000    0.000    0.000    0.000    0.000    0.000 
#
# Total GULP energy -89089.544575 kJ/mol
# GULP energy per Si atom -5568.096536 kJ/mol
# Density = 2.116752 g / cm^3
# Si number density = 21.215812 Si / 1000 Ang^3
#
#
#
# Elastic Constant Matrix: (Units=GPa)
#
#
# Indices 1 2 3 4 5 6 
#
# 1 207.7348 49.3486 -10.4811 17.2774 -4.0716 -21.0075
# 2 49.3486 57.7655 -3.9652 32.0585 -1.3388 -10.0333
# 3 -10.4811 -3.9652 63.6667 15.2991 -0.3907 -0.8875
# 4 17.2774 32.0585 15.2991 33.5288 -1.9451 -5.2613
# 5 -4.0716 -1.3388 -0.3907 -1.9451 25.5559 7.9839
# 6 -21.0075 -10.0333 -0.8875 -5.2613 7.9839 32.4368
#
#
#
# Elastic Compliance Matrix: (Units=1/GPa)
#
#
# Indices 1 2 3 4 5 6 
#
# 1 0.006497 -0.007755 -0.000508 0.004704 0.000195 0.002510
# 2 -0.007755 0.058673 0.016635 -0.059145 -0.003959 0.004962
# 3 -0.000508 0.016635 0.022903 -0.025926 -0.001321 0.001563
# 4 0.004704 -0.059145 -0.025926 0.095815 0.005067 -0.001663
# 5 0.000195 -0.003959 -0.001321 0.005067 0.042700 -0.010823
# 6 0.002510 0.004962 0.001563 -0.001663 -0.010823 0.036426
#
#
# Mechanical properties :
#
#
# Convention : Reuss Voigt Hill
#
# Bulk Modulus (GPa) = 9.54053 44.33017 26.93535
# Shear Modulus (GPa) = 17.78033 37.92196 27.85114
#
# Velocity S-wave (km/s) = 2.89808 4.23240 3.62713
# Velocity P-wave (km/s) = 3.96298 6.69511 5.50135
#
# Compressibility (1/GPa) = 0.10481602
#
# Stress axis : x y z
#
# Youngs Moduli (GPa) = 153.91831 17.04368 43.66262
#
# Poissons Ratio (x) = 0.13218 0.02217
# Poissons Ratio (y) = 1.19371 -0.72632
# Poissons Ratio (z) = 0.07815 -0.28352
#
# Static dielectric constant tensor:
#      x y z
#    x 1.706110 -0.090460 0.011030 
#    y -0.090460 1.670160 -0.027420 
#    z 0.011030 -0.027420 1.811390 
# 
# From -- ./inp_files/14293.got.cif
#   From: 2010.05.17/outbox.cif.g08.bks.cpg/sg2_8_cif.got.tgz:14293.got - 2010.06.03 11:33:40.
