data_PCOD9086563
_publ_section_title
;
Structure prediction by ZEFSAII (Michael W. Deem and Ramdas Pophale) SiO2 
 PCOD9086563
Probable space group: P -1
;
_chemical_formula_sum "Si O2"
_cell_formula_units_Z 16
_cell_length_a 9.656022
_cell_length_b 15.406498
_cell_length_c 12.811392
_cell_angle_alpha 23.948200
_cell_angle_beta 123.582834
_cell_angle_gamma 122.489672
_cell_volume 641.670026
_symmetry_space_group_name_H-M "P -1"
_symmetry_group_IT_number 2
_symmetry_cell_setting 'triclinic'
loop_
_space_group_symop_operation_xyz
x,y,z
-x,-y,-z
loop_
_atom_site_type_symbol
_atom_site_label
_atom_site_fract_x
_atom_site_fract_y
_atom_site_fract_z
Si Si1 0.268289 0.092382 0.124683
Si Si2 0.208127 0.522833 0.499273
Si Si3 0.089423 0.678288 0.486979
Si Si4 0.585236 0.559440 0.077341
Si Si5 0.228119 0.046836 0.765359
Si Si6 0.750332 0.549816 0.822426
Si Si7 0.972189 0.215073 0.189030
Si Si8 0.401441 0.933557 0.152639
O O1 0.111271 0.920912 0.269390
O O2 0.240597 0.307218 0.811740
O O3 0.361706 0.188432 0.159107
O O4 0.373034 0.958923 0.235913
O O5 0.111304 0.669577 0.379177
O O6 0.089034 0.453278 0.429797
O O7 0.369814 0.687243 0.368884
O O8 0.243751 0.555651 0.723735
O O9 0.442359 0.487824 0.182259
O O10 0.500000 0.500000 0.000000
O O11 0.217980 0.268523 0.454168
O O12 0.267258 0.054518 0.896815
O O13 0.084278 0.874300 0.850433
O O14 0.409485 0.975869 0.884822
O O15 0.862075 0.629231 0.883609
O O16 0.822795 0.336574 0.043344
O O17 0.000000 0.000000 0.500000
#
# Coordination Sequence:
#
# PCOD9086563 Si02
#       8
#     2   2   2   2   2   2   2   2
#     4  10  19  36  59  83 115 159 201 244 300 356
#     4   9  18  34  56  82 115 153 195 242 292 350
#     4   9  19  36  56  81 115 155 197 243 291 349
#     4  11  24  39  59  88 121 161 207 251 296 357
#     4  10  20  36  57  88 122 154 197 247 306 365
#     4  10  20  39  62  86 120 161 203 250 306 357
#     4   9  20  38  63  86 114 156 202 255 305 356
#     4  10  21  34  57  90 122 157 197 248 303 363
#
# _framework density 24.934933999999998
#
# number of rings (size 3 to 8) (size 9 to 14) (size 15 to 20)
#    0.000    2.250    0.000    3.375    0.000    4.500 
#    0.000    5.625    0.000    0.000    0.000    0.000 
#    0.000    0.000    0.000    0.000    0.000    0.000 
#
# Total GULP energy -89276.251553 kJ/mol
# GULP energy per Si atom -5579.765722 kJ/mol
# Density = 2.487818 g / cm^3
# Si number density = 24.934934 Si / 1000 Ang^3
#
#
#
# Elastic Constant Matrix: (Units=GPa)
#
#
# Indices 1 2 3 4 5 6 
#
# 1 34.1973 29.5124 14.6525 -2.2282 15.9555 0.6783
# 2 29.5124 205.1572 46.9335 -17.6803 8.6848 11.3762
# 3 14.6525 46.9335 112.3844 -14.5248 10.6523 -3.3642
# 4 -2.2282 -17.6803 -14.5248 45.8246 5.4505 2.4797
# 5 15.9555 8.6848 10.6523 5.4505 26.6901 3.3202
# 6 0.6783 11.3762 -3.3642 2.4797 3.3202 34.8137
#
#
#
# Elastic Compliance Matrix: (Units=1/GPa)
#
#
# Indices 1 2 3 4 5 6 
#
# 1 0.046925 -0.005326 -0.000857 0.002996 -0.026975 0.003103
# 2 -0.005326 0.006273 -0.001998 0.001427 0.001951 -0.002427
# 3 -0.000857 -0.001998 0.010650 0.002928 -0.003918 0.001864
# 4 0.002996 0.001427 0.002928 0.024496 -0.008277 -0.001197
# 5 -0.026975 0.001951 -0.003918 -0.008277 0.056874 -0.005325
# 6 0.003103 -0.002427 0.001864 -0.001197 -0.005325 0.030230
#
#
# Mechanical properties :
#
#
# Convention : Reuss Voigt Hill
#
# Bulk Modulus (GPa) = 21.05941 59.32617 40.19279
# Shear Modulus (GPa) = 24.08031 38.84173 31.46102
#
# Velocity S-wave (km/s) = 3.11098 3.95108 3.55593
# Velocity P-wave (km/s) = 4.62259 6.68272 5.74574
#
# Compressibility (1/GPa) = 0.04748472
#
# Stress axis : x y z
#
# Youngs Moduli (GPa) = 21.31061 159.42379 93.89826
#
# Poissons Ratio (x) = 0.84913 0.08046
# Poissons Ratio (y) = 0.11350 0.18763
# Poissons Ratio (z) = 0.01826 0.31857
#
# Static dielectric constant tensor:
#      x y z
#    x 2.066350 0.008360 -0.084840 
#    y 0.008360 2.042100 0.011460 
#    z -0.084840 0.011460 2.027760 
# 
# From -- ./inp_files/523419.got.cif
#   From: 2010.05.17/outbox.cif.g08.bks.cpg/sg2_262_cif.got.tgz:523419.got - 2010.06.03 11:33:40.
