data_PCOD9086491
_publ_section_title
;
Structure prediction by ZEFSAII (Michael W. Deem and Ramdas Pophale) SiO2 
 PCOD9086491
Probable space group: P -1
;
_chemical_formula_sum "Si O2"
_cell_formula_units_Z 14
_cell_length_a 9.348042
_cell_length_b 12.462884
_cell_length_c 14.366448
_cell_angle_alpha 49.886066
_cell_angle_beta 48.519509
_cell_angle_gamma 36.387677
_cell_volume 720.279687
_symmetry_space_group_name_H-M "P -1"
_symmetry_group_IT_number 2
_symmetry_cell_setting 'triclinic'
loop_
_space_group_symop_operation_xyz
x,y,z
-x,-y,-z
loop_
_atom_site_type_symbol
_atom_site_label
_atom_site_fract_x
_atom_site_fract_y
_atom_site_fract_z
Si Si1 0.104506 0.274965 0.387695
Si Si2 0.986489 0.851956 0.045455
Si Si3 0.805992 0.131007 0.234062
Si Si4 0.768083 0.491233 0.746941
Si Si5 0.499683 0.928980 0.288528
Si Si6 0.803204 0.808219 0.396338
Si Si7 0.131097 0.892768 0.406962
O O1 0.083830 0.451829 0.297742
O O2 0.243513 0.188439 0.476828
O O3 0.875478 0.273903 0.497385
O O4 0.272561 0.141421 0.302828
O O5 0.719504 0.906848 0.153490
O O6 0.198359 0.655879 0.116255
O O7 0.041516 0.845598 0.916602
O O8 0.000000 0.000000 0.000000
O O9 0.520661 0.328659 0.250759
O O10 0.790369 0.980020 0.284752
O O11 0.956126 0.035164 0.319012
O O12 0.920633 0.380899 0.648480
O O13 0.612677 0.825516 0.397741
O O14 0.393755 0.849668 0.320525
O O15 0.000000 0.000000 0.500000
#
# Coordination Sequence:
#
# PCOD9086491 Si02
#       7
#     2   2   2   2   2   2   2
#     4  10  19  36  58  89 121 153 198 242 299 351
#     4  11  21  39  61  92 118 153 207 250 295 347
#     4  11  21  39  64  88 120 163 196 245 299 346
#     4  11  21  34  63  96 116 150 205 253 292 351
#     4  10  19  36  61  86 120 162 190 240 297 352
#     4  10  20  35  61  91 119 152 196 251 305 340
#     4   9  22  37  62  88 123 164 192 236 309 359
#
# _framework density 19.436893999999999
#
# number of rings (size 3 to 8) (size 9 to 14) (size 15 to 20)
#    0.000    1.714    4.286    1.286    4.000    0.571 
#    0.000    2.857   18.857    4.286    0.000    0.000 
#    0.000    0.000    0.000    0.000    0.000    0.000 
#
# Total GULP energy -78041.095541 kJ/mol
# GULP energy per Si atom -5574.363967 kJ/mol
# Density = 1.939266 g / cm^3
# Si number density = 19.436894 Si / 1000 Ang^3
#
#
#
# Elastic Constant Matrix: (Units=GPa)
#
#
# Indices 1 2 3 4 5 6 
#
# 1 118.7164 24.6446 39.0623 -3.8805 -16.8263 -5.6218
# 2 24.6446 83.6292 24.1750 1.0541 -12.1030 0.6723
# 3 39.0623 24.1750 104.3122 1.3006 -6.1025 -5.6254
# 4 -3.8805 1.0541 1.3006 35.4404 0.7427 -4.2250
# 5 -16.8263 -12.1030 -6.1025 0.7427 36.9705 2.8123
# 6 -5.6218 0.6723 -5.6254 -4.2250 2.8123 17.0019
#
#
#
# Elastic Compliance Matrix: (Units=1/GPa)
#
#
# Indices 1 2 3 4 5 6 
#
# 1 0.010487 -0.001690 -0.003228 0.001514 0.003484 0.002266
# 2 -0.001690 0.013716 -0.002475 -0.000902 0.003538 -0.002730
# 3 -0.003228 -0.002475 0.011492 -0.000350 -0.000592 0.002844
# 4 0.001514 -0.000902 -0.000350 0.029377 -0.000852 0.007862
# 5 0.003484 0.003538 -0.000592 -0.000852 0.030044 -0.004365
# 6 0.002266 -0.002730 0.002844 0.007862 -0.004365 0.063291
#
#
# Mechanical properties :
#
#
# Convention : Reuss Voigt Hill
#
# Bulk Modulus (GPa) = 47.82659 53.60241 50.71450
# Shear Modulus (GPa) = 27.75248 32.46763 30.11005
#
# Velocity S-wave (km/s) = 3.78276 4.09150 3.94015
# Velocity P-wave (km/s) = 6.61351 7.06810 6.84458
#
# Compressibility (1/GPa) = 0.02090887
#
# Stress axis : x y z
#
# Youngs Moduli (GPa) = 95.35447 72.90516 87.01579
#
# Poissons Ratio (x) = 0.12324 0.28091
# Poissons Ratio (y) = 0.16118 0.21535
# Poissons Ratio (z) = 0.30783 0.18043
#
# Static dielectric constant tensor:
#      x y z
#    x 1.714710 -0.010390 -0.031460 
#    y -0.010390 1.730010 0.000870 
#    z -0.031460 0.000870 1.718100 
# 
# From -- ./inp_files/252974.got.cif
#   From: 2010.05.17/outbox.cif.g08.bks.cpg/sg2_127_cif.got.tgz:252974.got - 2010.06.03 11:33:40.
