data_PCOD9086002
_publ_section_title
;
Structure prediction by ZEFSAII (Michael W. Deem and Ramdas Pophale) SiO2 
 PCOD9086002
Probable space group: P -1
;
_chemical_formula_sum "Si O2"
_cell_formula_units_Z 12
_cell_length_a 8.414144
_cell_length_b 15.391491
_cell_length_c 7.952164
_cell_angle_alpha 101.759605
_cell_angle_beta 77.521912
_cell_angle_gamma 36.218520
_cell_volume 448.724433
_symmetry_space_group_name_H-M "P -1"
_symmetry_group_IT_number 2
_symmetry_cell_setting 'triclinic'
loop_
_space_group_symop_operation_xyz
x,y,z
-x,-y,-z
loop_
_atom_site_type_symbol
_atom_site_label
_atom_site_fract_x
_atom_site_fract_y
_atom_site_fract_z
Si Si1 0.858572 0.927867 0.781927
Si Si2 0.976678 0.688002 0.784297
Si Si3 0.329428 0.362556 0.749653
Si Si4 0.207861 0.849145 0.123235
Si Si5 0.924841 0.428674 0.660702
Si Si6 0.095420 0.165015 0.640594
O O1 0.032786 0.765985 0.789872
O O2 0.931684 0.866532 0.548878
O O3 0.979892 0.968221 0.813384
O O4 0.427997 0.131615 0.987301
O O5 0.258367 0.495594 0.751002
O O6 0.005489 0.636356 0.568921
O O7 0.653517 0.196373 0.736190
O O8 0.261741 0.323860 0.604270
O O9 0.000000 0.500000 0.000000
O O10 0.001217 0.857831 0.201867
O O11 0.564133 0.659405 0.858348
O O12 0.883124 0.360945 0.759052
O O13 0.500000 0.000000 0.500000
#
# Coordination Sequence:
#
# PCOD9086002 Si02
#       6
#     2   2   2   2   2   2
#     4  10  21  38  64  93 131 172 203 256 319 384
#     4  10  20  38  65  95 136 169 202 248 331 386
#     4  10  19  35  66  97 124 165 210 261 311 371
#     4  11  22  40  67  98 126 162 225 263 307 375
#     4  10  21  38  64  97 128 168 206 262 316 378
#     4  11  24  40  65  93 127 172 216 267 317 371
#
# _framework density 26.742473
#
# number of rings (size 3 to 8) (size 9 to 14) (size 15 to 20)
#    0.000    1.667    3.333    2.500    2.333    0.000 
#    0.000    3.333    7.333   14.000    0.000    0.000 
#    0.000    0.000    0.000    0.000    0.000    0.000 
#
# Total GULP energy -67304.379769 kJ/mol
# GULP energy per Si atom -5608.698314 kJ/mol
# Density = 2.668161 g / cm^3
# Si number density = 26.742473 Si / 1000 Ang^3
#
#
#
# Elastic Constant Matrix: (Units=GPa)
#
#
# Indices 1 2 3 4 5 6 
#
# 1 111.3753 48.7364 41.7999 -1.7739 3.3842 29.5260
# 2 48.7364 104.3486 20.1924 8.4749 24.0929 40.2533
# 3 41.7999 20.1924 96.1504 -2.4724 12.3090 0.2503
# 4 -1.7739 8.4749 -2.4724 33.7742 5.8349 5.0725
# 5 3.3842 24.0929 12.3090 5.8349 47.3368 1.6347
# 6 29.5260 40.2533 0.2503 5.0725 1.6347 61.7292
#
#
#
# Elastic Compliance Matrix: (Units=1/GPa)
#
#
# Indices 1 2 3 4 5 6 
#
# 1 0.014066 -0.004859 -0.005401 0.001642 0.002799 -0.003747
# 2 -0.004859 0.017184 -0.000538 -0.001995 -0.007719 -0.008511
# 3 -0.005401 -0.000538 0.013261 0.000907 -0.003000 0.002885
# 4 0.001642 -0.001995 0.000907 0.031092 -0.003103 -0.001961
# 5 0.002799 -0.007719 -0.003000 -0.003103 0.025903 0.003276
# 6 -0.003747 -0.008511 0.002885 -0.001961 0.003276 0.023605
#
#
# Mechanical properties :
#
#
# Convention : Reuss Voigt Hill
#
# Bulk Modulus (GPa) = 43.63573 59.25908 51.44740
# Shear Modulus (GPa) = 32.39497 41.97776 37.18637
#
# Velocity S-wave (km/s) = 3.48425 3.96625 3.73303
# Velocity P-wave (km/s) = 5.70430 6.57131 6.15310
#
# Compressibility (1/GPa) = 0.02291700
#
# Stress axis : x y z
#
# Youngs Moduli (GPa) = 71.09237 58.19348 75.40842
#
# Poissons Ratio (x) = 0.28274 0.40728
# Poissons Ratio (y) = 0.34542 0.04053
# Poissons Ratio (z) = 0.38397 0.03128
#
# Static dielectric constant tensor:
#      x y z
#    x 2.188430 0.022570 0.024470 
#    y 0.022570 2.096010 0.003130 
#    z 0.024470 0.003130 2.065020 
# 
# From -- ./inp_files/153114.got.cif
#   From: 2010.05.17/outbox.cif.g08.bks.cpg/sg2_77_cif.got.tgz:153114.got - 2010.06.03 11:33:40.
