data_PCOD9086892
_publ_section_title
;
Structure prediction by ZEFSAII (Michael W. Deem and Ramdas Pophale) SiO2 
 PCOD9086892
Probable space group: P -1
;
_chemical_formula_sum "Si O2"
_cell_formula_units_Z 16
_cell_length_a 8.591065
_cell_length_b 11.651983
_cell_length_c 9.391831
_cell_angle_alpha 42.196396
_cell_angle_beta 93.781479
_cell_angle_gamma 97.961706
_cell_volume 624.436714
_symmetry_space_group_name_H-M "P -1"
_symmetry_group_IT_number 2
_symmetry_cell_setting 'triclinic'
loop_
_space_group_symop_operation_xyz
x,y,z
-x,-y,-z
loop_
_atom_site_type_symbol
_atom_site_label
_atom_site_fract_x
_atom_site_fract_y
_atom_site_fract_z
Si Si1 0.937812 0.751431 0.180552
Si Si2 0.085268 0.176502 0.404158
Si Si3 0.748944 0.391475 0.566703
Si Si4 0.818862 0.999195 0.161695
Si Si5 0.841719 0.391452 0.140040
Si Si6 0.394178 0.789511 0.530159
Si Si7 0.644036 0.825948 0.761541
Si Si8 0.370059 0.715605 0.049259
O O1 0.820070 0.574382 0.333988
O O2 0.845152 0.890102 0.124532
O O3 0.094648 0.704403 0.315136
O O4 0.026221 0.852988 0.958845
O O5 0.178990 0.131413 0.588809
O O6 0.203908 0.253921 0.214243
O O7 0.939907 0.269517 0.353983
O O8 0.000000 0.000000 0.500000
O O9 0.619293 0.271796 0.576437
O O10 0.674913 0.408259 0.705027
O O11 0.667421 0.097421 0.070825
O O12 0.694822 0.384228 0.240283
O O13 0.755168 0.328627 0.045409
O O14 0.000000 0.500000 0.000000
O O15 0.543939 0.824152 0.610764
O O16 0.325827 0.973115 0.374416
O O17 0.538357 0.731697 0.967740
#
# Coordination Sequence:
#
# PCOD9086892 Si02
#       8
#     2   2   2   2   2   2   2   2
#     4   9  21  35  59  97 136 160 217 277 304 382
#     4  12  21  38  68  95 118 164 220 271 317 371
#     4  10  21  36  64  94 133 178 213 259 333 371
#     4  10  19  36  60  95 128 167 212 263 320 363
#     4  11  24  37  63 100 129 162 211 269 328 382
#     4  10  20  38  65  93 129 175 209 261 325 375
#     4  10  22  42  64  93 132 167 222 265 308 401
#     4  10  22  41  63  95 136 171 214 260 325 379
#
# _framework density 25.623093999999998
#
# number of rings (size 3 to 8) (size 9 to 14) (size 15 to 20)
#    0.000    1.750    2.500    2.250    7.000    0.500 
#    0.000    2.500    2.750    3.000    0.000    0.000 
#    0.000    0.000    0.000    0.000    0.000    0.000 
#
# Total GULP energy -89145.766523 kJ/mol
# GULP energy per Si atom -5571.610408 kJ/mol
# Density = 2.556477 g / cm^3
# Si number density = 25.623094 Si / 1000 Ang^3
#
#
#
# Elastic Constant Matrix: (Units=GPa)
#
#
# Indices 1 2 3 4 5 6 
#
# 1 65.4183 38.9823 20.6813 18.5326 -31.3739 8.8184
# 2 38.9823 67.3808 33.3481 14.6945 -7.6727 0.3885
# 3 20.6813 33.3481 83.1641 17.0455 -31.9590 21.3352
# 4 18.5326 14.6945 17.0455 27.0476 -0.5239 -23.8835
# 5 -31.3739 -7.6727 -31.9590 -0.5239 40.1425 2.4943
# 6 8.8184 0.3885 21.3352 -23.8835 2.4943 0.6672
#
#
#
# Elastic Compliance Matrix: (Units=1/GPa)
#
#
# Indices 1 2 3 4 5 6 
#
# 1 0.026400 -0.014731 -0.002172 0.009701 0.014939 0.020530
# 2 -0.014731 0.027817 -0.006056 -0.011816 -0.010440 -0.011791
# 3 -0.002172 -0.006056 0.011363 0.010214 0.005446 0.014146
# 4 0.009701 -0.011816 0.010214 0.013523 0.014833 -0.019333
# 5 0.014939 -0.010440 0.005446 0.014833 0.037566 0.025030
# 6 0.020530 -0.011791 0.014146 -0.019333 0.025030 -0.003672
#
#
# Mechanical properties :
#
#
# Convention : Reuss Voigt Hill
#
# Bulk Modulus (GPa) = 50.86173 44.66518 47.76345
# Shear Modulus (GPa) = 30.21691 21.76821 25.99256
#
# Velocity S-wave (km/s) = 3.43780 2.91787 3.18845
# Velocity P-wave (km/s) = 5.97084 5.36856 5.67769
#
# Compressibility (1/GPa) = 0.01966115
#
# Stress axis : x y z
#
# Youngs Moduli (GPa) = 37.87843 35.94930 88.00314
#
# Poissons Ratio (x) = 0.52958 0.19118
# Poissons Ratio (y) = 0.55800 0.53295
# Poissons Ratio (z) = 0.08229 0.21771
#
# Static dielectric constant tensor:
#      x y z
#    x 2.001440 -0.000130 0.000660 
#    y -0.000130 2.427590 -0.264150 
#    z 0.000660 -0.264150 2.390780 
# 
# From -- ./inp_files/184307.got.cif
#   From: 2010.05.17/outbox.cif.g08.bks.cpg/sg2_93_cif.got.tgz:184307.got - 2010.06.03 11:33:40.
