data_PCOD9086564
_publ_section_title
;
Structure prediction by ZEFSAII (Michael W. Deem and Ramdas Pophale) SiO2 
 PCOD9086564
Probable space group: P -1
;
_chemical_formula_sum "Si O2"
_cell_formula_units_Z 16
_cell_length_a 6.826771
_cell_length_b 13.851354
_cell_length_c 7.963294
_cell_angle_alpha 118.514770
_cell_angle_beta 100.805857
_cell_angle_gamma 81.606543
_cell_volume 648.539714
_symmetry_space_group_name_H-M "P -1"
_symmetry_group_IT_number 2
_symmetry_cell_setting 'triclinic'
loop_
_space_group_symop_operation_xyz
x,y,z
-x,-y,-z
loop_
_atom_site_type_symbol
_atom_site_label
_atom_site_fract_x
_atom_site_fract_y
_atom_site_fract_z
Si Si1 0.656631 0.640957 0.614786
Si Si2 0.309089 0.741699 0.474367
Si Si3 0.957962 0.244137 0.868438
Si Si4 0.705835 0.101765 0.102386
Si Si5 0.748081 0.582150 0.073141
Si Si6 0.079852 0.542772 0.326024
Si Si7 0.146798 0.131549 0.087013
Si Si8 0.611177 0.315878 0.078489
O O1 0.516321 0.665928 0.452086
O O2 0.822494 0.542523 0.594354
O O3 0.763704 0.753310 0.760283
O O4 0.489574 0.628566 0.725690
O O5 0.210760 0.776622 0.311686
O O6 0.347374 0.845650 0.682505
O O7 0.147022 0.665133 0.470815
O O8 0.839792 0.313894 0.054789
O O9 0.126511 0.314318 0.875263
O O10 0.067245 0.140257 0.889730
O O11 0.946187 0.115324 0.144078
O O12 0.602016 0.185336 0.016531
O O13 0.697742 0.973021 0.958942
O O14 0.521139 0.625246 0.040863
O O15 0.847856 0.547307 0.237290
O O16 0.811015 0.492300 0.864525
#
# Coordination Sequence:
#
# PCOD9086564 Si02
#       8
#     2   2   2   2   2   2   2   2
#     4  10  19  37  59  83 113 153 189 232 278 337
#     4  10  21  35  54  86 122 144 181 240 294 316
#     4  10  19  36  59  83 117 147 189 237 274 337
#     4   9  21  37  61  84 111 149 192 240 279 336
#     4   9  17  34  56  83 111 156 192 222 275 335
#     4   9  17  33  58  78 118 152 182 230 279 335
#     4  10  19  39  64  80 109 154 199 226 276 347
#     4   9  18  34  59  83 111 145 195 226 271 341
#
# _framework density 24.670809999999999
#
# number of rings (size 3 to 8) (size 9 to 14) (size 15 to 20)
#    0.000    2.500    2.500    0.375    0.000    2.500 
#    4.500   16.250    0.000    3.000    0.000    0.000 
#    0.000    0.000    0.000    0.000    0.000    0.000 
#
# Total GULP energy -89332.624606 kJ/mol
# GULP energy per Si atom -5583.289038 kJ/mol
# Density = 2.461466 g / cm^3
# Si number density = 24.670810 Si / 1000 Ang^3
#
#
#
# Elastic Constant Matrix: (Units=GPa)
#
#
# Indices 1 2 3 4 5 6 
#
# 1 60.8478 6.5968 14.8921 1.1698 2.2833 -32.4867
# 2 6.5968 129.2866 32.4826 -2.6808 5.5061 -30.2121
# 3 14.8921 32.4826 75.7105 -5.9318 18.0856 -5.5667
# 4 1.1698 -2.6808 -5.9318 42.6507 -6.1090 4.6667
# 5 2.2833 5.5061 18.0856 -6.1090 37.3544 -1.2339
# 6 -32.4867 -30.2121 -5.5667 4.6667 -1.2339 45.4708
#
#
#
# Elastic Compliance Matrix: (Units=1/GPa)
#
#
# Indices 1 2 3 4 5 6 
#
# 1 0.031770 0.006335 -0.007591 -0.004283 0.000972 0.026444
# 2 0.006335 0.011477 -0.005614 -0.001392 0.000796 0.011629
# 3 -0.007591 -0.005614 0.018552 0.002149 -0.007580 -0.007309
# 4 -0.004283 -0.001392 0.002149 0.024925 0.003298 -0.006190
# 5 0.000972 0.000796 -0.007580 0.003298 0.030830 0.000794
# 6 0.026444 0.011629 -0.007309 -0.006190 0.000794 0.048374
#
#
# Mechanical properties :
#
#
# Convention : Reuss Voigt Hill
#
# Bulk Modulus (GPa) = 20.80761 41.53198 31.16979
# Shear Modulus (GPa) = 25.55116 39.22006 32.38561
#
# Velocity S-wave (km/s) = 3.22170 3.99147 3.62706
# Velocity P-wave (km/s) = 4.72139 6.17361 5.49568
#
# Compressibility (1/GPa) = 0.04805934
#
# Stress axis : x y z
#
# Youngs Moduli (GPa) = 31.47644 87.13244 53.90303
#
# Poissons Ratio (x) = -0.55202 0.40916
# Poissons Ratio (y) = -0.19942 0.30262
# Poissons Ratio (z) = 0.23893 0.48918
#
# Static dielectric constant tensor:
#      x y z
#    x 2.010620 0.020550 0.010760 
#    y 0.020550 1.998280 -0.009180 
#    z 0.010760 -0.009180 1.980430 
# 
# From -- ./inp_files/204406.got.cif
#   From: 2010.05.17/outbox.cif.g08.bks.cpg/sg2_103_cif.got.tgz:204406.got - 2010.06.03 11:33:40.
