data_PCOD9086037
_publ_section_title
;
Structure prediction by ZEFSAII (Michael W. Deem and Ramdas Pophale) SiO2 
 PCOD9086037
Probable space group: P -1
;
_chemical_formula_sum "Si O2"
_cell_formula_units_Z 16
_cell_length_a 18.054447
_cell_length_b 13.941077
_cell_length_c 5.186396
_cell_angle_alpha 79.146237
_cell_angle_beta 88.981197
_cell_angle_gamma 149.629966
_cell_volume 603.971178
_symmetry_space_group_name_H-M "P -1"
_symmetry_group_IT_number 2
_symmetry_cell_setting 'triclinic'
loop_
_space_group_symop_operation_xyz
x,y,z
-x,-y,-z
loop_
_atom_site_type_symbol
_atom_site_label
_atom_site_fract_x
_atom_site_fract_y
_atom_site_fract_z
Si Si1 0.667338 0.991406 0.007474
Si Si2 0.611944 0.300267 0.445650
Si Si3 0.061930 0.692093 0.524414
Si Si4 0.184183 0.313937 0.489520
Si Si5 0.866700 0.008578 0.485146
Si Si6 0.446043 0.593313 0.961189
Si Si7 0.256765 0.748481 0.448398
Si Si8 0.740040 0.762294 0.136312
O O1 0.603512 0.818687 0.960054
O O2 0.853617 0.203948 0.819778
O O3 0.629179 0.047642 0.823256
O O4 0.559105 0.877727 0.324179
O O5 0.746859 0.502276 0.519827
O O6 0.620506 0.383473 0.165748
O O7 0.654355 0.237339 0.433494
O O8 0.155419 0.709664 0.637972
O O9 0.880450 0.456263 0.620642
O O10 0.101940 0.839730 0.580525
O O11 0.159817 0.215894 0.785628
O O12 0.328477 0.430099 0.278448
O O13 0.038421 0.158321 0.390838
O O14 0.759682 0.858269 0.325115
O O15 0.803749 0.890789 0.816001
O O16 0.424974 0.482036 0.812840
#
# Coordination Sequence:
#
# PCOD9086037 Si02
#       8
#     2   2   2   2   2   2   2   2
#     4   9  20  40  65  91 138 174 224 276 338 400
#     4  10  19  35  69  97 129 176 224 279 333 398
#     4   9  21  40  65  96 136 177 226 274 339 410
#     4  10  21  37  64  99 136 169 227 283 332 401
#     4  12  23  40  67  99 137 181 223 276 344 398
#     4  10  22  39  62 100 133 172 225 283 332 401
#     4   9  18  40  68  93 134 176 229 279 337 396
#     4  11  24  39  67  99 138 177 226 280 339 396
#
# _framework density 26.491329
#
# number of rings (size 3 to 8) (size 9 to 14) (size 15 to 20)
#    0.750    1.250    2.500    1.125    3.500    0.500 
#    2.250    1.250    8.250    3.750    0.000    0.000 
#    0.000    0.000    0.000    0.000    0.000    0.000 
#
# Total GULP energy -89317.855972 kJ/mol
# GULP energy per Si atom -5582.365998 kJ/mol
# Density = 2.643103 g / cm^3
# Si number density = 26.491329 Si / 1000 Ang^3
#
#
#
# Elastic Constant Matrix: (Units=GPa)
#
#
# Indices 1 2 3 4 5 6 
#
# 1 106.3292 75.4558 6.5817 15.0873 -0.3070 -31.6518
# 2 75.4558 151.2374 53.7294 -7.9982 6.0842 -31.6792
# 3 6.5817 53.7294 96.6675 3.3612 11.9012 -6.2915
# 4 15.0873 -7.9982 3.3612 26.7070 4.8725 1.2053
# 5 -0.3070 6.0842 11.9012 4.8725 15.5055 -1.4142
# 6 -31.6518 -31.6792 -6.2915 1.2053 -1.4142 46.2191
#
#
#
# Elastic Compliance Matrix: (Units=1/GPa)
#
#
# Indices 1 2 3 4 5 6 
#
# 1 0.024790 -0.014275 0.006507 -0.021054 0.008524 0.008888
# 2 -0.014275 0.018124 -0.008928 0.015553 -0.005351 0.000862
# 3 0.006507 -0.008928 0.015920 -0.007232 -0.006269 0.000501
# 4 -0.021054 0.015553 -0.007232 0.058884 -0.020101 -0.006894
# 5 0.008524 -0.005351 -0.006269 -0.020101 0.078276 0.004236
# 6 0.008888 0.000862 0.000501 -0.006894 0.004236 0.028692
#
#
# Mechanical properties :
#
#
# Convention : Reuss Voigt Hill
#
# Bulk Modulus (GPa) = 39.30258 69.52977 54.41617
# Shear Modulus (GPa) = 18.75779 32.25082 25.50430
#
# Velocity S-wave (km/s) = 2.66385 3.49293 3.10617
# Velocity P-wave (km/s) = 4.93251 6.52461 5.78361
#
# Compressibility (1/GPa) = 0.02544362
#
# Stress axis : x y z
#
# Youngs Moduli (GPa) = 40.33923 55.17492 62.81519
#
# Poissons Ratio (x) = 0.78760 -0.40876
# Poissons Ratio (y) = 0.57583 0.56080
# Poissons Ratio (z) = -0.26250 0.49259
#
# Static dielectric constant tensor:
#      x y z
#    x 2.098910 0.031540 -0.032720 
#    y 0.031540 2.126970 0.025230 
#    z -0.032720 0.025230 2.071840 
# 
# From -- ./inp_files/110806.got.cif
#   From: 2010.05.17/outbox.cif.g08.bks.cpg/sg2_56_cif.got.tgz:110806.got - 2010.06.03 11:33:40.
