data_PCOD9086090
_publ_section_title
;
Structure prediction by ZEFSAII (Michael W. Deem and Ramdas Pophale) SiO2 
 PCOD9086090
Probable space group: P -1
;
_chemical_formula_sum "Si O2"
_cell_formula_units_Z 12
_cell_length_a 11.977374
_cell_length_b 7.706827
_cell_length_c 12.892806
_cell_angle_alpha 51.945202
_cell_angle_beta 36.766168
_cell_angle_gamma 37.487147
_cell_volume 432.911599
_symmetry_space_group_name_H-M "P -1"
_symmetry_group_IT_number 2
_symmetry_cell_setting 'triclinic'
loop_
_space_group_symop_operation_xyz
x,y,z
-x,-y,-z
loop_
_atom_site_type_symbol
_atom_site_label
_atom_site_fract_x
_atom_site_fract_y
_atom_site_fract_z
Si Si1 0.139607 0.666499 0.873024
Si Si2 0.926261 0.875525 0.726987
Si Si3 0.794367 0.622970 0.756849
Si Si4 0.235985 0.149450 0.517146
Si Si5 0.359222 0.535712 0.371791
Si Si6 0.344411 0.104231 0.819021
O O1 0.357078 0.659882 0.743623
O O2 0.272932 0.333626 0.875362
O O3 0.023697 0.802873 0.797237
O O4 0.904490 0.812680 0.065535
O O5 0.820720 0.732381 0.804082
O O6 0.172774 0.728774 0.531882
O O7 0.722488 0.214247 0.739985
O O8 0.857210 0.753325 0.568664
O O9 0.995350 0.284198 0.713851
O O10 0.521001 0.794652 0.857512
O O11 0.315779 0.323797 0.441855
O O12 0.506624 0.866935 0.388946
#
# Coordination Sequence:
#
# PCOD9086090 Si02
#       6
#     2   2   2   2   2   2
#     4  11  21  34  53  82 107 136 173 211 262 315
#     4  10  20  34  57  77 103 140 176 213 255 307
#     4   8  15  35  55  75  97 140 179 207 251 303
#     4   8  16  33  59  72 101 144 168 216 261 292
#     4  10  19  36  54  77 107 136 172 220 257 301
#     4   9  19  36  52  77 109 137 171 215 256 308
#
# _framework density 27.719283000000001
#
# number of rings (size 3 to 8) (size 9 to 14) (size 15 to 20)
#    1.000    1.667    1.667    0.500    0.000    1.333 
#    0.000    5.833    0.000    0.000    0.000    0.000 
#    0.000    0.000    0.000    0.000    0.000    0.000 
#
# Total GULP energy -66926.913143 kJ/mol
# GULP energy per Si atom -5577.242762 kJ/mol
# Density = 2.765619 g / cm^3
# Si number density = 27.719283 Si / 1000 Ang^3
#
#
#
# Elastic Constant Matrix: (Units=GPa)
#
#
# Indices 1 2 3 4 5 6 
#
# 1 116.9503 38.7118 20.5914 2.7742 -11.3008 -12.7842
# 2 38.7118 93.1940 45.0093 36.4330 5.7346 -14.7058
# 3 20.5914 45.0093 87.7376 42.7288 -27.8027 -12.0060
# 4 2.7742 36.4330 42.7288 41.5329 -16.1136 -4.8212
# 5 -11.3008 5.7346 -27.8027 -16.1136 49.3252 2.8532
# 6 -12.7842 -14.7058 -12.0060 -4.8212 2.8532 49.4229
#
#
#
# Elastic Compliance Matrix: (Units=1/GPa)
#
#
# Indices 1 2 3 4 5 6 
#
# 1 0.012319 -0.009145 -0.001565 0.011510 0.006716 0.000820
# 2 -0.009145 0.028300 -0.004868 -0.025244 -0.016570 0.003367
# 3 -0.001565 -0.004868 0.026945 -0.019652 0.008844 0.002265
# 4 0.011510 -0.025244 -0.019652 0.072402 0.018338 -0.003304
# 5 0.006716 -0.016570 0.008844 0.018338 0.034788 -0.001264
# 6 0.000820 0.003367 0.002265 -0.003304 -0.001264 0.021748
#
#
# Mechanical properties :
#
#
# Convention : Reuss Voigt Hill
#
# Bulk Modulus (GPa) = 27.46529 56.27854 41.87192
# Shear Modulus (GPa) = 20.85136 40.96085 30.90610
#
# Velocity S-wave (km/s) = 2.74566 3.84826 3.34274
# Velocity P-wave (km/s) = 4.47006 6.33187 5.48060
#
# Compressibility (1/GPa) = 0.03640960
#
# Stress axis : x y z
#
# Youngs Moduli (GPa) = 81.17705 35.33630 37.11209
#
# Poissons Ratio (x) = 0.32314 0.05807
# Poissons Ratio (y) = 0.74234 0.18065
# Poissons Ratio (z) = 0.12701 0.17201
#
# Static dielectric constant tensor:
#      x y z
#    x 2.094470 -0.026950 -0.000660 
#    y -0.026950 2.329960 -0.068490 
#    z -0.000660 -0.068490 2.541820 
# 
# From -- ./inp_files/64763.got.cif
#   From: 2010.05.17/outbox.cif.g08.bks.cpg/sg2_33_cif.got.tgz:64763.got - 2010.06.03 11:33:40.
