data_PCOD9086975
_publ_section_title
;
Structure prediction by ZEFSAII (Michael W. Deem and Ramdas Pophale) SiO2 
 PCOD9086975
Probable space group: P -1
;
_chemical_formula_sum "Si O2"
_cell_formula_units_Z 16
_cell_length_a 9.598821
_cell_length_b 19.823177
_cell_length_c 17.483220
_cell_angle_alpha 20.009104
_cell_angle_beta 137.810107
_cell_angle_gamma 138.723783
_cell_volume 741.968478
_symmetry_space_group_name_H-M "P -1"
_symmetry_group_IT_number 2
_symmetry_cell_setting 'triclinic'
loop_
_space_group_symop_operation_xyz
x,y,z
-x,-y,-z
loop_
_atom_site_type_symbol
_atom_site_label
_atom_site_fract_x
_atom_site_fract_y
_atom_site_fract_z
Si Si1 0.165663 0.353397 0.723523
Si Si2 0.265462 0.107761 0.164609
Si Si3 0.247865 0.625067 0.251021
Si Si4 0.775311 0.618726 0.021234
Si Si5 0.152467 0.159807 0.657075
Si Si6 0.338476 0.109827 0.935141
Si Si7 0.542996 0.276017 0.599222
Si Si8 0.490287 0.835011 0.603647
O O1 0.178965 0.220919 0.794594
O O2 0.391832 0.521369 0.639407
O O3 0.000000 0.500000 0.500000
O O4 0.156478 0.191892 0.959341
O O5 0.432002 0.967891 0.367883
O O6 0.348175 0.310203 0.032805
O O7 0.090378 0.957266 0.307514
O O8 0.196476 0.386954 0.465444
O O9 0.430487 0.739552 0.145089
O O10 0.341673 0.658795 0.339765
O O11 0.022603 0.675896 0.085776
O O12 0.688020 0.378004 0.231572
O O13 0.705313 0.750803 0.784032
O O14 0.266802 0.048906 0.884412
O O15 0.293085 0.184450 0.611861
O O16 0.360791 0.903879 0.203028
O O17 0.500000 0.000000 0.500000
#
# Coordination Sequence:
#
# PCOD9086975 Si02
#       8
#     2   2   2   2   2   2   2   2
#     4  12  25  38  51  83 123 162 198 228 281 347
#     4  11  23  36  58  86 120 154 190 234 293 341
#     4  11  18  36  62  86 111 153 197 244 289 329
#     4  10  19  36  61  87 113 140 193 246 291 342
#     4  11  19  36  60  83 117 156 199 240 279 335
#     4  11  22  37  57  80 121 160 196 237 278 337
#     4  11  22  39  55  83 120 159 200 234 278 340
#     4   9  20  37  57  86 113 144 184 243 299 346
#
# _framework density 21.564259
#
# number of rings (size 3 to 8) (size 9 to 14) (size 15 to 20)
#    0.000    1.250    3.750    5.250    0.000    3.000 
#    0.000    0.000    0.000    0.750    0.000   30.625 
#    0.000    0.000    0.000    0.000    0.000    0.000 
#
# Total GULP energy -89108.061218 kJ/mol
# GULP energy per Si atom -5569.253826 kJ/mol
# Density = 2.151518 g / cm^3
# Si number density = 21.564259 Si / 1000 Ang^3
#
#
#
# Elastic Constant Matrix: (Units=GPa)
#
#
# Indices 1 2 3 4 5 6 
#
# 1 63.3612 15.9727 35.7368 0.0172 5.2069 8.0297
# 2 15.9727 78.2482 29.1825 -6.9869 -2.1573 15.8134
# 3 35.7368 29.1825 152.4312 -5.1921 17.0853 4.6237
# 4 0.0172 -6.9869 -5.1921 44.5167 6.5888 9.3317
# 5 5.2069 -2.1573 17.0853 6.5888 32.4113 -8.4319
# 6 8.0297 15.8134 4.6237 9.3317 -8.4319 21.1236
#
#
#
# Elastic Compliance Matrix: (Units=1/GPa)
#
#
# Indices 1 2 3 4 5 6 
#
# 1 0.019406 -0.000911 -0.003658 0.001670 -0.003699 -0.008108
# 2 -0.000911 0.017549 -0.002072 0.006432 -0.003180 -0.016448
# 3 -0.003658 -0.002072 0.008452 0.001691 -0.004754 -0.001553
# 4 0.001670 0.006432 0.001691 0.030868 -0.013467 -0.024832
# 5 -0.003699 -0.003180 -0.004754 -0.013467 0.043835 0.028274
# 6 -0.008108 -0.016448 -0.001553 -0.024832 0.028274 0.085332
#
#
# Mechanical properties :
#
#
# Convention : Reuss Voigt Hill
#
# Bulk Modulus (GPa) = 31.12757 50.64717 40.88737
# Shear Modulus (GPa) = 21.79279 33.82023 27.80651
#
# Velocity S-wave (km/s) = 3.18244 3.96453 3.59482
# Velocity P-wave (km/s) = 5.28867 6.67040 6.01932
#
# Compressibility (1/GPa) = 0.03212586
#
# Stress axis : x y z
#
# Youngs Moduli (GPa) = 51.52923 56.98272 118.31469
#
# Poissons Ratio (x) = 0.05194 0.43277
# Poissons Ratio (y) = 0.04697 0.24510
# Poissons Ratio (z) = 0.18848 0.11805
#
# Static dielectric constant tensor:
#      x y z
#    x 1.850720 0.018000 0.027100 
#    y 0.018000 1.895060 0.050090 
#    z 0.027100 0.050090 1.907580 
# 
# From -- ./inp_files/562885.got.cif
#   From: 2010.05.17/outbox.cif.g08.bks.cpg/sg2_282_cif.got.tgz:562885.got - 2010.06.03 11:33:40.
