data_PCOD9086532
_publ_section_title
;
Structure prediction by ZEFSAII (Michael W. Deem and Ramdas Pophale) SiO2 
 PCOD9086532
Probable space group: P -1
;
_chemical_formula_sum "Si O2"
_cell_formula_units_Z 16
_cell_length_a 19.124916
_cell_length_b 16.275439
_cell_length_c 12.064291
_cell_angle_alpha 28.169632
_cell_angle_beta 26.844177
_cell_angle_gamma 25.999874
_cell_volume 680.580680
_symmetry_space_group_name_H-M "P -1"
_symmetry_group_IT_number 2
_symmetry_cell_setting 'triclinic'
loop_
_space_group_symop_operation_xyz
x,y,z
-x,-y,-z
loop_
_atom_site_type_symbol
_atom_site_label
_atom_site_fract_x
_atom_site_fract_y
_atom_site_fract_z
Si Si1 0.049234 0.526654 0.659219
Si Si2 0.401997 0.796583 0.303260
Si Si3 0.177958 0.854334 0.346925
Si Si4 0.691329 0.396514 0.145190
Si Si5 0.174686 0.307269 0.422184
Si Si6 0.255716 0.241192 0.029886
Si Si7 0.343353 0.439597 0.492543
Si Si8 0.898170 0.862111 0.085019
O O1 0.913242 0.703612 0.555669
O O2 0.940828 0.585649 0.857288
O O3 0.243997 0.494332 0.449876
O O4 0.073901 0.320817 0.818480
O O5 0.340253 0.818330 0.239473
O O6 0.366953 0.641374 0.606358
O O7 0.274634 0.022779 0.267781
O O8 0.601799 0.750916 0.098182
O O9 0.224124 0.629464 0.519087
O O10 0.000000 0.000000 0.500000
O O11 0.167909 0.952026 0.125900
O O12 0.547117 0.393263 0.269916
O O13 0.695175 0.603638 0.882209
O O14 0.902783 0.213821 0.054956
O O15 0.228718 0.125543 0.648301
O O16 0.000000 0.500000 0.500000
O O17 0.324882 0.261133 0.787447
#
# Coordination Sequence:
#
# PCOD9086532 Si02
#       8
#     2   2   2   2   2   2   2   2
#     4  10  19  36  59  79 112 153 191 226 286 336
#     4  10  21  34  56  87 118 149 187 233 284 341
#     4  12  22  34  58  88 118 145 190 230 286 336
#     4   9  19  37  60  82 113 144 196 230 279 331
#     4   8  19  38  62  79 105 158 194 227 281 344
#     4  10  21  35  54  86 122 151 181 231 296 339
#     4  11  23  33  57  90 118 144 189 240 281 336
#     4  10  21  41  62  79 113 155 193 228 283 346
#
# _framework density 23.509336000000001
#
# number of rings (size 3 to 8) (size 9 to 14) (size 15 to 20)
#    0.000    2.250    1.250    2.625    5.250    1.000 
#    0.000    6.875    2.750    0.000    0.000    0.000 
#    0.000    0.000    0.000    0.000    0.000    0.000 
#
# Total GULP energy -89323.419359 kJ/mol
# GULP energy per Si atom -5582.713710 kJ/mol
# Density = 2.345583 g / cm^3
# Si number density = 23.509336 Si / 1000 Ang^3
#
#
#
# Elastic Constant Matrix: (Units=GPa)
#
#
# Indices 1 2 3 4 5 6 
#
# 1 96.1533 13.6739 55.9625 5.5716 -14.5178 -31.6288
# 2 13.6739 39.0763 26.9021 -1.4511 -9.0812 -10.7365
# 3 55.9625 26.9021 136.8719 -4.9916 10.5748 -27.9561
# 4 5.5716 -1.4511 -4.9916 25.0528 -11.7919 -0.4043
# 5 -14.5178 -9.0812 10.5748 -11.7919 33.9845 -2.2205
# 6 -31.6288 -10.7365 -27.9561 -0.4043 -2.2205 36.6607
#
#
#
# Elastic Compliance Matrix: (Units=1/GPa)
#
#
# Indices 1 2 3 4 5 6 
#
# 1 0.021023 0.005276 -0.007685 0.000961 0.014075 0.014685
# 2 0.005276 0.036853 -0.008452 0.007989 0.018163 0.010087
# 3 -0.007685 -0.008452 0.012858 -0.000843 -0.009829 0.000094
# 4 0.000961 0.007989 -0.000843 0.049625 0.020307 0.004303
# 5 0.014075 0.018163 -0.009829 0.020307 0.051264 0.013296
# 6 0.014685 0.010087 0.000094 0.004303 0.013296 0.043825
#
#
# Mechanical properties :
#
#
# Convention : Reuss Voigt Hill
#
# Bulk Modulus (GPa) = 20.40410 51.68649 36.04530
# Shear Modulus (GPa) = 19.72332 30.84380 25.28356
#
# Velocity S-wave (km/s) = 2.89962 3.62606 3.28299
# Velocity P-wave (km/s) = 4.46188 6.29002 5.45310
#
# Compressibility (1/GPa) = 0.04900975
#
# Stress axis : x y z
#
# Youngs Moduli (GPa) = 47.56778 27.13499 77.77512
#
# Poissons Ratio (x) = -0.14316 0.59774
# Poissons Ratio (y) = -0.25097 0.65736
# Poissons Ratio (z) = 0.36558 0.22935
#
# Static dielectric constant tensor:
#      x y z
#    x 1.936700 -0.064880 0.045980 
#    y -0.064880 1.928600 -0.009100 
#    z 0.045980 -0.009100 1.950380 
# 
# From -- ./inp_files/466408.got.cif
#   From: 2010.05.17/outbox.cif.g08.bks.cpg/sg2_234_cif.got.tgz:466408.got - 2010.06.03 11:33:40.
