data_PCOD9086879
_publ_section_title
;
Structure prediction by ZEFSAII (Michael W. Deem and Ramdas Pophale) SiO2 
 PCOD9086879
Probable space group: P -1
;
_chemical_formula_sum "Si O2"
_cell_formula_units_Z 16
_cell_length_a 10.438792
_cell_length_b 11.244005
_cell_length_c 9.471605
_cell_angle_alpha 125.709558
_cell_angle_beta 45.621809
_cell_angle_gamma 105.861695
_cell_volume 627.522494
_symmetry_space_group_name_H-M "P -1"
_symmetry_group_IT_number 2
_symmetry_cell_setting 'triclinic'
loop_
_space_group_symop_operation_xyz
x,y,z
-x,-y,-z
loop_
_atom_site_type_symbol
_atom_site_label
_atom_site_fract_x
_atom_site_fract_y
_atom_site_fract_z
Si Si1 0.841616 0.268655 0.133285
Si Si2 0.612669 0.597245 0.067716
Si Si3 0.227852 0.149786 0.248403
Si Si4 0.753074 0.318074 0.932235
Si Si5 0.363499 0.390355 0.444871
Si Si6 0.931835 0.672327 0.732269
Si Si7 0.513320 0.181806 0.441920
Si Si8 0.358220 0.950403 0.268666
O O1 0.884678 0.258656 0.924668
O O2 0.706414 0.434510 0.362755
O O3 0.719047 0.151618 0.194610
O O4 0.985397 0.283772 0.153740
O O5 0.760332 0.474576 0.961487
O O6 0.490731 0.724234 0.347891
O O7 0.500000 0.500000 0.000000
O O8 0.720227 0.678816 0.934862
O O9 0.216453 0.318102 0.431056
O O10 0.071599 0.190627 0.279004
O O11 0.229332 0.047578 0.313511
O O12 0.436026 0.092164 0.988376
O O13 0.549305 0.355012 0.186265
O O14 0.732087 0.191797 0.747251
O O15 0.398068 0.300076 0.500650
O O16 0.000000 0.500000 0.500000
O O17 0.403154 0.049174 0.433544
#
# Coordination Sequence:
#
# PCOD9086879 Si02
#       8
#     2   2   2   2   2   2   2   2
#     4  11  18  33  58  90 124 157 190 253 307 353
#     4  12  23  38  62  90 121 157 204 262 295 355
#     4   9  17  35  56  88 118 155 205 236 295 356
#     4  10  19  36  60  94 120 151 209 245 300 354
#     4   9  14  30  59  85 116 147 194 249 280 347
#     4  12  25  37  57  92 131 159 192 254 321 358
#     4  10  19  36  62  93 112 159 213 244 296 347
#     4   9  19  36  68  88 114 160 206 258 282 356
#
# _framework density 25.497094000000001
#
# number of rings (size 3 to 8) (size 9 to 14) (size 15 to 20)
#    0.000    1.750    3.750    5.250    0.000    0.500 
#    0.000    5.000    0.000    4.500    0.000    0.000 
#    0.000    0.000    0.000    0.000    0.000    0.000 
#
# Total GULP energy -89285.366339 kJ/mol
# GULP energy per Si atom -5580.335396 kJ/mol
# Density = 2.543906 g / cm^3
# Si number density = 25.497094 Si / 1000 Ang^3
#
#
#
# Elastic Constant Matrix: (Units=GPa)
#
#
# Indices 1 2 3 4 5 6 
#
# 1 132.3046 26.9156 14.4039 9.8795 32.9902 -10.2833
# 2 26.9156 81.6646 15.1045 14.6706 8.2936 -2.0969
# 3 14.4039 15.1045 62.3543 -1.9023 16.0773 -1.9888
# 4 9.8795 14.6706 -1.9023 27.6562 9.3531 8.2009
# 5 32.9902 8.2936 16.0773 9.3531 33.2582 7.7485
# 6 -10.2833 -2.0969 -1.9888 8.2009 7.7485 31.7593
#
#
#
# Elastic Compliance Matrix: (Units=1/GPa)
#
#
# Indices 1 2 3 4 5 6 
#
# 1 0.011839 -0.002589 0.001572 -0.000318 -0.013427 0.007119
# 2 -0.002589 0.015176 -0.004039 -0.008814 0.002869 0.001487
# 3 0.001572 -0.004039 0.020257 0.006435 -0.012849 0.002984
# 4 -0.000318 -0.008814 0.006435 0.048337 -0.011894 -0.009861
# 5 -0.013427 0.002869 -0.012849 -0.011894 0.055842 -0.015516
# 6 0.007119 0.001487 0.002984 -0.009861 -0.015516 0.040409
#
#
# Mechanical properties :
#
#
# Convention : Reuss Voigt Hill
#
# Bulk Modulus (GPa) = 26.91166 43.24127 35.07647
# Shear Modulus (GPa) = 23.32528 33.19469 28.25999
#
# Velocity S-wave (km/s) = 3.02788 3.61210 3.33282
# Velocity P-wave (km/s) = 4.77512 5.86451 5.34763
#
# Compressibility (1/GPa) = 0.03715862
#
# Stress axis : x y z
#
# Youngs Moduli (GPa) = 84.46699 65.89380 49.36488
#
# Poissons Ratio (x) = 0.17061 -0.07759
# Poissons Ratio (y) = 0.21870 0.19940
# Poissons Ratio (z) = -0.13276 0.26616
#
# Static dielectric constant tensor:
#      x y z
#    x 2.120070 -0.026710 0.049970 
#    y -0.026710 2.033170 0.022900 
#    z 0.049970 0.022900 2.117350 
# 
# From -- ./inp_files/262938.got.cif
#   From: 2010.05.17/outbox.cif.g08.bks.cpg/sg2_132_cif.got.tgz:262938.got - 2010.06.03 11:33:40.
