data_PCOD9086480
_publ_section_title
;
Structure prediction by ZEFSAII (Michael W. Deem and Ramdas Pophale) SiO2 
 PCOD9086480
Probable space group: P -1
;
_chemical_formula_sum "Si O2"
_cell_formula_units_Z 16
_cell_length_a 12.782382
_cell_length_b 12.054405
_cell_length_c 9.247300
_cell_angle_alpha 131.471341
_cell_angle_beta 102.444211
_cell_angle_gamma 52.492313
_cell_volume 803.569077
_symmetry_space_group_name_H-M "P -1"
_symmetry_group_IT_number 2
_symmetry_cell_setting 'triclinic'
loop_
_space_group_symop_operation_xyz
x,y,z
-x,-y,-z
loop_
_atom_site_type_symbol
_atom_site_label
_atom_site_fract_x
_atom_site_fract_y
_atom_site_fract_z
Si Si1 0.861861 0.081637 0.117411
Si Si2 0.971157 0.623820 0.368613
Si Si3 0.899182 0.184611 0.528833
Si Si4 0.823027 0.777628 0.772112
Si Si5 0.548939 0.054070 0.783669
Si Si6 0.384269 0.664981 0.934690
Si Si7 0.667721 0.261490 0.693670
Si Si8 0.304175 0.101837 0.622862
O O1 0.880143 0.119435 0.316128
O O2 0.726986 0.271564 0.165977
O O3 0.834527 0.931756 0.969770
O O4 0.000000 0.000000 0.000000
O O5 0.037544 0.712883 0.400276
O O6 0.093156 0.402176 0.250960
O O7 0.899343 0.713900 0.582408
O O8 0.844758 0.694725 0.283611
O O9 0.752476 0.309544 0.674154
O O10 0.000000 0.000000 0.500000
O O11 0.661817 0.883930 0.780186
O O12 0.400069 0.107001 0.767930
O O13 0.616478 0.977864 0.577556
O O14 0.548190 0.230370 0.970245
O O15 0.504126 0.437327 0.781519
O O16 0.303440 0.747278 0.134519
O O17 0.708455 0.060964 0.480945
#
# Coordination Sequence:
#
# PCOD9086480 Si02
#       8
#     2   2   2   2   2   2   2   2
#     4  11  21  39  62  88 118 157 202 245 298 358
#     4  10  19  36  58  88 120 152 202 246 298 352
#     4  12  23  38  60  86 124 163 194 251 307 351
#     4   9  19  37  59  88 116 153 201 251 289 359
#     4   8  16  32  57  79 111 149 193 243 290 341
#     4   9  20  39  60  88 117 151 204 247 292 363
#     4  10  20  37  60  87 120 154 198 248 301 350
#     4   9  16  32  53  84 115 150 192 239 291 349
#
# _framework density 19.911171
#
# number of rings (size 3 to 8) (size 9 to 14) (size 15 to 20)
#    0.000    2.250    2.500    1.500    0.000    1.500 
#   11.250    1.875    0.000    3.000    0.000    0.000 
#    0.000    0.000    0.000    0.000    0.000    0.000 
#
# Total GULP energy -89262.219192 kJ/mol
# GULP energy per Si atom -5578.888699 kJ/mol
# Density = 1.986585 g / cm^3
# Si number density = 19.911171 Si / 1000 Ang^3
#
#
#
# Elastic Constant Matrix: (Units=GPa)
#
#
# Indices 1 2 3 4 5 6 
#
# 1 86.8568 56.2795 17.8037 -17.3230 13.1761 -11.4122
# 2 56.2795 139.8150 23.7273 -11.4764 12.0907 -11.0738
# 3 17.8037 23.7273 23.3086 -14.7489 1.5998 -10.9032
# 4 -17.3230 -11.4764 -14.7489 21.7048 -4.4075 8.8738
# 5 13.1761 12.0907 1.5998 -4.4075 16.1495 -7.1368
# 6 -11.4122 -11.0738 -10.9032 8.8738 -7.1368 27.0473
#
#
#
# Elastic Compliance Matrix: (Units=1/GPa)
#
#
# Indices 1 2 3 4 5 6 
#
# 1 0.018679 -0.005632 -0.002890 0.008469 -0.008722 -0.000669
# 2 -0.005632 0.011202 -0.012055 -0.007143 -0.005300 -0.001704
# 3 -0.002890 -0.012055 0.102592 0.056860 0.027225 0.023731
# 4 0.008469 -0.007143 0.056860 0.092014 0.016972 -0.002140
# 5 -0.008722 -0.005300 0.027225 0.016972 0.084611 0.021882
# 6 -0.000669 -0.001704 0.023731 -0.002140 0.021882 0.052034
#
#
# Mechanical properties :
#
#
# Convention : Reuss Voigt Hill
#
# Bulk Modulus (GPa) = 10.95051 49.51126 30.23088
# Shear Modulus (GPa) = 11.55467 23.12499 17.33983
#
# Velocity S-wave (km/s) = 2.41158 3.41164 2.95423
# Velocity P-wave (km/s) = 3.64224 6.35917 5.18194
#
# Compressibility (1/GPa) = 0.09131996
#
# Stress axis : x y z
#
# Youngs Moduli (GPa) = 53.53577 89.26860 9.74732
#
# Poissons Ratio (x) = 0.50277 0.02817
# Poissons Ratio (y) = 0.30152 0.11750
# Poissons Ratio (z) = 0.15472 1.07610
#
# Static dielectric constant tensor:
#      x y z
#    x 1.719550 -0.025070 -0.010000 
#    y -0.025070 1.714680 0.014360 
#    z -0.010000 0.014360 1.675740 
# 
# From -- ./inp_files/263517.got.cif
#   From: 2010.05.17/outbox.cif.g08.bks.cpg/sg2_132_cif.got.tgz:263517.got - 2010.06.03 11:33:40.
