data_PCOD9086763
_publ_section_title
;
Structure prediction by ZEFSAII (Michael W. Deem and Ramdas Pophale) SiO2 
 PCOD9086763
Probable space group: P -1
;
_chemical_formula_sum "Si O2"
_cell_formula_units_Z 16
_cell_length_a 15.561575
_cell_length_b 12.838925
_cell_length_c 20.872106
_cell_angle_alpha 151.747792
_cell_angle_beta 156.700410
_cell_angle_gamma 43.427327
_cell_volume 700.292623
_symmetry_space_group_name_H-M "P -1"
_symmetry_group_IT_number 2
_symmetry_cell_setting 'triclinic'
loop_
_space_group_symop_operation_xyz
x,y,z
-x,-y,-z
loop_
_atom_site_type_symbol
_atom_site_label
_atom_site_fract_x
_atom_site_fract_y
_atom_site_fract_z
Si Si1 0.183189 0.333669 0.945118
Si Si2 0.692983 0.039217 0.503170
Si Si3 0.396061 0.899545 0.000335
Si Si4 0.093710 0.829530 0.538866
Si Si5 0.298799 0.824301 0.216999
Si Si6 0.298593 0.574763 0.634077
Si Si7 0.948268 0.950090 0.752114
Si Si8 0.581403 0.729309 0.134672
O O1 0.940914 0.292056 0.796143
O O2 0.128780 0.067095 0.734060
O O3 0.244666 0.547510 0.049705
O O4 0.438678 0.406350 0.196751
O O5 0.426469 0.950081 0.305780
O O6 0.806647 0.930763 0.577750
O O7 0.629366 0.939441 0.333551
O O8 0.355124 0.786718 0.840900
O O9 0.221968 0.019433 0.959656
O O10 0.370366 0.689983 0.919267
O O11 0.678142 0.076747 0.301093
O O12 0.135949 0.628043 0.499728
O O13 0.830556 0.746601 0.284693
O O14 0.500000 0.000000 0.500000
O O15 0.074496 0.867913 0.112268
O O16 0.162160 0.316202 0.435223
O O17 0.500000 0.500000 0.000000
#
# Coordination Sequence:
#
# PCOD9086763 Si02
#       8
#     2   2   2   2   2   2   2   2
#     4  10  19  36  60  86 122 152 192 240 297 346
#     4  10  21  39  58  87 118 157 195 241 294 344
#     4  11  21  35  56  86 121 152 189 244 291 351
#     4  10  22  37  58  90 120 154 191 242 305 351
#     4  10  21  38  58  90 117 155 202 243 288 343
#     4  11  19  36  60  90 124 149 190 247 299 346
#     4  11  21  37  60  89 119 151 201 242 292 346
#     4  11  22  36  58  86 116 156 197 235 300 357
#
# _framework density 22.847591999999999
#
# number of rings (size 3 to 8) (size 9 to 14) (size 15 to 20)
#    0.000    1.500    2.500    6.000    1.750    2.000 
#    2.250    0.625    0.000    3.000    0.000    0.000 
#    0.000    0.000    0.000    0.000    0.000    0.000 
#
# Total GULP energy -89094.555654 kJ/mol
# GULP energy per Si atom -5568.409728 kJ/mol
# Density = 2.279559 g / cm^3
# Si number density = 22.847592 Si / 1000 Ang^3
#
#
#
# Elastic Constant Matrix: (Units=GPa)
#
#
# Indices 1 2 3 4 5 6 
#
# 1 57.8228 46.8988 -3.9768 15.9016 8.7186 3.5871
# 2 46.8988 66.9522 22.6651 -19.4403 8.2138 -2.4304
# 3 -3.9768 22.6651 24.8642 18.9962 13.6064 -6.7034
# 4 15.9016 -19.4403 18.9962 25.6112 5.2692 6.9897
# 5 8.7186 8.2138 13.6064 5.2692 32.2572 -5.2481
# 6 3.5871 -2.4304 -6.7034 6.9897 -5.2481 33.5398
#
#
#
# Elastic Compliance Matrix: (Units=1/GPa)
#
#
# Indices 1 2 3 4 5 6 
#
# 1 0.006995 0.005961 -0.019211 0.016286 0.000827 -0.007420
# 2 0.005961 0.000588 0.018089 -0.017055 -0.005680 0.005686
# 3 -0.019211 0.018089 0.007153 0.021801 -0.006107 -0.000704
# 4 0.016286 -0.017055 0.021801 0.001953 -0.009662 -0.000539
# 5 0.000827 -0.005680 -0.006107 -0.009662 0.037377 0.006141
# 6 -0.007420 0.005686 -0.000704 -0.000539 0.006141 0.031954
#
#
# Mechanical properties :
#
#
# Convention : Reuss Voigt Hill
#
# Bulk Modulus (GPa) = 40.95843 31.20152 36.07997
# Shear Modulus (GPa) = 59.18711 23.88511 41.53611
#
# Velocity S-wave (km/s) = 5.09524 3.23679 4.26839
# Velocity P-wave (km/s) = 7.25127 5.25881 6.33388
#
# Compressibility (1/GPa) = 0.02441500
#
# Stress axis : x y z
#
# Youngs Moduli (GPa) = 142.96187 1701.49495 139.80260
#
# Poissons Ratio (x) = -10.14318 2.68568
# Poissons Ratio (y) = -0.85224 -2.52888
# Poissons Ratio (z) = 2.74638 -30.77826
#
# Static dielectric constant tensor:
#      x y z
#    x 1.940330 0.011820 0.130250 
#    y 0.011820 1.932720 0.028660 
#    z 0.130250 0.028660 1.924030 
# 
# From -- ./inp_files/175106.got.cif
#   From: 2010.05.17/outbox.cif.g08.bks.cpg/sg2_88_cif.got.tgz:175106.got - 2010.06.03 11:33:40.
