data_PCOD9086501
_publ_section_title
;
Structure prediction by ZEFSAII (Michael W. Deem and Ramdas Pophale) SiO2 
 PCOD9086501
Probable space group: P -1
;
_chemical_formula_sum "Si O2"
_cell_formula_units_Z 16
_cell_length_a 7.608095
_cell_length_b 11.616024
_cell_length_c 9.679003
_cell_angle_alpha 97.571472
_cell_angle_beta 127.366488
_cell_angle_gamma 73.647664
_cell_volume 651.479105
_symmetry_space_group_name_H-M "P -1"
_symmetry_group_IT_number 2
_symmetry_cell_setting 'triclinic'
loop_
_space_group_symop_operation_xyz
x,y,z
-x,-y,-z
loop_
_atom_site_type_symbol
_atom_site_label
_atom_site_fract_x
_atom_site_fract_y
_atom_site_fract_z
Si Si1 0.929205 0.690092 0.345520
Si Si2 0.952619 0.201079 0.837612
Si Si3 0.162049 0.721319 0.744419
Si Si4 0.511921 0.133064 0.718112
Si Si5 0.340098 0.321629 0.143797
Si Si6 0.019862 0.005089 0.344674
Si Si7 0.757766 0.488158 0.071011
Si Si8 0.541035 0.871779 0.608416
O O1 0.688492 0.795460 0.263311
O O2 0.861769 0.575983 0.230078
O O3 0.098373 0.727908 0.321665
O O4 0.060828 0.672094 0.551295
O O5 0.734431 0.187830 0.821605
O O6 0.090369 0.070514 0.825661
O O7 0.133470 0.264045 0.998648
O O8 0.430729 0.712279 0.845481
O O9 0.055335 0.861815 0.723741
O O10 0.120258 0.646467 0.845453
O O11 0.372820 0.160732 0.510615
O O12 0.590710 0.985146 0.736391
O O13 0.424475 0.251451 0.313468
O O14 0.252792 0.463242 0.084049
O O15 0.000000 0.000000 0.500000
O O16 0.282221 0.933843 0.449554
O O17 0.500000 0.500000 0.000000
#
# Coordination Sequence:
#
# PCOD9086501 Si02
#       8
#     2   2   2   2   2   2   2   2
#     4  11  20  40  69  93 120 161 221 253 305 367
#     4  10  22  37  59  96 134 161 194 258 320 376
#     4  11  19  35  64  89 121 163 212 254 297 365
#     4  10  21  37  63  96 124 161 209 256 306 371
#     4  10  21  38  59  87 131 165 198 251 320 368
#     4  11  17  33  58  95 119 159 212 247 309 371
#     4   9  22  40  59  93 125 166 207 258 311 367
#     4  10  19  36  58  90 131 156 202 263 306 366
#
# _framework density 24.559497
#
# number of rings (size 3 to 8) (size 9 to 14) (size 15 to 20)
#    0.000    1.750    3.750    1.125    0.000    1.000 
#    4.500    3.750    0.000   26.250    0.000    0.000 
#    0.000    0.000    0.000    0.000    0.000    0.000 
#
# Total GULP energy -89115.524924 kJ/mol
# GULP energy per Si atom -5569.720308 kJ/mol
# Density = 2.450360 g / cm^3
# Si number density = 24.559497 Si / 1000 Ang^3
#
#
#
# Elastic Constant Matrix: (Units=GPa)
#
#
# Indices 1 2 3 4 5 6 
#
# 1 95.5184 35.5380 18.3342 4.3354 22.8638 4.0721
# 2 35.5380 126.1535 46.1007 -26.1185 -12.3421 37.4344
# 3 18.3342 46.1007 85.3362 -14.4853 -1.8199 16.0753
# 4 4.3354 -26.1185 -14.4853 47.1825 17.9751 -1.1255
# 5 22.8638 -12.3421 -1.8199 17.9751 40.0305 0.3422
# 6 4.0721 37.4344 16.0753 -1.1255 0.3422 35.2349
#
#
#
# Elastic Compliance Matrix: (Units=1/GPa)
#
#
# Indices 1 2 3 4 5 6 
#
# 1 0.015769 -0.007352 -0.001164 -0.001668 -0.010633 0.006569
# 2 -0.007352 0.018501 -0.003960 0.006684 0.006866 -0.016853
# 3 -0.001164 -0.003960 0.015032 0.002915 -0.001161 -0.002412
# 4 -0.001668 0.006684 0.002915 0.029615 -0.010091 -0.007194
# 5 -0.010633 0.006866 -0.001161 -0.010091 0.037703 -0.006225
# 6 0.006569 -0.016853 -0.002412 -0.007194 -0.006225 0.046458
#
#
# Mechanical properties :
#
#
# Convention : Reuss Voigt Hill
#
# Bulk Modulus (GPa) = 41.06509 56.32823 48.69666
# Shear Modulus (GPa) = 25.49129 38.29193 31.89161
#
# Velocity S-wave (km/s) = 3.22520 3.95289 3.60744
# Velocity P-wave (km/s) = 5.53409 6.61959 6.10103
#
# Compressibility (1/GPa) = 0.02435159
#
# Stress axis : x y z
#
# Youngs Moduli (GPa) = 63.41669 54.04974 66.52537
#
# Poissons Ratio (x) = 0.39737 0.07741
# Poissons Ratio (y) = 0.46623 0.26342
# Poissons Ratio (z) = 0.07379 0.21402
#
# Static dielectric constant tensor:
#      x y z
#    x 2.145730 -0.142850 -0.066590 
#    y -0.142850 2.756740 0.143950 
#    z -0.066590 0.143950 2.071990 
# 
# From -- ./inp_files/390257.got.cif
#   From: 2010.05.17/outbox.cif.g08.bks.cpg/sg2_196_cif.got.tgz:390257.got - 2010.06.03 11:33:40.
