data_PCOD9086998
_publ_section_title
;
Structure prediction by ZEFSAII (Michael W. Deem and Ramdas Pophale) SiO2 
 PCOD9086998
Probable space group: P -1
;
_chemical_formula_sum "Si O2"
_cell_formula_units_Z 14
_cell_length_a 15.697212
_cell_length_b 8.505615
_cell_length_c 8.606394
_cell_angle_alpha 109.442178
_cell_angle_beta 83.603675
_cell_angle_gamma 147.047576
_cell_volume 556.919944
_symmetry_space_group_name_H-M "P -1"
_symmetry_group_IT_number 2
_symmetry_cell_setting 'triclinic'
loop_
_space_group_symop_operation_xyz
x,y,z
-x,-y,-z
loop_
_atom_site_type_symbol
_atom_site_label
_atom_site_fract_x
_atom_site_fract_y
_atom_site_fract_z
Si Si1 0.832214 0.106087 0.753436
Si Si2 0.051617 0.337279 0.034713
Si Si3 0.096167 0.308651 0.669060
Si Si4 0.275030 0.464331 0.101742
Si Si5 0.610901 0.604004 0.148993
Si Si6 0.477903 0.633714 0.392389
Si Si7 0.471388 0.835034 0.752783
O O1 0.847927 0.329476 0.831488
O O2 0.975284 0.269235 0.664325
O O3 0.657922 0.726144 0.633699
O O4 0.883472 0.134652 0.929359
O O5 0.115209 0.304442 0.131572
O O6 0.103140 0.324791 0.860993
O O7 0.288749 0.610427 0.686438
O O8 0.000000 0.000000 0.500000
O O9 0.373630 0.560413 0.261014
O O10 0.402732 0.809529 0.115071
O O11 0.246929 0.259481 0.925805
O O12 0.625775 0.781300 0.324119
O O13 0.532566 0.323827 0.175407
O O14 0.500000 0.500000 0.000000
O O15 0.475087 0.160063 0.417769
#
# Coordination Sequence:
#
# PCOD9086998 Si02
#       7
#     2   2   2   2   2   2   2
#     4   9  19  36  58  85 112 152 198 246 286 346
#     4   9  19  36  57  85 110 151 201 238 288 348
#     4  10  19  36  61  88 111 149 202 237 297 350
#     4  11  23  37  58  88 117 161 199 235 289 355
#     4  10  22  37  57  89 116 149 199 240 290 349
#     4  11  23  37  56  89 123 153 196 241 293 347
#     4  12  21  38  63  83 123 157 189 245 300 345
#
# _framework density 25.138263999999999
#
# number of rings (size 3 to 8) (size 9 to 14) (size 15 to 20)
#    0.857    0.857    2.857    2.143    2.000    0.571 
#    0.000    0.000    0.000    0.857    0.000    0.000 
#    0.000    0.000    0.000    0.000    0.000    0.000 
#
# Total GULP energy -77992.705522 kJ/mol
# GULP energy per Si atom -5570.907537 kJ/mol
# Density = 2.508105 g / cm^3
# Si number density = 25.138264 Si / 1000 Ang^3
#
#
#
# Elastic Constant Matrix: (Units=GPa)
#
#
# Indices 1 2 3 4 5 6 
#
# 1 184.9877 30.5969 48.1969 0.4946 -16.7389 0.9321
# 2 30.5969 60.8844 10.9095 15.4950 0.3517 -1.1517
# 3 48.1969 10.9095 101.5551 9.9512 -22.4676 1.3193
# 4 0.4946 15.4950 9.9512 43.1661 7.4649 12.9518
# 5 -16.7389 0.3517 -22.4676 7.4649 46.9531 6.5240
# 6 0.9321 -1.1517 1.3193 12.9518 6.5240 18.4075
#
#
#
# Elastic Compliance Matrix: (Units=1/GPa)
#
#
# Indices 1 2 3 4 5 6 
#
# 1 0.006840 -0.003598 -0.002828 0.002414 0.001068 -0.002446
# 2 -0.003598 0.020929 0.000090 -0.009974 -0.001043 0.008873
# 3 -0.002828 0.000090 0.012843 -0.003947 0.005770 -0.000040
# 4 0.002414 -0.009974 -0.003947 0.035471 -0.003219 -0.024280
# 5 0.001068 -0.001043 0.005770 -0.003219 0.025999 -0.007482
# 6 -0.002446 0.008873 -0.000040 -0.024280 -0.007482 0.074743
#
#
# Mechanical properties :
#
#
# Convention : Reuss Voigt Hill
#
# Bulk Modulus (GPa) = 35.78970 58.53709 47.16339
# Shear Modulus (GPa) = 25.14978 38.88694 32.01836
#
# Velocity S-wave (km/s) = 3.16643 3.93736 3.57275
# Velocity P-wave (km/s) = 5.25704 6.63378 5.98513
#
# Compressibility (1/GPa) = 0.02794100
#
# Stress axis : x y z
#
# Youngs Moduli (GPa) = 146.19430 47.78169 77.86270
#
# Poissons Ratio (x) = 0.17190 0.22022
# Poissons Ratio (y) = 0.52594 -0.00704
# Poissons Ratio (z) = 0.41348 -0.00432
#
# Static dielectric constant tensor:
#      x y z
#    x 2.148430 0.026330 0.069840 
#    y 0.026330 2.183240 -0.073950 
#    z 0.069840 -0.073950 1.950820 
# 
# From -- ./inp_files/445037.got.cif
#   From: 2010.05.17/outbox.cif.g08.bks.cpg/sg2_223_cif.got.tgz:445037.got - 2010.06.03 11:33:40.
