data_PCOD9086912
_publ_section_title
;
Structure prediction by ZEFSAII (Michael W. Deem and Ramdas Pophale) SiO2 
 PCOD9086912
Probable space group: P -1
;
_chemical_formula_sum "Si O2"
_cell_formula_units_Z 16
_cell_length_a 6.986970
_cell_length_b 17.735343
_cell_length_c 18.959685
_cell_angle_alpha 159.785015
_cell_angle_beta 85.828591
_cell_angle_gamma 102.894659
_cell_volume 723.279391
_symmetry_space_group_name_H-M "P -1"
_symmetry_group_IT_number 2
_symmetry_cell_setting 'triclinic'
loop_
_space_group_symop_operation_xyz
x,y,z
-x,-y,-z
loop_
_atom_site_type_symbol
_atom_site_label
_atom_site_fract_x
_atom_site_fract_y
_atom_site_fract_z
Si Si1 0.710915 0.870363 0.849257
Si Si2 0.804691 0.734354 0.057228
Si Si3 0.366627 0.663858 0.392934
Si Si4 0.387010 0.072319 0.647660
Si Si5 0.117253 0.788940 0.740711
Si Si6 0.032727 0.753965 0.561606
Si Si7 0.432458 0.374808 0.502388
Si Si8 0.841523 0.357743 0.815524
O O1 0.606344 0.632045 0.692780
O O2 0.596766 0.810962 0.724346
O O3 0.946434 0.899812 0.848012
O O4 0.730591 0.091029 0.091554
O O5 0.653667 0.571034 0.855346
O O6 0.904832 0.564111 0.935095
O O7 0.684800 0.780875 0.167266
O O8 0.954173 0.000625 0.257879
O O9 0.133697 0.629446 0.396835
O O10 0.504292 0.696741 0.487924
O O11 0.444980 0.891048 0.535994
O O12 0.595756 0.255917 0.760609
O O13 0.192400 0.892303 0.443357
O O14 0.184191 0.829106 0.692855
O O15 0.000000 0.500000 0.500000
O O16 0.788844 0.604832 0.461787
O O17 0.000000 0.500000 0.000000
#
# Coordination Sequence:
#
# PCOD9086912 Si02
#       8
#     2   2   2   2   2   2   2   2
#     4   9  20  37  56  86 116 150 205 252 304 366
#     4  10  21  41  60  84 125 163 189 247 301 347
#     4  10  21  40  59  83 125 161 196 248 301 351
#     4   9  21  41  60  92 126 155 203 246 300 364
#     4  10  19  36  61  82 115 158 198 253 308 354
#     4  10  22  37  57  88 119 157 206 241 300 368
#     4  10  20  38  61  86 119 158 200 255 307 359
#     4  10  21  38  66  95 120 157 202 246 299 365
#
# _framework density 22.121466000000002
#
# number of rings (size 3 to 8) (size 9 to 14) (size 15 to 20)
#    0.000    2.250    0.000    1.875    1.750    2.500 
#    6.750   17.500    0.000    0.000    0.000    0.000 
#    0.000    0.000    0.000    0.000    0.000    0.000 
#
# Total GULP energy -89231.022605 kJ/mol
# GULP energy per Si atom -5576.938913 kJ/mol
# Density = 2.207112 g / cm^3
# Si number density = 22.121466 Si / 1000 Ang^3
#
#
#
# Elastic Constant Matrix: (Units=GPa)
#
#
# Indices 1 2 3 4 5 6 
#
# 1 43.6188 9.6336 24.6734 -9.1657 7.2048 -2.3930
# 2 9.6336 97.5509 36.8034 -24.3776 7.7705 -9.5403
# 3 24.6734 36.8034 152.0995 -42.5943 5.0930 -1.8268
# 4 -9.1657 -24.3776 -42.5943 36.0277 -1.1265 2.0845
# 5 7.2048 7.7705 5.0930 -1.1265 24.6321 -14.5895
# 6 -2.3930 -9.5403 -1.8268 2.0845 -14.5895 36.3276
#
#
#
# Elastic Compliance Matrix: (Units=1/GPa)
#
#
# Indices 1 2 3 4 5 6 
#
# 1 0.026602 -0.000297 -0.003288 0.002537 -0.007983 -0.001842
# 2 -0.000297 0.012832 -0.000895 0.007364 -0.002272 0.001970
# 3 -0.003288 -0.000895 0.010388 0.010863 -0.000963 -0.000940
# 4 0.002537 0.007364 0.010863 0.046194 -0.004199 -0.001690
# 5 -0.007983 -0.002272 -0.000963 -0.004199 0.056559 0.021785
# 6 -0.001842 0.001970 -0.000940 -0.001690 0.021785 0.036722
#
#
# Mechanical properties :
#
#
# Convention : Reuss Voigt Hill
#
# Bulk Modulus (GPa) = 24.47263 48.38776 36.43020
# Shear Modulus (GPa) = 23.59861 34.20807 28.90334
#
# Velocity S-wave (km/s) = 3.26969 3.93666 3.61858
# Velocity P-wave (km/s) = 5.03402 6.52566 5.82776
#
# Compressibility (1/GPa) = 0.04086197
#
# Stress axis : x y z
#
# Youngs Moduli (GPa) = 37.59140 77.93087 96.26781
#
# Poissons Ratio (x) = 0.02315 0.31652
# Poissons Ratio (y) = 0.01117 0.08613
# Poissons Ratio (z) = 0.12360 0.06973
#
# Static dielectric constant tensor:
#      x y z
#    x 1.920190 -0.040270 0.051450 
#    y -0.040270 1.811190 -0.047960 
#    z 0.051450 -0.047960 1.877840 
# 
# From -- ./inp_files/562134.got.cif
#   From: 2010.05.17/outbox.cif.g08.bks.cpg/sg2_282_cif.got.tgz:562134.got - 2010.06.03 11:33:40.
