data_PCOD9086899
_publ_section_title
;
Structure prediction by ZEFSAII (Michael W. Deem and Ramdas Pophale) SiO2 
 PCOD9086899
Probable space group: P -1
;
_chemical_formula_sum "Si O2"
_cell_formula_units_Z 14
_cell_length_a 6.799054
_cell_length_b 9.569452
_cell_length_c 14.522126
_cell_angle_alpha 57.924656
_cell_angle_beta 132.747771
_cell_angle_gamma 122.302460
_cell_volume 564.500798
_symmetry_space_group_name_H-M "P -1"
_symmetry_group_IT_number 2
_symmetry_cell_setting 'triclinic'
loop_
_space_group_symop_operation_xyz
x,y,z
-x,-y,-z
loop_
_atom_site_type_symbol
_atom_site_label
_atom_site_fract_x
_atom_site_fract_y
_atom_site_fract_z
Si Si1 0.406035 0.752916 0.083964
Si Si2 0.180274 0.894895 0.439664
Si Si3 0.750974 0.179285 0.788449
Si Si4 0.603542 0.353295 0.506930
Si Si5 0.957993 0.035901 0.142275
Si Si6 0.665391 0.521424 0.140404
Si Si7 0.047878 0.307493 0.399790
O O1 0.400451 0.795345 0.175373
O O2 0.664944 0.897554 0.071588
O O3 0.478259 0.579533 0.138711
O O4 0.116515 0.784449 0.946232
O O5 0.199851 0.707365 0.479659
O O6 0.050400 0.860909 0.510516
O O7 0.030044 0.977617 0.285802
O O8 0.500000 0.000000 0.500000
O O9 0.592249 0.226706 0.634526
O O10 0.820224 0.000967 0.847106
O O11 0.046181 0.326641 0.831934
O O12 0.761683 0.541484 0.527071
O O13 0.278856 0.317338 0.389844
O O14 0.778692 0.361133 0.260670
O O15 0.500000 0.500000 0.000000
#
# Coordination Sequence:
#
# PCOD9086899 Si02
#       7
#     2   2   2   2   2   2   2
#     4  10  19  36  61  80 109 152 188 237 285 329
#     4  11  23  37  57  89 122 150 185 236 298 350
#     4   9  18  35  58  83 108 144 194 238 283 334
#     4   9  20  38  62  86 111 150 199 243 279 333
#     4   9  20  36  55  85 114 145 193 233 277 347
#     4  10  23  37  53  84 115 144 190 237 283 344
#     4  10  21  39  61  82 113 155 196 237 282 340
#
# _framework density 24.800671000000001
#
# number of rings (size 3 to 8) (size 9 to 14) (size 15 to 20)
#    0.000    2.286    0.000    2.571    0.000    6.857 
#    0.000    2.857    0.000    0.000    0.000    0.000 
#    0.000    0.000    0.000    0.000    0.000    0.000 
#
# Total GULP energy -78176.624811 kJ/mol
# GULP energy per Si atom -5584.044629 kJ/mol
# Density = 2.474422 g / cm^3
# Si number density = 24.800671 Si / 1000 Ang^3
#
#
#
# Elastic Constant Matrix: (Units=GPa)
#
#
# Indices 1 2 3 4 5 6 
#
# 1 159.8577 14.5339 53.4542 -14.5710 4.8152 -19.2474
# 2 14.5339 28.3791 15.5816 10.9706 1.3398 4.5696
# 3 53.4542 15.5816 123.8462 -4.4298 18.3679 -11.9763
# 4 -14.5710 10.9706 -4.4298 16.2148 2.8837 3.9713
# 5 4.8152 1.3398 18.3679 2.8837 29.6422 -9.3931
# 6 -19.2474 4.5696 -11.9763 3.9713 -9.3931 32.3304
#
#
#
# Elastic Compliance Matrix: (Units=1/GPa)
#
#
# Indices 1 2 3 4 5 6 
#
# 1 0.009626 -0.009836 -0.002019 0.013514 0.000342 0.004812
# 2 -0.009836 0.067322 -0.008007 -0.055176 0.005751 -0.009889
# 3 -0.002019 -0.008007 0.011336 0.007578 -0.006673 0.001259
# 4 0.013514 -0.055176 0.007578 0.116061 -0.015745 -0.000180
# 5 0.000342 0.005751 -0.006673 -0.015745 0.042650 0.011244
# 6 0.004812 -0.009889 0.001259 -0.000180 0.011244 0.038949
#
#
# Mechanical properties :
#
#
# Convention : Reuss Voigt Hill
#
# Bulk Modulus (GPa) = 20.59395 53.24691 36.92043
# Shear Modulus (GPa) = 14.62609 30.87173 22.74891
#
# Velocity S-wave (km/s) = 2.43110 3.53199 3.03193
# Velocity P-wave (km/s) = 4.02519 6.17656 5.21306
#
# Compressibility (1/GPa) = 0.04855795
#
# Stress axis : x y z
#
# Youngs Moduli (GPa) = 103.88546 14.85407 88.21496
#
# Poissons Ratio (x) = 0.14611 0.17812
# Poissons Ratio (y) = 1.02186 0.70635
# Poissons Ratio (z) = 0.20977 0.11894
#
# Static dielectric constant tensor:
#      x y z
#    x 2.146510 -0.158420 0.062050 
#    y -0.158420 2.067760 -0.041370 
#    z 0.062050 -0.041370 1.986650 
# 
# From -- ./inp_files/482118.got.cif
#   From: 2010.05.17/outbox.cif.g08.bks.cpg/sg2_242_cif.got.tgz:482118.got - 2010.06.03 11:33:40.
