data_PCOD9086545
_publ_section_title
;
Structure prediction by ZEFSAII (Michael W. Deem and Ramdas Pophale) SiO2 
 PCOD9086545
Probable space group: P -1
;
_chemical_formula_sum "Si O2"
_cell_formula_units_Z 12
_cell_length_a 8.498583
_cell_length_b 13.811624
_cell_length_c 10.103387
_cell_angle_alpha 110.996433
_cell_angle_beta 126.584852
_cell_angle_gamma 40.249725
_cell_volume 604.524735
_symmetry_space_group_name_H-M "P -1"
_symmetry_group_IT_number 2
_symmetry_cell_setting 'triclinic'
loop_
_space_group_symop_operation_xyz
x,y,z
-x,-y,-z
loop_
_atom_site_type_symbol
_atom_site_label
_atom_site_fract_x
_atom_site_fract_y
_atom_site_fract_z
Si Si1 0.599091 0.954338 0.376423
Si Si2 0.656967 0.514353 0.984566
Si Si3 0.720784 0.407590 0.684681
Si Si4 0.348914 0.225776 0.187024
Si Si5 0.353283 0.241208 0.895053
Si Si6 0.161731 0.827636 0.506787
O O1 0.538450 0.870817 0.226980
O O2 0.943569 0.843193 0.491827
O O3 0.500000 0.000000 0.500000
O O4 0.452285 0.098459 0.279775
O O5 0.569550 0.668169 0.031691
O O6 0.006134 0.372508 0.099169
O O7 0.500000 0.500000 0.000000
O O8 0.586372 0.498330 0.796557
O O9 0.500000 0.500000 0.500000
O O10 0.812756 0.250019 0.652153
O O11 0.006920 0.362780 0.779491
O O12 0.525602 0.261637 0.327653
O O13 0.429326 0.170921 0.046917
O O14 0.000000 0.000000 0.500000
#
# Coordination Sequence:
#
# PCOD9086545 Si02
#       6
#     2   2   2   2   2   2
#     4  10  22  38  60  92 118 144 192 247 290 333
#     4  11  24  38  57  89 118 150 196 246 289 330
#     4  10  19  36  59  81 111 153 193 229 280 350
#     4  10  20  40  62  83 116 159 192 228 287 357
#     4  10  21  39  59  82 117 158 193 229 288 357
#     4   9  19  35  58  83 111 150 190 225 278 347
#
# _framework density 19.850303
#
# number of rings (size 3 to 8) (size 9 to 14) (size 15 to 20)
#    0.000    2.000    0.000    4.500    0.000    8.000 
#    0.000    4.167    0.000    0.000    0.000    0.000 
#    0.000    0.000    0.000    0.000    0.000    0.000 
#
# Total GULP energy -66918.409088 kJ/mol
# GULP energy per Si atom -5576.534091 kJ/mol
# Density = 1.980512 g / cm^3
# Si number density = 19.850303 Si / 1000 Ang^3
#
#
#
# Elastic Constant Matrix: (Units=GPa)
#
#
# Indices 1 2 3 4 5 6 
#
# 1 113.4254 47.5958 88.7052 26.5693 -14.1211 10.3060
# 2 47.5958 83.8525 57.7049 25.9740 -12.1402 18.7365
# 3 88.7052 57.7049 156.0125 29.7096 -10.2727 8.0493
# 4 26.5693 25.9740 29.7096 53.4028 -3.2303 7.7658
# 5 -14.1211 -12.1402 -10.2727 -3.2303 36.0584 -0.9125
# 6 10.3060 18.7365 8.0493 7.7658 -0.9125 27.1448
#
#
#
# Elastic Compliance Matrix: (Units=1/GPa)
#
#
# Indices 1 2 3 4 5 6 
#
# 1 0.017462 -0.002725 -0.008165 -0.002395 0.003341 -0.001530
# 2 -0.002725 0.020950 -0.004523 -0.004525 0.004023 -0.010655
# 3 -0.008165 -0.004523 0.012756 -0.001306 -0.001133 0.002775
# 4 -0.002395 -0.004525 -0.001306 0.023118 -0.000819 -0.002221
# 5 0.003341 0.004023 -0.001133 -0.000819 0.029937 -0.002469
# 6 -0.001530 -0.010655 0.002775 -0.002221 -0.002469 0.044504
#
#
# Mechanical properties :
#
#
# Convention : Reuss Voigt Hill
#
# Bulk Modulus (GPa) = 49.16172 82.36692 65.76432
# Shear Modulus (GPa) = 26.83339 33.94017 30.38678
#
# Velocity S-wave (km/s) = 3.68065 4.13947 3.91678
# Velocity P-wave (km/s) = 6.54851 8.02689 7.32509
#
# Compressibility (1/GPa) = 0.02034103
#
# Stress axis : x y z
#
# Youngs Moduli (GPa) = 57.26857 47.73285 78.39170
#
# Poissons Ratio (x) = 0.13006 0.64010
# Poissons Ratio (y) = 0.15604 0.35460
# Poissons Ratio (z) = 0.46762 0.21591
#
# Static dielectric constant tensor:
#      x y z
#    x 1.671670 0.015750 0.017170 
#    y 0.015750 1.798490 -0.006340 
#    z 0.017170 -0.006340 1.713020 
# 
# From -- ./inp_files/156850.got.cif
#   From: 2010.05.17/outbox.cif.g08.bks.cpg/sg2_79_cif.got.tgz:156850.got - 2010.06.03 11:33:40.
