data_PCOD9086311
_publ_section_title
;
Structure prediction by ZEFSAII (Michael W. Deem and Ramdas Pophale) SiO2 
 PCOD9086311
Probable space group: P -1
;
_chemical_formula_sum "Si O2"
_cell_formula_units_Z 16
_cell_length_a 12.309160
_cell_length_b 16.580263
_cell_length_c 10.906541
_cell_angle_alpha 105.758315
_cell_angle_beta 73.716104
_cell_angle_gamma 158.960201
_cell_volume 766.763560
_symmetry_space_group_name_H-M "P -1"
_symmetry_group_IT_number 2
_symmetry_cell_setting 'triclinic'
loop_
_space_group_symop_operation_xyz
x,y,z
-x,-y,-z
loop_
_atom_site_type_symbol
_atom_site_label
_atom_site_fract_x
_atom_site_fract_y
_atom_site_fract_z
Si Si1 0.372708 0.014462 0.138916
Si Si2 0.530656 0.616717 0.486380
Si Si3 0.057304 0.497555 0.110308
Si Si4 0.870388 0.973117 0.702672
Si Si5 0.511174 0.943605 0.167591
Si Si6 0.485634 0.650310 0.071564
Si Si7 0.900844 0.856793 0.852473
Si Si8 0.111782 0.339040 0.292966
O O1 0.209776 0.987171 0.218616
O O2 0.296912 0.876256 0.176417
O O3 0.724784 0.263953 0.173010
O O4 0.367101 0.998084 0.985132
O O5 0.500000 0.500000 0.500000
O O6 0.620879 0.749841 0.611077
O O7 0.235980 0.444755 0.431989
O O8 0.817790 0.811592 0.383310
O O9 0.208964 0.512098 0.046866
O O10 0.298719 0.722893 0.193133
O O11 0.000000 0.500000 0.000000
O O12 0.896308 0.933930 0.798524
O O13 0.791078 0.148249 0.257408
O O14 0.365684 0.541807 0.197454
O O15 0.614333 0.664131 0.954276
O O16 0.775655 0.911476 0.088324
O O17 0.898598 0.768657 0.747241
#
# Coordination Sequence:
#
# PCOD9086311 Si02
#       8
#     2   2   2   2   2   2   2   2
#     4  10  22  39  61  92 126 162 202 249 312 375
#     4  11  25  45  64  90 121 169 216 265 310 357
#     4  10  19  36  57  85 129 170 194 237 305 380
#     4  11  24  44  66  89 123 166 215 257 307 376
#     4  10  21  37  61  94 129 160 198 249 311 384
#     4  11  22  35  57  98 133 159 198 252 322 385
#     4  11  22  36  60  94 129 160 201 256 319 380
#     4  12  22  39  62  91 126 166 204 257 316 365
#
# _framework density 20.866928000000001
#
# number of rings (size 3 to 8) (size 9 to 14) (size 15 to 20)
#    0.000    1.250    5.000    1.875    1.750    2.000 
#    0.000    0.625    0.000    1.500    0.000    0.000 
#    0.000    0.000    0.000    0.000    0.000    0.000 
#
# Total GULP energy -89231.606406 kJ/mol
# GULP energy per Si atom -5576.975400 kJ/mol
# Density = 2.081943 g / cm^3
# Si number density = 20.866928 Si / 1000 Ang^3
#
#
#
# Elastic Constant Matrix: (Units=GPa)
#
#
# Indices 1 2 3 4 5 6 
#
# 1 97.7732 9.3173 18.2819 6.2747 -0.4687 8.6931
# 2 9.3173 66.3250 4.6828 15.2872 16.6199 0.4314
# 3 18.2819 4.6828 41.5342 19.4526 10.3686 6.3575
# 4 6.2747 15.2872 19.4526 29.5874 3.3480 4.7634
# 5 -0.4687 16.6199 10.3686 3.3480 32.1062 1.8256
# 6 8.6931 0.4314 6.3575 4.7634 1.8256 32.0939
#
#
#
# Elastic Compliance Matrix: (Units=1/GPa)
#
#
# Indices 1 2 3 4 5 6 
#
# 1 0.011854 -0.002940 -0.007176 0.003701 0.003769 -0.002513
# 2 -0.002940 0.021487 0.008829 -0.015142 -0.012536 0.001719
# 3 -0.007176 0.008829 0.044653 -0.030346 -0.015840 -0.001616
# 4 0.003701 -0.015142 -0.030346 0.060173 0.011666 -0.004382
# 5 0.003769 -0.012536 -0.015840 0.011666 0.041693 -0.001818
# 6 -0.002513 0.001719 -0.001616 -0.004382 -0.001818 0.032890
#
#
# Mechanical properties :
#
#
# Convention : Reuss Voigt Hill
#
# Bulk Modulus (GPa) = 13.25876 30.02181 21.64028
# Shear Modulus (GPa) = 20.79325 30.31422 25.55374
#
# Velocity S-wave (km/s) = 3.16011 3.81562 3.50323
# Velocity P-wave (km/s) = 4.43654 5.81639 5.17268
#
# Compressibility (1/GPa) = 0.07542185
#
# Stress axis : x y z
#
# Youngs Moduli (GPa) = 84.36231 46.54001 22.39473
#
# Poissons Ratio (x) = 0.13681 0.16070
# Poissons Ratio (y) = 0.24800 -0.19773
# Poissons Ratio (z) = 0.60535 -0.41092
#
# Static dielectric constant tensor:
#      x y z
#    x 1.783840 -0.035440 -0.010900 
#    y -0.035440 1.837040 0.046790 
#    z -0.010900 0.046790 1.764950 
# 
# From -- ./inp_files/399076.got.cif
#   From: 2010.05.17/outbox.cif.g08.bks.cpg/sg2_200_cif.got.tgz:399076.got - 2010.06.03 11:33:40.
