data_PCOD9086781
_publ_section_title
;
Structure prediction by ZEFSAII (Michael W. Deem and Ramdas Pophale) SiO2 
 PCOD9086781
Probable space group: P -1
;
_chemical_formula_sum "Si O2"
_cell_formula_units_Z 14
_cell_length_a 8.804514
_cell_length_b 14.745996
_cell_length_c 12.587024
_cell_angle_alpha 70.963309
_cell_angle_beta 132.037516
_cell_angle_gamma 69.480678
_cell_volume 672.287427
_symmetry_space_group_name_H-M "P -1"
_symmetry_group_IT_number 2
_symmetry_cell_setting 'triclinic'
loop_
_space_group_symop_operation_xyz
x,y,z
-x,-y,-z
loop_
_atom_site_type_symbol
_atom_site_label
_atom_site_fract_x
_atom_site_fract_y
_atom_site_fract_z
Si Si1 0.591559 0.574146 0.879946
Si Si2 0.393387 0.639194 0.993636
Si Si3 0.398018 0.319554 0.732749
Si Si4 0.404414 0.103321 0.513545
Si Si5 0.754694 0.008121 0.929474
Si Si6 0.621105 0.691044 0.673863
Si Si7 0.591586 0.354117 0.592515
O O1 0.593376 0.595717 0.997864
O O2 0.434017 0.718397 0.678958
O O3 0.446712 0.521098 0.823878
O O4 0.985882 0.421865 0.077069
O O5 0.012629 0.751789 0.730633
O O6 0.387088 0.719918 0.051682
O O7 0.496244 0.340062 0.664355
O O8 0.000000 0.500000 0.500000
O O9 0.483361 0.174813 0.807815
O O10 0.536161 0.157656 0.516443
O O11 0.500000 0.000000 0.500000
O O12 0.568778 0.027305 0.735212
O O13 0.009279 0.833262 0.169531
O O14 0.000000 0.000000 0.000000
O O15 0.629754 0.605443 0.622738
O O16 0.500000 0.500000 0.500000
#
# Coordination Sequence:
#
# PCOD9086781 Si02
#       7
#     2   2   2   2   2   2   2
#     4   9  20  35  57  88 123 153 209 255 302 369
#     4  10  21  35  60  90 122 161 208 249 309 369
#     4  11  22  38  65  92 125 167 205 253 313 373
#     4  11  21  37  63  87 121 165 209 257 312 371
#     4  10  21  39  61  90 122 162 210 253 305 380
#     4  10  19  36  60  87 119 160 203 260 307 367
#     4  11  22  39  65  89 121 160 212 261 313 366
#
# _framework density 20.824428000000001
#
# number of rings (size 3 to 8) (size 9 to 14) (size 15 to 20)
#    0.000    1.714    2.857    3.429    4.000    2.286 
#    0.000    1.429    0.000    0.000    0.000    0.000 
#    0.000    0.000    0.000    0.000    0.000    0.000 
#
# Total GULP energy -78002.252760 kJ/mol
# GULP energy per Si atom -5571.589483 kJ/mol
# Density = 2.077703 g / cm^3
# Si number density = 20.824428 Si / 1000 Ang^3
#
#
#
# Elastic Constant Matrix: (Units=GPa)
#
#
# Indices 1 2 3 4 5 6 
#
# 1 79.3314 25.8720 13.9528 -3.0963 -18.4757 -7.6331
# 2 25.8720 141.6248 32.5172 0.8706 -5.5520 2.3407
# 3 13.9528 32.5172 77.8271 0.2342 2.4454 3.3082
# 4 -3.0963 0.8706 0.2342 46.6112 -2.8840 -2.9451
# 5 -18.4757 -5.5520 2.4454 -2.8840 26.4872 -1.0893
# 6 -7.6331 2.3407 3.3082 -2.9451 -1.0893 28.9011
#
#
#
# Elastic Compliance Matrix: (Units=1/GPa)
#
#
# Indices 1 2 3 4 5 6 
#
# 1 0.017342 -0.002135 -0.002860 0.002339 0.012406 0.005786
# 2 -0.002135 0.008175 -0.003007 -0.000309 0.000431 -0.000897
# 3 -0.002860 -0.003007 0.014854 -0.000620 -0.004164 -0.002432
# 4 0.002339 -0.000309 -0.000620 0.022073 0.004156 0.003120
# 5 0.012406 0.000431 -0.004164 0.004156 0.047579 0.005935
# 6 0.005786 -0.000897 -0.002432 0.003120 0.005935 0.037022
#
#
# Mechanical properties :
#
#
# Convention : Reuss Voigt Hill
#
# Bulk Modulus (GPa) = 41.03943 49.27413 45.15678
# Shear Modulus (GPa) = 29.21050 35.49599 32.35325
#
# Velocity S-wave (km/s) = 3.74933 4.13308 3.94587
# Velocity P-wave (km/s) = 6.20431 6.81832 6.51855
#
# Compressibility (1/GPa) = 0.02436681
#
# Stress axis : x y z
#
# Youngs Moduli (GPa) = 57.66378 122.32291 67.32058
#
# Poissons Ratio (x) = 0.26117 0.19252
# Poissons Ratio (y) = 0.12312 0.20246
# Poissons Ratio (z) = 0.16491 0.36787
#
# Static dielectric constant tensor:
#      x y z
#    x 1.815510 0.025630 0.028810 
#    y 0.025630 1.825020 0.035770 
#    z 0.028810 0.035770 2.020820 
# 
# From -- ./inp_files/389200.got.cif
#   From: 2010.05.17/outbox.cif.g08.bks.cpg/sg2_195_cif.got.tgz:389200.got - 2010.06.03 11:33:40.
