data_PCOD9086701
_publ_section_title
;
Structure prediction by ZEFSAII (Michael W. Deem and Ramdas Pophale) SiO2 
 PCOD9086701
Probable space group: P -1
;
_chemical_formula_sum "Si O2"
_cell_formula_units_Z 14
_cell_length_a 9.308291
_cell_length_b 8.226173
_cell_length_c 12.350026
_cell_angle_alpha 107.722481
_cell_angle_beta 101.847331
_cell_angle_gamma 127.229692
_cell_volume 615.425379
_symmetry_space_group_name_H-M "P -1"
_symmetry_group_IT_number 2
_symmetry_cell_setting 'triclinic'
loop_
_space_group_symop_operation_xyz
x,y,z
-x,-y,-z
loop_
_atom_site_type_symbol
_atom_site_label
_atom_site_fract_x
_atom_site_fract_y
_atom_site_fract_z
Si Si1 0.453872 0.704750 0.760492
Si Si2 0.156628 0.558828 0.949092
Si Si3 0.565215 0.747295 0.039236
Si Si4 0.174602 0.924969 0.272702
Si Si5 0.860773 0.265185 0.243259
Si Si6 0.385186 0.326231 0.552999
Si Si7 0.678797 0.274343 0.629815
O O1 0.529569 0.751842 0.905849
O O2 0.298764 0.736561 0.722862
O O3 0.329138 0.433050 0.645236
O O4 0.664267 0.884686 0.756422
O O5 0.388075 0.719652 0.060686
O O6 0.166883 0.693735 0.876687
O O7 0.064555 0.297890 0.844873
O O8 0.000000 0.500000 0.000000
O O9 0.500000 0.500000 0.000000
O O10 0.781348 0.004083 0.172671
O O11 0.235443 0.778543 0.275876
O O12 0.208467 0.062262 0.414785
O O13 0.106995 0.498370 0.356665
O O14 0.500000 0.500000 0.500000
O O15 0.552844 0.343455 0.642902
O O16 0.500000 0.000000 0.500000
#
# Coordination Sequence:
#
# PCOD9086701 Si02
#       7
#     2   2   2   2   2   2   2
#     4  10  20  38  60  85 118 154 193 244 294 341
#     4  10  19  36  60  82 112 156 195 235 291 351
#     4  11  24  38  55  88 121 151 194 244 294 347
#     4   9  18  35  60  85 114 155 198 238 285 347
#     4  10  21  38  58  82 115 152 192 242 293 343
#     4   9  19  35  56  85 117 150 190 234 284 345
#     4   9  19  38  60  85 113 150 196 237 283 348
#
# _framework density 22.748494000000001
#
# number of rings (size 3 to 8) (size 9 to 14) (size 15 to 20)
#    0.000    2.286    0.000    3.429    0.000    5.714 
#    0.000   20.000    0.000    0.000    0.000    0.000 
#    0.000    0.000    0.000    0.000    0.000    0.000 
#
# Total GULP energy -77998.311033 kJ/mol
# GULP energy per Si atom -5571.307931 kJ/mol
# Density = 2.269672 g / cm^3
# Si number density = 22.748494 Si / 1000 Ang^3
#
#
#
# Elastic Constant Matrix: (Units=GPa)
#
#
# Indices 1 2 3 4 5 6 
#
# 1 55.9361 15.4008 35.2897 19.3803 -16.3444 -5.1410
# 2 15.4008 63.5327 28.2533 29.3982 -5.3236 -2.1715
# 3 35.2897 28.2533 124.6961 42.0094 -13.9079 5.5076
# 4 19.3803 29.3982 42.0094 40.1916 0.3893 -1.7307
# 5 -16.3444 -5.3236 -13.9079 0.3893 33.8829 7.2215
# 6 -5.1410 -2.1715 5.5076 -1.7307 7.2215 29.8829
#
#
#
# Elastic Compliance Matrix: (Units=1/GPa)
#
#
# Indices 1 2 3 4 5 6 
#
# 1 0.026665 0.000603 -0.003090 -0.010099 0.011409 0.001859
# 2 0.000603 0.024552 0.001643 -0.020054 0.005233 -0.000841
# 3 -0.003090 0.001643 0.014576 -0.015241 0.006088 -0.005453
# 4 -0.010099 -0.020054 -0.015241 0.060816 -0.016495 0.007123
# 5 0.011409 0.005233 0.006088 -0.016495 0.040560 -0.009536
# 6 0.001859 -0.000841 -0.005453 0.007123 -0.009536 0.037445
#
#
# Mechanical properties :
#
#
# Convention : Reuss Voigt Hill
#
# Bulk Modulus (GPa) = 15.59933 44.67251 30.13592
# Shear Modulus (GPa) = 21.96171 31.80621 26.88396
#
# Velocity S-wave (km/s) = 3.11048 3.74326 3.44145
# Velocity P-wave (km/s) = 4.44661 6.19378 5.39144
#
# Compressibility (1/GPa) = 0.06410531
#
# Stress axis : x y z
#
# Youngs Moduli (GPa) = 37.50296 40.72965 68.60532
#
# Poissons Ratio (x) = -0.02457 0.21200
# Poissons Ratio (y) = -0.02262 -0.11273
# Poissons Ratio (z) = 0.11589 -0.06692
#
# Static dielectric constant tensor:
#      x y z
#    x 1.916090 0.016160 0.087660 
#    y 0.016160 1.894070 0.086620 
#    z 0.087660 0.086620 2.063130 
# 
# From -- ./inp_files/188122.got.cif
#   From: 2010.05.17/outbox.cif.g08.bks.cpg/sg2_95_cif.got.tgz:188122.got - 2010.06.03 11:33:40.
