data_PCOD9086809
_publ_section_title
;
Structure prediction by ZEFSAII (Michael W. Deem and Ramdas Pophale) SiO2 
 PCOD9086809
Probable space group: P -1
;
_chemical_formula_sum "Si O2"
_cell_formula_units_Z 16
_cell_length_a 13.627075
_cell_length_b 8.852191
_cell_length_c 25.861591
_cell_angle_alpha 47.559922
_cell_angle_beta 19.230030
_cell_angle_gamma 60.754926
_cell_volume 600.014282
_symmetry_space_group_name_H-M "P -1"
_symmetry_group_IT_number 2
_symmetry_cell_setting 'triclinic'
loop_
_space_group_symop_operation_xyz
x,y,z
-x,-y,-z
loop_
_atom_site_type_symbol
_atom_site_label
_atom_site_fract_x
_atom_site_fract_y
_atom_site_fract_z
Si Si1 0.484750 0.481104 0.853033
Si Si2 0.081562 0.737155 0.676999
Si Si3 0.779212 0.352549 0.485743
Si Si4 0.317814 0.479706 0.824427
Si Si5 0.179662 0.541558 0.767933
Si Si6 0.829353 0.083879 0.856093
Si Si7 0.579350 0.857229 0.864344
Si Si8 0.291903 0.021901 0.897449
O O1 0.835122 0.570584 0.695604
O O2 0.573694 0.557564 0.730502
O O3 0.232271 0.557994 0.982352
O O4 0.187336 0.165757 0.075170
O O5 0.248170 0.741736 0.537486
O O6 0.937029 0.907890 0.702353
O O7 0.305441 0.758086 0.611422
O O8 0.695105 0.445098 0.943431
O O9 0.831167 0.621867 0.395223
O O10 0.447178 0.137201 0.736991
O O11 0.222041 0.204458 0.919979
O O12 0.000000 0.500000 0.000000
O O13 0.407633 0.608429 0.692714
O O14 0.054993 0.280111 0.861587
O O15 0.672831 0.109335 0.980981
O O16 0.500000 0.000000 0.000000
O O17 0.629533 0.030004 0.752400
#
# Coordination Sequence:
#
# PCOD9086809 Si02
#       8
#     2   2   2   2   2   2   2   2
#     4  10  19  36  60  89 116 155 200 236 293 350
#     4   9  17  32  52  86 118 152 188 235 287 345
#     4  10  21  33  58  93 127 145 181 258 311 342
#     4  10  22  40  62  84 114 161 206 241 274 355
#     4  10  21  37  65  84 115 159 209 235 271 359
#     4   9  16  31  52  80 114 156 188 224 282 352
#     4   9  16  29  53  80 114 147 192 231 281 347
#     4  11  21  37  59  94 117 150 195 247 309 339
#
# _framework density 26.666032000000001
#
# number of rings (size 3 to 8) (size 9 to 14) (size 15 to 20)
#    0.000    2.250    1.250    4.125    0.000    2.500 
#    0.000    0.625    5.500    1.500    0.000    0.000 
#    0.000    0.000    0.000    0.000    0.000    0.000 
#
# Total GULP energy -89359.016722 kJ/mol
# GULP energy per Si atom -5584.938545 kJ/mol
# Density = 2.660534 g / cm^3
# Si number density = 26.666032 Si / 1000 Ang^3
#
#
#
# Elastic Constant Matrix: (Units=GPa)
#
#
# Indices 1 2 3 4 5 6 
#
# 1 221.5314 50.3705 45.1433 -2.9654 30.7074 -17.3437
# 2 50.3705 136.9179 31.5478 3.1466 -0.2127 -19.0435
# 3 45.1433 31.5478 76.4751 -12.7094 -1.5715 7.9374
# 4 -2.9654 3.1466 -12.7094 15.6797 9.7407 8.5437
# 5 30.7074 -0.2127 -1.5715 9.7407 47.4180 1.3537
# 6 -17.3437 -19.0435 7.9374 8.5437 1.3537 58.6228
#
#
#
# Elastic Compliance Matrix: (Units=1/GPa)
#
#
# Indices 1 2 3 4 5 6 
#
# 1 0.006244 -0.001245 -0.003426 0.000229 -0.004266 0.001972
# 2 -0.001245 0.010150 -0.005915 -0.011822 0.002931 0.005385
# 3 -0.003426 -0.005915 0.022741 0.025501 -0.002016 -0.009684
# 4 0.000229 -0.011822 0.025501 0.113134 -0.021934 -0.023207
# 5 -0.004266 0.002931 -0.002016 -0.021934 0.028232 0.002508
# 6 0.001972 0.005385 -0.009684 -0.023207 0.002508 0.024026
#
#
# Mechanical properties :
#
#
# Convention : Reuss Voigt Hill
#
# Bulk Modulus (GPa) = 55.67719 76.56083 66.11901
# Shear Modulus (GPa) = 21.58062 44.86828 33.22445
#
# Velocity S-wave (km/s) = 2.84789 4.10640 3.53363
# Velocity P-wave (km/s) = 5.63372 7.15938 6.44187
#
# Compressibility (1/GPa) = 0.01796068
#
# Stress axis : x y z
#
# Youngs Moduli (GPa) = 160.14783 98.52227 43.97382
#
# Poissons Ratio (x) = 0.12269 0.15067
# Poissons Ratio (y) = 0.19943 0.26012
# Poissons Ratio (z) = 0.54874 0.58280
#
# Static dielectric constant tensor:
#      x y z
#    x 2.014870 -0.124210 -0.066080 
#    y -0.124210 2.050120 0.013300 
#    z -0.066080 0.013300 2.127900 
# 
# From -- ./inp_files/619254.got.cif
#   From: 2010.05.17/outbox.cif.g08.bks.cpg/sg2_310_cif.got.tgz:619254.got - 2010.06.03 11:33:40.
