data_PCOD9086740
_publ_section_title
;
Structure prediction by ZEFSAII (Michael W. Deem and Ramdas Pophale) SiO2 
 PCOD9086740
Probable space group: P -1
;
_chemical_formula_sum "Si O2"
_cell_formula_units_Z 16
_cell_length_a 15.260235
_cell_length_b 27.228629
_cell_length_c 5.739065
_cell_angle_alpha 99.203461
_cell_angle_beta 97.787133
_cell_angle_gamma 18.464777
_cell_volume 744.550043
_symmetry_space_group_name_H-M "P -1"
_symmetry_group_IT_number 2
_symmetry_cell_setting 'triclinic'
loop_
_space_group_symop_operation_xyz
x,y,z
-x,-y,-z
loop_
_atom_site_type_symbol
_atom_site_label
_atom_site_fract_x
_atom_site_fract_y
_atom_site_fract_z
Si Si1 0.828599 0.827034 0.014336
Si Si2 0.702510 0.184048 0.293202
Si Si3 0.820305 0.781230 0.481693
Si Si4 0.874803 0.991160 0.359984
Si Si5 0.224815 0.059791 0.603463
Si Si6 0.724275 0.522639 0.424775
Si Si7 0.407578 0.676759 0.030016
Si Si8 0.633913 0.375838 0.398882
O O1 0.894535 0.763302 0.237826
O O2 0.875354 0.858912 0.135063
O O3 0.918402 0.760066 0.736822
O O4 0.500000 0.000000 0.000000
O O5 0.442461 0.338083 0.478245
O O6 0.638664 0.251635 0.100365
O O7 0.990230 0.052026 0.404190
O O8 0.738012 0.106195 0.237714
O O9 0.985017 0.641906 0.476132
O O10 0.490425 0.947311 0.509662
O O11 0.691504 0.041811 0.399323
O O12 0.142538 0.823911 0.210442
O O13 0.956381 0.202976 0.450655
O O14 0.532789 0.578826 0.491352
O O15 0.702279 0.527299 0.145515
O O16 0.401753 0.625749 0.874829
O O17 0.500000 0.500000 0.500000
#
# Coordination Sequence:
#
# PCOD9086740 Si02
#       8
#     2   2   2   2   2   2   2   2
#     4  10  23  42  62  89 125 170 209 249 307 375
#     4   9  19  37  59  86 123 153 200 255 325 369
#     4  11  25  42  66  89 128 175 206 250 313 380
#     4  10  19  36  60  90 117 155 200 265 308 369
#     4  11  21  40  59  93 119 159 213 255 304 370
#     4  10  22  39  57  86 122 166 201 247 318 379
#     4  10  19  36  60  85 121 161 205 244 320 378
#     4  11  23  36  57  90 124 152 203 262 305 361
#
# _framework density 21.489488999999999
#
# number of rings (size 3 to 8) (size 9 to 14) (size 15 to 20)
#    0.000    1.750    3.750    2.625    5.250    4.500 
#    0.000    0.625    0.000    0.750    0.000    0.000 
#    0.000    0.000    0.000    0.000    0.000    0.000 
#
# Total GULP energy -89120.252618 kJ/mol
# GULP energy per Si atom -5570.015789 kJ/mol
# Density = 2.144058 g / cm^3
# Si number density = 21.489489 Si / 1000 Ang^3
#
#
#
# Elastic Constant Matrix: (Units=GPa)
#
#
# Indices 1 2 3 4 5 6 
#
# 1 99.6051 17.2340 15.5079 7.0409 -4.0264 19.3043
# 2 17.2340 88.0275 15.0651 -2.3011 -0.1067 11.1603
# 3 15.5079 15.0651 78.7047 -6.4803 -4.0071 2.3468
# 4 7.0409 -2.3011 -6.4803 30.7173 7.1818 2.0620
# 5 -4.0264 -0.1067 -4.0071 7.1818 21.0492 1.5476
# 6 19.3043 11.1603 2.3468 2.0620 1.5476 34.9203
#
#
#
# Elastic Compliance Matrix: (Units=1/GPa)
#
#
# Indices 1 2 3 4 5 6 
#
# 1 0.012199 -0.001351 -0.002088 -0.003786 0.003670 -0.006111
# 2 -0.001351 0.012384 -0.001950 0.001211 -0.000751 -0.003118
# 3 -0.002088 -0.001950 0.013772 0.002922 0.001169 0.000627
# 4 -0.003786 0.001211 0.002922 0.037136 -0.012824 -0.000115
# 5 0.003670 -0.000751 0.001169 -0.012824 0.053058 -0.003462
# 6 -0.006111 -0.003118 0.000627 -0.000115 -0.003462 0.033129
#
#
# Mechanical properties :
#
#
# Convention : Reuss Voigt Hill
#
# Bulk Modulus (GPa) = 36.26073 40.21681 38.23877
# Shear Modulus (GPa) = 27.52583 31.90605 29.71594
#
# Velocity S-wave (km/s) = 3.58285 3.85740 3.72265
# Velocity P-wave (km/s) = 5.83318 6.21246 6.02581
#
# Compressibility (1/GPa) = 0.02757805
#
# Stress axis : x y z
#
# Youngs Moduli (GPa) = 81.97634 80.74707 72.61233
#
# Poissons Ratio (x) = 0.10907 0.15159
# Poissons Ratio (y) = 0.11073 0.14159
# Poissons Ratio (z) = 0.17114 0.15745
#
# Static dielectric constant tensor:
#      x y z
#    x 1.812950 0.008090 -0.000660 
#    y 0.008090 1.793190 0.015250 
#    z -0.000660 0.015250 1.970510 
# 
# From -- ./inp_files/101569.got.cif
#   From: 2010.05.17/outbox.cif.g08.bks.cpg/sg2_51_cif.got.tgz:101569.got - 2010.06.03 11:33:40.
