data_PCOD9086699
_publ_section_title
;
Structure prediction by ZEFSAII (Michael W. Deem and Ramdas Pophale) SiO2 
 PCOD9086699
Probable space group: P -1
;
_chemical_formula_sum "Si O2"
_cell_formula_units_Z 11
_cell_length_a 10.432904
_cell_length_b 6.984890
_cell_length_c 8.303703
_cell_angle_alpha 96.550837
_cell_angle_beta 132.915228
_cell_angle_gamma 105.239599
_cell_volume 389.067981
_symmetry_space_group_name_H-M "P -1"
_symmetry_group_IT_number 2
_symmetry_cell_setting 'triclinic'
loop_
_space_group_symop_operation_xyz
x,y,z
-x,-y,-z
loop_
_atom_site_type_symbol
_atom_site_label
_atom_site_fract_x
_atom_site_fract_y
_atom_site_fract_z
Si Si1 0.500000 0.500000 0.000000
Si Si2 0.818300 0.712114 0.140983
Si Si3 0.229175 0.951742 0.690453
Si Si4 0.346377 0.669599 0.574110
Si Si5 0.017934 0.742936 0.822866
Si Si6 0.726670 0.866652 0.743527
O O1 0.683089 0.468099 0.050065
O O2 0.590492 0.458685 0.255015
O O3 0.035097 0.850014 0.403726
O O4 0.695359 0.792767 0.177048
O O5 0.791596 0.774692 0.947668
O O6 0.373811 0.885155 0.714466
O O7 0.137363 0.832844 0.769039
O O8 0.116149 0.516074 0.316783
O O9 0.491793 0.745004 0.551701
O O10 0.842831 0.814850 0.700336
O O11 0.172556 0.875273 0.109110
#
# Coordination Sequence:
#
# PCOD9086699 Si02
#       6
#     1   2   2   2   2   2
#     4  10  20  32  56  86 110 140 196 224 280 324
#     4   9  19  36  55  84 111 149 180 241 272 339
#     4  10  20  36  61  81 114 144 193 230 287 317
#     4  11  21  37  59  88 111 150 188 239 270 342
#     4  10  19  36  60  82 112 153 182 235 281 334
#     4   9  21  36  58  82 116 148 190 221 292 333
#
# _framework density 28.272691999999999
#
# number of rings (size 3 to 8) (size 9 to 14) (size 15 to 20)
#    0.000    2.182    1.818    1.091    0.000    6.545 
#    0.000    0.909    4.000   10.909    0.000    0.000 
#    0.000    0.000    0.000    0.000    0.000    0.000 
#
# Total GULP energy -61323.565551 kJ/mol
# GULP energy per Si atom -5574.869596 kJ/mol
# Density = 2.820834 g / cm^3
# Si number density = 28.272692 Si / 1000 Ang^3
#
#
#
# Elastic Constant Matrix: (Units=GPa)
#
#
# Indices 1 2 3 4 5 6 
#
# 1 124.8943 56.2064 3.0286 7.1744 1.1259 16.7646
# 2 56.2064 112.0988 34.1326 24.5253 2.4321 4.4779
# 3 3.0286 34.1326 98.6452 21.4508 13.7596 5.7912
# 4 7.1744 24.5253 21.4508 43.4587 -1.1082 1.6495
# 5 1.1259 2.4321 13.7596 -1.1082 35.4078 22.4842
# 6 16.7646 4.4779 5.7912 1.6495 22.4842 47.2989
#
#
#
# Elastic Compliance Matrix: (Units=1/GPa)
#
#
# Indices 1 2 3 4 5 6 
#
# 1 0.011359 -0.006267 0.001481 0.001185 0.002653 -0.004917
# 2 -0.006267 0.014265 -0.003592 -0.005331 -0.000719 0.001838
# 3 0.001481 -0.003592 0.013137 -0.004892 -0.005770 0.001120
# 4 0.001185 -0.005331 -0.004892 0.028456 0.004750 -0.002567
# 5 0.002653 -0.000719 -0.005770 0.004750 0.044130 -0.021309
# 6 -0.004917 0.001838 0.001120 -0.002567 -0.021309 0.032793
#
#
# Mechanical properties :
#
#
# Convention : Reuss Voigt Hill
#
# Bulk Modulus (GPa) = 45.44310 58.04150 51.74230
# Shear Modulus (GPa) = 29.72100 41.38446 35.55273
#
# Velocity S-wave (km/s) = 3.24578 3.83006 3.54996
# Velocity P-wave (km/s) = 5.49134 6.33506 5.92823
#
# Compressibility (1/GPa) = 0.02200554
#
# Stress axis : x y z
#
# Youngs Moduli (GPa) = 88.03586 70.10207 76.11798
#
# Poissons Ratio (x) = 0.43930 -0.11270
# Poissons Ratio (y) = 0.55168 0.27341
# Poissons Ratio (z) = -0.13034 0.25180
#
# Static dielectric constant tensor:
#      x y z
#    x 2.415580 -0.085400 0.113370 
#    y -0.085400 2.330020 0.058790 
#    z 0.113370 0.058790 2.225460 
# 
# From -- ./inp_files/144376.got.cif
#   From: 2010.05.17/outbox.cif.g08.bks.cpg/sg2_73_cif.got.tgz:144376.got - 2010.06.03 11:33:40.
