data_PCOD9086689
_publ_section_title
;
Structure prediction by ZEFSAII (Michael W. Deem and Ramdas Pophale) SiO2 
 PCOD9086689
Probable space group: P -1
;
_chemical_formula_sum "Si O2"
_cell_formula_units_Z 16
_cell_length_a 12.190254
_cell_length_b 7.018156
_cell_length_c 11.897266
_cell_angle_alpha 51.214645
_cell_angle_beta 84.898000
_cell_angle_gamma 108.296247
_cell_volume 694.960947
_symmetry_space_group_name_H-M "P -1"
_symmetry_group_IT_number 2
_symmetry_cell_setting 'triclinic'
loop_
_space_group_symop_operation_xyz
x,y,z
-x,-y,-z
loop_
_atom_site_type_symbol
_atom_site_label
_atom_site_fract_x
_atom_site_fract_y
_atom_site_fract_z
Si Si1 0.692091 0.001002 0.532386
Si Si2 0.227012 0.145240 0.887792
Si Si3 0.407868 0.719614 0.733919
Si Si4 0.085364 0.425067 0.685462
Si Si5 0.067553 0.541215 0.098493
Si Si6 0.823227 0.092852 0.774908
Si Si7 0.240923 0.468166 0.268019
Si Si8 0.373374 0.493651 0.051102
O O1 0.558007 0.877992 0.653627
O O2 0.741741 0.778965 0.586198
O O3 0.655059 0.116563 0.381722
O O4 0.806743 0.276089 0.473647
O O5 0.359648 0.420327 0.786295
O O6 0.147225 0.235520 0.782160
O O7 0.192666 0.839536 0.964947
O O8 0.178546 0.071356 0.048147
O O9 0.354231 0.648824 0.890045
O O10 0.027383 0.460692 0.796048
O O11 0.969549 0.265634 0.671395
O O12 0.126464 0.369339 0.222846
O O13 0.000000 0.500000 0.000000
O O14 0.776096 0.315429 0.730328
O O15 0.726478 0.833595 0.808414
O O16 0.365520 0.620062 0.123307
O O17 0.500000 0.500000 0.000000
#
# Coordination Sequence:
#
# PCOD9086689 Si02
#       8
#     2   2   2   2   2   2   2   2
#     4  10  19  36  60  80 115 160 187 224 295 355
#     4   8  16  33  55  81 108 146 188 235 281 333
#     4   9  19  35  61  84 109 153 197 227 286 350
#     4   9  18  34  59  77 111 156 186 227 291 350
#     4  10  21  32  55  91 113 138 194 246 288 328
#     4   9  20  35  55  90 114 146 191 240 294 331
#     4  10  22  37  59  89 117 148 192 242 286 340
#     4  11  21  38  64  88 111 147 197 250 281 332
#
# _framework density 23.022877999999999
#
# number of rings (size 3 to 8) (size 9 to 14) (size 15 to 20)
#    0.000    2.750    1.250    1.500    7.000    2.500 
#    2.250    0.625    5.500    1.500    0.000    0.000 
#    0.000    0.000    0.000    0.000    0.000    0.000 
#
# Total GULP energy -89095.365843 kJ/mol
# GULP energy per Si atom -5568.460365 kJ/mol
# Density = 2.297048 g / cm^3
# Si number density = 23.022878 Si / 1000 Ang^3
#
#
#
# Elastic Constant Matrix: (Units=GPa)
#
#
# Indices 1 2 3 4 5 6 
#
# 1 109.0237 30.6016 41.5708 -24.2082 0.3055 10.3944
# 2 30.6016 47.3896 20.7096 -11.4443 -11.8915 10.0150
# 3 41.5708 20.7096 120.0971 -29.0348 15.1880 7.1399
# 4 -24.2082 -11.4443 -29.0348 31.3554 6.7440 1.8724
# 5 0.3055 -11.8915 15.1880 6.7440 38.3411 -0.8745
# 6 10.3944 10.0150 7.1399 1.8724 -0.8745 24.6628
#
#
#
# Elastic Compliance Matrix: (Units=1/GPa)
#
#
# Indices 1 2 3 4 5 6 
#
# 1 0.013475 -0.006372 -0.001012 0.008034 -0.003176 -0.003521
# 2 -0.006372 0.031841 -0.003836 0.001310 0.011014 -0.008843
# 3 -0.001012 -0.003836 0.013711 0.012625 -0.008908 -0.003260
# 4 0.008034 0.001310 0.012625 0.054101 -0.014453 -0.012193
# 5 -0.003176 0.011014 -0.008908 -0.014453 0.035635 0.001806
# 6 -0.003521 -0.008843 -0.003260 -0.012193 0.001806 0.047555
#
#
# Mechanical properties :
#
#
# Convention : Reuss Voigt Hill
#
# Bulk Modulus (GPa) = 27.33123 51.36384 39.34754
# Shear Modulus (GPa) = 21.64926 31.11377 26.38152
#
# Velocity S-wave (km/s) = 3.06982 3.68017 3.38876
# Velocity P-wave (km/s) = 4.94592 6.35740 5.69555
#
# Compressibility (1/GPa) = 0.03658818
#
# Stress axis : x y z
#
# Youngs Moduli (GPa) = 74.20938 31.40576 72.93377
#
# Poissons Ratio (x) = 0.20011 0.07383
# Poissons Ratio (y) = 0.47285 0.27975
# Poissons Ratio (z) = 0.07512 0.12046
#
# Static dielectric constant tensor:
#      x y z
#    x 1.936750 0.024950 0.050520 
#    y 0.024950 1.962190 0.013670 
#    z 0.050520 0.013670 1.941410 
# 
# From -- ./inp_files/514916.got.cif
#   From: 2010.05.17/outbox.cif.g08.bks.cpg/sg2_258_cif.got.tgz:514916.got - 2010.06.03 11:33:40.
