data_PCOD9086096
_publ_section_title
;
Structure prediction by ZEFSAII (Michael W. Deem and Ramdas Pophale) SiO2 
 PCOD9086096
Probable space group: P -1
;
_chemical_formula_sum "Si O2"
_cell_formula_units_Z 14
_cell_length_a 18.110044
_cell_length_b 12.899999
_cell_length_c 6.672530
_cell_angle_alpha 45.984772
_cell_angle_beta 128.434929
_cell_angle_gamma 147.247572
_cell_volume 603.710210
_symmetry_space_group_name_H-M "P -1"
_symmetry_group_IT_number 2
_symmetry_cell_setting 'triclinic'
loop_
_space_group_symop_operation_xyz
x,y,z
-x,-y,-z
loop_
_atom_site_type_symbol
_atom_site_label
_atom_site_fract_x
_atom_site_fract_y
_atom_site_fract_z
Si Si1 0.842759 0.311438 0.557408
Si Si2 0.640941 0.609593 0.190199
Si Si3 0.656879 0.320019 0.727957
Si Si4 0.665181 0.026158 0.255223
Si Si5 0.271006 0.217962 0.469141
Si Si6 0.807736 0.577375 0.048979
Si Si7 0.111249 0.938940 0.913090
O O1 0.753342 0.158436 0.423722
O O2 0.845988 0.180165 0.888483
O O3 0.000000 0.500000 0.500000
O O4 0.796855 0.423908 0.376697
O O5 0.678135 0.482510 0.405214
O O6 0.627538 0.626687 0.385520
O O7 0.500000 0.500000 0.000000
O O8 0.771097 0.854628 0.033612
O O9 0.739197 0.450386 0.894375
O O10 0.494486 0.144285 0.729554
O O11 0.690425 0.188606 0.926881
O O12 0.694051 0.897765 0.402889
O O13 0.259505 0.341339 0.137734
O O14 0.127442 0.036533 0.595480
O O15 0.967297 0.781312 0.993045
#
# Coordination Sequence:
#
# PCOD9086096 Si02
#       7
#     2   2   2   2   2   2   2
#     4   9  18  34  57  73 105 146 173 203 270 321
#     4   9  18  32  54  77 105 140 170 210 272 312
#     4   9  19  32  57  73 103 146 176 206 269 319
#     4  10  19  36  54  80 104 136 183 221 251 311
#     4   9  20  32  58  79 106 132 180 228 250 300
#     4   9  17  34  55  79 101 143 179 204 264 320
#     4   9  18  33  57  77 108 137 173 218 262 309
#
# _framework density 23.189934000000001
#
# number of rings (size 3 to 8) (size 9 to 14) (size 15 to 20)
#    0.857    2.000    0.000    1.286    0.000    2.286 
#    0.000   10.000    6.286    0.000    0.000    0.000 
#    0.000    0.000    0.000    0.000    0.000    0.000 
#
# Total GULP energy -78024.610911 kJ/mol
# GULP energy per Si atom -5573.186494 kJ/mol
# Density = 2.313715 g / cm^3
# Si number density = 23.189934 Si / 1000 Ang^3
#
#
#
# Elastic Constant Matrix: (Units=GPa)
#
#
# Indices 1 2 3 4 5 6 
#
# 1 72.4578 26.4088 26.1738 -6.4186 38.1063 -25.7026
# 2 26.4088 143.7289 22.3845 -3.5990 14.3403 9.1988
# 3 26.1738 22.3845 166.7989 -46.6725 35.4759 -12.6156
# 4 -6.4186 -3.5990 -46.6725 35.2357 -8.6344 21.2067
# 5 38.1063 14.3403 35.4759 -8.6344 48.8488 -17.5620
# 6 -25.7026 9.1988 -12.6156 21.2067 -17.5620 14.8236
#
#
#
# Elastic Compliance Matrix: (Units=1/GPa)
#
#
# Indices 1 2 3 4 5 6 
#
# 1 0.015472 0.000749 0.006587 0.022546 -0.022978 -0.027510
# 2 0.000749 0.006192 -0.003223 -0.009407 0.002113 0.010675
# 3 0.006587 -0.003223 0.006899 -0.001804 -0.002887 0.018453
# 4 0.022546 -0.009407 -0.001804 -0.009689 0.009329 0.068308
# 5 -0.022978 0.002113 -0.002887 0.009329 0.036659 -0.013526
# 6 -0.027510 0.010675 0.018453 0.068308 -0.013526 -0.084906
#
#
# Mechanical properties :
#
#
# Convention : Reuss Voigt Hill
#
# Bulk Modulus (GPa) = 27.18178 59.21331 43.19755
# Shear Modulus (GPa) = -197.34628 40.31619 -78.51504
#
# Velocity S-wave (km/s) = -9.23497 4.17408 -5.82502
# Velocity P-wave (km/s) = 10.09783 6.98714 5.15490
#
# Compressibility (1/GPa) = 0.03678934
#
# Stress axis : x y z
#
# Youngs Moduli (GPa) = 64.63362 161.49367 144.94870
#
# Poissons Ratio (x) = -0.12099 -0.95474
# Poissons Ratio (y) = -0.04842 0.46714
# Poissons Ratio (z) = -0.42573 0.52046
#
# Static dielectric constant tensor:
#      x y z
#    x 1.902370 -0.008160 -0.016570 
#    y -0.008160 1.749880 -0.081360 
#    z -0.016570 -0.081360 1.913460 
# 
# From -- ./inp_files/347142.got.cif
#   From: 2010.05.17/outbox.cif.g08.bks.cpg/sg2_174_cif.got.tgz:347142.got - 2010.06.03 11:33:40.
