data_PCOD9086621
_publ_section_title
;
Structure prediction by ZEFSAII (Michael W. Deem and Ramdas Pophale) SiO2 
 PCOD9086621
Probable space group: P -1
;
_chemical_formula_sum "Si O2"
_cell_formula_units_Z 16
_cell_length_a 14.812631
_cell_length_b 9.098455
_cell_length_c 13.023762
_cell_angle_alpha 67.385439
_cell_angle_beta 151.076023
_cell_angle_gamma 112.818718
_cell_volume 778.467249
_symmetry_space_group_name_H-M "P -1"
_symmetry_group_IT_number 2
_symmetry_cell_setting 'triclinic'
loop_
_space_group_symop_operation_xyz
x,y,z
-x,-y,-z
loop_
_atom_site_type_symbol
_atom_site_label
_atom_site_fract_x
_atom_site_fract_y
_atom_site_fract_z
Si Si1 0.387750 0.658757 0.732157
Si Si2 0.007803 0.782902 0.355913
Si Si3 0.874616 0.908293 0.487032
Si Si4 0.032310 0.987253 0.155349
Si Si5 0.305981 0.572766 0.309700
Si Si6 0.648357 0.707379 0.162143
Si Si7 0.008373 0.693815 0.846180
Si Si8 0.394915 0.847483 0.493001
O O1 0.163231 0.666588 0.516998
O O2 0.411560 0.471214 0.808825
O O3 0.469529 0.742539 0.686911
O O4 0.493151 0.740211 0.914889
O O5 0.845440 0.717865 0.291143
O O6 0.127283 0.946809 0.473588
O O7 0.915257 0.848301 0.143036
O O8 0.689617 0.827218 0.266950
O O9 0.975314 0.768634 0.681494
O O10 0.000000 0.000000 0.500000
O O11 0.009686 0.157100 0.136076
O O12 0.235744 0.927951 0.374259
O O13 0.000000 0.000000 0.000000
O O14 0.500000 0.500000 0.500000
O O15 0.159873 0.441330 0.256324
O O16 0.334794 0.722649 0.375637
O O17 0.202015 0.625513 0.088476
O O18 0.500000 0.000000 0.500000
#
# Coordination Sequence:
#
# PCOD9086621 Si02
#       8
#     2   2   2   2   2   2   2   2
#     4  10  22  37  56  86 112 153 190 235 290 334
#     4   9  20  36  58  85 112 145 195 235 282 342
#     4   9  19  37  61  85 112 152 193 235 287 341
#     4  10  19  36  59  87 113 153 191 235 293 341
#     4  11  23  40  59  87 121 156 194 238 295 353
#     4  10  20  38  58  80 120 148 190 236 280 343
#     4  10  21  40  62  85 122 154 193 244 290 346
#     4  11  23  37  59  86 119 152 199 242 288 351
#
# _framework density 20.553208999999999
#
# number of rings (size 3 to 8) (size 9 to 14) (size 15 to 20)
#    0.000    2.000    1.250    1.875    1.750    1.500 
#    0.000    7.500    0.000    0.000    0.000    0.000 
#    0.000    0.000    0.000    0.000    0.000    0.000 
#
# Total GULP energy -89106.166841 kJ/mol
# GULP energy per Si atom -5569.135428 kJ/mol
# Density = 2.050643 g / cm^3
# Si number density = 20.553209 Si / 1000 Ang^3
#
#
#
# Elastic Constant Matrix: (Units=GPa)
#
#
# Indices 1 2 3 4 5 6 
#
# 1 75.1837 24.7635 34.7625 -8.4773 -13.4110 16.4000
# 2 24.7635 72.1962 52.3122 -15.1497 -8.0442 22.8651
# 3 34.7625 52.3122 92.1803 3.4651 -17.2974 21.5307
# 4 -8.4773 -15.1497 3.4651 18.6212 2.5721 -8.3329
# 5 -13.4110 -8.0442 -17.2974 2.5721 43.1627 -14.0502
# 6 16.4000 22.8651 21.5307 -8.3329 -14.0502 29.9947
#
#
#
# Elastic Compliance Matrix: (Units=1/GPa)
#
#
# Indices 1 2 3 4 5 6 
#
# 1 0.018064 0.002684 -0.007816 0.010440 0.001472 -0.002723
# 2 0.002684 0.039551 -0.024245 0.035544 -0.005949 -0.007126
# 3 -0.007816 -0.024245 0.031254 -0.032616 0.005518 -0.006156
# 4 0.010440 0.035544 -0.032616 0.101608 -0.003688 0.017109
# 5 0.001472 -0.005949 0.005518 -0.003688 0.028954 0.012307
# 6 -0.002723 -0.007126 -0.006156 0.017109 0.012307 0.055196
#
#
# Mechanical properties :
#
#
# Convention : Reuss Voigt Hill
#
# Bulk Modulus (GPa) = 33.20569 51.47073 42.33821
# Shear Modulus (GPa) = 14.55947 26.87050 20.71499
#
# Velocity S-wave (km/s) = 2.66443 3.61967 3.17814
# Velocity P-wave (km/s) = 5.06523 6.52429 5.84050
#
# Compressibility (1/GPa) = 0.03011532
#
# Stress axis : x y z
#
# Youngs Moduli (GPa) = 55.35844 25.28404 31.99584
#
# Poissons Ratio (x) = -0.06787 0.25007
# Poissons Ratio (y) = -0.14859 0.77575
# Poissons Ratio (z) = 0.43267 0.61302
#
# Static dielectric constant tensor:
#      x y z
#    x 1.740010 0.049540 -0.065650 
#    y 0.049540 1.728200 0.003220 
#    z -0.065650 0.003220 1.855270 
# 
# From -- ./inp_files/433439.got.cif
#   From: 2010.05.17/outbox.cif.g08.bks.cpg/sg2_217_cif.got.tgz:433439.got - 2010.06.03 11:33:40.
