data_PCOD9086464
_publ_section_title
;
Structure prediction by ZEFSAII (Michael W. Deem and Ramdas Pophale) SiO2 
 PCOD9086464
Probable space group: P -1
;
_chemical_formula_sum "Si O2"
_cell_formula_units_Z 16
_cell_length_a 13.208460
_cell_length_b 11.333091
_cell_length_c 9.622231
_cell_angle_alpha 118.971702
_cell_angle_beta 94.429842
_cell_angle_gamma 45.240044
_cell_volume 810.062554
_symmetry_space_group_name_H-M "P -1"
_symmetry_group_IT_number 2
_symmetry_cell_setting 'triclinic'
loop_
_space_group_symop_operation_xyz
x,y,z
-x,-y,-z
loop_
_atom_site_type_symbol
_atom_site_label
_atom_site_fract_x
_atom_site_fract_y
_atom_site_fract_z
Si Si1 0.591653 0.763865 0.395655
Si Si2 0.305424 0.853474 0.481663
Si Si3 0.036188 0.803940 0.393574
Si Si4 0.734914 0.566357 0.005774
Si Si5 0.618146 0.197014 0.226365
Si Si6 0.531666 0.536761 0.877775
Si Si7 0.684886 0.842511 0.952890
Si Si8 0.273444 0.423896 0.399614
O O1 0.450034 0.800361 0.420068
O O2 0.697541 0.641974 0.475299
O O3 0.500000 0.000000 0.500000
O O4 0.702114 0.614411 0.191771
O O5 0.315510 0.821502 0.630489
O O6 0.332284 0.686376 0.309192
O O7 0.137452 0.085117 0.557499
O O8 0.122833 0.660095 0.181053
O O9 0.139751 0.656425 0.454244
O O10 0.000000 0.000000 0.500000
O O11 0.584404 0.635413 0.971406
O O12 0.735007 0.714182 0.024127
O O13 0.603783 0.319534 0.171283
O O14 0.440294 0.323404 0.313402
O O15 0.710259 0.973951 0.050721
O O16 0.500000 0.500000 0.000000
O O17 0.759147 0.684331 0.744663
O O18 0.500000 0.000000 0.000000
#
# Coordination Sequence:
#
# PCOD9086464 Si02
#       8
#     2   2   2   2   2   2   2   2
#     4  11  23  40  64  92 123 153 202 259 305 348
#     4  11  23  37  60  92 117 156 208 247 292 362
#     4  11  21  40  62  83 121 168 201 240 301 364
#     4  11  20  37  60  87 120 158 196 247 304 351
#     4  10  19  36  58  87 115 153 208 251 291 357
#     4  12  21  34  57  90 123 151 196 257 304 352
#     4   9  15  32  60  82 105 152 203 239 287 352
#     4   9  19  35  61  84 112 162 201 241 297 363
#
# _framework density 19.751563000000001
#
# number of rings (size 3 to 8) (size 9 to 14) (size 15 to 20)
#    0.000    1.500    6.250    2.625    0.000    1.000 
#    0.000    8.125    0.000    0.000    0.000    0.000 
#    0.000    0.000    0.000    0.000    0.000    0.000 
#
# Total GULP energy -89167.197191 kJ/mol
# GULP energy per Si atom -5572.949824 kJ/mol
# Density = 1.970661 g / cm^3
# Si number density = 19.751563 Si / 1000 Ang^3
#
#
#
# Elastic Constant Matrix: (Units=GPa)
#
#
# Indices 1 2 3 4 5 6 
#
# 1 25.1331 26.6444 23.2428 -2.1255 -3.5790 4.3172
# 2 26.6444 151.2509 84.5265 -11.7826 -5.9929 9.4640
# 3 23.2428 84.5265 122.2790 -20.6676 -5.6524 13.3493
# 4 -2.1255 -11.7826 -20.6676 40.7942 4.1717 2.6315
# 5 -3.5790 -5.9929 -5.6524 4.1717 13.5986 0.2973
# 6 4.3172 9.4640 13.3493 2.6315 0.2973 24.1215
#
#
#
# Elastic Compliance Matrix: (Units=1/GPa)
#
#
# Indices 1 2 3 4 5 6 
#
# 1 0.052961 -0.005734 -0.005637 -0.002512 0.009926 -0.003958
# 2 -0.005734 0.011461 -0.006946 -0.000621 0.000836 0.000431
# 3 -0.005637 -0.006946 0.015686 0.005981 0.000263 -0.005602
# 4 -0.002512 -0.000621 0.005981 0.028313 -0.007011 -0.005619
# 5 0.009926 0.000836 0.000263 -0.007011 0.078831 -0.002457
# 6 -0.003958 0.000431 -0.005602 -0.005619 -0.002457 0.045740
#
#
# Mechanical properties :
#
#
# Convention : Reuss Voigt Hill
#
# Bulk Modulus (GPa) = 23.00236 63.05448 43.02842
# Shear Modulus (GPa) = 17.59837 26.65283 22.12560
#
# Velocity S-wave (km/s) = 2.98818 3.67741 3.35056
# Velocity P-wave (km/s) = 4.85559 7.07278 6.06634
#
# Compressibility (1/GPa) = 0.04347381
#
# Stress axis : x y z
#
# Youngs Moduli (GPa) = 18.88189 87.25020 63.75218
#
# Poissons Ratio (x) = 0.50032 0.35934
# Poissons Ratio (y) = 0.10828 0.44283
# Poissons Ratio (z) = 0.10643 0.60605
#
# Static dielectric constant tensor:
#      x y z
#    x 1.746510 -0.018040 0.006460 
#    y -0.018040 1.706780 -0.004860 
#    z 0.006460 -0.004860 1.715580 
# 
# From -- ./inp_files/305746.got.cif
#   From: 2010.05.17/outbox.cif.g08.bks.cpg/sg2_153_cif.got.tgz:305746.got - 2010.06.03 11:33:40.
