data_PCOD9086918
_publ_section_title
;
Structure prediction by ZEFSAII (Michael W. Deem and Ramdas Pophale) SiO2 
 PCOD9086918
Probable space group: P -1
;
_chemical_formula_sum "Si O2"
_cell_formula_units_Z 16
_cell_length_a 8.294417
_cell_length_b 8.890291
_cell_length_c 11.681478
_cell_angle_alpha 126.753624
_cell_angle_beta 74.193867
_cell_angle_gamma 100.505428
_cell_volume 663.854383
_symmetry_space_group_name_H-M "P -1"
_symmetry_group_IT_number 2
_symmetry_cell_setting 'triclinic'
loop_
_space_group_symop_operation_xyz
x,y,z
-x,-y,-z
loop_
_atom_site_type_symbol
_atom_site_label
_atom_site_fract_x
_atom_site_fract_y
_atom_site_fract_z
Si Si1 0.255249 0.597690 0.825198
Si Si2 0.970421 0.172306 0.888737
Si Si3 0.871320 0.187303 0.252307
Si Si4 0.608615 0.961944 0.845722
Si Si5 0.232897 0.375713 0.245532
Si Si6 0.185506 0.798077 0.464907
Si Si7 0.146723 0.198753 0.617518
Si Si8 0.525877 0.686893 0.008003
O O1 0.255370 0.740730 0.784638
O O2 0.256444 0.387681 0.683268
O O3 0.399981 0.637884 0.905218
O O4 0.082841 0.643679 0.948351
O O5 0.794470 0.056991 0.857099
O O6 0.052308 0.198088 0.759749
O O7 0.077898 0.026261 0.872633
O O8 0.808406 0.195221 0.396886
O O9 0.038148 0.322730 0.277291
O O10 0.657703 0.742370 0.737013
O O11 0.519091 0.106835 0.841864
O O12 0.500000 0.000000 0.000000
O O13 0.263264 0.598861 0.331889
O O14 0.292077 0.302792 0.077990
O O15 0.994506 0.789573 0.448133
O O16 0.242948 0.003070 0.500648
O O17 0.500000 0.500000 0.000000
#
# Coordination Sequence:
#
# PCOD9086918 Si02
#       8
#     2   2   2   2   2   2   2   2
#     4  11  21  36  57  86 121 148 190 242 298 337
#     4   9  19  33  56  88 115 145 188 241 296 341
#     4  10  20  36  60  87 114 152 196 241 281 343
#     4   8  17  34  54  82 116 144 188 229 284 346
#     4  10  19  36  61  83 109 157 196 229 283 343
#     4  10  21  37  58  87 118 155 199 235 281 339
#     4  10  21  35  56  88 122 151 191 244 284 339
#     4  10  23  39  57  86 122 151 187 240 298 353
#
# _framework density 24.101671
#
# number of rings (size 3 to 8) (size 9 to 14) (size 15 to 20)
#    0.000    2.250    1.250    1.125    3.500    1.000 
#    0.000   11.250    0.000    0.000    0.000    0.000 
#    0.000    0.000    0.000    0.000    0.000    0.000 
#
# Total GULP energy -89251.728037 kJ/mol
# GULP energy per Si atom -5578.233002 kJ/mol
# Density = 2.404681 g / cm^3
# Si number density = 24.101671 Si / 1000 Ang^3
#
#
#
# Elastic Constant Matrix: (Units=GPa)
#
#
# Indices 1 2 3 4 5 6 
#
# 1 41.8936 25.8330 12.4254 3.4735 2.4420 -17.5187
# 2 25.8330 142.7350 32.9931 32.1455 -1.3466 -37.7269
# 3 12.4254 32.9931 60.6729 24.5588 5.3885 -17.9424
# 4 3.4735 32.1455 24.5588 60.5051 -9.0475 0.3270
# 5 2.4420 -1.3466 5.3885 -9.0475 23.4974 1.0544
# 6 -17.5187 -37.7269 -17.9424 0.3270 1.0544 29.8880
#
#
#
# Elastic Compliance Matrix: (Units=1/GPa)
#
#
# Indices 1 2 3 4 5 6 
#
# 1 0.032503 -0.000336 0.001032 -0.003062 -0.005687 0.019480
# 2 -0.000336 0.013198 0.001891 -0.008407 -0.003679 0.017820
# 3 0.001032 0.001891 0.028483 -0.014699 -0.013120 0.020714
# 4 -0.003062 -0.008407 -0.014699 0.029587 0.015591 -0.022104
# 5 -0.005687 -0.003679 -0.013120 0.015591 0.052753 -0.017885
# 6 0.019480 0.017820 0.020714 -0.022104 -0.017885 0.080678
#
#
# Mechanical properties :
#
#
# Convention : Reuss Voigt Hill
#
# Bulk Modulus (GPa) = 12.60125 43.08939 27.84532
# Shear Modulus (GPa) = 19.34381 34.38145 26.86263
#
# Velocity S-wave (km/s) = 2.83608 3.78102 3.34212
# Velocity P-wave (km/s) = 3.99552 6.08100 5.14503
#
# Compressibility (1/GPa) = 0.07935719
#
# Stress axis : x y z
#
# Youngs Moduli (GPa) = 30.76652 75.76702 35.10898
#
# Poissons Ratio (x) = 0.02547 -0.03622
# Poissons Ratio (y) = 0.01034 -0.06640
# Poissons Ratio (z) = -0.03174 -0.14329
#
# Static dielectric constant tensor:
#      x y z
#    x 2.009850 -0.093110 -0.027180 
#    y -0.093110 2.102340 0.059590 
#    z -0.027180 0.059590 1.946210 
# 
# From -- ./inp_files/263582.got.cif
#   From: 2010.05.17/outbox.cif.g08.bks.cpg/sg2_132_cif.got.tgz:263582.got - 2010.06.03 11:33:40.
