data_PCOD9086415
_publ_section_title
;
Structure prediction by ZEFSAII (Michael W. Deem and Ramdas Pophale) SiO2 
 PCOD9086415
Probable space group: P -1
;
_chemical_formula_sum "Si O2"
_cell_formula_units_Z 16
_cell_length_a 14.267798
_cell_length_b 14.165091
_cell_length_c 9.345715
_cell_angle_alpha 93.481707
_cell_angle_beta 132.700815
_cell_angle_gamma 48.677663
_cell_volume 743.139191
_symmetry_space_group_name_H-M "P -1"
_symmetry_group_IT_number 2
_symmetry_cell_setting 'triclinic'
loop_
_space_group_symop_operation_xyz
x,y,z
-x,-y,-z
loop_
_atom_site_type_symbol
_atom_site_label
_atom_site_fract_x
_atom_site_fract_y
_atom_site_fract_z
Si Si1 0.888289 0.000471 0.636100
Si Si2 0.155676 0.577593 0.905006
Si Si3 0.988718 0.191580 0.998873
Si Si4 0.321218 0.663491 0.560600
Si Si5 0.648861 0.738146 0.836535
Si Si6 0.065352 0.754077 0.559000
Si Si7 0.616765 0.956719 0.969070
Si Si8 0.489617 0.108408 0.575609
O O1 0.839794 0.140878 0.581754
O O2 0.627234 0.114262 0.395517
O O3 0.019070 0.872372 0.624814
O O4 0.032599 0.881122 0.916969
O O5 0.081980 0.656541 0.677988
O O6 0.996445 0.725600 0.876046
O O7 0.411163 0.468046 0.186312
O O8 0.190643 0.445116 0.951122
O O9 0.777416 0.329205 0.679104
O O10 0.239080 0.024135 0.162823
O O11 0.282939 0.631082 0.664920
O O12 0.661376 0.734264 0.676021
O O13 0.699221 0.809282 0.960958
O O14 0.839894 0.880281 0.235392
O O15 0.500000 0.000000 0.000000
O O16 0.440878 0.121126 0.692817
O O17 0.500000 0.000000 0.500000
#
# Coordination Sequence:
#
# PCOD9086415 Si02
#       8
#     2   2   2   2   2   2   2   2
#     4   9  19  34  57  84 110 145 183 234 277 318
#     4  10  23  37  55  79 120 154 176 220 282 333
#     4  10  19  36  58  84 108 148 190 223 275 325
#     4  11  20  36  56  81 115 144 193 227 266 329
#     4   9  19  38  57  82 113 145 183 228 275 325
#     4  11  21  36  57  84 114 150 181 224 285 332
#     4  11  20  36  63  84 109 139 188 234 275 327
#     4   9  19  36  61  83 107 140 185 237 272 313
#
# _framework density 21.530286
#
# number of rings (size 3 to 8) (size 9 to 14) (size 15 to 20)
#    0.000    2.000    2.500    1.500    1.750    0.500 
#    0.000    3.750    0.000    0.000    0.000    0.000 
#    0.000    0.000    0.000    0.000    0.000    0.000 
#
# Total GULP energy -89349.252405 kJ/mol
# GULP energy per Si atom -5584.328275 kJ/mol
# Density = 2.148128 g / cm^3
# Si number density = 21.530286 Si / 1000 Ang^3
#
#
#
# Elastic Constant Matrix: (Units=GPa)
#
#
# Indices 1 2 3 4 5 6 
#
# 1 73.5366 21.1612 21.4990 10.7426 -26.0755 -15.3603
# 2 21.1612 49.2169 13.4609 -0.2253 -24.8094 -2.9396
# 3 21.4990 13.4609 78.2917 15.5611 -29.1141 -8.5480
# 4 10.7426 -0.2253 15.5611 30.1770 0.0735 -6.0668
# 5 -26.0755 -24.8094 -29.1141 0.0735 47.0243 3.9197
# 6 -15.3603 -2.9396 -8.5480 -6.0668 3.9197 23.0017
#
#
#
# Elastic Compliance Matrix: (Units=1/GPa)
#
#
# Indices 1 2 3 4 5 6 
#
# 1 0.020759 -0.003999 0.000554 -0.005602 0.008872 0.010568
# 2 -0.003999 0.028536 0.000928 0.000982 0.013470 -0.000716
# 3 0.000554 0.000928 0.019365 -0.009601 0.012550 0.003014
# 4 -0.005602 0.000982 -0.009601 0.041160 -0.009031 0.005212
# 5 0.008872 0.013470 0.012550 -0.009031 0.040828 0.002970
# 6 0.010568 -0.000716 0.003014 0.005212 0.002970 0.052429
#
#
# Mechanical properties :
#
#
# Convention : Reuss Voigt Hill
#
# Bulk Modulus (GPa) = 15.71717 34.80970 25.26344
# Shear Modulus (GPa) = 21.80338 29.70222 25.75280
#
# Velocity S-wave (km/s) = 3.18572 3.71827 3.46225
# Velocity P-wave (km/s) = 4.56592 5.88531 5.26709
#
# Compressibility (1/GPa) = 0.06362468
#
# Stress axis : x y z
#
# Youngs Moduli (GPa) = 48.17074 35.04372 51.63853
#
# Poissons Ratio (x) = 0.14015 -0.02859
# Poissons Ratio (y) = 0.19265 -0.04791
# Poissons Ratio (z) = -0.02667 -0.03251
#
# Static dielectric constant tensor:
#      x y z
#    x 1.854730 -0.022340 0.006950 
#    y -0.022340 1.750500 -0.017700 
#    z 0.006950 -0.017700 1.790050 
# 
# From -- ./inp_files/170556.got.cif
#   From: 2010.05.17/outbox.cif.g08.bks.cpg/sg2_86_cif.got.tgz:170556.got - 2010.06.03 11:33:40.
