data_PCOD9086923
_publ_section_title
;
Structure prediction by ZEFSAII (Michael W. Deem and Ramdas Pophale) SiO2 
 PCOD9086923
Probable space group: P -1
;
_chemical_formula_sum "Si O2"
_cell_formula_units_Z 16
_cell_length_a 9.394721
_cell_length_b 7.749254
_cell_length_c 16.348956
_cell_angle_alpha 100.569465
_cell_angle_beta 49.346647
_cell_angle_gamma 129.843382
_cell_volume 634.929496
_symmetry_space_group_name_H-M "P -1"
_symmetry_group_IT_number 2
_symmetry_cell_setting 'triclinic'
loop_
_space_group_symop_operation_xyz
x,y,z
-x,-y,-z
loop_
_atom_site_type_symbol
_atom_site_label
_atom_site_fract_x
_atom_site_fract_y
_atom_site_fract_z
Si Si1 0.020529 0.348055 0.334243
Si Si2 0.731298 0.620832 0.175251
Si Si3 0.700035 0.155564 0.812605
Si Si4 0.203478 0.699057 0.020886
Si Si5 0.876743 0.810518 0.307995
Si Si6 0.487122 0.461426 0.097637
Si Si7 0.389383 0.656166 0.534899
Si Si8 0.170997 0.279807 0.434007
O O1 0.202263 0.637766 0.269851
O O2 0.185206 0.304082 0.221699
O O3 0.024240 0.302407 0.423646
O O4 0.743644 0.242418 0.397791
O O5 0.875600 0.823774 0.211180
O O6 0.670533 0.676779 0.116516
O O7 0.440779 0.396088 0.299115
O O8 0.908205 0.560230 0.095198
O O9 0.792774 0.262479 0.879419
O O10 0.856774 0.074722 0.737147
O O11 0.389065 0.947714 0.919654
O O12 0.381761 0.642132 0.948957
O O13 0.699476 0.844656 0.418888
O O14 0.695705 0.518403 0.371679
O O15 0.500000 0.500000 0.000000
O O16 0.257636 0.466568 0.491055
O O17 0.000000 0.000000 0.500000
#
# Coordination Sequence:
#
# PCOD9086923 Si02
#       8
#     2   2   2   2   2   2   2   2
#     4  10  20  34  56  88 118 156 198 245 295 351
#     4   9  20  36  58  88 115 158 200 246 293 357
#     4   9  18  34  61  86 111 156 204 240 295 359
#     4  10  19  36  61  83 116 159 202 240 296 357
#     4   8  16  32  58  84 114 150 200 244 294 356
#     4  11  21  36  57  84 124 161 196 245 301 350
#     4   9  17  34  59  82 115 156 194 248 300 347
#     4  10  21  37  60  88 120 154 200 245 303 359
#
# _framework density 25.199646999999999
#
# number of rings (size 3 to 8) (size 9 to 14) (size 15 to 20)
#    0.000    2.500    1.250    0.750    0.000    4.000 
#    0.000    2.500    5.500   26.250    0.000    0.000 
#    0.000    0.000    0.000    0.000    0.000    0.000 
#
# Total GULP energy -89228.943231 kJ/mol
# GULP energy per Si atom -5576.808952 kJ/mol
# Density = 2.514229 g / cm^3
# Si number density = 25.199647 Si / 1000 Ang^3
#
#
#
# Elastic Constant Matrix: (Units=GPa)
#
#
# Indices 1 2 3 4 5 6 
#
# 1 151.5810 33.6928 42.7828 8.0883 0.9990 -7.0409
# 2 33.6928 51.6441 12.7965 5.8866 2.2410 -4.9968
# 3 42.7828 12.7965 124.1490 12.0180 -22.7689 -4.2147
# 4 8.0883 5.8866 12.0180 30.9451 -13.5978 -5.1186
# 5 0.9990 2.2410 -22.7689 -13.5978 65.6882 12.2739
# 6 -7.0409 -4.9968 -4.2147 -5.1186 12.2739 43.3641
#
#
#
# Elastic Compliance Matrix: (Units=1/GPa)
#
#
# Indices 1 2 3 4 5 6 
#
# 1 0.008434 -0.004663 -0.002541 -0.000699 -0.001149 0.000828
# 2 -0.004663 0.023282 -0.000769 -0.003495 -0.002093 0.002031
# 3 -0.002541 -0.000769 0.009739 -0.001667 0.003219 -0.000663
# 4 -0.000699 -0.003495 -0.001667 0.037137 0.006913 0.001749
# 5 -0.001149 -0.002093 0.003219 0.006913 0.018718 -0.004597
# 6 0.000828 0.002031 -0.000663 0.001749 -0.004597 0.024872
#
#
# Mechanical properties :
#
#
# Convention : Reuss Voigt Hill
#
# Bulk Modulus (GPa) = 39.20309 56.21315 47.70812
# Shear Modulus (GPa) = 34.09899 43.87294 38.98597
#
# Velocity S-wave (km/s) = 3.68251 4.17707 3.93757
# Velocity P-wave (km/s) = 5.80276 6.75422 6.29649
#
# Compressibility (1/GPa) = 0.02550819
#
# Stress axis : x y z
#
# Youngs Moduli (GPa) = 118.56616 42.95178 102.67975
#
# Poissons Ratio (x) = 0.20030 0.26089
# Poissons Ratio (y) = 0.55290 0.07900
# Poissons Ratio (z) = 0.30126 0.03304
#
# Static dielectric constant tensor:
#      x y z
#    x 1.947940 -0.015410 -0.005520 
#    y -0.015410 2.230970 0.036580 
#    z -0.005520 0.036580 2.086430 
# 
# From -- ./inp_files/557237.got.cif
#   From: 2010.05.17/outbox.cif.g08.bks.cpg/sg2_279_cif.got.tgz:557237.got - 2010.06.03 11:33:40.
