data_PCOD9086520
_publ_section_title
;
Structure prediction by ZEFSAII (Michael W. Deem and Ramdas Pophale) SiO2 
 PCOD9086520
Probable space group: P -1
;
_chemical_formula_sum "Si O2"
_cell_formula_units_Z 16
_cell_length_a 22.488223
_cell_length_b 9.566039
_cell_length_c 12.094464
_cell_angle_alpha 143.390561
_cell_angle_beta 22.614768
_cell_angle_gamma 140.742730
_cell_volume 590.313387
_symmetry_space_group_name_H-M "P -1"
_symmetry_group_IT_number 2
_symmetry_cell_setting 'triclinic'
loop_
_space_group_symop_operation_xyz
x,y,z
-x,-y,-z
loop_
_atom_site_type_symbol
_atom_site_label
_atom_site_fract_x
_atom_site_fract_y
_atom_site_fract_z
Si Si1 0.868187 0.261037 0.452777
Si Si2 0.236091 0.221148 0.781490
Si Si3 0.926888 0.734919 0.272571
Si Si4 0.585925 0.768319 0.886226
Si Si5 0.261866 0.726049 0.073937
Si Si6 0.929848 0.738677 0.529310
Si Si7 0.225316 0.973017 0.853461
Si Si8 0.504496 0.254268 0.719280
O O1 0.802844 0.328995 0.725966
O O2 0.864994 0.466588 0.498015
O O3 0.767855 0.012037 0.433532
O O4 0.052010 0.241642 0.127823
O O5 0.301139 0.147119 0.740337
O O6 0.309000 0.484800 0.789382
O O7 0.754434 0.733266 0.528215
O O8 0.938733 0.793034 0.419660
O O9 0.000000 0.500000 0.000000
O O10 0.042744 0.893083 0.090913
O O11 0.485998 0.511871 0.863247
O O12 0.599002 0.051334 0.019149
O O13 0.575371 0.764491 0.035592
O O14 0.105684 0.777124 0.306837
O O15 0.801110 0.882207 0.898232
O O16 0.310191 0.743451 0.568629
O O17 0.500000 0.000000 0.500000
#
# Coordination Sequence:
#
# PCOD9086520 Si02
#       8
#     2   2   2   2   2   2   2   2
#     4  10  19  36  58  95 138 172 202 260 339 380
#     4  10  20  36  61  95 129 172 210 265 322 385
#     4  12  23  37  64 107 129 162 220 276 324 385
#     4  11  25  45  66  93 132 170 217 266 330 388
#     4  11  21  39  62  93 133 166 214 261 323 383
#     4  11  21  34  63  98 142 166 204 272 330 380
#     4  12  21  41  67  98 133 165 220 269 322 386
#     4  11  27  46  65  91 133 177 212 265 333 389
#
# _framework density 27.104247999999998
#
# number of rings (size 3 to 8) (size 9 to 14) (size 15 to 20)
#    0.000    1.000    5.000    2.625    1.750    3.000 
#    0.000    0.625    0.000    1.500    0.000    0.000 
#    0.000    0.000    0.000    0.000    0.000    0.000 
#
# Total GULP energy -89318.859293 kJ/mol
# GULP energy per Si atom -5582.428706 kJ/mol
# Density = 2.704256 g / cm^3
# Si number density = 27.104248 Si / 1000 Ang^3
#
#
#
# Elastic Constant Matrix: (Units=GPa)
#
#
# Indices 1 2 3 4 5 6 
#
# 1 65.6414 23.7129 1.4116 8.6537 13.0811 -5.2525
# 2 23.7129 191.6065 23.5299 29.3907 4.3598 -8.1073
# 3 1.4116 23.5299 79.6488 12.8570 5.9631 10.6288
# 4 8.6537 29.3907 12.8570 51.3120 5.4628 -3.2950
# 5 13.0811 4.3598 5.9631 5.4628 30.9009 7.8010
# 6 -5.2525 -8.1073 10.6288 -3.2950 7.8010 44.4104
#
#
#
# Elastic Compliance Matrix: (Units=1/GPa)
#
#
# Indices 1 2 3 4 5 6 
#
# 1 0.017842 -0.001808 0.000595 -0.001084 -0.007967 0.002957
# 2 -0.001808 0.006084 -0.001476 -0.002795 0.000443 0.000965
# 3 0.000595 -0.001476 0.014012 -0.002848 -0.001354 -0.003526
# 4 -0.001084 -0.002795 -0.002848 0.022465 -0.003140 0.002262
# 5 -0.007967 0.000443 -0.001354 -0.003140 0.038385 -0.007513
# 6 0.002957 0.000965 -0.003526 0.002262 -0.007513 0.025375
#
#
# Mechanical properties :
#
#
# Convention : Reuss Voigt Hill
#
# Bulk Modulus (GPa) = 30.71332 48.24505 39.47918
# Shear Modulus (GPa) = 35.61391 44.54082 40.07736
#
# Velocity S-wave (km/s) = 3.62879 4.05818 3.84948
# Velocity P-wave (km/s) = 5.37714 6.30848 5.86134
#
# Compressibility (1/GPa) = 0.03255917
#
# Stress axis : x y z
#
# Youngs Moduli (GPa) = 56.04728 164.37764 71.36606
#
# Poissons Ratio (x) = 0.29727 -0.04246
# Poissons Ratio (y) = 0.10136 0.10533
# Poissons Ratio (z) = -0.03335 0.24260
#
# Static dielectric constant tensor:
#      x y z
#    x 2.709170 0.134080 -0.429580 
#    y 0.134080 2.386220 0.045590 
#    z -0.429580 0.045590 2.307240 
# 
# From -- ./inp_files/544961.got.cif
#   From: 2010.05.17/outbox.cif.g08.bks.cpg/sg2_273_cif.got.tgz:544961.got - 2010.06.03 11:33:40.
