data_PCOD9086187
_publ_section_title
;
Structure prediction by ZEFSAII (Michael W. Deem and Ramdas Pophale) SiO2 
 PCOD9086187
Probable space group: P -1
;
_chemical_formula_sum "Si O2"
_cell_formula_units_Z 16
_cell_length_a 12.111369
_cell_length_b 11.727047
_cell_length_c 11.605428
_cell_angle_alpha 141.165007
_cell_angle_beta 49.297388
_cell_angle_gamma 144.782935
_cell_volume 595.504760
_symmetry_space_group_name_H-M "P -1"
_symmetry_group_IT_number 2
_symmetry_cell_setting 'triclinic'
loop_
_space_group_symop_operation_xyz
x,y,z
-x,-y,-z
loop_
_atom_site_type_symbol
_atom_site_label
_atom_site_fract_x
_atom_site_fract_y
_atom_site_fract_z
Si Si1 0.214780 0.275743 0.265134
Si Si2 0.636496 0.960436 0.458705
Si Si3 0.458572 0.215461 0.175263
Si Si4 0.390215 0.832047 0.755425
Si Si5 0.000193 0.591614 0.349170
Si Si6 0.143902 0.248540 0.869727
Si Si7 0.370466 0.572645 0.169090
Si Si8 0.946980 0.154236 0.709666
O O1 0.413910 0.358806 0.244633
O O2 0.125392 0.338105 0.466995
O O3 0.243711 0.411480 0.236934
O O4 0.057520 0.990787 0.131206
O O5 0.508907 0.877914 0.596421
O O6 0.738106 0.842763 0.302041
O O7 0.516190 0.843978 0.329921
O O8 0.813715 0.246929 0.568358
O O9 0.604153 0.315366 0.261486
O O10 0.256875 0.024261 0.229378
O O11 0.477833 0.074512 0.955221
O O12 0.168954 0.692513 0.762729
O O13 0.063764 0.701200 0.265246
O O14 0.101998 0.310434 0.826515
O O15 0.242376 0.471254 0.062845
O O16 0.500000 0.500000 0.000000
O O17 0.000000 0.000000 0.500000
#
# Coordination Sequence:
#
# PCOD9086187 Si02
#       8
#     2   2   2   2   2   2   2   2
#     4  10  19  36  60  90 112 155 196 244 292 344
#     4  10  19  36  56  83 119 149 196 237 284 348
#     4  10  22  37  55  86 127 154 194 240 290 353
#     4  11  22  37  56  86 124 162 190 235 292 361
#     4  11  21  34  64  88 113 160 193 238 297 346
#     4   9  19  32  59  89 115 151 192 249 288 337
#     4  10  20  34  57  89 119 149 194 254 288 339
#     4  11  17  36  59  87 124 147 188 247 289 342
#
# _framework density 26.867961000000001
#
# number of rings (size 3 to 8) (size 9 to 14) (size 15 to 20)
#    0.000    1.750    6.250    0.375    0.000    3.000 
#    0.000    0.000    0.000    6.000    0.000    0.000 
#    0.000    0.000    0.000    0.000    0.000    0.000 
#
# Total GULP energy -89608.360797 kJ/mol
# GULP energy per Si atom -5600.522550 kJ/mol
# Density = 2.680681 g / cm^3
# Si number density = 26.867961 Si / 1000 Ang^3
#
#
#
# Elastic Constant Matrix: (Units=GPa)
#
#
# Indices 1 2 3 4 5 6 
#
# 1 120.4808 31.0891 37.2167 10.2653 38.5863 15.7247
# 2 31.0891 108.0988 44.9412 7.0938 14.1933 7.2300
# 3 37.2167 44.9412 188.7196 24.8349 22.0797 7.0488
# 4 10.2653 7.0938 24.8349 30.6050 8.6015 15.1104
# 5 38.5863 14.1933 22.0797 8.6015 55.1326 8.0236
# 6 15.7247 7.2300 7.0488 15.1104 8.0236 45.7420
#
#
#
# Elastic Compliance Matrix: (Units=1/GPa)
#
#
# Indices 1 2 3 4 5 6 
#
# 1 0.011602 -0.001874 -0.001007 0.000548 -0.006956 -0.002498
# 2 -0.001874 0.010784 -0.002160 0.000416 -0.000553 -0.000768
# 3 -0.001007 -0.002160 0.006729 -0.005119 -0.000853 0.001491
# 4 0.000548 0.000416 -0.005119 0.044138 -0.003369 -0.013455
# 5 -0.006956 -0.000553 -0.000853 -0.003369 0.024089 -0.000502
# 6 -0.002498 -0.000768 0.001491 -0.013455 -0.000502 0.027145
#
#
# Mechanical properties :
#
#
# Convention : Reuss Voigt Hill
#
# Bulk Modulus (GPa) = 52.53546 71.53256 62.03401
# Shear Modulus (GPa) = 35.48285 46.56608 41.02447
#
# Velocity S-wave (km/s) = 3.63800 4.16762 3.91179
# Velocity P-wave (km/s) = 6.10265 7.05977 6.59859
#
# Compressibility (1/GPa) = 0.01903476
#
# Stress axis : x y z
#
# Youngs Moduli (GPa) = 86.19394 92.72692 148.59952
#
# Poissons Ratio (x) = 0.17374 0.14960
# Poissons Ratio (y) = 0.16150 0.32098
# Poissons Ratio (z) = 0.08677 0.20029
#
# Static dielectric constant tensor:
#      x y z
#    x 1.287410 0.991750 -0.183280 
#    y 0.991750 1.162120 0.204850 
#    z -0.183280 0.204850 2.057480 
# 
# From -- ./inp_files/197923.got.cif
#   From: 2010.05.17/outbox.cif.g08.bks.cpg/sg2_99_cif.got.tgz:197923.got - 2010.06.03 11:33:40.
