data_PCOD9086631
_publ_section_title
;
Structure prediction by ZEFSAII (Michael W. Deem and Ramdas Pophale) SiO2 
 PCOD9086631
Probable space group: P -1
;
_chemical_formula_sum "Si O2"
_cell_formula_units_Z 16
_cell_length_a 10.017283
_cell_length_b 8.657817
_cell_length_c 7.645798
_cell_angle_alpha 77.028786
_cell_angle_beta 78.733690
_cell_angle_gamma 95.084121
_cell_volume 627.613230
_symmetry_space_group_name_H-M "P -1"
_symmetry_group_IT_number 2
_symmetry_cell_setting 'triclinic'
loop_
_space_group_symop_operation_xyz
x,y,z
-x,-y,-z
loop_
_atom_site_type_symbol
_atom_site_label
_atom_site_fract_x
_atom_site_fract_y
_atom_site_fract_z
Si Si1 0.700235 0.956857 0.931072
Si Si2 0.580979 0.869281 0.600686
Si Si3 0.366345 0.597328 0.872214
Si Si4 0.753199 0.272248 0.642842
Si Si5 0.094019 0.551127 0.163159
Si Si6 0.961882 0.774340 0.928949
Si Si7 0.136459 0.971027 0.584831
Si Si8 0.516929 0.690714 0.181418
O O1 0.628806 0.905710 0.777966
O O2 0.832461 0.868639 0.938755
O O3 0.737314 0.144651 0.843547
O O4 0.588436 0.874102 0.116161
O O5 0.466500 0.716368 0.694867
O O6 0.500000 0.000000 0.500000
O O7 0.734967 0.886189 0.472031
O O8 0.369544 0.426442 0.821935
O O9 0.209782 0.602047 0.968227
O O10 0.438221 0.629064 0.037228
O O11 0.851545 0.418892 0.662727
O O12 0.804604 0.173786 0.496529
O O13 0.603776 0.323885 0.644353
O O14 0.053750 0.364091 0.181521
O O15 0.985628 0.672549 0.120106
O O16 0.086599 0.907551 0.803326
O O17 0.000000 0.000000 0.500000
#
# Coordination Sequence:
#
# PCOD9086631 Si02
#       8
#     2   2   2   2   2   2   2   2
#     4  10  19  36  59  87 121 157 195 261 302 357
#     4  10  20  34  59  87 115 160 207 242 289 365
#     4   9  17  33  57  86 116 147 200 257 295 348
#     4  10  21  35  59  92 120 158 206 252 299 362
#     4  10  22  37  62  95 115 159 210 259 297 358
#     4  11  21  39  63  86 126 164 201 246 313 372
#     4  11  22  40  60  85 128 170 197 240 312 377
#     4   9  17  31  58  87 112 146 200 249 305 343
#
# _framework density 25.493407999999999
#
# number of rings (size 3 to 8) (size 9 to 14) (size 15 to 20)
#    0.000    2.000    3.750    1.125    1.750    2.000 
#    0.000    0.000    0.000    6.750    0.000    0.000 
#    0.000    0.000    0.000    0.000    0.000    0.000 
#
# Total GULP energy -89284.091891 kJ/mol
# GULP energy per Si atom -5580.255743 kJ/mol
# Density = 2.543538 g / cm^3
# Si number density = 25.493408 Si / 1000 Ang^3
#
#
#
# Elastic Constant Matrix: (Units=GPa)
#
#
# Indices 1 2 3 4 5 6 
#
# 1 93.0167 12.2742 34.9815 5.3328 -20.2088 -20.7027
# 2 12.2742 66.5563 18.1379 5.4631 -10.4507 -5.4145
# 3 34.9815 18.1379 55.4035 5.7858 -8.8390 6.8766
# 4 5.3328 5.4631 5.7858 31.6826 12.3286 -9.8448
# 5 -20.2088 -10.4507 -8.8390 12.3286 33.9548 -4.9895
# 6 -20.7027 -5.4145 6.8766 -9.8448 -4.9895 47.0271
#
#
#
# Elastic Compliance Matrix: (Units=1/GPa)
#
#
# Indices 1 2 3 4 5 6 
#
# 1 0.021165 0.003045 -0.013574 -0.002732 0.012820 0.012441
# 2 0.003045 0.018223 -0.006766 -0.004083 0.007789 0.004400
# 3 -0.013574 -0.006766 0.030590 -0.005194 -0.002155 -0.012544
# 4 -0.002732 -0.004083 -0.005194 0.042926 -0.018929 0.006065
# 5 0.012820 0.007789 -0.002155 -0.018929 0.046948 0.007874
# 6 0.012441 0.004400 -0.012544 0.006065 0.007874 0.031187
#
#
# Mechanical properties :
#
#
# Convention : Reuss Voigt Hill
#
# Bulk Modulus (GPa) = 28.25675 38.41817 33.33746
# Shear Modulus (GPa) = 21.05940 32.50510 26.78225
#
# Velocity S-wave (km/s) = 2.87727 3.57464 3.24474
# Velocity P-wave (km/s) = 4.70598 5.66921 5.20990
#
# Compressibility (1/GPa) = 0.03538978
#
# Stress axis : x y z
#
# Youngs Moduli (GPa) = 47.24849 54.87518 32.69010
#
# Poissons Ratio (x) = -0.16712 0.44373
# Poissons Ratio (y) = -0.14389 0.22117
# Poissons Ratio (z) = 0.64134 0.37127
#
# Static dielectric constant tensor:
#      x y z
#    x 2.108920 0.041150 -0.055270 
#    y 0.041150 2.014490 -0.067330 
#    z -0.055270 -0.067330 2.085850 
# 
# From -- ./inp_files/237572.got.cif
#   From: 2010.05.17/outbox.cif.g08.bks.cpg/sg2_119_cif.got.tgz:237572.got - 2010.06.03 11:33:40.
