data_PCOD9086605
_publ_section_title
;
Structure prediction by ZEFSAII (Michael W. Deem and Ramdas Pophale) SiO2 
 PCOD9086605
Probable space group: P -1
;
_chemical_formula_sum "Si O2"
_cell_formula_units_Z 16
_cell_length_a 8.688501
_cell_length_b 17.399582
_cell_length_c 8.592663
_cell_angle_alpha 128.306617
_cell_angle_beta 74.319008
_cell_angle_gamma 139.118082
_cell_volume 615.381213
_symmetry_space_group_name_H-M "P -1"
_symmetry_group_IT_number 2
_symmetry_cell_setting 'triclinic'
loop_
_space_group_symop_operation_xyz
x,y,z
-x,-y,-z
loop_
_atom_site_type_symbol
_atom_site_label
_atom_site_fract_x
_atom_site_fract_y
_atom_site_fract_z
Si Si1 0.900216 0.335245 0.748658
Si Si2 0.707670 0.877966 0.883604
Si Si3 0.504407 0.244164 0.898659
Si Si4 0.565239 0.184836 0.387162
Si Si5 0.906760 0.170562 0.194080
Si Si6 0.660821 0.580033 0.393775
Si Si7 0.248291 0.315320 0.973843
Si Si8 0.779589 0.071637 0.581402
O O1 0.798468 0.349507 0.939003
O O2 0.741718 0.315597 0.634876
O O3 0.751396 0.160215 0.607300
O O4 0.172247 0.432542 0.733108
O O5 0.545803 0.753915 0.906378
O O6 0.586928 0.806722 0.658634
O O7 0.685419 0.985322 0.032980
O O8 0.000000 0.000000 0.000000
O O9 0.400616 0.286691 0.886537
O O10 0.309082 0.062245 0.670643
O O11 0.773599 0.212621 0.284613
O O12 0.365967 0.023106 0.335857
O O13 0.098206 0.244525 0.381820
O O14 0.062867 0.225819 0.063671
O O15 0.500000 0.500000 0.500000
O O16 0.456304 0.495387 0.202923
O O17 0.068377 0.229272 0.764336
#
# Coordination Sequence:
#
# PCOD9086605 Si02
#       8
#     2   2   2   2   2   2   2   2
#     4  10  22  40  61  87 119 157 196 247 290 355
#     4  12  21  34  59  96 123 151 190 245 304 352
#     4  11  22  36  57  92 126 148 189 250 304 348
#     4  10  20  36  61  86 120 157 193 235 300 355
#     4  10  19  36  59  86 116 155 199 241 284 344
#     4   9  21  41  62  81 114 160 207 241 287 345
#     4  11  22  36  59  85 120 163 195 241 291 349
#     4  11  21  38  60  91 121 150 196 243 303 356
#
# _framework density 26.000143000000001
#
# number of rings (size 3 to 8) (size 9 to 14) (size 15 to 20)
#    0.000    1.500    2.500    4.500    1.750    2.000 
#    0.000    0.000    0.000    6.000    0.000    0.000 
#    0.000    0.000    0.000    0.000    0.000    0.000 
#
# Total GULP energy -89074.250494 kJ/mol
# GULP energy per Si atom -5567.140656 kJ/mol
# Density = 2.594097 g / cm^3
# Si number density = 26.000143 Si / 1000 Ang^3
#
#
#
# Elastic Constant Matrix: (Units=GPa)
#
#
# Indices 1 2 3 4 5 6 
#
# 1 78.3757 31.8859 42.3005 -14.4594 20.0601 10.3635
# 2 31.8859 122.1558 18.6457 -9.9755 1.5092 33.1522
# 3 42.3005 18.6457 122.3524 26.1742 33.4346 0.8975
# 4 -14.4594 -9.9755 26.1742 37.1559 13.8340 -3.6918
# 5 20.0601 1.5092 33.4346 13.8340 67.2768 -3.0037
# 6 10.3635 33.1522 0.8975 -3.6918 -3.0037 29.1875
#
#
#
# Elastic Compliance Matrix: (Units=1/GPa)
#
#
# Indices 1 2 3 4 5 6 
#
# 1 0.024771 -0.002111 -0.010452 0.018270 -0.006097 -0.004393
# 2 -0.002111 0.012848 -0.001670 0.002440 0.000068 -0.013477
# 3 -0.010452 -0.001670 0.015533 -0.014618 -0.001420 0.003135
# 4 0.018270 0.002440 -0.014618 0.047670 -0.008201 -0.003623
# 5 -0.006097 0.000068 -0.001420 -0.008201 0.019210 0.003071
# 6 -0.004393 -0.013477 0.003135 -0.003623 0.003071 0.050890
#
#
# Mechanical properties :
#
#
# Convention : Reuss Voigt Hill
#
# Bulk Modulus (GPa) = 40.50806 56.50536 48.50671
# Shear Modulus (GPa) = 24.08284 42.06083 33.07183
#
# Velocity S-wave (km/s) = 3.04675 4.02645 3.57036
# Velocity P-wave (km/s) = 5.29062 6.58758 5.97440
#
# Compressibility (1/GPa) = 0.02468645
#
# Stress axis : x y z
#
# Youngs Moduli (GPa) = 40.36959 77.83243 64.37759
#
# Poissons Ratio (x) = 0.16431 0.67290
# Poissons Ratio (y) = 0.08522 0.10749
# Poissons Ratio (z) = 0.42196 0.12996
#
# Static dielectric constant tensor:
#      x y z
#    x 2.085620 -0.000870 -0.030000 
#    y -0.000870 2.196800 0.071890 
#    z -0.030000 0.071890 2.295580 
# 
# From -- ./inp_files/223838.got.cif
#   From: 2010.05.17/outbox.cif.g08.bks.cpg/sg2_112_cif.got.tgz:223838.got - 2010.06.03 11:33:40.
