data_PCOD9086933
_publ_section_title
;
Structure prediction by ZEFSAII (Michael W. Deem and Ramdas Pophale) SiO2 
 PCOD9086933
Probable space group: P -1
;
_chemical_formula_sum "Si O2"
_cell_formula_units_Z 16
_cell_length_a 24.236601
_cell_length_b 9.767767
_cell_length_c 5.284278
_cell_angle_alpha 137.911727
_cell_angle_beta 115.207982
_cell_angle_gamma 55.009420
_cell_volume 686.941788
_symmetry_space_group_name_H-M "P -1"
_symmetry_group_IT_number 2
_symmetry_cell_setting 'triclinic'
loop_
_space_group_symop_operation_xyz
x,y,z
-x,-y,-z
loop_
_atom_site_type_symbol
_atom_site_label
_atom_site_fract_x
_atom_site_fract_y
_atom_site_fract_z
Si Si1 0.034378 0.232483 0.756838
Si Si2 0.823984 0.117383 0.360375
Si Si3 0.465847 0.396760 0.487034
Si Si4 0.445554 0.007323 0.607218
Si Si5 0.318828 0.606573 0.633629
Si Si6 0.836147 0.370009 0.230792
Si Si7 0.020167 0.704520 0.760462
Si Si8 0.305586 0.356475 0.762265
O O1 0.029055 0.141671 0.342768
O O2 0.111986 0.123710 0.845093
O O3 0.000000 0.500000 0.000000
O O4 0.990452 0.196279 0.844191
O O5 0.747231 0.158453 0.208748
O O6 0.837716 0.264003 0.364865
O O7 0.825277 0.216756 0.778147
O O8 0.500000 0.500000 0.500000
O O9 0.393683 0.579905 0.689412
O O10 0.524504 0.248011 0.589472
O O11 0.447951 0.197398 0.064269
O O12 0.367674 0.113206 0.520977
O O13 0.500000 0.000000 0.500000
O O14 0.318866 0.511185 0.785007
O O15 0.306528 0.449793 0.176274
O O16 0.905024 0.382453 0.315536
O O17 0.769969 0.605381 0.397124
O O18 0.000000 0.500000 0.500000
#
# Coordination Sequence:
#
# PCOD9086933 Si02
#       8
#     2   2   2   2   2   2   2   2
#     4  10  21  36  53  75 106 144 178 221 283 340
#     4  10  20  34  57  82 108 142 191 232 285 338
#     4  10  21  36  58  89 122 157 204 248 298 359
#     4  10  19  36  61  84 120 161 197 247 301 350
#     4   9  18  35  55  81 114 150 181 237 291 345
#     4  10  20  34  56  84 108 143 190 236 275 345
#     4  10  21  36  53  74 109 142 176 223 287 331
#     4   9  18  34  57  82 112 150 189 229 291 346
#
# _framework density 23.291640000000001
#
# number of rings (size 3 to 8) (size 9 to 14) (size 15 to 20)
#    0.000    2.250    1.250    1.500    0.000    3.500 
#    0.000    2.500    5.500    0.000    0.000    0.000 
#    0.000    0.000    0.000    0.000    0.000    0.000 
#
# Total GULP energy -89235.151575 kJ/mol
# GULP energy per Si atom -5577.196973 kJ/mol
# Density = 2.323863 g / cm^3
# Si number density = 23.291640 Si / 1000 Ang^3
#
#
#
# Elastic Constant Matrix: (Units=GPa)
#
#
# Indices 1 2 3 4 5 6 
#
# 1 153.0858 82.8485 10.5429 14.0780 -22.6808 -38.6602
# 2 82.8485 183.1197 21.5306 7.3269 -15.5629 -36.4868
# 3 10.5429 21.5306 55.0181 -10.6393 -7.2421 4.3634
# 4 14.0780 7.3269 -10.6393 39.0919 3.7242 -21.8966
# 5 -22.6808 -15.5629 -7.2421 3.7242 33.5440 -2.2509
# 6 -38.6602 -36.4868 4.3634 -21.8966 -2.2509 63.8232
#
#
#
# Elastic Compliance Matrix: (Units=1/GPa)
#
#
# Indices 1 2 3 4 5 6 
#
# 1 0.010382 -0.003244 -0.000574 -0.001513 0.005838 0.004160
# 2 -0.003244 0.007867 -0.002439 0.000571 0.001063 0.002933
# 3 -0.000574 -0.002439 0.020678 0.005388 0.002264 -0.001227
# 4 -0.001513 0.000571 0.005388 0.033604 -0.002622 0.010478
# 5 0.005838 0.001063 0.002264 -0.002622 0.035323 0.004336
# 6 0.004160 0.002933 -0.001227 0.010478 0.004336 0.023697
#
#
# Mechanical properties :
#
#
# Convention : Reuss Voigt Hill
#
# Bulk Modulus (GPa) = 37.86078 69.00751 53.43415
# Shear Modulus (GPa) = 32.70749 45.71192 39.20970
#
# Velocity S-wave (km/s) = 3.75141 4.43492 4.10741
# Velocity P-wave (km/s) = 5.92068 7.47774 6.74430
#
# Compressibility (1/GPa) = 0.02641255
#
# Stress axis : x y z
#
# Youngs Moduli (GPa) = 96.31850 127.10845 48.36114
#
# Poissons Ratio (x) = 0.41235 0.02776
# Poissons Ratio (y) = 0.31246 0.11797
# Poissons Ratio (z) = 0.05529 0.31005
#
# Static dielectric constant tensor:
#      x y z
#    x 1.715340 -0.173820 -0.887510 
#    y -0.173820 1.787950 -0.763710 
#    z -0.887510 -0.763710 -3.906650 
# 
# From -- ./inp_files/116422.got.cif
#   From: 2010.05.17/outbox.cif.g08.bks.cpg/sg2_59_cif.got.tgz:116422.got - 2010.06.03 11:33:40.
