data_PCOD9086868
_publ_section_title
;
Structure prediction by ZEFSAII (Michael W. Deem and Ramdas Pophale) SiO2 
 PCOD9086868
Probable space group: P -1
;
_chemical_formula_sum "Si O2"
_cell_formula_units_Z 14
_cell_length_a 10.211370
_cell_length_b 9.967238
_cell_length_c 12.196445
_cell_angle_alpha 67.348135
_cell_angle_beta 118.704094
_cell_angle_gamma 66.882707
_cell_volume 703.970934
_symmetry_space_group_name_H-M "P -1"
_symmetry_group_IT_number 2
_symmetry_cell_setting 'triclinic'
loop_
_space_group_symop_operation_xyz
x,y,z
-x,-y,-z
loop_
_atom_site_type_symbol
_atom_site_label
_atom_site_fract_x
_atom_site_fract_y
_atom_site_fract_z
Si Si1 0.050364 0.439964 0.858043
Si Si2 0.243465 0.980264 0.572424
Si Si3 0.422212 0.651755 0.085294
Si Si4 0.163337 0.322040 0.534243
Si Si5 0.590307 0.032850 0.923632
Si Si6 0.298076 0.419851 0.151927
Si Si7 0.195000 0.711948 0.755447
O O1 0.925501 0.568963 0.655264
O O2 0.871650 0.510966 0.848911
O O3 0.191108 0.462944 0.975198
O O4 0.217796 0.195207 0.976178
O O5 0.183942 0.132412 0.597836
O O6 0.050677 0.144533 0.360748
O O7 0.485567 0.826355 0.680428
O O8 0.216181 0.834996 0.644437
O O9 0.342899 0.854844 0.041789
O O10 0.370008 0.537423 0.163183
O O11 0.669987 0.498832 0.194530
O O12 0.310673 0.691916 0.913932
O O13 0.401901 0.196372 0.708620
O O14 0.000000 0.500000 0.500000
O O15 0.500000 0.000000 0.000000
#
# Coordination Sequence:
#
# PCOD9086868 Si02
#       7
#     2   2   2   2   2   2   2
#     4  11  25  44  65  93 128 170 219 260 308 385
#     4  10  19  36  60  92 124 159 212 263 314 369
#     4  10  21  38  63  89 128 167 206 261 320 372
#     4  12  23  37  65  94 126 163 207 263 325 372
#     4  12  24  41  65  96 130 164 207 268 326 373
#     4  10  23  45  64  88 130 172 217 261 306 379
#     4   9  19  33  61  94 119 159 213 262 312 372
#
# _framework density 19.887184999999999
#
# number of rings (size 3 to 8) (size 9 to 14) (size 15 to 20)
#    0.000    1.429    2.857    2.571    4.000    1.143 
#    2.571    0.714    0.000    0.000    0.000    0.000 
#    0.000    0.000    0.000    0.000    0.000    0.000 
#
# Total GULP energy -77980.575855 kJ/mol
# GULP energy per Si atom -5570.041133 kJ/mol
# Density = 1.984192 g / cm^3
# Si number density = 19.887185 Si / 1000 Ang^3
#
#
#
# Elastic Constant Matrix: (Units=GPa)
#
#
# Indices 1 2 3 4 5 6 
#
# 1 80.5010 39.5768 38.5289 -7.2281 18.3942 -12.6174
# 2 39.5768 121.4854 41.3745 -15.5338 2.0880 1.7321
# 3 38.5289 41.3745 103.8050 -2.9036 16.4708 -15.6330
# 4 -7.2281 -15.5338 -2.9036 33.2165 -5.2922 4.7578
# 5 18.3942 2.0880 16.4708 -5.2922 28.6141 -4.8334
# 6 -12.6174 1.7321 -15.6330 4.7578 -4.8334 36.4092
#
#
#
# Elastic Compliance Matrix: (Units=1/GPa)
#
#
# Indices 1 2 3 4 5 6 
#
# 1 0.019245 -0.005297 -0.002829 -0.000733 -0.009730 0.004510
# 2 -0.005297 0.012050 -0.004147 0.005558 0.005227 -0.004222
# 3 -0.002829 -0.004147 0.013866 -0.002922 -0.005588 0.004810
# 4 -0.000733 0.005558 -0.002922 0.034191 0.007178 -0.005288
# 5 -0.009730 0.005227 -0.005588 0.007178 0.045203 -0.000957
# 6 0.004510 -0.004222 0.004810 -0.005288 -0.000957 0.031859
#
#
# Mechanical properties :
#
#
# Convention : Reuss Voigt Hill
#
# Bulk Modulus (GPa) = 48.50758 60.52796 54.51777
# Shear Modulus (GPa) = 26.61970 32.06871 29.34421
#
# Velocity S-wave (km/s) = 3.66257 4.01999 3.84543
# Velocity P-wave (km/s) = 6.50617 7.21449 6.86946
#
# Compressibility (1/GPa) = 0.02061533
#
# Stress axis : x y z
#
# Youngs Moduli (GPa) = 51.96239 82.98603 72.12022
#
# Poissons Ratio (x) = 0.43955 0.20405
# Poissons Ratio (y) = 0.27523 0.29907
# Poissons Ratio (z) = 0.14701 0.34412
#
# Static dielectric constant tensor:
#      x y z
#    x 1.749070 0.046570 0.013360 
#    y 0.046570 1.710480 -0.017220 
#    z 0.013360 -0.017220 1.820660 
# 
# From -- ./inp_files/381399.got.cif
#   From: 2010.05.17/outbox.cif.g08.bks.cpg/sg2_191_cif.got.tgz:381399.got - 2010.06.03 11:33:40.
