data_PCOD9086124
_publ_section_title
;
Structure prediction by ZEFSAII (Michael W. Deem and Ramdas Pophale) SiO2 
 PCOD9086124
Probable space group: P -1
;
_chemical_formula_sum "Si O2"
_cell_formula_units_Z 16
_cell_length_a 17.700500
_cell_length_b 8.604466
_cell_length_c 8.429982
_cell_angle_alpha 121.206468
_cell_angle_beta 84.990169
_cell_angle_gamma 62.061959
_cell_volume 872.700527
_symmetry_space_group_name_H-M "P -1"
_symmetry_group_IT_number 2
_symmetry_cell_setting 'triclinic'
loop_
_space_group_symop_operation_xyz
x,y,z
-x,-y,-z
loop_
_atom_site_type_symbol
_atom_site_label
_atom_site_fract_x
_atom_site_fract_y
_atom_site_fract_z
Si Si1 0.267388 0.380584 0.950795
Si Si2 0.291636 0.650515 0.525408
Si Si3 0.444507 0.249460 0.058119
Si Si4 0.253153 0.344445 0.561681
Si Si5 0.251500 0.041665 0.962965
Si Si6 0.372275 0.868310 0.156194
Si Si7 0.106148 0.282752 0.392411
Si Si8 0.788799 0.159896 0.686830
O O1 0.256325 0.386941 0.767996
O O2 0.370172 0.277624 0.957060
O O3 0.238512 0.229875 0.949363
O O4 0.205828 0.640209 0.156524
O O5 0.386436 0.447969 0.306824
O O6 0.257610 0.518360 0.548695
O O7 0.223642 0.821328 0.488763
O O8 0.290544 0.811463 0.739841
O O9 0.515990 0.283768 0.973267
O O10 0.500000 0.000000 0.000000
O O11 0.166374 0.350863 0.510532
O O12 0.343846 0.082983 0.379715
O O13 0.157040 0.159993 0.150664
O O14 0.329590 0.971168 0.044872
O O15 0.307869 0.795224 0.197005
O O16 0.000000 0.500000 0.500000
O O17 0.123753 0.081710 0.392000
#
# Coordination Sequence:
#
# PCOD9086124 Si02
#       8
#     2   2   2   2   2   2   2   2
#     4  11  21  37  60  82 121 162 191 236 286 347
#     4  11  21  37  60  82 121 162 191 236 286 347
#     4  11  20  38  56  86 118 157 208 242 275 329
#     4  10  20  37  58  83 117 156 189 234 302 336
#     4  10  20  37  58  83 117 156 189 234 302 336
#     4  10  19  36  55  81 119 154 197 246 281 334
#     4  10  21  41  67  90 113 141 188 243 291 359
#     4   9  20  38  58  84 117 157 189 234 305 341
#
# _framework density 18.333894000000001
#
# number of rings (size 3 to 8) (size 9 to 14) (size 15 to 20)
#    0.000    2.000    2.500    5.250    0.000    3.000 
#    0.000    7.500    0.000    0.000    0.000    0.000 
#    0.000    0.000    0.000    0.000    0.000    0.000 
#
# Total GULP energy -89130.173238 kJ/mol
# GULP energy per Si atom -5570.635827 kJ/mol
# Density = 1.829217 g / cm^3
# Si number density = 18.333894 Si / 1000 Ang^3
#
#
#
# Elastic Constant Matrix: (Units=GPa)
#
#
# Indices 1 2 3 4 5 6 
#
# 1 22.0484 7.2061 13.8536 7.5233 -2.1658 -4.6203
# 2 7.2061 72.0258 -11.3791 7.0186 -14.8496 -0.6561
# 3 13.8536 -11.3791 53.4055 -0.3575 1.0938 -16.6424
# 4 7.5233 7.0186 -0.3575 37.7141 1.1269 3.6551
# 5 -2.1658 -14.8496 1.0938 1.1269 16.4615 7.1624
# 6 -4.6203 -0.6561 -16.6424 3.6551 7.1624 30.1619
#
#
#
# Elastic Compliance Matrix: (Units=1/GPa)
#
#
# Indices 1 2 3 4 5 6 
#
# 1 0.063498 -0.007326 -0.018166 -0.011593 0.003717 0.000066
# 2 -0.007326 0.019104 0.005120 -0.002394 0.016779 -0.001576
# 3 -0.018166 0.005120 0.029265 0.001705 -0.006252 0.014754
# 4 -0.011593 -0.002394 0.001705 0.029755 -0.004327 -0.003465
# 5 0.003717 0.016779 -0.006252 -0.004327 0.086933 -0.022634
# 6 0.000066 -0.001576 0.014754 -0.003465 -0.022634 0.047066
#
#
# Mechanical properties :
#
#
# Convention : Reuss Voigt Hill
#
# Bulk Modulus (GPa) = 14.05997 18.53787 16.29892
# Shear Modulus (GPa) = 14.70278 26.05409 20.37843
#
# Velocity S-wave (km/s) = 2.83494 3.77382 3.33756
# Velocity P-wave (km/s) = 4.28967 5.39650 4.87460
#
# Compressibility (1/GPa) = 0.07112393
#
# Stress axis : x y z
#
# Youngs Moduli (GPa) = 15.74850 52.34491 34.17037
#
# Poissons Ratio (x) = 0.38349 0.62073
# Poissons Ratio (y) = 0.11538 -0.17496
# Poissons Ratio (z) = 0.28608 -0.26802
#
# Static dielectric constant tensor:
#      x y z
#    x 1.649620 0.011130 -0.013180 
#    y 0.011130 1.648380 0.005110 
#    z -0.013180 0.005110 1.649200 
# 
# From -- ./inp_files/329582.got.cif
#   From: 2010.05.17/outbox.cif.g08.bks.cpg/sg2_165_cif.got.tgz:329582.got - 2010.06.03 11:33:40.
