data_PCOD9086334
_publ_section_title
;
Structure prediction by ZEFSAII (Michael W. Deem and Ramdas Pophale) SiO2 
 PCOD9086334
Probable space group: P -1
;
_chemical_formula_sum "Si O2"
_cell_formula_units_Z 14
_cell_length_a 12.317474
_cell_length_b 9.524943
_cell_length_c 14.288963
_cell_angle_alpha 57.113632
_cell_angle_beta 30.155196
_cell_angle_gamma 52.179206
_cell_volume 664.891950
_symmetry_space_group_name_H-M "P -1"
_symmetry_group_IT_number 2
_symmetry_cell_setting 'triclinic'
loop_
_space_group_symop_operation_xyz
x,y,z
-x,-y,-z
loop_
_atom_site_type_symbol
_atom_site_label
_atom_site_fract_x
_atom_site_fract_y
_atom_site_fract_z
Si Si1 0.385884 0.008400 0.302082
Si Si2 0.564677 0.717081 0.967167
Si Si3 0.328299 0.298612 0.387354
Si Si4 0.813444 0.396323 0.778274
Si Si5 0.190254 0.736567 0.608502
Si Si6 0.726220 0.705726 0.047610
Si Si7 0.450739 0.578764 0.651954
O O1 0.191561 0.921563 0.498018
O O2 0.614095 0.849771 0.158448
O O3 0.327338 0.149413 0.210109
O O4 0.421625 0.118547 0.324161
O O5 0.721446 0.516625 0.894794
O O6 0.322249 0.738640 0.091105
O O7 0.547209 0.743303 0.080655
O O8 0.264795 0.462168 0.300932
O O9 0.490526 0.325833 0.337075
O O10 0.084031 0.309448 0.608577
O O11 0.355933 0.701102 0.588836
O O12 0.319314 0.580247 0.495639
O O13 0.952904 0.722540 0.826487
O O14 0.734566 0.515712 0.149219
#
# Coordination Sequence:
#
# PCOD9086334 Si02
#       7
#     2   2   2   2   2   2   2
#     4  10  24  37  55  89 122 145 186 233 288 344
#     4  10  19  36  57  88 117 147 188 233 280 344
#     4  10  19  38  59  85 115 149 187 238 282 332
#     4   9  19  33  60  87 114 147 190 231 282 337
#     4  10  23  40  59  84 114 151 193 236 278 335
#     4  11  21  39  60  85 115 154 185 234 285 335
#     4  10  21  41  63  82 109 150 202 235 270 335
#
# _framework density 21.056054
#
# number of rings (size 3 to 8) (size 9 to 14) (size 15 to 20)
#    0.000    2.000    1.429    1.714    2.000    1.143 
#    0.000    0.714    0.000    0.000    0.000    0.000 
#    0.000    0.000    0.000    0.000    0.000    0.000 
#
# Total GULP energy -78200.219410 kJ/mol
# GULP energy per Si atom -5585.729958 kJ/mol
# Density = 2.100813 g / cm^3
# Si number density = 21.056054 Si / 1000 Ang^3
#
#
#
# Elastic Constant Matrix: (Units=GPa)
#
#
# Indices 1 2 3 4 5 6 
#
# 1 56.0665 30.3229 0.7027 -1.0762 5.1359 23.3349
# 2 30.3229 50.1899 27.1993 -12.1206 -1.0287 17.6485
# 3 0.7027 27.1993 132.7140 -11.0458 -1.1928 7.5653
# 4 -1.0762 -12.1206 -11.0458 24.9350 -1.9650 10.1425
# 5 5.1359 -1.0287 -1.1928 -1.9650 21.9374 -1.3031
# 6 23.3349 17.6485 7.5653 10.1425 -1.3031 25.1995
#
#
#
# Elastic Compliance Matrix: (Units=1/GPa)
#
#
# Indices 1 2 3 4 5 6 
#
# 1 0.040441 -0.011781 0.005183 0.012198 -0.010797 -0.036222
# 2 -0.011781 0.055054 -0.005268 0.041713 0.006263 -0.042532
# 3 0.005183 -0.005268 0.009218 0.003909 -0.000936 -0.005499
# 4 0.012198 0.041713 0.003909 0.095389 0.003110 -0.079914
# 5 -0.010797 0.006263 -0.000936 0.003110 0.049060 0.007178
# 6 -0.036222 -0.042532 -0.005499 -0.079914 0.007178 0.137199
#
#
# Mechanical properties :
#
#
# Convention : Reuss Voigt Hill
#
# Bulk Modulus (GPa) = 12.34849 39.49113 25.91981
# Shear Modulus (GPa) = 11.43938 26.46409 18.95174
#
# Velocity S-wave (km/s) = 2.33337 3.54904 3.00336
# Velocity P-wave (km/s) = 3.62447 5.96575 4.93594
#
# Compressibility (1/GPa) = 0.08098156
#
# Stress axis : x y z
#
# Youngs Moduli (GPa) = 24.72720 18.16393 108.48689
#
# Poissons Ratio (x) = 0.21399 -0.56232
# Poissons Ratio (y) = 0.29131 0.57154
# Poissons Ratio (z) = -0.12817 0.09569
#
# Static dielectric constant tensor:
#      x y z
#    x 1.721470 -0.004930 -0.001410 
#    y -0.004930 1.763070 -0.013110 
#    z -0.001410 -0.013110 1.795980 
# 
# From -- ./inp_files/255553.got.cif
#   From: 2010.05.17/outbox.cif.g08.bks.cpg/sg2_128_cif.got.tgz:255553.got - 2010.06.03 11:33:40.
