data_PCOD9086046
_publ_section_title
;
Structure prediction by ZEFSAII (Michael W. Deem and Ramdas Pophale) SiO2 
 PCOD9086046
Probable space group: P -1
;
_chemical_formula_sum "Si O2"
_cell_formula_units_Z 16
_cell_length_a 9.787653
_cell_length_b 12.053186
_cell_length_c 15.628965
_cell_angle_alpha 54.052642
_cell_angle_beta 154.056935
_cell_angle_gamma 120.057101
_cell_volume 651.097621
_symmetry_space_group_name_H-M "P -1"
_symmetry_group_IT_number 2
_symmetry_cell_setting 'triclinic'
loop_
_space_group_symop_operation_xyz
x,y,z
-x,-y,-z
loop_
_atom_site_type_symbol
_atom_site_label
_atom_site_fract_x
_atom_site_fract_y
_atom_site_fract_z
Si Si1 0.060283 0.096379 0.722330
Si Si2 0.779072 0.955338 0.774910
Si Si3 0.652518 0.143941 0.125863
Si Si4 0.959226 0.401884 0.129640
Si Si5 0.519678 0.491509 0.319433
Si Si6 0.509898 0.072389 0.739189
Si Si7 0.548776 0.658091 0.817375
Si Si8 0.956283 0.705198 0.539644
O O1 0.013249 0.194342 0.570771
O O2 0.208849 0.955982 0.826104
O O3 0.294318 0.171663 0.882249
O O4 0.795569 0.042179 0.658007
O O5 0.662704 0.803298 0.786416
O O6 0.577258 0.045246 0.690411
O O7 0.146909 0.932136 0.021580
O O8 0.842524 0.276359 0.172477
O O9 0.652412 0.056480 0.252030
O O10 0.322248 0.400095 0.312152
O O11 0.755956 0.403253 0.925619
O O12 0.844059 0.545797 0.044201
O O13 0.626143 0.404872 0.334949
O O14 0.779923 0.571791 0.474660
O O15 0.289844 0.206061 0.579318
O O16 0.327873 0.662096 0.774257
#
# Coordination Sequence:
#
# PCOD9086046 Si02
#       8
#     2   2   2   2   2   2   2   2
#     4   9  17  27  52  72 104 126 159 212 245 292
#     4  10  19  36  49  76  98 136 170 199 250 292
#     4   9  15  29  50  79  96 123 166 210 251 280
#     4   9  17  29  50  75  97 132 158 210 243 288
#     4   9  18  29  50  77 101 129 163 208 248 286
#     4   9  21  33  55  72 102 130 167 210 245 298
#     4  10  20  29  51  73 106 132 164 202 244 304
#     4  11  19  33  49  81 102 131 163 203 255 295
#
# _framework density 24.573889000000001
#
# number of rings (size 3 to 8) (size 9 to 14) (size 15 to 20)
#    0.750    1.750    1.250    2.625    0.000    1.000 
#    0.000    0.625    0.000    1.500    0.000   15.750 
#    0.000    0.000    0.000    0.000    0.000    0.000 
#
# Total GULP energy -89373.421715 kJ/mol
# GULP energy per Si atom -5585.838857 kJ/mol
# Density = 2.451796 g / cm^3
# Si number density = 24.573889 Si / 1000 Ang^3
#
#
#
# Elastic Constant Matrix: (Units=GPa)
#
#
# Indices 1 2 3 4 5 6 
#
# 1 140.3849 42.2932 26.7503 2.7921 43.1289 6.5623
# 2 42.2932 125.8592 22.8382 12.2145 31.6691 9.9709
# 3 26.7503 22.8382 53.9755 10.8832 19.1093 3.9549
# 4 2.7921 12.2145 10.8832 20.7893 2.0700 21.6774
# 5 43.1289 31.6691 19.1093 2.0700 39.0065 -2.9272
# 6 6.5623 9.9709 3.9549 21.6774 -2.9272 37.8968
#
#
#
# Elastic Compliance Matrix: (Units=1/GPa)
#
#
# Indices 1 2 3 4 5 6 
#
# 1 0.011827 -0.000705 -0.002604 0.010109 -0.012390 -0.008330
# 2 -0.000705 0.010626 -0.000598 -0.004424 -0.007368 -0.000650
# 3 -0.002604 -0.000598 0.026823 -0.023968 -0.007683 0.010925
# 4 0.010109 -0.004424 -0.023968 0.153081 -0.010455 -0.086457
# 5 -0.012390 -0.007368 -0.007683 -0.010455 0.050746 0.014786
# 6 -0.008330 -0.000650 0.010925 -0.086457 0.014786 0.077457
#
#
# Mechanical properties :
#
#
# Convention : Reuss Voigt Hill
#
# Bulk Modulus (GPa) = 24.11979 55.99811 40.05895
# Shear Modulus (GPa) = 14.19665 34.76105 24.47885
#
# Velocity S-wave (km/s) = 2.40617 3.76513 3.15958
# Velocity P-wave (km/s) = 4.19000 6.46055 5.44494
#
# Compressibility (1/GPa) = 0.04145972
#
# Stress axis : x y z
#
# Youngs Moduli (GPa) = 84.55474 94.11130 37.28127
#
# Poissons Ratio (x) = 0.06637 0.09710
# Poissons Ratio (y) = 0.05963 0.02230
# Poissons Ratio (z) = 0.22022 0.05631
#
# Static dielectric constant tensor:
#      x y z
#    x 2.032530 -0.053710 -0.078650 
#    y -0.053710 1.922920 0.013360 
#    z -0.078650 0.013360 2.097130 
# 
# From -- ./inp_files/559120.got.cif
#   From: 2010.05.17/outbox.cif.g08.bks.cpg/sg2_280_cif.got.tgz:559120.got - 2010.06.03 11:33:40.
