data_PCOD9086397
_publ_section_title
;
Structure prediction by ZEFSAII (Michael W. Deem and Ramdas Pophale) SiO2 
 PCOD9086397
Probable space group: P -1
;
_chemical_formula_sum "Si O2"
_cell_formula_units_Z 16
_cell_length_a 10.886882
_cell_length_b 16.982723
_cell_length_c 7.751478
_cell_angle_alpha 44.766028
_cell_angle_beta 137.374405
_cell_angle_gamma 130.930853
_cell_volume 656.460169
_symmetry_space_group_name_H-M "P -1"
_symmetry_group_IT_number 2
_symmetry_cell_setting 'triclinic'
loop_
_space_group_symop_operation_xyz
x,y,z
-x,-y,-z
loop_
_atom_site_type_symbol
_atom_site_label
_atom_site_fract_x
_atom_site_fract_y
_atom_site_fract_z
Si Si1 0.953443 0.447706 0.719651
Si Si2 0.068146 0.038521 0.714732
Si Si3 0.052186 0.687569 0.585432
Si Si4 0.872110 0.210626 0.120439
Si Si5 0.454985 0.211197 0.764320
Si Si6 0.542187 0.389920 0.302341
Si Si7 0.141752 0.153513 0.983612
Si Si8 0.451703 0.764726 0.782245
O O1 0.731997 0.431413 0.547498
O O2 0.000000 0.500000 0.500000
O O3 0.064415 0.555647 0.784258
O O4 0.964048 0.315527 0.923509
O O5 0.936455 0.093939 0.373452
O O6 0.059611 0.096685 0.805351
O O7 0.282395 0.095550 0.788258
O O8 0.975685 0.906756 0.880671
O O9 0.051268 0.716933 0.738443
O O10 0.876293 0.715574 0.263082
O O11 0.243355 0.779157 0.567704
O O12 0.645275 0.183884 0.934002
O O13 0.407691 0.300220 0.437452
O O14 0.498332 0.263179 0.924049
O O15 0.575324 0.321931 0.271727
O O16 0.500000 0.500000 0.000000
O O17 0.354911 0.142306 0.222052
#
# Coordination Sequence:
#
# PCOD9086397 Si02
#       8
#     2   2   2   2   2   2   2   2
#     4  11  21  35  54  80 111 149 188 231 283 337
#     4   9  18  36  61  84 115 148 186 240 288 335
#     4  10  19  36  58  82 114 150 187 233 287 336
#     4   9  20  35  57  84 112 147 190 234 280 346
#     4   9  21  37  57  83 114 151 190 232 288 344
#     4  11  23  37  56  85 115 149 196 238 281 345
#     4   9  19  35  59  90 110 145 197 233 282 350
#     4  10  20  38  57  81 117 151 187 238 287 335
#
# _framework density 24.373148
#
# number of rings (size 3 to 8) (size 9 to 14) (size 15 to 20)
#    0.000    2.250    1.250    1.125    1.750    1.500 
#    0.000    5.625    0.000    2.250    0.000    0.000 
#    0.000    0.000    0.000    0.000    0.000    0.000 
#
# Total GULP energy -89123.054727 kJ/mol
# GULP energy per Si atom -5570.190920 kJ/mol
# Density = 2.431767 g / cm^3
# Si number density = 24.373148 Si / 1000 Ang^3
#
#
#
# Elastic Constant Matrix: (Units=GPa)
#
#
# Indices 1 2 3 4 5 6 
#
# 1 60.4930 9.2740 10.2771 2.0514 -20.3289 19.1008
# 2 9.2740 64.8535 25.4617 -0.7103 -4.7713 20.8349
# 3 10.2771 25.4617 74.8689 -7.3863 8.3165 20.2219
# 4 2.0514 -0.7103 -7.3863 33.0764 0.0468 -7.6310
# 5 -20.3289 -4.7713 8.3165 0.0468 26.7056 4.2575
# 6 19.1008 20.8349 20.2219 -7.6310 4.2575 48.3184
#
#
#
# Elastic Compliance Matrix: (Units=1/GPa)
#
#
# Indices 1 2 3 4 5 6 
#
# 1 0.032001 0.004929 -0.005691 -0.006904 0.029590 -0.016092
# 2 0.004929 0.021383 -0.006905 -0.003678 0.011300 -0.009856
# 3 -0.005691 -0.006905 0.018354 0.004130 -0.011158 -0.000819
# 4 -0.006904 -0.003678 0.004130 0.033510 -0.008635 0.008640
# 5 0.029590 0.011300 -0.011158 -0.008635 0.068557 -0.019305
# 6 -0.016092 -0.009856 -0.000819 0.008640 -0.019305 0.034715
#
#
# Mechanical properties :
#
#
# Convention : Reuss Voigt Hill
#
# Bulk Modulus (GPa) = 17.72886 32.24901 24.98894
# Shear Modulus (GPa) = 20.60549 31.96693 26.28621
#
# Velocity S-wave (km/s) = 2.91076 3.62548 3.28760
# Velocity P-wave (km/s) = 4.31120 5.54847 4.96850
#
# Compressibility (1/GPa) = 0.05640519
#
# Stress axis : x y z
#
# Youngs Moduli (GPa) = 31.24907 46.76700 54.48374
#
# Poissons Ratio (x) = -0.23052 0.31005
# Poissons Ratio (y) = -0.15403 0.37619
# Poissons Ratio (z) = 0.17783 0.32291
#
# Static dielectric constant tensor:
#      x y z
#    x 1.963070 0.035380 0.000260 
#    y 0.035380 2.103380 -0.031370 
#    z 0.000260 -0.031370 2.044380 
# 
# From -- ./inp_files/187672.got.cif
#   From: 2010.05.17/outbox.cif.g08.bks.cpg/sg2_94_cif.got.tgz:187672.got - 2010.06.03 11:33:40.
