data_PCOD9086573
_publ_section_title
;
Structure prediction by ZEFSAII (Michael W. Deem and Ramdas Pophale) SiO2 
 PCOD9086573
Probable space group: P -1
;
_chemical_formula_sum "Si O2"
_cell_formula_units_Z 14
_cell_length_a 8.882119
_cell_length_b 9.501356
_cell_length_c 11.379416
_cell_angle_alpha 110.502061
_cell_angle_beta 109.039128
_cell_angle_gamma 122.801492
_cell_volume 571.100000
_symmetry_space_group_name_H-M "P -1"
_symmetry_group_IT_number 2
_symmetry_cell_setting 'triclinic'
loop_
_space_group_symop_operation_xyz
x,y,z
-x,-y,-z
loop_
_atom_site_type_symbol
_atom_site_label
_atom_site_fract_x
_atom_site_fract_y
_atom_site_fract_z
Si Si1 0.865250 0.019629 0.723555
Si Si2 0.198637 0.517396 0.039523
Si Si3 0.601883 0.447251 0.103231
Si Si4 0.988480 0.212282 0.353005
Si Si5 0.852947 0.196779 0.560528
Si Si6 0.484337 0.380600 0.313080
Si Si7 0.243509 0.526148 0.320005
O O1 0.991198 0.952997 0.697910
O O2 0.678295 0.848689 0.725939
O O3 0.739732 0.009259 0.575805
O O4 0.053786 0.265455 0.897830
O O5 0.367840 0.667349 0.015361
O O6 0.298687 0.577341 0.210850
O O7 0.000000 0.500000 0.000000
O O8 0.451280 0.338935 0.152069
O O9 0.869299 0.643642 0.284976
O O10 0.500000 0.500000 0.000000
O O11 0.243338 0.454907 0.534153
O O12 0.994807 0.284988 0.243907
O O13 0.820720 0.136220 0.397431
O O14 0.778508 0.316366 0.597305
O O15 0.413339 0.498383 0.372734
#
# Coordination Sequence:
#
# PCOD9086573 Si02
#       7
#     2   2   2   2   2   2   2
#     4  10  20  37  61  86 117 149 194 239 283 348
#     4  11  21  38  63  86 115 151 194 238 293 335
#     4  10  19  36  59  84 114 153 189 234 285 344
#     4  10  22  39  59  87 117 155 193 236 286 340
#     4  10  21  37  62  85 115 154 196 235 286 339
#     4  10  22  38  60  87 118 152 193 236 289 341
#     4  11  19  36  62  85 117 153 191 237 286 340
#
# _framework density 24.514095999999999
#
# number of rings (size 3 to 8) (size 9 to 14) (size 15 to 20)
#    0.000    1.714    4.286    2.571    0.000    2.286 
#    0.000    3.571    0.000   17.143    0.000    0.000 
#    0.000    0.000    0.000    0.000    0.000    0.000 
#
# Total GULP energy -77962.793314 kJ/mol
# GULP energy per Si atom -5568.770951 kJ/mol
# Density = 2.445830 g / cm^3
# Si number density = 24.514096 Si / 1000 Ang^3
#
#
#
# Elastic Constant Matrix: (Units=GPa)
#
#
# Indices 1 2 3 4 5 6 
#
# 1 98.3747 61.7052 28.7052 -9.1460 -32.0528 4.1514
# 2 61.7052 132.3940 36.4502 -25.1673 -33.1360 6.3775
# 3 28.7052 36.4502 86.8177 -12.1390 -25.4638 19.8563
# 4 -9.1460 -25.1673 -12.1390 49.2388 8.7502 -16.4233
# 5 -32.0528 -33.1360 -25.4638 8.7502 56.0488 -7.8439
# 6 4.1514 6.3775 19.8563 -16.4233 -7.8439 33.6070
#
#
#
# Elastic Compliance Matrix: (Units=1/GPa)
#
#
# Indices 1 2 3 4 5 6 
#
# 1 0.015887 -0.005935 -0.001583 -0.001138 0.005139 0.000742
# 2 -0.005935 0.012467 -0.002506 0.005206 0.002440 0.002961
# 3 -0.001583 -0.002506 0.016002 -0.001131 0.003880 -0.008431
# 4 -0.001138 0.005206 -0.001131 0.026844 -0.000483 0.012827
# 5 0.005139 0.002440 0.003880 -0.000483 0.024349 0.002057
# 6 0.000742 0.002961 -0.008431 0.012827 0.002057 0.040832
#
#
# Mechanical properties :
#
#
# Convention : Reuss Voigt Hill
#
# Bulk Modulus (GPa) = 41.13639 63.47860 52.30750
# Shear Modulus (GPa) = 30.38984 40.49397 35.44191
#
# Velocity S-wave (km/s) = 3.52474 4.06872 3.80646
# Velocity P-wave (km/s) = 5.77773 6.92991 6.37988
#
# Compressibility (1/GPa) = 0.02430938
#
# Stress axis : x y z
#
# Youngs Moduli (GPa) = 62.94537 80.21413 62.49299
#
# Poissons Ratio (x) = 0.47603 0.09891
# Poissons Ratio (y) = 0.37355 0.15659
# Poissons Ratio (z) = 0.09962 0.20099
#
# Static dielectric constant tensor:
#      x y z
#    x 2.087700 0.119780 0.035890 
#    y 0.119780 1.910030 0.072300 
#    z 0.035890 0.072300 1.950660 
# 
# From -- ./inp_files/184529.got.cif
#   From: 2010.05.17/outbox.cif.g08.bks.cpg/sg2_93_cif.got.tgz:184529.got - 2010.06.03 11:33:40.
