data_PCOD9086433
_publ_section_title
;
Structure prediction by ZEFSAII (Michael W. Deem and Ramdas Pophale) SiO2 
 PCOD9086433
Probable space group: P -1
;
_chemical_formula_sum "Si O2"
_cell_formula_units_Z 16
_cell_length_a 13.557078
_cell_length_b 19.367203
_cell_length_c 8.625241
_cell_angle_alpha 74.216578
_cell_angle_beta 107.355960
_cell_angle_gamma 159.254452
_cell_volume 765.500384
_symmetry_space_group_name_H-M "P -1"
_symmetry_group_IT_number 2
_symmetry_cell_setting 'triclinic'
loop_
_space_group_symop_operation_xyz
x,y,z
-x,-y,-z
loop_
_atom_site_type_symbol
_atom_site_label
_atom_site_fract_x
_atom_site_fract_y
_atom_site_fract_z
Si Si1 0.424921 0.794484 0.925214
Si Si2 0.385591 0.174861 0.280164
Si Si3 0.914886 0.558943 0.870568
Si Si4 0.447358 0.279488 0.584206
Si Si5 0.121172 0.213899 0.539951
Si Si6 0.552256 0.513060 0.219869
Si Si7 0.904565 0.074365 0.212105
Si Si8 0.614931 0.453402 0.038087
O O1 0.468064 0.794073 0.769753
O O2 0.231763 0.740131 0.876199
O O3 0.248840 0.618054 0.037868
O O4 0.712050 0.984408 0.043771
O O5 0.489372 0.272748 0.436528
O O6 0.416680 0.261479 0.123264
O O7 0.086044 0.950893 0.325748
O O8 0.741798 0.473775 0.692439
O O9 0.858646 0.579086 0.968552
O O10 0.281241 0.247081 0.528444
O O11 0.247911 0.098048 0.704275
O O12 0.323083 0.399464 0.605980
O O13 0.946350 0.136820 0.364278
O O14 0.726411 0.569596 0.166292
O O15 0.228926 0.279557 0.188608
O O16 0.548174 0.591739 0.107935
#
# Coordination Sequence:
#
# PCOD9086433 Si02
#       8
#     2   2   2   2   2   2   2   2
#     4   9  20  35  60  81 106 148 187 234 265 318
#     4  10  21  35  56  86 112 143 183 231 275 318
#     4   9  18  38  58  81 108 144 192 226 272 318
#     4  10  19  36  58  85 112 143 181 230 279 326
#     4  11  21  36  57  82 116 146 180 227 280 332
#     4  11  22  34  56  84 114 150 179 220 282 330
#     4  10  21  36  56  82 114 145 184 222 275 333
#     4  10  21  36  55  84 113 142 182 233 268 332
#
# _framework density 20.901361999999999
#
# number of rings (size 3 to 8) (size 9 to 14) (size 15 to 20)
#    0.000    2.000    1.250    3.375    3.500    1.000 
#    0.000    1.875    0.000    0.750    0.000    0.000 
#    0.000    0.000    0.000    0.000    0.000    0.000 
#
# Total GULP energy -89171.958670 kJ/mol
# GULP energy per Si atom -5573.247417 kJ/mol
# Density = 2.085379 g / cm^3
# Si number density = 20.901362 Si / 1000 Ang^3
#
#
#
# Elastic Constant Matrix: (Units=GPa)
#
#
# Indices 1 2 3 4 5 6 
#
# 1 113.2601 51.0085 48.9831 8.9685 -30.8664 20.1167
# 2 51.0085 68.8409 43.6150 6.6870 -14.3204 13.7043
# 3 48.9831 43.6150 73.7420 -1.9321 -24.5740 15.3295
# 4 8.9685 6.6870 -1.9321 40.7524 -10.5695 3.9431
# 5 -30.8664 -14.3204 -24.5740 -10.5695 31.6532 -2.8052
# 6 20.1167 13.7043 15.3295 3.9431 -2.8052 18.4235
#
#
#
# Elastic Compliance Matrix: (Units=1/GPa)
#
#
# Indices 1 2 3 4 5 6 
#
# 1 0.018408 -0.008569 -0.000051 0.002059 0.013654 -0.012045
# 2 -0.008569 0.028711 -0.014108 -0.005595 -0.008216 -0.000315
# 3 -0.000051 -0.014108 0.032458 0.010818 0.020998 -0.015574
# 4 0.002059 -0.005595 0.010818 0.031069 0.017265 -0.011109
# 5 0.013654 -0.008216 0.020998 0.017265 0.061430 -0.020611
# 6 -0.012045 -0.000315 -0.015574 -0.011109 -0.020611 0.079863
#
#
# Mechanical properties :
#
#
# Convention : Reuss Voigt Hill
#
# Bulk Modulus (GPa) = 29.30883 60.33959 44.82421
# Shear Modulus (GPa) = 16.19330 25.64824 20.92077
#
# Velocity S-wave (km/s) = 2.78645 3.50681 3.16718
# Velocity P-wave (km/s) = 4.94017 6.73263 5.90481
#
# Compressibility (1/GPa) = 0.03411940
#
# Stress axis : x y z
#
# Youngs Moduli (GPa) = 54.32430 34.82977 30.80916
#
# Poissons Ratio (x) = 0.29845 0.00159
# Poissons Ratio (y) = 0.46550 0.43467
# Poissons Ratio (z) = 0.00280 0.49139
#
# Static dielectric constant tensor:
#      x y z
#    x 1.757860 -0.028360 -0.023850 
#    y -0.028360 1.784720 -0.029340 
#    z -0.023850 -0.029340 1.840750 
# 
# From -- ./inp_files/222163.got.cif
#   From: 2010.05.17/outbox.cif.g08.bks.cpg/sg2_112_cif.got.tgz:222163.got - 2010.06.03 11:33:40.
