data_PCOD9086984
_publ_section_title
;
Structure prediction by ZEFSAII (Michael W. Deem and Ramdas Pophale) SiO2 
 PCOD9086984
Probable space group: P -1
;
_chemical_formula_sum "Si O2"
_cell_formula_units_Z 16
_cell_length_a 7.791160
_cell_length_b 12.703739
_cell_length_c 11.388341
_cell_angle_alpha 61.833783
_cell_angle_beta 56.652749
_cell_angle_gamma 101.952934
_cell_volume 642.225351
_symmetry_space_group_name_H-M "P -1"
_symmetry_group_IT_number 2
_symmetry_cell_setting 'triclinic'
loop_
_space_group_symop_operation_xyz
x,y,z
-x,-y,-z
loop_
_atom_site_type_symbol
_atom_site_label
_atom_site_fract_x
_atom_site_fract_y
_atom_site_fract_z
Si Si1 0.661792 0.144171 0.731655
Si Si2 0.514075 0.315589 0.399355
Si Si3 0.787174 0.166996 0.407530
Si Si4 0.710091 0.881833 0.619284
Si Si5 0.760379 0.816288 0.181282
Si Si6 0.158880 0.781854 0.120302
Si Si7 0.739010 0.593702 0.019938
Si Si8 0.685929 0.404209 0.917157
O O1 0.818855 0.202255 0.518385
O O2 0.474597 0.195525 0.789850
O O3 0.851892 0.203774 0.741540
O O4 0.444932 0.955862 0.902833
O O5 0.666344 0.246813 0.371278
O O6 0.294754 0.212463 0.436190
O O7 0.384345 0.272516 0.596703
O O8 0.707622 0.491602 0.191991
O O9 0.624625 0.984255 0.564687
O O10 0.020452 0.229264 0.191612
O O11 0.524734 0.756519 0.851854
O O12 0.000000 0.000000 0.500000
O O13 0.943038 0.765233 0.124496
O O14 0.000000 0.000000 0.000000
O O15 0.132878 0.630016 0.189343
O O16 0.770762 0.523517 0.927204
O O17 0.470136 0.570844 0.128469
#
# Coordination Sequence:
#
# PCOD9086984 Si02
#       8
#     2   2   2   2   2   2   2   2
#     4   9  20  34  60  91 121 148 202 253 302 354
#     4  10  23  39  59  87 123 156 199 247 305 362
#     4  11  20  39  60  87 121 157 199 251 307 353
#     4  11  21  34  61  92 116 151 204 255 300 349
#     4   9  20  38  58  88 120 153 195 255 300 346
#     4  10  19  36  61  87 117 160 199 250 304 350
#     4  10  22  39  59  84 125 163 194 245 303 366
#     4  10  21  38  58  91 122 155 207 247 293 363
#
# _framework density 24.913374000000001
#
# number of rings (size 3 to 8) (size 9 to 14) (size 15 to 20)
#    0.000    2.000    2.500    0.750    1.750    1.000 
#    0.000    3.750    0.000    3.000    0.000    0.000 
#    0.000    0.000    0.000    0.000    0.000    0.000 
#
# Total GULP energy -89180.626686 kJ/mol
# GULP energy per Si atom -5573.789168 kJ/mol
# Density = 2.485667 g / cm^3
# Si number density = 24.913374 Si / 1000 Ang^3
#
#
#
# Elastic Constant Matrix: (Units=GPa)
#
#
# Indices 1 2 3 4 5 6 
#
# 1 77.3645 24.7009 1.6525 -8.4412 10.8071 -27.0195
# 2 24.7009 89.6319 -4.3247 -0.0892 8.6474 -24.2941
# 3 1.6525 -4.3247 102.7541 -7.0532 28.6640 3.7557
# 4 -8.4412 -0.0892 -7.0532 15.5754 -9.8760 3.9261
# 5 10.8071 8.6474 28.6640 -9.8760 34.7534 -5.5027
# 6 -27.0195 -24.2941 3.7557 3.9261 -5.5027 39.0769
#
#
#
# Elastic Compliance Matrix: (Units=1/GPa)
#
#
# Indices 1 2 3 4 5 6 
#
# 1 0.018113 -0.001969 0.000204 0.006042 -0.001947 0.010399
# 2 -0.001969 0.014100 0.001173 -0.004876 -0.004109 0.007203
# 3 0.000204 0.001173 0.013044 -0.000889 -0.011674 -0.001938
# 4 0.006042 -0.004876 -0.000889 0.082546 0.022918 -0.003835
# 5 -0.001947 -0.004109 -0.011674 0.022918 0.046781 0.001506
# 6 0.010399 0.007203 -0.001938 -0.003835 0.001506 0.038043
#
#
# Mechanical properties :
#
#
# Convention : Reuss Voigt Hill
#
# Bulk Modulus (GPa) = 22.68982 34.86753 28.77867
# Shear Modulus (GPa) = 21.88149 34.39593 28.13871
#
# Velocity S-wave (km/s) = 2.96683 3.71970 3.36439
# Velocity P-wave (km/s) = 4.56765 5.69861 5.16418
#
# Compressibility (1/GPa) = 0.04407263
#
# Stress axis : x y z
#
# Youngs Moduli (GPa) = 55.20779 70.92259 76.66191
#
# Poissons Ratio (x) = 0.13967 -0.01561
# Poissons Ratio (y) = 0.10873 -0.08995
# Poissons Ratio (z) = -0.01124 -0.08322
#
# Static dielectric constant tensor:
#      x y z
#    x 2.213360 -0.255560 -0.268080 
#    y -0.255560 3.302020 0.957350 
#    z -0.268080 0.957350 2.662210 
# 
# From -- ./inp_files/261640.got.cif
#   From: 2010.05.17/outbox.cif.g08.bks.cpg/sg2_131_cif.got.tgz:261640.got - 2010.06.03 11:33:40.
