data_PCOD9086808
_publ_section_title
;
Structure prediction by ZEFSAII (Michael W. Deem and Ramdas Pophale) SiO2 
 PCOD9086808
Probable space group: P -1
;
_chemical_formula_sum "Si O2"
_cell_formula_units_Z 14
_cell_length_a 23.666157
_cell_length_b 11.359706
_cell_length_c 9.430229
_cell_angle_alpha 121.364095
_cell_angle_beta 38.404526
_cell_angle_gamma 148.898464
_cell_volume 718.472013
_symmetry_space_group_name_H-M "P -1"
_symmetry_group_IT_number 2
_symmetry_cell_setting 'triclinic'
loop_
_space_group_symop_operation_xyz
x,y,z
-x,-y,-z
loop_
_atom_site_type_symbol
_atom_site_label
_atom_site_fract_x
_atom_site_fract_y
_atom_site_fract_z
Si Si1 0.071980 0.743396 0.665935
Si Si2 0.005243 0.983776 0.235510
Si Si3 0.939841 0.144485 0.690108
Si Si4 0.813272 0.654229 0.142108
Si Si5 0.761005 0.126167 0.859724
Si Si6 0.847698 0.338242 0.308258
Si Si7 0.482116 0.945422 0.664592
O O1 0.192575 0.890827 0.386658
O O2 0.169916 0.818088 0.657636
O O3 0.915711 0.433687 0.768356
O O4 0.977304 0.764665 0.876825
O O5 0.841252 0.745039 0.305162
O O6 0.054095 0.924419 0.212731
O O7 0.970320 0.070167 0.461006
O O8 0.155590 0.205968 0.965342
O O9 0.779205 0.036436 0.893587
O O10 0.092443 0.451274 0.588382
O O11 0.648879 0.349498 0.249586
O O12 0.598100 0.015171 0.093037
O O13 0.667968 0.145297 0.476290
O O14 0.000000 0.500000 0.000000
O O15 0.500000 0.000000 0.500000
#
# Coordination Sequence:
#
# PCOD9086808 Si02
#       7
#     2   2   2   2   2   2   2
#     4   9  17  33  56  82 114 150 189 237 295 341
#     4  10  20  34  61  87 119 167 194 234 270 364
#     4  10  19  36  60  89 115 156 206 226 290 351
#     4  10  20  37  60  89 121 155 199 232 295 345
#     4   9  18  33  56  83 115 146 190 245 288 342
#     4  11  22  37  62  89 115 149 192 254 306 349
#     4  11  22  36  59  89 117 148 191 254 302 342
#
# _framework density 19.485797000000002
#
# number of rings (size 3 to 8) (size 9 to 14) (size 15 to 20)
#    0.000    2.000    1.429    4.286    2.000    0.571 
#    0.000    0.000    0.000   30.857    0.000    0.000 
#    0.000    0.000    0.000    0.000    0.000    0.000 
#
# Total GULP energy -77982.118008 kJ/mol
# GULP energy per Si atom -5570.151286 kJ/mol
# Density = 1.944145 g / cm^3
# Si number density = 19.485797 Si / 1000 Ang^3
#
#
#
# Elastic Constant Matrix: (Units=GPa)
#
#
# Indices 1 2 3 4 5 6 
#
# 1 133.1050 17.5260 43.7511 -14.1257 -0.3493 7.1314
# 2 17.5260 65.1704 33.1166 9.9249 -8.0091 3.7334
# 3 43.7511 33.1166 74.7641 3.1797 -18.0467 10.6438
# 4 -14.1257 9.9249 3.1797 25.9603 7.9204 3.7633
# 5 -0.3493 -8.0091 -18.0467 7.9204 33.7628 -9.7215
# 6 7.1314 3.7334 10.6438 3.7633 -9.7215 29.4001
#
#
#
# Elastic Compliance Matrix: (Units=1/GPa)
#
#
# Indices 1 2 3 4 5 6 
#
# 1 0.011738 -0.001510 -0.008118 0.011045 -0.008281 -0.003868
# 2 -0.001510 0.021460 -0.007631 -0.009804 0.004171 0.003038
# 3 -0.008118 -0.007631 0.025198 -0.008579 0.013398 -0.000656
# 4 0.011045 -0.009804 -0.008579 0.058880 -0.024645 -0.014014
# 5 -0.008281 0.004171 0.013398 -0.024645 0.047970 0.015645
# 6 -0.003868 0.003038 -0.000656 -0.014014 0.015645 0.041771
#
#
# Mechanical properties :
#
#
# Convention : Reuss Voigt Hill
#
# Bulk Modulus (GPa) = 41.87808 51.31410 46.59609
# Shear Modulus (GPa) = 20.04071 29.73437 24.88754
#
# Velocity S-wave (km/s) = 3.21047 3.91058 3.57769
# Velocity P-wave (km/s) = 5.93979 6.83970 6.40556
#
# Compressibility (1/GPa) = 0.02387884
#
# Stress axis : x y z
#
# Youngs Moduli (GPa) = 85.19546 46.59929 39.68508
#
# Poissons Ratio (x) = 0.07035 0.32216
# Poissons Ratio (y) = 0.12861 0.30283
# Poissons Ratio (z) = 0.69162 0.35559
#
# Static dielectric constant tensor:
#      x y z
#    x 1.763470 -0.009280 -0.031160 
#    y -0.009280 1.746900 0.042480 
#    z -0.031160 0.042480 1.760470 
# 
# From -- ./inp_files/207074.got.cif
#   From: 2010.05.17/outbox.cif.g08.bks.cpg/sg2_104_cif.got.tgz:207074.got - 2010.06.03 11:33:40.
