data_PCOD9086428
_publ_section_title
;
Structure prediction by ZEFSAII (Michael W. Deem and Ramdas Pophale) SiO2 
 PCOD9086428
Probable space group: P -1
;
_chemical_formula_sum "Si O2"
_cell_formula_units_Z 15
_cell_length_a 7.453783
_cell_length_b 13.087478
_cell_length_c 13.971764
_cell_angle_alpha 139.802821
_cell_angle_beta 45.895336
_cell_angle_gamma 132.761839
_cell_volume 598.897462
_symmetry_space_group_name_H-M "P -1"
_symmetry_group_IT_number 2
_symmetry_cell_setting 'triclinic'
loop_
_space_group_symop_operation_xyz
x,y,z
-x,-y,-z
loop_
_atom_site_type_symbol
_atom_site_label
_atom_site_fract_x
_atom_site_fract_y
_atom_site_fract_z
Si Si1 0.037680 0.164648 0.038892
Si Si2 0.500000 0.000000 0.000000
Si Si3 0.249873 0.442473 0.845741
Si Si4 0.192848 0.576463 0.623031
Si Si5 0.414038 0.224054 0.775992
Si Si6 0.421569 0.345210 0.286184
Si Si7 0.681656 0.819016 0.510528
Si Si8 0.173909 0.914300 0.506917
O O1 0.309275 0.206989 0.909712
O O2 0.025263 0.334723 0.215630
O O3 0.783453 0.119157 0.029914
O O4 0.000000 0.000000 0.000000
O O5 0.377069 0.151879 0.161603
O O6 0.339903 0.371872 0.857473
O O7 0.464951 0.583568 0.808066
O O8 0.192514 0.285356 0.681817
O O9 0.000000 0.500000 0.000000
O O10 0.174534 0.403827 0.452692
O O11 0.344345 0.572106 0.664112
O O12 0.400283 0.709029 0.571426
O O13 0.713915 0.240025 0.649147
O O14 0.262723 0.045340 0.653224
O O15 0.867676 0.868477 0.568125
O O16 0.690315 0.980543 0.562981
#
# Coordination Sequence:
#
# PCOD9086428 Si02
#       8
#     2   1   2   2   2   2   2   2
#     4  11  23  39  63  98 129 164 211 262 312 375
#     4  10  22  40  66  92 118 162 212 258 314 382
#     4  10  19  36  58  84 121 163 205 249 309 376
#     4   9  18  35  61  89 124 163 202 257 317 370
#     4  10  21  37  60  87 126 162 202 261 310 363
#     4   9  19  36  61  88 119 163 207 257 315 377
#     4   9  18  34  61  88 118 163 203 247 310 375
#     4   9  19  36  58  91 121 159 206 253 307 368
#
# _framework density 25.046026999999999
#
# number of rings (size 3 to 8) (size 9 to 14) (size 15 to 20)
#    0.000    2.400    0.000    2.400    3.733    1.067 
#    9.600    1.333   14.667    0.000    0.000    0.000 
#    0.000    0.000    0.000    0.000    0.000    0.000 
#
# Total GULP energy -83642.648247 kJ/mol
# GULP energy per Si atom -5576.176550 kJ/mol
# Density = 2.498902 g / cm^3
# Si number density = 25.046027 Si / 1000 Ang^3
#
#
#
# Elastic Constant Matrix: (Units=GPa)
#
#
# Indices 1 2 3 4 5 6 
#
# 1 56.9934 13.0607 31.1343 3.6589 -12.1420 -2.4303
# 2 13.0607 71.9530 65.9916 -1.7416 -5.3102 -30.4298
# 3 31.1343 65.9916 189.5266 5.8409 -31.7680 -25.7704
# 4 3.6589 -1.7416 5.8409 39.5042 -9.7823 0.3594
# 5 -12.1420 -5.3102 -31.7680 -9.7823 33.1570 8.8182
# 6 -2.4303 -30.4298 -25.7704 0.3594 8.8182 38.7527
#
#
#
# Elastic Compliance Matrix: (Units=1/GPa)
#
#
# Indices 1 2 3 4 5 6 
#
# 1 0.020416 -0.003405 -0.001630 -0.000190 0.006356 -0.003922
# 2 -0.003405 0.030627 -0.009110 0.000268 -0.010344 0.020129
# 3 -0.001630 -0.009110 0.009693 0.000329 0.008030 -0.002640
# 4 -0.000190 0.000268 0.000329 0.027516 0.008902 -0.001864
# 5 0.006356 -0.010344 0.008030 0.008902 0.044499 -0.012593
# 6 -0.003922 0.020129 -0.002640 -0.001864 -0.012593 0.042492
#
#
# Mechanical properties :
#
#
# Convention : Reuss Voigt Hill
#
# Bulk Modulus (GPa) = 30.82052 59.87180 45.34616
# Shear Modulus (GPa) = 23.32657 36.16855 29.74756
#
# Velocity S-wave (km/s) = 3.05511 3.80423 3.45006
# Velocity P-wave (km/s) = 4.97767 6.57669 5.83224
#
# Compressibility (1/GPa) = 0.03244591
#
# Stress axis : x y z
#
# Youngs Moduli (GPa) = 48.98177 32.65092 103.16720
#
# Poissons Ratio (x) = 0.11116 0.16820
# Poissons Ratio (y) = 0.16676 0.93985
# Poissons Ratio (z) = 0.07986 0.29745
#
# Static dielectric constant tensor:
#      x y z
#    x 2.036110 -0.001980 -0.003120 
#    y -0.001980 1.986480 0.004890 
#    z -0.003120 0.004890 1.965370 
# 
# From -- ./inp_files/503150.got.cif
#   From: 2010.05.17/outbox.cif.g08.bks.cpg/sg2_252_cif.got.tgz:503150.got - 2010.06.03 11:33:40.
