data_PCOD9086201
_publ_section_title
;
Structure prediction by ZEFSAII (Michael W. Deem and Ramdas Pophale) SiO2 
 PCOD9086201
Probable space group: P -1
;
_chemical_formula_sum "Si O2"
_cell_formula_units_Z 16
_cell_length_a 17.797555
_cell_length_b 8.964252
_cell_length_c 8.901048
_cell_angle_alpha 79.295357
_cell_angle_beta 117.849884
_cell_angle_gamma 51.155016
_cell_volume 702.927582
_symmetry_space_group_name_H-M "P -1"
_symmetry_group_IT_number 2
_symmetry_cell_setting 'triclinic'
loop_
_space_group_symop_operation_xyz
x,y,z
-x,-y,-z
loop_
_atom_site_type_symbol
_atom_site_label
_atom_site_fract_x
_atom_site_fract_y
_atom_site_fract_z
Si Si1 0.580602 0.270453 0.846562
Si Si2 0.119158 0.151956 0.652536
Si Si3 0.453483 0.349605 0.397847
Si Si4 0.230449 0.063826 0.312483
Si Si5 0.934627 0.214023 0.690698
Si Si6 0.279624 0.713172 0.629130
Si Si7 0.844500 0.386555 0.913568
Si Si8 0.955362 0.524187 0.159291
O O1 0.504427 0.298046 0.628291
O O2 0.602500 0.408926 0.773053
O O3 0.458229 0.446857 0.833242
O O4 0.736735 0.982075 0.111049
O O5 0.017187 0.214354 0.665026
O O6 0.009398 0.409571 0.396493
O O7 0.202816 0.908875 0.662028
O O8 0.325651 0.413786 0.258076
O O9 0.609263 0.094078 0.505991
O O10 0.112035 0.318447 0.259611
O O11 0.241566 0.876356 0.418031
O O12 0.158257 0.180861 0.058887
O O13 0.794939 0.340090 0.453619
O O14 0.880874 0.349744 0.777780
O O15 0.051941 0.905111 0.882992
O O16 0.885964 0.471830 0.034277
#
# Coordination Sequence:
#
# PCOD9086201 Si02
#       8
#     2   2   2   2   2   2   2   2
#     4  10  20  33  54  86 118 141 181 230 293 334
#     4  11  21  34  56  86 119 146 176 233 289 333
#     4  10  20  34  57  83 111 150 186 233 273 331
#     4   9  20  38  60  80 111 150 196 224 266 338
#     4  11  21  33  56  90 114 143 182 230 292 328
#     4  10  19  36  56  86 116 144 182 236 282 333
#     4  11  21  35  57  85 113 148 185 232 278 332
#     4  10  22  39  59  84 111 151 190 229 272 331
#
# _framework density 22.761946999999999
#
# number of rings (size 3 to 8) (size 9 to 14) (size 15 to 20)
#    0.000    1.750    5.000    0.750    1.750    0.500 
#    0.000    0.625    2.750    0.750    0.000    0.000 
#    0.000    0.000    0.000    0.000    0.000    0.000 
#
# Total GULP energy -89462.086673 kJ/mol
# GULP energy per Si atom -5591.380417 kJ/mol
# Density = 2.271014 g / cm^3
# Si number density = 22.761947 Si / 1000 Ang^3
#
#
#
# Elastic Constant Matrix: (Units=GPa)
#
#
# Indices 1 2 3 4 5 6 
#
# 1 125.8026 35.8124 52.7323 -4.6057 22.1105 -27.1728
# 2 35.8124 51.7696 28.1525 9.9050 15.6043 -18.5206
# 3 52.7323 28.1525 122.5240 -7.4097 14.3253 -15.9492
# 4 -4.6057 9.9050 -7.4097 46.2328 -4.5880 4.2473
# 5 22.1105 15.6043 14.3253 -4.5880 39.2548 -2.4472
# 6 -27.1728 -18.5206 -15.9492 4.2473 -2.4472 36.8988
#
#
#
# Elastic Compliance Matrix: (Units=1/GPa)
#
#
# Indices 1 2 3 4 5 6 
#
# 1 0.012223 -0.003745 -0.003212 0.000630 -0.003813 0.005407
# 2 -0.003745 0.033796 -0.003881 -0.010458 -0.010317 0.013047
# 3 -0.003212 -0.003881 0.010598 0.002184 -0.000260 -0.000001
# 4 0.000630 -0.010458 0.002184 0.025424 0.005578 -0.006398
# 5 -0.003813 -0.010317 -0.000260 0.005578 0.032058 -0.006615
# 6 0.005407 0.013047 -0.000001 -0.006398 -0.006615 0.037929
#
#
# Mechanical properties :
#
#
# Convention : Reuss Voigt Hill
#
# Bulk Modulus (GPa) = 28.62068 59.27673 43.94871
# Shear Modulus (GPa) = 26.97560 36.70388 31.83974
#
# Velocity S-wave (km/s) = 3.44629 4.01996 3.74413
# Velocity P-wave (km/s) = 5.33264 6.90256 6.16776
#
# Compressibility (1/GPa) = 0.03493977
#
# Stress axis : x y z
#
# Youngs Moduli (GPa) = 81.81502 29.58903 94.35487
#
# Poissons Ratio (x) = 0.11082 0.30308
# Poissons Ratio (y) = 0.30643 0.36622
# Poissons Ratio (z) = 0.26280 0.11484
#
# Static dielectric constant tensor:
#      x y z
#    x 1.821650 -0.005390 -0.020200 
#    y -0.005390 1.922890 0.015690 
#    z -0.020200 0.015690 1.877190 
# 
# From -- ./inp_files/261668.got.cif
#   From: 2010.05.17/outbox.cif.g08.bks.cpg/sg2_131_cif.got.tgz:261668.got - 2010.06.03 11:33:40.
