data_PCOD9086865
_publ_section_title
;
Structure prediction by ZEFSAII (Michael W. Deem and Ramdas Pophale) SiO2 
 PCOD9086865
Probable space group: P -1
;
_chemical_formula_sum "Si O2"
_cell_formula_units_Z 16
_cell_length_a 9.214712
_cell_length_b 12.046990
_cell_length_c 12.754197
_cell_angle_alpha 90.596969
_cell_angle_beta 131.843462
_cell_angle_gamma 60.352935
_cell_volume 797.235570
_symmetry_space_group_name_H-M "P -1"
_symmetry_group_IT_number 2
_symmetry_cell_setting 'triclinic'
loop_
_space_group_symop_operation_xyz
x,y,z
-x,-y,-z
loop_
_atom_site_type_symbol
_atom_site_label
_atom_site_fract_x
_atom_site_fract_y
_atom_site_fract_z
Si Si1 0.712203 0.877169 0.458269
Si Si2 0.304370 0.201598 0.312842
Si Si3 0.389780 0.388898 0.956849
Si Si4 0.095325 0.835005 0.921305
Si Si5 0.925543 0.483412 0.850414
Si Si6 0.339380 0.838983 0.249289
Si Si7 0.715252 0.401646 0.273164
Si Si8 0.546801 0.436493 0.637705
O O1 0.674376 0.840801 0.556188
O O2 0.563984 0.838405 0.318869
O O3 0.018129 0.765396 0.590950
O O4 0.551981 0.051294 0.375865
O O5 0.263322 0.347196 0.279147
O O6 0.047420 0.230553 0.151212
O O7 0.260767 0.509141 0.801601
O O8 0.173668 0.387077 0.893567
O O9 0.662610 0.248727 0.039877
O O10 0.482057 0.422056 0.105221
O O11 0.203901 0.828546 0.086358
O O12 0.869395 0.006984 0.791057
O O13 0.798941 0.410682 0.793413
O O14 0.000000 0.500000 0.000000
O O15 0.434175 0.702333 0.362404
O O16 0.645692 0.467949 0.356731
O O17 0.500000 0.500000 0.500000
#
# Coordination Sequence:
#
# PCOD9086865 Si02
#       8
#     2   2   2   2   2   2   2   2
#     4  10  20  35  63  91 119 151 206 259 296 350
#     4  10  19  36  60  92 119 156 202 254 304 347
#     4  11  20  38  66  95 113 152 224 261 283 343
#     4  10  19  38  66  90 117 151 213 264 286 343
#     4  12  23  39  62  90 125 164 201 245 308 366
#     4  10  22  38  59  92 125 162 193 245 315 360
#     4  11  21  39  65  93 118 156 214 260 291 349
#     4  12  26  41  56  90 137 165 187 239 322 382
#
# _framework density 20.06935
#
# number of rings (size 3 to 8) (size 9 to 14) (size 15 to 20)
#    0.000    1.250    5.000    2.250    0.000    1.500 
#    0.000    2.500    0.000    0.000    0.000    0.000 
#    0.000    0.000    0.000    0.000    0.000    0.000 
#
# Total GULP energy -89222.383325 kJ/mol
# GULP energy per Si atom -5576.398958 kJ/mol
# Density = 2.002367 g / cm^3
# Si number density = 20.069350 Si / 1000 Ang^3
#
#
#
# Elastic Constant Matrix: (Units=GPa)
#
#
# Indices 1 2 3 4 5 6 
#
# 1 59.4393 26.4860 11.5950 -13.8224 12.4337 -17.0590
# 2 26.4860 77.3153 20.6732 -17.4387 3.8155 -7.7757
# 3 11.5950 20.6732 74.8565 -1.8310 1.1913 -15.3716
# 4 -13.8224 -17.4387 -1.8310 36.7890 -3.5376 8.6645
# 5 12.4337 3.8155 1.1913 -3.5376 34.2044 0.2917
# 6 -17.0590 -7.7757 -15.3716 8.6645 0.2917 24.8852
#
#
#
# Elastic Compliance Matrix: (Units=1/GPa)
#
#
# Indices 1 2 3 4 5 6 
#
# 1 0.026694 -0.006944 0.001327 0.002104 -0.008897 0.016320
# 2 -0.006944 0.017506 -0.004527 0.006644 0.001454 -0.004417
# 3 0.001327 -0.004527 0.016587 -0.003503 -0.001011 0.010973
# 4 0.002104 0.006644 -0.003503 0.033599 0.002179 -0.010369
# 5 -0.008897 0.001454 -0.001011 0.002179 0.032632 -0.007410
# 6 0.016320 -0.004417 0.010973 -0.010369 -0.007410 0.060467
#
#
# Mechanical properties :
#
#
# Convention : Reuss Voigt Hill
#
# Bulk Modulus (GPa) = 24.69153 36.56882 30.63017
# Shear Modulus (GPa) = 22.59665 29.36617 25.98141
#
# Velocity S-wave (km/s) = 3.35913 3.82938 3.60193
# Velocity P-wave (km/s) = 5.23209 6.14922 5.70910
#
# Compressibility (1/GPa) = 0.04049972
#
# Stress axis : x y z
#
# Youngs Moduli (GPa) = 37.46212 57.12365 60.28804
#
# Poissons Ratio (x) = 0.39669 -0.08003
# Poissons Ratio (y) = 0.26015 0.27290
# Poissons Ratio (z) = -0.04973 0.25857
#
# Static dielectric constant tensor:
#      x y z
#    x 1.683960 -0.002740 0.016600 
#    y -0.002740 1.746910 0.008850 
#    z 0.016600 0.008850 1.809720 
# 
# From -- ./inp_files/278173.got.cif
#   From: 2010.05.17/outbox.cif.g08.bks.cpg/sg2_140_cif.got.tgz:278173.got - 2010.06.03 11:33:40.
