data_PCOD9086946
_publ_section_title
;
Structure prediction by ZEFSAII (Michael W. Deem and Ramdas Pophale) SiO2 
 PCOD9086946
Probable space group: P -1
;
_chemical_formula_sum "Si O2"
_cell_formula_units_Z 15
_cell_length_a 11.450607
_cell_length_b 12.998746
_cell_length_c 10.982389
_cell_angle_alpha 42.284580
_cell_angle_beta 133.336218
_cell_angle_gamma 147.127217
_cell_volume 587.444782
_symmetry_space_group_name_H-M "P -1"
_symmetry_group_IT_number 2
_symmetry_cell_setting 'triclinic'
loop_
_space_group_symop_operation_xyz
x,y,z
-x,-y,-z
loop_
_atom_site_type_symbol
_atom_site_label
_atom_site_fract_x
_atom_site_fract_y
_atom_site_fract_z
Si Si1 0.038829 0.705336 0.823975
Si Si2 0.202865 0.902788 0.495872
Si Si3 0.374917 0.805433 0.335727
Si Si4 0.560478 0.484296 0.689634
Si Si5 0.500000 0.000000 0.000000
Si Si6 0.862763 0.462661 0.290133
Si Si7 0.192847 0.303793 0.763888
Si Si8 0.470689 0.220479 0.052218
O O1 0.820521 0.660100 0.733600
O O2 0.109623 0.783573 0.665227
O O3 0.000000 0.500000 0.000000
O O4 0.239022 0.869213 0.910915
O O5 0.232992 0.768865 0.552943
O O6 0.014262 0.867890 0.318809
O O7 0.431608 0.129044 0.493939
O O8 0.446407 0.845236 0.212430
O O9 0.120605 0.599968 0.338414
O O10 0.396803 0.001770 0.205612
O O11 0.500000 0.500000 0.500000
O O12 0.396935 0.469700 0.674173
O O13 0.503215 0.274744 0.883034
O O14 0.842572 0.581363 0.270711
O O15 0.704534 0.409476 0.112898
O O16 0.285582 0.213197 0.975426
#
# Coordination Sequence:
#
# PCOD9086946 Si02
#       8
#     2   2   2   2   1   2   2   2
#     4  11  19  35  62  83 113 151 194 240 290 339
#     4  10  21  38  59  86 119 154 198 246 286 354
#     4  10  21  37  60  87 120 152 200 245 289 343
#     4  10  19  36  61  85 115 161 187 234 309 343
#     4  10  20  32  56  88 110 142 198 236 274 344
#     4  11  21  39  63  88 114 160 202 240 291 344
#     4  10  22  38  60  87 123 154 199 240 292 364
#     4   9  21  38  59  88 115 151 196 246 286 351
#
# _framework density 25.534314999999999
#
# number of rings (size 3 to 8) (size 9 to 14) (size 15 to 20)
#    0.800    1.067    1.333    4.800    0.000    1.067 
#    0.000    1.333    0.000    8.800    0.000    0.000 
#    0.000    0.000    0.000    0.000    0.000    0.000 
#
# Total GULP energy -83593.879727 kJ/mol
# GULP energy per Si atom -5572.925315 kJ/mol
# Density = 2.547620 g / cm^3
# Si number density = 25.534315 Si / 1000 Ang^3
#
#
#
# Elastic Constant Matrix: (Units=GPa)
#
#
# Indices 1 2 3 4 5 6 
#
# 1 88.0331 31.8548 23.5114 28.6637 1.5532 20.2915
# 2 31.8548 147.9696 73.8721 49.8575 1.1203 13.3385
# 3 23.5114 73.8721 134.9701 56.9427 5.9552 7.0245
# 4 28.6637 49.8575 56.9427 63.5283 16.7640 5.3348
# 5 1.5532 1.1203 5.9552 16.7640 35.0971 12.2190
# 6 20.2915 13.3385 7.0245 5.3348 12.2190 33.0987
#
#
#
# Elastic Compliance Matrix: (Units=1/GPa)
#
#
# Indices 1 2 3 4 5 6 
#
# 1 0.016862 0.000012 0.001622 -0.010179 0.008021 -0.012007
# 2 0.000012 0.010959 -0.003154 -0.006709 0.004957 -0.004503
# 3 0.001622 -0.003154 0.013530 -0.011217 0.003861 -0.002212
# 4 -0.010179 -0.006709 -0.011217 0.040133 -0.020990 0.012605
# 5 0.008021 0.004957 0.003861 -0.020990 0.044597 -0.020815
# 6 -0.012007 -0.004503 -0.002212 0.012605 -0.020815 0.045510
#
#
# Mechanical properties :
#
#
# Convention : Reuss Voigt Hill
#
# Bulk Modulus (GPa) = 26.10275 69.93882 48.02078
# Shear Modulus (GPa) = 26.68042 42.46045 34.57044
#
# Velocity S-wave (km/s) = 3.23597 4.08226 3.68350
# Velocity P-wave (km/s) = 4.92005 7.04765 6.07768
#
# Compressibility (1/GPa) = 0.03831013
#
# Stress axis : x y z
#
# Youngs Moduli (GPa) = 59.30337 91.24724 73.91032
#
# Poissons Ratio (x) = -0.00107 -0.11987
# Poissons Ratio (y) = -0.00069 0.23313
# Poissons Ratio (z) = -0.09618 0.28781
#
# Static dielectric constant tensor:
#      x y z
#    x 2.031050 0.014880 -0.027520 
#    y 0.014880 1.975510 -0.050340 
#    z -0.027520 -0.050340 2.113210 
# 
# From -- ./inp_files/432752.got.cif
#   From: 2010.05.17/outbox.cif.g08.bks.cpg/sg2_217_cif.got.tgz:432752.got - 2010.06.03 11:33:40.
