data_PCOD9086969
_publ_section_title
;
Structure prediction by ZEFSAII (Michael W. Deem and Ramdas Pophale) SiO2 
 PCOD9086969
Probable space group: P -1
;
_chemical_formula_sum "Si O2"
_cell_formula_units_Z 14
_cell_length_a 5.166486
_cell_length_b 29.964090
_cell_length_c 8.639155
_cell_angle_alpha 28.344620
_cell_angle_beta 113.504478
_cell_angle_gamma 119.897686
_cell_volume 547.878691
_symmetry_space_group_name_H-M "P -1"
_symmetry_group_IT_number 2
_symmetry_cell_setting 'triclinic'
loop_
_space_group_symop_operation_xyz
x,y,z
-x,-y,-z
loop_
_atom_site_type_symbol
_atom_site_label
_atom_site_fract_x
_atom_site_fract_y
_atom_site_fract_z
Si Si1 0.612886 0.284122 0.274808
Si Si2 0.353802 0.550388 0.604500
Si Si3 0.924927 0.594431 0.758050
Si Si4 0.617170 0.061642 0.587476
Si Si5 0.115292 0.383190 0.832418
Si Si6 0.198852 0.889470 0.201440
Si Si7 0.234379 0.080666 0.195840
O O1 0.573541 0.168739 0.603196
O O2 0.773217 0.324719 0.353063
O O3 0.335166 0.320154 0.064634
O O4 0.862883 0.329718 0.062986
O O5 0.688510 0.619779 0.512893
O O6 0.307763 0.494418 0.599857
O O7 0.098162 0.600767 0.403140
O O8 0.270789 0.453826 0.989904
O O9 0.000000 0.500000 0.000000
O O10 0.857950 0.111229 0.626392
O O11 0.508350 0.128047 0.236467
O O12 0.684549 0.983014 0.728159
O O13 0.349324 0.999913 0.828505
O O14 0.908845 0.847934 0.147388
O O15 0.000000 0.000000 0.500000
#
# Coordination Sequence:
#
# PCOD9086969 Si02
#       7
#     2   2   2   2   2   2   2
#     4  11  24  39  59  90 128 160 206 260 319 372
#     4   9  20  36  62  84 115 161 209 255 304 373
#     4  10  19  36  61  86 118 161 207 254 311 375
#     4   9  19  38  64  87 120 161 216 251 318 387
#     4  10  22  39  59  88 119 160 207 256 307 373
#     4  10  21  37  61  88 124 167 205 267 319 378
#     4   9  18  36  62  91 112 156 209 257 308 384
#
# _framework density 25.553100000000001
#
# number of rings (size 3 to 8) (size 9 to 14) (size 15 to 20)
#    0.000    2.286    1.429    0.429    4.000    1.714 
#    2.571    0.000    3.143    0.000    0.000    0.000 
#    0.000    0.000    0.000    0.000    0.000    0.000 
#
# Total GULP energy -78083.320003 kJ/mol
# GULP energy per Si atom -5577.380000 kJ/mol
# Density = 2.549494 g / cm^3
# Si number density = 25.553100 Si / 1000 Ang^3
#
#
#
# Elastic Constant Matrix: (Units=GPa)
#
#
# Indices 1 2 3 4 5 6 
#
# 1 117.4102 48.5228 41.4212 27.5654 31.8327 -0.5824
# 2 48.5228 120.6267 71.9298 38.8413 19.8233 0.6430
# 3 41.4212 71.9298 97.8891 32.6722 44.5460 15.5972
# 4 27.5654 38.8413 32.6722 48.0335 14.3076 9.5930
# 5 31.8327 19.8233 44.5460 14.3076 56.1891 9.8409
# 6 -0.5824 0.6430 15.5972 9.5930 9.8409 34.2361
#
#
#
# Elastic Compliance Matrix: (Units=1/GPa)
#
#
# Indices 1 2 3 4 5 6 
#
# 1 0.011997 -0.003072 0.000557 -0.003613 -0.005700 0.002659
# 2 -0.003072 0.019640 -0.015137 -0.007346 0.007569 0.006358
# 3 0.000557 -0.015137 0.031290 -0.002449 -0.017725 -0.008180
# 4 -0.003613 -0.007346 -0.002449 0.032116 -0.000243 -0.007737
# 5 -0.005700 0.007569 -0.017725 -0.000243 0.032734 -0.001505
# 6 0.002659 0.006358 -0.008180 -0.007737 -0.001505 0.035462
#
#
# Mechanical properties :
#
#
# Convention : Reuss Voigt Hill
#
# Bulk Modulus (GPa) = 36.20264 73.29707 54.74985
# Shear Modulus (GPa) = 24.06738 39.29522 31.68130
#
# Velocity S-wave (km/s) = 3.07230 3.92572 3.52493
# Velocity P-wave (km/s) = 5.17530 7.02103 6.16760
#
# Compressibility (1/GPa) = 0.02762230
#
# Stress axis : x y z
#
# Youngs Moduli (GPa) = 83.35325 50.91672 31.95937
#
# Poissons Ratio (x) = 0.15644 -0.01781
# Poissons Ratio (y) = 0.25609 0.48377
# Poissons Ratio (z) = -0.04645 0.77073
#
# Static dielectric constant tensor:
#      x y z
#    x 2.114660 0.064180 -0.010980 
#    y 0.064180 2.191220 0.114930 
#    z -0.010980 0.114930 2.094530 
# 
# From -- ./inp_files/142200.got.cif
#   From: 2010.05.17/outbox.cif.g08.bks.cpg/sg2_72_cif.got.tgz:142200.got - 2010.06.03 11:33:40.
