data_PCOD9086628
_publ_section_title
;
Structure prediction by ZEFSAII (Michael W. Deem and Ramdas Pophale) SiO2 
 PCOD9086628
Probable space group: P -1
;
_chemical_formula_sum "Si O2"
_cell_formula_units_Z 16
_cell_length_a 12.962220
_cell_length_b 19.022085
_cell_length_c 10.449727
_cell_angle_alpha 138.450550
_cell_angle_beta 36.972004
_cell_angle_gamma 153.345219
_cell_volume 689.518349
_symmetry_space_group_name_H-M "P -1"
_symmetry_group_IT_number 2
_symmetry_cell_setting 'triclinic'
loop_
_space_group_symop_operation_xyz
x,y,z
-x,-y,-z
loop_
_atom_site_type_symbol
_atom_site_label
_atom_site_fract_x
_atom_site_fract_y
_atom_site_fract_z
Si Si1 0.899579 0.015651 0.928677
Si Si2 0.605953 0.671929 0.249995
Si Si3 0.708594 0.850120 0.642116
Si Si4 0.813152 0.315417 0.938201
Si Si5 0.266410 0.935353 0.230344
Si Si6 0.428532 0.781259 0.229906
Si Si7 0.793743 0.521291 0.821428
Si Si8 0.325551 0.851298 0.681920
O O1 0.197932 0.179483 0.840828
O O2 0.833039 0.898180 0.725532
O O3 0.773666 0.073872 0.100625
O O4 0.731998 0.908458 0.072349
O O5 0.646087 0.738705 0.440766
O O6 0.327577 0.553827 0.301556
O O7 0.680397 0.582742 0.058956
O O8 0.424651 0.758549 0.840201
O O9 0.846250 0.016809 0.668477
O O10 0.904685 0.244247 0.808127
O O11 0.707950 0.249676 0.809550
O O12 0.000000 0.500000 0.000000
O O13 0.413326 0.043911 0.357519
O O14 0.500000 0.000000 0.000000
O O15 0.303607 0.615251 0.176319
O O16 0.372642 0.841555 0.476189
O O17 0.097198 0.674302 0.721357
#
# Coordination Sequence:
#
# PCOD9086628 Si02
#       8
#     2   2   2   2   2   2   2   2
#     4  10  21  38  59  85 119 150 197 249 278 344
#     4  10  22  42  58  82 112 161 210 230 280 341
#     4  10  20  38  62  84 116 157 198 231 288 351
#     4  10  23  35  55  92 125 145 181 241 300 349
#     4  10  19  36  59  87 117 149 192 235 289 354
#     4  11  22  37  59  89 120 152 186 244 310 332
#     4  10  24  38  59  85 116 157 198 243 280 346
#     4  11  20  37  60  87 118 154 190 240 292 356
#
# _framework density 23.204605999999998
#
# number of rings (size 3 to 8) (size 9 to 14) (size 15 to 20)
#    0.000    1.750    3.750    1.875    5.250    0.500 
#    0.000    3.750    0.000    0.000    0.000    0.000 
#    0.000    0.000    0.000    0.000    0.000    0.000 
#
# Total GULP energy -89402.564631 kJ/mol
# GULP energy per Si atom -5587.660289 kJ/mol
# Density = 2.315179 g / cm^3
# Si number density = 23.204606 Si / 1000 Ang^3
#
#
#
# Elastic Constant Matrix: (Units=GPa)
#
#
# Indices 1 2 3 4 5 6 
#
# 1 60.2480 15.7047 22.6929 19.1337 3.3564 -16.6797
# 2 15.7047 127.8571 4.4895 13.2943 1.1801 -22.0151
# 3 22.6929 4.4895 125.4354 16.3957 22.5809 -9.6632
# 4 19.1337 13.2943 16.3957 31.7100 -1.7798 4.7904
# 5 3.3564 1.1801 22.5809 -1.7798 25.3077 4.1019
# 6 -16.6797 -22.0151 -9.6632 4.7904 4.1019 33.8585
#
#
#
# Elastic Compliance Matrix: (Units=1/GPa)
#
#
# Indices 1 2 3 4 5 6 
#
# 1 0.029030 0.002375 0.000954 -0.022649 -0.009728 0.020501
# 2 0.002375 0.010122 0.001949 -0.008475 -0.004756 0.010083
# 3 0.000954 0.001949 0.011888 -0.009468 -0.012790 0.008019
# 4 -0.022649 -0.008475 -0.009468 0.059405 0.020938 -0.030311
# 5 -0.009728 -0.004756 -0.012790 0.020938 0.057386 -0.021449
# 6 0.020501 0.010083 0.008019 -0.030311 -0.021449 0.055366
#
#
# Mechanical properties :
#
#
# Convention : Reuss Voigt Hill
#
# Bulk Modulus (GPa) = 16.23481 44.36829 30.30155
# Shear Modulus (GPa) = 21.44333 36.21881 28.83107
#
# Velocity S-wave (km/s) = 3.04320 3.95504 3.52870
# Velocity P-wave (km/s) = 4.39996 6.32601 5.44876
#
# Compressibility (1/GPa) = 0.06159604
#
# Stress axis : x y z
#
# Youngs Moduli (GPa) = 34.44728 98.79183 84.12054
#
# Poissons Ratio (x) = -0.23467 -0.08025
# Poissons Ratio (y) = -0.08183 -0.16392
# Poissons Ratio (z) = -0.03286 -0.19251
#
# Static dielectric constant tensor:
#      x y z
#    x 1.932950 0.022140 -0.039290 
#    y 0.022140 1.903320 -0.016780 
#    z -0.039290 -0.016780 1.892550 
# 
# From -- ./inp_files/279798.got.cif
#   From: 2010.05.17/outbox.cif.g08.bks.cpg/sg2_140_cif.got.tgz:279798.got - 2010.06.03 11:33:40.
