data_PCOD9086365
_publ_section_title
;
Structure prediction by ZEFSAII (Michael W. Deem and Ramdas Pophale) SiO2 
 PCOD9086365
Probable space group: P -1
;
_chemical_formula_sum "Si O2"
_cell_formula_units_Z 16
_cell_length_a 17.105754
_cell_length_b 5.224607
_cell_length_c 11.739028
_cell_angle_alpha 103.147500
_cell_angle_beta 114.295521
_cell_angle_gamma 95.460654
_cell_volume 909.847344
_symmetry_space_group_name_H-M "P -1"
_symmetry_group_IT_number 2
_symmetry_cell_setting 'triclinic'
loop_
_space_group_symop_operation_xyz
x,y,z
-x,-y,-z
loop_
_atom_site_type_symbol
_atom_site_label
_atom_site_fract_x
_atom_site_fract_y
_atom_site_fract_z
Si Si1 0.800738 0.866742 0.025762
Si Si2 0.978593 0.718729 0.095714
Si Si3 0.734467 0.002861 0.455911
Si Si4 0.855762 0.482781 0.186641
Si Si5 0.396172 0.965225 0.432045
Si Si6 0.185136 0.482180 0.579483
Si Si7 0.141846 0.146762 0.314338
Si Si8 0.304085 0.357323 0.273343
O O1 0.724350 0.761700 0.879882
O O2 0.891858 0.823683 0.018931
O O3 0.797766 0.680629 0.117122
O O4 0.813600 0.177256 0.096775
O O5 0.947724 0.575446 0.184039
O O6 0.058270 0.968480 0.187333
O O7 0.000000 0.500000 0.000000
O O8 0.643388 0.007623 0.462723
O O9 0.764977 0.227228 0.402942
O O10 0.744922 0.711675 0.389501
O O11 0.805901 0.050784 0.607019
O O12 0.861783 0.511711 0.328180
O O13 0.350097 0.668970 0.330602
O O14 0.500000 0.000000 0.500000
O O15 0.365577 0.187805 0.357595
O O16 0.123207 0.341078 0.424566
O O17 0.214727 0.312260 0.290468
#
# Coordination Sequence:
#
# PCOD9086365 Si02
#       8
#     2   2   2   2   2   2   2   2
#     4  10  23  38  56  79 117 152 202 228 285 324
#     4  10  23  37  54  82 119 154 201 243 278 326
#     4   9  19  35  55  83 110 148 180 224 299 338
#     4  10  22  38  53  83 108 157 208 238 269 325
#     4  11  21  37  61  95 120 138 179 234 295 358
#     4  10  19  36  58  76 115 151 199 234 280 329
#     4   9  21  34  56  81 115 152 194 231 291 323
#     4  11  21  37  59  86 120 153 180 229 293 352
#
# _framework density 17.585369
#
# number of rings (size 3 to 8) (size 9 to 14) (size 15 to 20)
#    1.500    0.500    1.250    2.625    3.500    3.500 
#    0.000    1.250    0.000    0.000    0.000   17.500 
#    0.000    0.000    0.000    0.000    0.000    0.000 
#
# Total GULP energy -89131.433211 kJ/mol
# GULP energy per Si atom -5570.714576 kJ/mol
# Density = 1.754534 g / cm^3
# Si number density = 17.585369 Si / 1000 Ang^3
#
#
#
# Elastic Constant Matrix: (Units=GPa)
#
#
# Indices 1 2 3 4 5 6 
#
# 1 51.4734 -3.5896 14.0077 -1.9716 3.0900 8.5309
# 2 -3.5896 81.9137 -5.1822 4.0029 -1.5872 2.4204
# 3 14.0077 -5.1822 47.9269 3.7213 -5.3843 9.1445
# 4 -1.9716 4.0029 3.7213 26.8403 3.0696 -4.1984
# 5 3.0900 -1.5872 -5.3843 3.0696 18.9527 -3.3708
# 6 8.5309 2.4204 9.1445 -4.1984 -3.3708 16.5298
#
#
#
# Elastic Compliance Matrix: (Units=1/GPa)
#
#
# Indices 1 2 3 4 5 6 
#
# 1 0.023210 0.000721 -0.005765 0.001683 -0.007409 -0.009978
# 2 0.000721 0.012672 0.002297 -0.002932 0.001366 -0.003965
# 3 -0.005765 0.002297 0.026578 -0.007258 0.007663 -0.012346
# 4 0.001683 -0.002932 -0.007258 0.041620 -0.007063 0.012707
# 5 -0.007409 0.001366 0.007663 -0.007063 0.059122 0.009647
# 6 -0.009978 -0.003965 -0.012346 0.012707 0.009647 0.078251
#
#
# Mechanical properties :
#
#
# Convention : Reuss Voigt Hill
#
# Bulk Modulus (GPa) = 17.55409 21.30953 19.43181
# Shear Modulus (GPa) = 18.80161 24.20308 21.50235
#
# Velocity S-wave (km/s) = 3.27335 3.71390 3.50056
# Velocity P-wave (km/s) = 4.92852 5.52583 5.23570
#
# Compressibility (1/GPa) = 0.05696679
#
# Stress axis : x y z
#
# Youngs Moduli (GPa) = 43.08575 78.91561 37.62466
#
# Poissons Ratio (x) = -0.05693 0.21689
# Poissons Ratio (y) = -0.03108 -0.08642
# Poissons Ratio (z) = 0.24837 -0.18125
#
# Static dielectric constant tensor:
#      x y z
#    x 1.598180 -0.010590 -0.015640 
#    y -0.010590 1.622430 -0.022660 
#    z -0.015640 -0.022660 1.592570 
# 
# From -- ./inp_files/458926.got.cif
#   From: 2010.05.17/outbox.cif.g08.bks.cpg/sg2_230_cif.got.tgz:458926.got - 2010.06.03 11:33:40.
