data_PCOD9086302
_publ_section_title
;
Structure prediction by ZEFSAII (Michael W. Deem and Ramdas Pophale) SiO2 
 PCOD9086302
Probable space group: P -1
;
_chemical_formula_sum "Si O2"
_cell_formula_units_Z 16
_cell_length_a 10.320611
_cell_length_b 7.783338
_cell_length_c 11.806399
_cell_angle_alpha 83.958141
_cell_angle_beta 96.588883
_cell_angle_gamma 47.438241
_cell_volume 671.902858
_symmetry_space_group_name_H-M "P -1"
_symmetry_group_IT_number 2
_symmetry_cell_setting 'triclinic'
loop_
_space_group_symop_operation_xyz
x,y,z
-x,-y,-z
loop_
_atom_site_type_symbol
_atom_site_label
_atom_site_fract_x
_atom_site_fract_y
_atom_site_fract_z
Si Si1 0.794186 0.670869 0.578860
Si Si2 0.420947 0.194716 0.878538
Si Si3 0.544081 0.056844 0.326636
Si Si4 0.226423 0.846230 0.660624
Si Si5 0.010932 0.554096 0.867540
Si Si6 0.772489 0.079950 0.885588
Si Si7 0.939666 0.292833 0.451799
Si Si8 0.988181 0.836938 0.160656
O O1 0.680046 0.855463 0.448624
O O2 0.851352 0.434384 0.550747
O O3 0.971825 0.626347 0.608510
O O4 0.655366 0.794156 0.658155
O O5 0.419223 0.074726 0.776478
O O6 0.215681 0.430719 0.875204
O O7 0.562415 0.220161 0.868792
O O8 0.500000 0.000000 0.000000
O O9 0.588228 0.219300 0.311129
O O10 0.208961 0.661641 0.643963
O O11 0.114740 0.021534 0.527594
O O12 0.119460 0.992107 0.753716
O O13 0.870389 0.844203 0.832214
O O14 0.983271 0.395705 0.811390
O O15 0.000000 0.500000 0.000000
O O16 0.831697 0.213119 0.836494
O O17 0.864087 0.979673 0.026344
#
# Coordination Sequence:
#
# PCOD9086302 Si02
#       8
#     2   2   2   2   2   2   2   2
#     4   9  20  40  56  88 114 149 208 237 299 363
#     4  12  21  39  62  94 123 164 208 247 309 371
#     4  10  21  36  60  83 121 153 189 259 293 352
#     4  10  19  36  57  84 118 150 188 252 305 348
#     4  10  20  40  62  85 123 166 201 254 300 360
#     4  10  23  39  63  87 124 170 203 250 303 364
#     4   9  20  36  61  84 111 154 195 245 298 368
#     4  10  20  39  59  89 124 159 206 255 300 363
#
# _framework density 23.812968000000001
#
# number of rings (size 3 to 8) (size 9 to 14) (size 15 to 20)
#    0.000    2.000    3.750    0.000    1.750    2.500 
#    0.000    6.875    5.500    0.000    0.000    0.000 
#    0.000    0.000    0.000    0.000    0.000    0.000 
#
# Total GULP energy -89467.569502 kJ/mol
# GULP energy per Si atom -5591.723094 kJ/mol
# Density = 2.375877 g / cm^3
# Si number density = 23.812968 Si / 1000 Ang^3
#
#
#
# Elastic Constant Matrix: (Units=GPa)
#
#
# Indices 1 2 3 4 5 6 
#
# 1 181.2533 41.2545 44.6345 18.5904 4.5711 -12.9151
# 2 41.2545 53.2799 14.5765 10.1931 -2.3839 -11.2378
# 3 44.6345 14.5765 85.5094 19.7651 -2.8325 -1.0424
# 4 18.5904 10.1931 19.7651 43.5529 3.3382 0.7290
# 5 4.5711 -2.3839 -2.8325 3.3382 37.3569 9.4091
# 6 -12.9151 -11.2378 -1.0424 0.7290 9.4091 39.3751
#
#
#
# Elastic Compliance Matrix: (Units=1/GPa)
#
#
# Indices 1 2 3 4 5 6 
#
# 1 0.007540 -0.004647 -0.003035 -0.000643 -0.001770 0.001501
# 2 -0.004647 0.024419 -0.000823 -0.003527 0.001061 0.005235
# 3 -0.003035 -0.000823 0.014711 -0.005338 0.002233 -0.001276
# 4 -0.000643 -0.003527 -0.005338 0.026705 -0.002629 -0.001225
# 5 -0.001770 0.001061 0.002233 -0.002629 0.029261 -0.007162
# 6 0.001501 0.005235 -0.001276 -0.001225 -0.007162 0.029084
#
#
# Mechanical properties :
#
#
# Convention : Reuss Voigt Hill
#
# Bulk Modulus (GPa) = 33.71575 57.88597 45.80086
# Shear Modulus (GPa) = 31.52257 38.69543 35.10900
#
# Velocity S-wave (km/s) = 3.64229 4.03547 3.84391
# Velocity P-wave (km/s) = 5.64603 6.78784 6.24309
#
# Compressibility (1/GPa) = 0.02965973
#
# Stress axis : x y z
#
# Youngs Moduli (GPa) = 132.62816 40.95241 67.97424
#
# Poissons Ratio (x) = 0.19032 0.20632
# Poissons Ratio (y) = 0.61636 0.05591
# Poissons Ratio (z) = 0.40256 0.03368
#
# Static dielectric constant tensor:
#      x y z
#    x 1.942130 0.078560 0.007620 
#    y 0.078560 1.927420 -0.046870 
#    z 0.007620 -0.046870 1.950070 
# 
# From -- ./inp_files/382323.got.cif
#   From: 2010.05.17/outbox.cif.g08.bks.cpg/sg2_192_cif.got.tgz:382323.got - 2010.06.03 11:33:40.
