data_PCOD9086019
_publ_section_title
;
Structure prediction by ZEFSAII (Michael W. Deem and Ramdas Pophale) SiO2 
 PCOD9086019
Probable space group: P -1
;
_chemical_formula_sum "Si O2"
_cell_formula_units_Z 16
_cell_length_a 11.852727
_cell_length_b 8.153643
_cell_length_c 9.574178
_cell_angle_alpha 53.944080
_cell_angle_beta 60.605224
_cell_angle_gamma 76.729728
_cell_volume 649.413206
_symmetry_space_group_name_H-M "P -1"
_symmetry_group_IT_number 2
_symmetry_cell_setting 'triclinic'
loop_
_space_group_symop_operation_xyz
x,y,z
-x,-y,-z
loop_
_atom_site_type_symbol
_atom_site_label
_atom_site_fract_x
_atom_site_fract_y
_atom_site_fract_z
Si Si1 0.483005 0.973608 0.782642
Si Si2 0.102634 0.911048 0.800221
Si Si3 0.324329 0.893052 0.170374
Si Si4 0.189140 0.260657 0.958408
Si Si5 0.139738 0.520890 0.118548
Si Si6 0.379905 0.392439 0.210124
Si Si7 0.912720 0.196758 0.447241
Si Si8 0.701613 0.738221 0.398632
O O1 0.584766 0.841929 0.709755
O O2 0.565874 0.108574 0.778180
O O3 0.402462 0.103961 0.662754
O O4 0.381313 0.836715 0.013592
O O5 0.141898 0.833150 0.661953
O O6 0.174805 0.131491 0.672187
O O7 0.142729 0.761035 0.974367
O O8 0.945288 0.880949 0.913536
O O9 0.192668 0.802318 0.367455
O O10 0.289414 0.124776 0.042588
O O11 0.248638 0.343712 0.736245
O O12 0.158388 0.434427 0.995333
O O13 0.249312 0.440046 0.188866
O O14 0.003833 0.404467 0.302639
O O15 0.361750 0.421180 0.371921
O O16 0.500000 0.500000 0.000000
O O17 0.000000 0.000000 0.500000
#
# Coordination Sequence:
#
# PCOD9086019 Si02
#       8
#     2   2   2   2   2   2   2   2
#     4  10  21  40  62  90 126 165 215 257 309 377
#     4  11  22  39  64  98 131 168 207 261 324 382
#     4  10  19  35  67  95 120 162 215 265 304 374
#     4  10  20  40  66  97 128 161 212 265 314 377
#     4  11  23  41  65  94 133 166 213 264 312 383
#     4  12  25  44  63  91 129 170 212 261 320 383
#     4  11  18  35  65  97 124 165 213 257 318 372
#     4  11  24  41  68  91 126 171 213 260 327 375
#
# _framework density 24.637626000000001
#
# number of rings (size 3 to 8) (size 9 to 14) (size 15 to 20)
#    0.000    1.250    3.750    4.500    0.000    1.000 
#    4.500    1.250    0.000    0.000    0.000    0.000 
#    0.000    0.000    0.000    0.000    0.000    0.000 
#
# Total GULP energy -89547.529657 kJ/mol
# GULP energy per Si atom -5596.720604 kJ/mol
# Density = 2.458155 g / cm^3
# Si number density = 24.637626 Si / 1000 Ang^3
#
#
#
# Elastic Constant Matrix: (Units=GPa)
#
#
# Indices 1 2 3 4 5 6 
#
# 1 107.7211 7.9332 38.1652 2.9444 15.3809 -6.3597
# 2 7.9332 36.7686 16.5937 6.9402 -7.6572 -4.9498
# 3 38.1652 16.5937 201.7117 16.0086 2.3414 1.3435
# 4 2.9444 6.9402 16.0086 33.9372 -4.8360 -0.8860
# 5 15.3809 -7.6572 2.3414 -4.8360 34.5108 2.2821
# 6 -6.3597 -4.9498 1.3435 -0.8860 2.2821 30.4663
#
#
#
# Elastic Compliance Matrix: (Units=1/GPa)
#
#
# Indices 1 2 3 4 5 6 
#
# 1 0.011040 -0.002319 -0.001822 -0.000347 -0.005519 0.002411
# 2 -0.002319 0.031414 -0.001926 -0.004171 0.007283 0.004038
# 3 -0.001822 -0.001926 0.005642 -0.002169 -0.000237 -0.000987
# 4 -0.000347 -0.004171 -0.002169 0.031921 0.003851 -0.000015
# 5 -0.005519 0.007283 -0.000237 0.003851 0.033765 -0.002376
# 6 0.002411 0.004038 -0.000987 -0.000015 -0.002376 0.034204
#
#
# Mechanical properties :
#
#
# Convention : Reuss Voigt Hill
#
# Bulk Modulus (GPa) = 27.80709 52.39840 40.10275
# Shear Modulus (GPa) = 29.05174 38.68347 33.86760
#
# Velocity S-wave (km/s) = 3.43762 3.96674 3.71162
# Velocity P-wave (km/s) = 5.20262 6.50337 5.88902
#
# Compressibility (1/GPa) = 0.03596205
#
# Stress axis : x y z
#
# Youngs Moduli (GPa) = 90.58305 31.83278 177.23293
#
# Poissons Ratio (x) = 0.07381 0.32300
# Poissons Ratio (y) = 0.21003 0.34134
# Poissons Ratio (z) = 0.16508 0.06131
#
# Static dielectric constant tensor:
#      x y z
#    x 1.927920 -0.016200 -0.007370 
#    y -0.016200 2.016260 -0.041760 
#    z -0.007370 -0.041760 1.973410 
# 
# From -- ./inp_files/242456.got.cif
#   From: 2010.05.17/outbox.cif.g08.bks.cpg/sg2_122_cif.got.tgz:242456.got - 2010.06.03 11:33:40.
