data_PCOD9086446
_publ_section_title
;
Structure prediction by ZEFSAII (Michael W. Deem and Ramdas Pophale) SiO2 
 PCOD9086446
Probable space group: P -1
;
_chemical_formula_sum "Si O2"
_cell_formula_units_Z 16
_cell_length_a 10.677523
_cell_length_b 14.841166
_cell_length_c 14.562159
_cell_angle_alpha 152.384272
_cell_angle_beta 43.041329
_cell_angle_gamma 141.471760
_cell_volume 660.600598
_symmetry_space_group_name_H-M "P -1"
_symmetry_group_IT_number 2
_symmetry_cell_setting 'triclinic'
loop_
_space_group_symop_operation_xyz
x,y,z
-x,-y,-z
loop_
_atom_site_type_symbol
_atom_site_label
_atom_site_fract_x
_atom_site_fract_y
_atom_site_fract_z
Si Si1 0.686402 0.121833 0.115882
Si Si2 0.638879 0.254011 0.949319
Si Si3 0.339312 0.188259 0.774541
Si Si4 0.775940 0.742663 0.655577
Si Si5 0.351885 0.411365 0.140358
Si Si6 0.690025 0.482403 0.299114
Si Si7 0.012807 0.507423 0.374782
Si Si8 0.250798 0.799336 0.355122
O O1 0.675664 0.286058 0.194631
O O2 0.833446 0.272889 0.251371
O O3 0.470964 0.967491 0.135685
O O4 0.774186 0.966986 0.882527
O O5 0.756254 0.228947 0.775200
O O6 0.449380 0.302467 0.058925
O O7 0.762670 0.441875 0.124586
O O8 0.454971 0.396308 0.836853
O O9 0.516565 0.145397 0.691612
O O10 0.216990 0.992807 0.596044
O O11 0.239510 0.246313 0.968087
O O12 0.805966 0.695368 0.489416
O O13 0.543940 0.562293 0.631230
O O14 0.918416 0.679389 0.588120
O O15 0.194876 0.510101 0.342087
O O16 0.119721 0.581961 0.284034
#
# Coordination Sequence:
#
# PCOD9086446 Si02
#       8
#     2   2   2   2   2   2   2   2
#     4  10  21  39  61  80 113 154 188 236 283 328
#     4  10  19  36  58  86 111 147 194 237 271 324
#     4   8  16  34  55  77 113 160 188 214 273 343
#     4   9  18  36  59  81 102 155 193 222 279 339
#     4   9  18  33  55  86 119 146 183 229 278 340
#     4   9  19  39  62  77 111 150 199 234 270 337
#     4  10  21  35  58  85 120 149 179 227 292 341
#     4   9  18  34  58  83 109 150 195 227 270 337
#
# _framework density 24.220383999999999
#
# number of rings (size 3 to 8) (size 9 to 14) (size 15 to 20)
#    0.000    2.750    0.000    2.250    1.750    0.500 
#   13.500    5.000    0.000    3.750    0.000    0.000 
#    0.000    0.000    0.000    0.000    0.000    0.000 
#
# Total GULP energy -89287.835043 kJ/mol
# GULP energy per Si atom -5580.489690 kJ/mol
# Density = 2.416526 g / cm^3
# Si number density = 24.220384 Si / 1000 Ang^3
#
#
#
# Elastic Constant Matrix: (Units=GPa)
#
#
# Indices 1 2 3 4 5 6 
#
# 1 64.5254 22.7794 22.9453 -10.2671 -4.4140 -5.0207
# 2 22.7794 43.3125 31.0297 -3.8398 19.9022 -11.9525
# 3 22.9453 31.0297 145.8368 -2.7563 14.4275 -16.3926
# 4 -10.2671 -3.8398 -2.7563 28.0223 -2.1751 10.3272
# 5 -4.4140 19.9022 14.4275 -2.1751 51.6000 -8.0989
# 6 -5.0207 -11.9525 -16.3926 10.3272 -8.0989 31.6557
#
#
#
# Elastic Compliance Matrix: (Units=1/GPa)
#
#
# Indices 1 2 3 4 5 6 
#
# 1 0.022777 -0.014763 -0.001441 0.008011 0.007864 -0.003309
# 2 -0.014763 0.043254 -0.004399 -0.004517 -0.015458 0.009231
# 3 -0.001441 -0.004399 0.008344 -0.001364 -0.000381 0.002779
# 4 0.008011 -0.004517 -0.001364 0.043477 0.002330 -0.014729
# 5 0.007864 -0.015458 -0.000381 0.002330 0.026409 0.001210
# 6 -0.003309 0.009231 0.002779 -0.014729 0.001210 0.041104
#
#
# Mechanical properties :
#
#
# Convention : Reuss Voigt Hill
#
# Bulk Modulus (GPa) = 30.14936 45.24262 37.69599
# Shear Modulus (GPa) = 21.04134 34.05028 27.54581
#
# Velocity S-wave (km/s) = 2.95065 3.75354 3.37604
# Velocity P-wave (km/s) = 4.90748 6.12417 5.54927
#
# Compressibility (1/GPa) = 0.03316819
#
# Stress axis : x y z
#
# Youngs Moduli (GPa) = 43.90352 23.11944 119.84811
#
# Poissons Ratio (x) = 0.34132 0.17270
# Poissons Ratio (y) = 0.64817 0.52719
# Poissons Ratio (z) = 0.06327 0.10170
#
# Static dielectric constant tensor:
#      x y z
#    x 1.982390 0.043830 0.013860 
#    y 0.043830 1.966630 -0.067910 
#    z 0.013860 -0.067910 2.032780 
# 
# From -- ./inp_files/521890.got.cif
#   From: 2010.05.17/outbox.cif.g08.bks.cpg/sg2_261_cif.got.tgz:521890.got - 2010.06.03 11:33:40.
