data_PCOD9086233
_publ_section_title
;
Structure prediction by ZEFSAII (Michael W. Deem and Ramdas Pophale) SiO2 
 PCOD9086233
Probable space group: P -1
;
_chemical_formula_sum "Si O2"
_cell_formula_units_Z 14
_cell_length_a 19.488719
_cell_length_b 17.088462
_cell_length_c 5.189952
_cell_angle_alpha 112.515116
_cell_angle_beta 114.671541
_cell_angle_gamma 22.563545
_cell_volume 602.652252
_symmetry_space_group_name_H-M "P -1"
_symmetry_group_IT_number 2
_symmetry_cell_setting 'triclinic'
loop_
_space_group_symop_operation_xyz
x,y,z
-x,-y,-z
loop_
_atom_site_type_symbol
_atom_site_label
_atom_site_fract_x
_atom_site_fract_y
_atom_site_fract_z
Si Si1 0.433611 0.974557 0.410945
Si Si2 0.163846 0.748452 0.682500
Si Si3 0.240410 0.768663 0.315970
Si Si4 0.061336 0.345642 0.504207
Si Si5 0.119662 0.206311 0.922201
Si Si6 0.601978 0.636114 0.312532
Si Si7 0.610228 0.206879 0.321866
O O1 0.281437 0.126982 0.586045
O O2 0.500000 0.000000 0.500000
O O3 0.594267 0.744899 0.422520
O O4 0.306213 0.068484 0.101078
O O5 0.216243 0.725097 0.449973
O O6 0.215516 0.598685 0.623428
O O7 0.273821 0.691065 0.995819
O O8 0.955293 0.984448 0.699401
O O9 0.371770 0.710589 0.527954
O O10 0.008840 0.366433 0.727741
O O11 0.000000 0.500000 0.500000
O O12 0.019963 0.318564 0.182276
O O13 0.198345 0.034635 0.752947
O O14 0.459452 0.755128 0.463823
O O15 0.526262 0.679754 0.976830
#
# Coordination Sequence:
#
# PCOD9086233 Si02
#       7
#     2   2   2   2   2   2   2
#     4   9  21  38  58  81 114 152 186 235 288 332
#     4  10  22  40  57  87 120 149 189 235 291 334
#     4  10  22  39  62  82 120 155 185 235 285 350
#     4  10  19  36  57  79 109 149 182 237 279 331
#     4   9  19  36  56  79 115 142 184 236 274 329
#     4  11  22  38  59  86 118 147 195 244 276 341
#     4  11  20  38  61  84 114 153 189 232 288 330
#
# _framework density 23.230644999999999
#
# number of rings (size 3 to 8) (size 9 to 14) (size 15 to 20)
#    0.857    1.143    1.429    2.143    0.000    4.000 
#    2.571    0.000    0.000    0.000    0.000    0.000 
#    0.000    0.000    0.000    0.000    0.000    0.000 
#
# Total GULP energy -78173.083553 kJ/mol
# GULP energy per Si atom -5583.791682 kJ/mol
# Density = 2.317777 g / cm^3
# Si number density = 23.230645 Si / 1000 Ang^3
#
#
#
# Elastic Constant Matrix: (Units=GPa)
#
#
# Indices 1 2 3 4 5 6 
#
# 1 51.7990 17.6288 18.0716 -2.9535 13.6897 28.6393
# 2 17.6288 117.7956 6.6481 1.8239 10.4953 35.8547
# 3 18.0716 6.6481 69.9474 2.8095 -12.8761 9.4443
# 4 -2.9535 1.8239 2.8095 25.8670 6.3496 0.1500
# 5 13.6897 10.4953 -12.8761 6.3496 31.0524 1.1190
# 6 28.6393 35.8547 9.4443 0.1500 1.1190 43.6656
#
#
#
# Elastic Compliance Matrix: (Units=1/GPa)
#
#
# Indices 1 2 3 4 5 6 
#
# 1 0.052013 0.006626 -0.016167 0.015734 -0.033821 -0.035246
# 2 0.006626 0.012575 -0.002635 0.002256 -0.008224 -0.013898
# 3 -0.016167 -0.002635 0.021408 -0.008538 0.018363 0.007696
# 4 0.015734 0.002256 -0.008538 0.046275 -0.020342 -0.009963
# 5 -0.033821 -0.008224 0.018363 -0.020342 0.060822 0.023475
# 6 -0.035246 -0.013898 0.007696 -0.009963 0.023475 0.055199
#
#
# Mechanical properties :
#
#
# Convention : Reuss Voigt Hill
#
# Bulk Modulus (GPa) = 16.22204 36.02656 26.12430
# Shear Modulus (GPa) = 17.05374 33.26325 25.15849
#
# Velocity S-wave (km/s) = 2.71238 3.78811 3.29445
# Velocity P-wave (km/s) = 4.09970 5.88854 5.07358
#
# Compressibility (1/GPa) = 0.06164455
#
# Stress axis : x y z
#
# Youngs Moduli (GPa) = 19.22586 79.52559 46.71157
#
# Poissons Ratio (x) = -0.52696 0.75518
# Poissons Ratio (y) = -0.12740 0.12309
# Poissons Ratio (z) = 0.31082 0.20956
#
# Static dielectric constant tensor:
#      x y z
#    x 1.523140 0.043540 0.199620 
#    y 0.043540 1.922950 -0.016750 
#    z 0.199620 -0.016750 1.781940 
# 
# From -- ./inp_files/110986.got.cif
#   From: 2010.05.17/outbox.cif.g08.bks.cpg/sg2_56_cif.got.tgz:110986.got - 2010.06.03 11:33:40.
