data_PCOD9086309
_publ_section_title
;
Structure prediction by ZEFSAII (Michael W. Deem and Ramdas Pophale) SiO2 
 PCOD9086309
Probable space group: P -1
;
_chemical_formula_sum "Si O2"
_cell_formula_units_Z 16
_cell_length_a 19.439572
_cell_length_b 7.935643
_cell_length_c 16.445185
_cell_angle_alpha 55.954659
_cell_angle_beta 158.315200
_cell_angle_gamma 111.694638
_cell_volume 676.301683
_symmetry_space_group_name_H-M "P -1"
_symmetry_group_IT_number 2
_symmetry_cell_setting 'triclinic'
loop_
_space_group_symop_operation_xyz
x,y,z
-x,-y,-z
loop_
_atom_site_type_symbol
_atom_site_label
_atom_site_fract_x
_atom_site_fract_y
_atom_site_fract_z
Si Si1 0.500665 0.400251 0.747720
Si Si2 0.442989 0.297151 0.984329
Si Si3 0.820673 0.467636 0.517891
Si Si4 0.336950 0.906816 0.366588
Si Si5 0.087217 0.070442 0.377701
Si Si6 0.936468 0.969433 0.809191
Si Si7 0.099088 0.648599 0.735393
Si Si8 0.166684 0.123614 0.779140
O O1 0.272277 0.447114 0.517098
O O2 0.459408 0.625441 0.589499
O O3 0.659583 0.402247 0.992396
O O4 0.632935 0.139888 0.928457
O O5 0.661418 0.061133 0.297904
O O6 0.500000 0.500000 0.000000
O O7 0.341493 0.331442 0.774502
O O8 0.264886 0.296145 0.848884
O O9 0.804364 0.234550 0.559598
O O10 0.048570 0.437852 0.751192
O O11 0.203547 0.034872 0.267879
O O12 0.500000 0.000000 0.500000
O O13 0.154018 0.949443 0.088610
O O14 0.029207 0.179767 0.194244
O O15 0.999282 0.884246 0.339126
O O16 0.981049 0.226664 0.298244
O O17 0.957772 0.807629 0.462805
#
# Coordination Sequence:
#
# PCOD9086309 Si02
#       8
#     2   2   2   2   2   2   2   2
#     4  10  19  36  61  83 108 155 203 236 286 356
#     4  11  21  35  54  89 124 156 192 230 288 347
#     4  10  19  36  57  85 119 157 193 234 288 355
#     4  10  22  41  64  83 113 153 200 249 303 356
#     4  11  21  37  57  89 125 150 194 249 285 343
#     4  10  22  39  59  89 117 146 197 253 299 340
#     4  10  20  36  60  86 123 162 193 226 286 353
#     4  10  22  37  58  87 125 165 192 231 287 351
#
# _framework density 23.658083999999999
#
# number of rings (size 3 to 8) (size 9 to 14) (size 15 to 20)
#    0.000    1.750    1.250    4.500    0.000    3.500 
#    2.250    2.500    0.000   21.000    0.000    0.000 
#    0.000    0.000    0.000    0.000    0.000    0.000 
#
# Total GULP energy -89269.541165 kJ/mol
# GULP energy per Si atom -5579.346323 kJ/mol
# Density = 2.360424 g / cm^3
# Si number density = 23.658084 Si / 1000 Ang^3
#
#
#
# Elastic Constant Matrix: (Units=GPa)
#
#
# Indices 1 2 3 4 5 6 
#
# 1 112.1517 16.9209 33.2723 7.1648 -0.6865 9.9937
# 2 16.9209 84.6477 14.9163 9.0794 3.6715 24.4300
# 3 33.2723 14.9163 82.2621 -0.4003 5.2917 14.3513
# 4 7.1648 9.0794 -0.4003 29.3438 11.8333 9.0723
# 5 -0.6865 3.6715 5.2917 11.8333 31.6787 11.8143
# 6 9.9937 24.4300 14.3513 9.0723 11.8143 40.8595
#
#
#
# Elastic Compliance Matrix: (Units=1/GPa)
#
#
# Indices 1 2 3 4 5 6 
#
# 1 0.010566 -0.000993 -0.004172 -0.003139 0.002409 -0.000525
# 2 -0.000993 0.014796 -0.001000 -0.002808 0.002606 -0.008382
# 3 -0.004172 -0.001000 0.014846 0.003660 -0.002440 -0.003703
# 4 -0.003139 -0.002808 0.003660 0.043038 -0.014907 -0.004084
# 5 0.002409 0.002606 -0.002440 -0.014907 0.040957 -0.009823
# 6 -0.000525 -0.008382 -0.003703 -0.004084 -0.009823 0.034662
#
#
# Mechanical properties :
#
#
# Convention : Reuss Voigt Hill
#
# Bulk Modulus (GPa) = 35.87236 45.47560 40.67398
# Shear Modulus (GPa) = 27.70266 34.63988 31.17127
#
# Velocity S-wave (km/s) = 3.42564 3.83062 3.63378
# Velocity P-wave (km/s) = 5.55360 6.23126 5.90216
#
# Compressibility (1/GPa) = 0.02787661
#
# Stress axis : x y z
#
# Youngs Moduli (GPa) = 94.64153 67.58663 67.35840
#
# Poissons Ratio (x) = 0.06714 0.28104
# Poissons Ratio (y) = 0.09401 0.06736
# Poissons Ratio (z) = 0.39487 0.06759
#
# Static dielectric constant tensor:
#      x y z
#    x 1.957340 -0.049060 0.010990 
#    y -0.049060 2.046810 0.008320 
#    z 0.010990 0.008320 1.915660 
# 
# From -- ./inp_files/577262.got.cif
#   From: 2010.05.17/outbox.cif.g08.bks.cpg/sg2_289_cif.got.tgz:577262.got - 2010.06.03 11:33:40.
