data_PCOD9086299
_publ_section_title
;
Structure prediction by ZEFSAII (Michael W. Deem and Ramdas Pophale) SiO2 
 PCOD9086299
Probable space group: P -1
;
_chemical_formula_sum "Si O2"
_cell_formula_units_Z 14
_cell_length_a 13.236291
_cell_length_b 9.758238
_cell_length_c 11.469173
_cell_angle_alpha 68.952510
_cell_angle_beta 94.322353
_cell_angle_gamma 147.008133
_cell_volume 674.391047
_symmetry_space_group_name_H-M "P -1"
_symmetry_group_IT_number 2
_symmetry_cell_setting 'triclinic'
loop_
_space_group_symop_operation_xyz
x,y,z
-x,-y,-z
loop_
_atom_site_type_symbol
_atom_site_label
_atom_site_fract_x
_atom_site_fract_y
_atom_site_fract_z
Si Si1 0.689183 0.833979 0.459050
Si Si2 0.863574 0.234272 0.794953
Si Si3 0.861377 0.682823 0.728096
Si Si4 0.326068 0.852487 0.721885
Si Si5 0.179086 0.034641 0.314600
Si Si6 0.771340 0.401791 0.584619
Si Si7 0.791413 0.306567 0.987793
O O1 0.500000 0.500000 0.500000
O O2 0.692590 0.998583 0.352483
O O3 0.695900 0.857190 0.592547
O O4 0.899272 0.019114 0.381415
O O5 0.763398 0.973690 0.796644
O O6 0.862526 0.372965 0.665096
O O7 0.740582 0.132119 0.930568
O O8 0.103868 0.507494 0.767824
O O9 0.747651 0.495143 0.655343
O O10 0.826405 0.508008 0.870056
O O11 0.807425 0.773327 0.743955
O O12 0.543604 0.077193 0.617181
O O13 0.349547 0.856479 0.861648
O O14 0.942608 0.681474 0.427130
O O15 0.000000 0.500000 0.000000
#
# Coordination Sequence:
#
# PCOD9086299 Si02
#       7
#     2   2   2   2   2   2   2
#     4  11  20  35  59  86 116 149 194 239 284 346
#     4  10  21  38  57  88 120 155 180 248 286 336
#     4  10  19  36  57  84 114 154 190 240 281 338
#     4  11  20  37  64  87 108 157 201 230 279 345
#     4  11  21  37  56  89 126 144 185 243 303 332
#     4  10  20  36  60  86 117 149 194 232 288 351
#     4   9  18  39  62  81 112 154 204 230 274 343
#
# _framework density 20.759467999999998
#
# number of rings (size 3 to 8) (size 9 to 14) (size 15 to 20)
#    0.000    1.714    5.714    3.857    0.000    2.857 
#    2.571    2.857    0.000    4.286    0.000    0.000 
#    0.000    0.000    0.000    0.000    0.000    0.000 
#
# Total GULP energy -78161.039228 kJ/mol
# GULP energy per Si atom -5582.931373 kJ/mol
# Density = 2.071222 g / cm^3
# Si number density = 20.759468 Si / 1000 Ang^3
#
#
#
# Elastic Constant Matrix: (Units=GPa)
#
#
# Indices 1 2 3 4 5 6 
#
# 1 53.8155 22.5135 13.6364 22.0233 11.2080 -15.2427
# 2 22.5135 101.0330 35.5183 19.1432 -15.7160 -6.1629
# 3 13.6364 35.5183 61.7748 26.3110 11.2950 -11.3997
# 4 22.0233 19.1432 26.3110 26.6165 3.9834 -18.9338
# 5 11.2080 -15.7160 11.2950 3.9834 17.6402 -2.2261
# 6 -15.2427 -6.1629 -11.3997 -18.9338 -2.2261 37.1205
#
#
#
# Elastic Compliance Matrix: (Units=1/GPa)
#
#
# Indices 1 2 3 4 5 6 
#
# 1 0.063149 -0.031125 0.046672 -0.066117 -0.083263 -0.003621
# 2 -0.031125 0.036146 -0.038150 0.026342 0.070352 -0.000840
# 3 0.046672 -0.038150 0.078325 -0.081646 -0.096689 -0.010558
# 4 -0.066117 0.026342 -0.081646 0.174194 0.084230 0.046052
# 5 -0.083263 0.070352 -0.096689 0.084230 0.215624 0.003690
# 6 -0.003621 -0.000840 -0.010558 0.046052 0.003690 0.045781
#
#
# Mechanical properties :
#
#
# Convention : Reuss Voigt Hill
#
# Bulk Modulus (GPa) = 7.55198 39.99552 23.77375
# Shear Modulus (GPa) = 7.11680 25.93911 16.52795
#
# Velocity S-wave (km/s) = 1.85355 3.53867 2.82470
# Velocity P-wave (km/s) = 2.86821 6.00035 4.70271
#
# Compressibility (1/GPa) = 0.13241552
#
# Stress axis : x y z
#
# Youngs Moduli (GPa) = 15.83544 27.66553 12.76731
#
# Poissons Ratio (x) = 0.86108 -0.59588
# Poissons Ratio (y) = 0.49287 0.48707
# Poissons Ratio (z) = -0.73907 1.05544
#
# Static dielectric constant tensor:
#      x y z
#    x 1.748110 0.021820 -0.035700 
#    y 0.021820 1.783860 0.015990 
#    z -0.035700 0.015990 1.764170 
# 
# From -- ./inp_files/331528.got.cif
#   From: 2010.05.17/outbox.cif.g08.bks.cpg/sg2_166_cif.got.tgz:331528.got - 2010.06.03 11:33:40.
