data_PCOD9086374
_publ_section_title
;
Structure prediction by ZEFSAII (Michael W. Deem and Ramdas Pophale) SiO2 
 PCOD9086374
Probable space group: P -1
;
_chemical_formula_sum "Si O2"
_cell_formula_units_Z 16
_cell_length_a 16.723378
_cell_length_b 5.247093
_cell_length_c 14.448800
_cell_angle_alpha 65.677612
_cell_angle_beta 37.722708
_cell_angle_gamma 59.117913
_cell_volume 665.712872
_symmetry_space_group_name_H-M "P -1"
_symmetry_group_IT_number 2
_symmetry_cell_setting 'triclinic'
loop_
_space_group_symop_operation_xyz
x,y,z
-x,-y,-z
loop_
_atom_site_type_symbol
_atom_site_label
_atom_site_fract_x
_atom_site_fract_y
_atom_site_fract_z
Si Si1 0.903594 0.651212 0.682584
Si Si2 0.677564 0.601923 0.224465
Si Si3 0.826411 0.341065 0.626556
Si Si4 0.662918 0.690121 0.029735
Si Si5 0.510555 0.668987 0.821149
Si Si6 0.159687 0.952772 0.746145
Si Si7 0.093797 0.158138 0.985356
Si Si8 0.570406 0.944007 0.546327
O O1 0.877160 0.423176 0.667215
O O2 0.068696 0.576815 0.552493
O O3 0.850379 0.992811 0.643430
O O4 0.808487 0.669377 0.855370
O O5 0.696038 0.483087 0.121673
O O6 0.742479 0.390043 0.282393
O O7 0.516069 0.749698 0.369218
O O8 0.764266 0.828988 0.104838
O O9 0.665474 0.526431 0.738698
O O10 0.575125 0.556697 0.061772
O O11 0.571175 0.021696 0.097955
O O12 0.536249 0.717475 0.681001
O O13 0.008212 0.975483 0.843840
O O14 0.266109 0.112502 0.593792
O O15 0.127930 0.029610 0.871198
O O16 0.000000 0.500000 0.000000
O O17 0.500000 0.000000 0.500000
#
# Coordination Sequence:
#
# PCOD9086374 Si02
#       8
#     2   2   2   2   2   2   2   2
#     4  10  22  43  71  94 126 169 201 258 322 389
#     4  10  21  37  58  83 121 158 208 263 300 374
#     4  10  22  44  67  97 130 159 211 255 318 382
#     4  11  24  41  63  96 128 165 210 254 320 369
#     4  11  25  42  62  96 132 162 214 268 301 380
#     4  10  19  36  58  79 115 160 210 257 308 360
#     4   9  19  36  53  81 111 153 204 266 303 361
#     4  11  21  38  60  86 120 170 208 251 314 358
#
# _framework density 24.034383999999999
#
# number of rings (size 3 to 8) (size 9 to 14) (size 15 to 20)
#    0.000    1.750    1.250    2.625    1.750    4.000 
#    6.750    2.500    0.000    0.000    0.000    0.000 
#    0.000    0.000    0.000    0.000    0.000    0.000 
#
# Total GULP energy -89256.274509 kJ/mol
# GULP energy per Si atom -5578.517157 kJ/mol
# Density = 2.397968 g / cm^3
# Si number density = 24.034384 Si / 1000 Ang^3
#
#
#
# Elastic Constant Matrix: (Units=GPa)
#
#
# Indices 1 2 3 4 5 6 
#
# 1 43.0614 18.7099 15.3759 -4.3894 -13.2778 6.0409
# 2 18.7099 69.2500 15.9496 11.6359 -11.0580 18.1158
# 3 15.3759 15.9496 157.7724 -9.2086 -13.0520 8.0930
# 4 -4.3894 11.6359 -9.2086 32.6325 4.9489 -9.6070
# 5 -13.2778 -11.0580 -13.0520 4.9489 31.3727 -2.1030
# 6 6.0409 18.1158 8.0930 -9.6070 -2.1030 28.8350
#
#
#
# Elastic Compliance Matrix: (Units=1/GPa)
#
#
# Indices 1 2 3 4 5 6 
#
# 1 0.030076 -0.007767 -0.001171 0.005575 0.008718 0.001401
# 2 -0.007767 0.026023 -0.001326 -0.017524 0.006778 -0.019694
# 3 -0.001171 -0.001326 0.006835 0.001988 0.001563 -0.000064
# 4 0.005575 -0.017524 0.001988 0.046648 -0.008727 0.024189
# 5 0.008718 0.006778 0.001563 -0.008727 0.039542 -0.006547
# 6 0.001401 -0.019694 -0.000064 0.024189 -0.006547 0.054359
#
#
# Mechanical properties :
#
#
# Convention : Reuss Voigt Hill
#
# Bulk Modulus (GPa) = 23.58160 41.12830 32.35495
# Shear Modulus (GPa) = 20.99559 33.23793 27.11676
#
# Velocity S-wave (km/s) = 2.95882 3.72281 3.36259
# Velocity P-wave (km/s) = 4.63743 5.96897 5.34482
#
# Compressibility (1/GPa) = 0.04240594
#
# Stress axis : x y z
#
# Youngs Moduli (GPa) = 33.24956 38.42767 146.30610
#
# Poissons Ratio (x) = 0.29847 0.17134
# Poissons Ratio (y) = 0.25825 0.19395
# Poissons Ratio (z) = 0.03894 0.05094
#
# Static dielectric constant tensor:
#      x y z
#    x 1.935960 -0.012030 -0.028390 
#    y -0.012030 2.111080 -0.005130 
#    z -0.028390 -0.005130 1.954640 
# 
# From -- ./inp_files/53820.got.cif
#   From: 2010.05.17/outbox.cif.g08.bks.cpg/sg2_27_cif.got.tgz:53820.got - 2010.06.03 11:33:40.
