data_PCOD9086832
_publ_section_title
;
Structure prediction by ZEFSAII (Michael W. Deem and Ramdas Pophale) SiO2 
 PCOD9086832
Probable space group: P -1
;
_chemical_formula_sum "Si O2"
_cell_formula_units_Z 16
_cell_length_a 8.445581
_cell_length_b 8.228278
_cell_length_c 16.821438
_cell_angle_alpha 134.449256
_cell_angle_beta 118.836915
_cell_angle_gamma 91.269273
_cell_volume 597.805231
_symmetry_space_group_name_H-M "P -1"
_symmetry_group_IT_number 2
_symmetry_cell_setting 'triclinic'
loop_
_space_group_symop_operation_xyz
x,y,z
-x,-y,-z
loop_
_atom_site_type_symbol
_atom_site_label
_atom_site_fract_x
_atom_site_fract_y
_atom_site_fract_z
Si Si1 0.809979 0.714527 0.554479
Si Si2 0.393557 0.436516 0.138903
Si Si3 0.207156 0.207276 0.749969
Si Si4 0.886048 0.980875 0.834279
Si Si5 0.002381 0.556068 0.305883
Si Si6 0.663106 0.254528 0.247956
Si Si7 0.383244 0.607596 0.351692
Si Si8 0.744188 0.301584 0.001772
O O1 0.705929 0.401926 0.393880
O O2 0.638126 0.762986 0.487140
O O3 0.813851 0.812010 0.677046
O O4 0.052789 0.897958 0.637557
O O5 0.552492 0.641185 0.177556
O O6 0.360826 0.617259 0.255710
O O7 0.150897 0.172320 0.968872
O O8 0.528665 0.333505 0.183688
O O9 0.212584 0.398868 0.887704
O O10 0.932011 0.762518 0.342315
O O11 0.754937 0.725990 0.777627
O O12 0.810013 0.183294 0.906080
O O13 0.889736 0.385451 0.299878
O O14 0.889656 0.345976 0.130877
O O15 0.259456 0.699904 0.407549
O O16 0.507176 0.926567 0.110632
#
# Coordination Sequence:
#
# PCOD9086832 Si02
#       8
#     2   2   2   2   2   2   2   2
#     4  11  25  41  55  89 131 164 184 235 312 369
#     4  10  19  36  65  88 113 154 205 252 278 350
#     4   9  23  39  59  91 120 159 194 247 299 350
#     4  12  22  37  63  90 123 154 204 243 292 356
#     4   9  20  36  62  92 114 146 210 252 288 336
#     4  10  20  36  65  88 119 151 199 252 294 344
#     4  11  21  36  64  93 114 155 201 251 300 334
#     4  10  19  36  60  90 113 151 202 246 286 339
#
# _framework density 26.764569999999999
#
# number of rings (size 3 to 8) (size 9 to 14) (size 15 to 20)
#    0.750    1.000    3.750    1.875    1.750    6.000 
#    0.000    3.125    0.000    0.000    0.000    0.000 
#    0.000    0.000    0.000    0.000    0.000    0.000 
#
# Total GULP energy -89520.808540 kJ/mol
# GULP energy per Si atom -5595.050534 kJ/mol
# Density = 2.670365 g / cm^3
# Si number density = 26.764570 Si / 1000 Ang^3
#
#
#
# Elastic Constant Matrix: (Units=GPa)
#
#
# Indices 1 2 3 4 5 6 
#
# 1 125.8279 19.4120 31.6671 -5.9394 10.9748 14.1246
# 2 19.4120 60.0697 28.5994 -0.0131 0.0367 19.0661
# 3 31.6671 28.5994 129.4541 -11.0224 -1.3996 6.6877
# 4 -5.9394 -0.0131 -11.0224 38.5232 9.1870 1.8178
# 5 10.9748 0.0367 -1.3996 9.1870 36.8963 -2.9204
# 6 14.1246 19.0661 6.6877 1.8178 -2.9204 21.4467
#
#
#
# Elastic Compliance Matrix: (Units=1/GPa)
#
#
# Indices 1 2 3 4 5 6 
#
# 1 0.009597 -0.000241 -0.001827 0.002199 -0.003967 -0.006263
# 2 -0.000241 0.025722 -0.004518 0.000142 -0.001868 -0.021566
# 3 -0.001827 -0.004518 0.009241 0.002126 0.000546 0.002232
# 4 0.002199 0.000142 0.002126 0.029160 -0.008296 -0.005838
# 5 -0.003967 -0.001868 0.000546 -0.008296 0.031087 0.009039
# 6 -0.006263 -0.021566 0.002232 -0.005838 0.009039 0.070954
#
#
# Mechanical properties :
#
#
# Convention : Reuss Voigt Hill
#
# Bulk Modulus (GPa) = 31.85686 52.74540 42.30113
# Shear Modulus (GPa) = 25.07586 35.08476 30.08031
#
# Velocity S-wave (km/s) = 3.06421 3.62452 3.35608
# Velocity P-wave (km/s) = 4.94446 6.10460 5.55490
#
# Compressibility (1/GPa) = 0.03139042
#
# Stress axis : x y z
#
# Youngs Moduli (GPa) = 104.19851 38.87671 108.21085
#
# Poissons Ratio (x) = 0.00936 0.19765
# Poissons Ratio (y) = 0.02509 0.48887
# Poissons Ratio (z) = 0.19032 0.17563
#
# Static dielectric constant tensor:
#      x y z
#    x 2.126090 -0.078460 -0.034300 
#    y -0.078460 2.155470 -0.041230 
#    z -0.034300 -0.041230 2.003870 
# 
# From -- ./inp_files/589230.got.cif
#   From: 2010.05.17/outbox.cif.g08.bks.cpg/sg2_295_cif.got.tgz:589230.got - 2010.06.03 11:33:40.
