data_PCOD9086160
_publ_section_title
;
Structure prediction by ZEFSAII (Michael W. Deem and Ramdas Pophale) SiO2 
 PCOD9086160
Probable space group: P -1
;
_chemical_formula_sum "Si O2"
_cell_formula_units_Z 12
_cell_length_a 20.655906
_cell_length_b 8.595670
_cell_length_c 7.014118
_cell_angle_alpha 120.339638
_cell_angle_beta 127.282521
_cell_angle_gamma 28.404736
_cell_volume 470.097842
_symmetry_space_group_name_H-M "P -1"
_symmetry_group_IT_number 2
_symmetry_cell_setting 'triclinic'
loop_
_space_group_symop_operation_xyz
x,y,z
-x,-y,-z
loop_
_atom_site_type_symbol
_atom_site_label
_atom_site_fract_x
_atom_site_fract_y
_atom_site_fract_z
Si Si1 0.249325 0.620190 0.006226
Si Si2 0.584358 0.435802 0.933935
Si Si3 0.951727 0.291564 0.773380
Si Si4 0.112580 0.272651 0.805765
Si Si5 0.704632 0.170537 0.476637
Si Si6 0.332344 0.363353 0.395132
O O1 0.366696 0.446632 0.942454
O O2 0.259117 0.800250 0.241615
O O3 0.291056 0.412625 0.125837
O O4 0.083821 0.905389 0.809899
O O5 0.446633 0.660613 0.680770
O O6 0.500000 0.500000 0.000000
O O7 0.739745 0.041164 0.997546
O O8 0.789520 0.508820 0.615859
O O9 0.000274 0.323170 0.701216
O O10 0.947652 0.429906 0.036420
O O11 0.167309 0.167798 0.620585
O O12 0.683186 0.394144 0.454437
O O13 0.500000 0.000000 0.500000
#
# Coordination Sequence:
#
# PCOD9086160 Si02
#       6
#     2   2   2   2   2   2
#     4   9  20  33  57  83 108 146 183 226 273 323
#     4   9  16  33  56  82 109 140 181 228 272 323
#     4  10  19  36  56  79 111 148 183 224 274 329
#     4   9  19  33  56  80 108 149 184 220 275 325
#     4   9  19  32  55  84 110 140 182 231 269 321
#     4  10  21  35  56  80 111 150 183 225 275 323
#
# _framework density 25.526598
#
# number of rings (size 3 to 8) (size 9 to 14) (size 15 to 20)
#    1.000    1.667    0.000    2.000    0.000    1.333 
#    0.000    0.000    0.000   13.000    0.000    0.000 
#    0.000    0.000    0.000    0.000    0.000    0.000 
#
# Total GULP energy -66874.230706 kJ/mol
# GULP energy per Si atom -5572.852559 kJ/mol
# Density = 2.546850 g / cm^3
# Si number density = 25.526598 Si / 1000 Ang^3
#
#
#
# Elastic Constant Matrix: (Units=GPa)
#
#
# Indices 1 2 3 4 5 6 
#
# 1 129.0222 42.7431 28.4113 -26.8801 15.2145 -41.4631
# 2 42.7431 84.1863 13.4456 -24.6790 16.2471 -23.4942
# 3 28.4113 13.4456 62.2701 -10.1240 10.7974 -14.4796
# 4 -26.8801 -24.6790 -10.1240 43.6567 -14.2996 9.2632
# 5 15.2145 16.2471 10.7974 -14.2996 57.4535 -11.0566
# 6 -41.4631 -23.4942 -14.4796 9.2632 -11.0566 34.5004
#
#
#
# Elastic Compliance Matrix: (Units=1/GPa)
#
#
# Indices 1 2 3 4 5 6 
#
# 1 0.014150 -0.001795 -0.002263 0.004543 0.000998 0.013934
# 2 -0.001795 0.016972 0.000140 0.006544 -0.001321 0.007279
# 3 -0.002263 0.000140 0.018591 0.001533 -0.001743 0.004208
# 4 0.004543 0.006544 0.001533 0.030564 0.005028 0.003966
# 5 0.000998 -0.001321 -0.001743 0.005028 0.019983 0.004623
# 6 0.013934 0.007279 0.004208 0.003966 0.004623 0.052871
#
#
# Mechanical properties :
#
#
# Convention : Reuss Voigt Hill
#
# Bulk Modulus (GPa) = 23.87928 49.40875 36.64401
# Shear Modulus (GPa) = 28.58329 39.84734 34.21532
#
# Velocity S-wave (km/s) = 3.34989 3.95525 3.66509
# Velocity P-wave (km/s) = 4.93329 6.34480 5.68304
#
# Compressibility (1/GPa) = 0.04187731
#
# Stress axis : x y z
#
# Youngs Moduli (GPa) = 70.66965 58.92008 53.78851
#
# Poissons Ratio (x) = 0.10577 0.12172
# Poissons Ratio (y) = 0.12686 -0.00752
# Poissons Ratio (z) = 0.15992 -0.00824
#
# Static dielectric constant tensor:
#      x y z
#    x 2.084660 -0.094730 -0.100770 
#    y -0.094730 2.062530 0.053080 
#    z -0.100770 0.053080 2.240930 
# 
# From -- ./inp_files/238587.got.cif
#   From: 2010.05.17/outbox.cif.g08.bks.cpg/sg2_120_cif.got.tgz:238587.got - 2010.06.03 11:33:40.
