data_PCOD9086346
_publ_section_title
;
Structure prediction by ZEFSAII (Michael W. Deem and Ramdas Pophale) SiO2 
 PCOD9086346
Probable space group: P -1
;
_chemical_formula_sum "Si O2"
_cell_formula_units_Z 16
_cell_length_a 11.667423
_cell_length_b 10.759686
_cell_length_c 13.671300
_cell_angle_alpha 99.263908
_cell_angle_beta 106.949506
_cell_angle_gamma 26.747029
_cell_volume 718.911213
_symmetry_space_group_name_H-M "P -1"
_symmetry_group_IT_number 2
_symmetry_cell_setting 'triclinic'
loop_
_space_group_symop_operation_xyz
x,y,z
-x,-y,-z
loop_
_atom_site_type_symbol
_atom_site_label
_atom_site_fract_x
_atom_site_fract_y
_atom_site_fract_z
Si Si1 0.937209 0.212951 0.013644
Si Si2 0.161194 0.681109 0.310897
Si Si3 0.392133 0.157576 0.596165
Si Si4 0.208668 0.031764 0.245892
Si Si5 0.930791 0.963135 0.583385
Si Si6 0.449544 0.531315 0.745842
Si Si7 0.685007 0.152512 0.114472
Si Si8 0.992720 0.322200 0.560390
O O1 0.366112 0.459711 0.050655
O O2 0.992549 0.231297 0.131724
O O3 0.155540 0.045931 0.964795
O O4 0.000000 0.000000 0.000000
O O5 0.357505 0.537253 0.252863
O O6 0.195098 0.535863 0.376694
O O7 0.179201 0.794228 0.392553
O O8 0.864216 0.930092 0.221941
O O9 0.626165 0.996298 0.699564
O O10 0.193722 0.455387 0.547277
O O11 0.210803 0.225993 0.615180
O O12 0.500000 0.000000 0.500000
O O13 0.397696 0.737743 0.223069
O O14 0.123256 0.068638 0.337597
O O15 0.250568 0.686717 0.628078
O O16 0.858594 0.946044 0.471308
O O17 0.282438 0.732835 0.825070
#
# Coordination Sequence:
#
# PCOD9086346 Si02
#       8
#     2   2   2   2   2   2   2   2
#     4  12  22  35  63  94 133 173 206 264 336 383
#     4  10  22  38  61  94 130 169 208 265 330 388
#     4  11  24  43  61  90 124 168 222 265 309 387
#     4  11  22  37  61  90 130 166 208 267 320 380
#     4  10  20  36  58  93 128 159 210 263 321 397
#     4  10  19  36  57  89 134 163 203 258 319 390
#     4  11  22  39  56  97 131 166 215 257 323 401
#     4  11  23  40  65  88 123 171 215 265 325 379
#
# _framework density 22.255879
#
# number of rings (size 3 to 8) (size 9 to 14) (size 15 to 20)
#    0.000    1.250    5.000    2.250    1.750    2.500 
#    0.000    0.000    0.000    1.500    0.000    0.000 
#    0.000    0.000    0.000    0.000    0.000    0.000 
#
# Total GULP energy -89115.039368 kJ/mol
# GULP energy per Si atom -5569.689960 kJ/mol
# Density = 2.220522 g / cm^3
# Si number density = 22.255879 Si / 1000 Ang^3
#
#
#
# Elastic Constant Matrix: (Units=GPa)
#
#
# Indices 1 2 3 4 5 6 
#
# 1 104.2586 20.9124 46.4994 -3.1470 17.3828 -8.8918
# 2 20.9124 40.6285 -0.4092 -3.6689 -2.8743 -16.1797
# 3 46.4994 -0.4092 100.3851 -1.8137 19.8128 -4.9796
# 4 -3.1470 -3.6689 -1.8137 28.5934 -9.1809 4.3977
# 5 17.3828 -2.8743 19.8128 -9.1809 18.3678 -5.7569
# 6 -8.8918 -16.1797 -4.9796 4.3977 -5.7569 18.5939
#
#
#
# Elastic Compliance Matrix: (Units=1/GPa)
#
#
# Indices 1 2 3 4 5 6 
#
# 1 0.016702 -0.014663 -0.004718 -0.004706 -0.018725 -0.010720
# 2 -0.014663 0.058482 0.001072 0.011959 0.045191 0.055327
# 3 -0.004718 0.001072 0.014653 -0.003581 -0.013160 -0.000627
# 4 -0.004706 0.011959 -0.003581 0.046034 0.035484 0.007295
# 5 -0.018725 0.045191 -0.013160 0.035484 0.129518 0.058553
# 6 -0.010720 0.055327 -0.000627 0.007295 0.058553 0.113033
#
#
# Mechanical properties :
#
#
# Convention : Reuss Voigt Hill
#
# Bulk Modulus (GPa) = 18.79037 42.14192 30.46615
# Shear Modulus (GPa) = 11.55322 24.99566 18.27444
#
# Velocity S-wave (km/s) = 2.28087 3.35491 2.86860
# Velocity P-wave (km/s) = 3.92399 5.82954 4.96896
#
# Compressibility (1/GPa) = 0.05321874
#
# Stress axis : x y z
#
# Youngs Moduli (GPa) = 59.87157 17.09936 68.24654
#
# Poissons Ratio (x) = 0.25073 0.32196
# Poissons Ratio (y) = 0.87792 -0.07316
# Poissons Ratio (z) = 0.28245 -0.01833
#
# Static dielectric constant tensor:
#      x y z
#    x 1.916380 -0.058980 0.024450 
#    y -0.058980 1.971180 -0.050100 
#    z 0.024450 -0.050100 1.939210 
# 
# From -- ./inp_files/495247.got.cif
#   From: 2010.05.17/outbox.cif.g08.bks.cpg/sg2_248_cif.got.tgz:495247.got - 2010.06.03 11:33:40.
