data_PCOD9086818
_publ_section_title
;
Structure prediction by ZEFSAII (Michael W. Deem and Ramdas Pophale) SiO2 
 PCOD9086818
Probable space group: P -1
;
_chemical_formula_sum "Si O2"
_cell_formula_units_Z 14
_cell_length_a 7.621106
_cell_length_b 13.791765
_cell_length_c 11.235560
_cell_angle_alpha 149.214562
_cell_angle_beta 69.783555
_cell_angle_gamma 101.994727
_cell_volume 557.368640
_symmetry_space_group_name_H-M "P -1"
_symmetry_group_IT_number 2
_symmetry_cell_setting 'triclinic'
loop_
_space_group_symop_operation_xyz
x,y,z
-x,-y,-z
loop_
_atom_site_type_symbol
_atom_site_label
_atom_site_fract_x
_atom_site_fract_y
_atom_site_fract_z
Si Si1 0.311474 0.126485 0.326048
Si Si2 0.699891 0.507799 0.899294
Si Si3 0.772464 0.526688 0.441694
Si Si4 0.802591 0.703262 0.868883
Si Si5 0.289110 0.850797 0.850776
Si Si6 0.387678 0.140925 0.572545
Si Si7 0.213607 0.851720 0.616216
O O1 0.261681 0.351738 0.542510
O O2 0.531177 0.080879 0.181086
O O3 0.289751 0.060940 0.397222
O O4 0.202649 0.008286 0.134722
O O5 0.664598 0.605991 0.881495
O O6 0.842101 0.302643 0.627981
O O7 0.500000 0.500000 0.000000
O O8 0.756498 0.682209 0.147881
O O9 0.748249 0.673623 0.714324
O O10 0.661196 0.351492 0.306194
O O11 0.990088 0.419201 0.283838
O O12 0.812445 0.917941 0.136272
O O13 0.168036 0.810687 0.721122
O O14 0.559845 0.208415 0.530442
O O15 0.500000 0.000000 0.500000
#
# Coordination Sequence:
#
# PCOD9086818 Si02
#       7
#     2   2   2   2   2   2   2
#     4  10  22  39  59  90 125 159 202 262 309 358
#     4  10  21  37  62  92 116 161 211 255 298 358
#     4  11  23  38  59  94 130 164 199 249 316 372
#     4  11  22  37  63  90 130 163 202 252 304 375
#     4  10  20  37  61  90 121 162 197 259 315 360
#     4  10  20  38  63  87 117 156 207 262 297 353
#     4  10  19  36  60  89 121 152 204 251 306 356
#
# _framework density 25.118027000000001
#
# number of rings (size 3 to 8) (size 9 to 14) (size 15 to 20)
#    0.000    1.714    4.286    0.429    0.000    1.714 
#   10.286    0.714    0.000    1.714    0.000    0.000 
#    0.000    0.000    0.000    0.000    0.000    0.000 
#
# Total GULP energy -77999.624005 kJ/mol
# GULP energy per Si atom -5571.401715 kJ/mol
# Density = 2.506086 g / cm^3
# Si number density = 25.118027 Si / 1000 Ang^3
#
#
#
# Elastic Constant Matrix: (Units=GPa)
#
#
# Indices 1 2 3 4 5 6 
#
# 1 36.7103 22.6976 15.2183 -6.1378 4.2098 -10.3873
# 2 22.6976 147.9369 68.6382 1.0879 7.2301 -17.7402
# 3 15.2183 68.6382 220.0798 3.3157 15.3046 -20.3057
# 4 -6.1378 1.0879 3.3157 43.0809 -10.8075 5.3110
# 5 4.2098 7.2301 15.3046 -10.8075 24.7796 0.0337
# 6 -10.3873 -17.7402 -20.3057 5.3110 0.0337 37.2229
#
#
#
# Elastic Compliance Matrix: (Units=1/GPa)
#
#
# Indices 1 2 3 4 5 6 
#
# 1 0.032527 -0.003968 -0.000258 0.003239 -0.002806 0.006586
# 2 -0.003968 0.008667 -0.002156 -0.001120 -0.001015 0.002008
# 3 -0.000258 -0.002156 0.005712 -0.001590 -0.003552 0.002247
# 4 0.003239 -0.001120 -0.001590 0.027582 0.012794 -0.004444
# 5 -0.002806 -0.001015 -0.003552 0.012794 0.048909 -0.005074
# 6 0.006586 0.002008 0.002247 -0.004444 -0.005074 0.031524
#
#
# Mechanical properties :
#
#
# Convention : Reuss Voigt Hill
#
# Bulk Modulus (GPa) = 29.28833 68.64835 48.96834
# Shear Modulus (GPa) = 27.92254 40.89488 34.40871
#
# Velocity S-wave (km/s) = 3.33776 4.03936 3.70521
# Velocity P-wave (km/s) = 5.15168 7.01034 6.15161
#
# Compressibility (1/GPa) = 0.03414329
#
# Stress axis : x y z
#
# Youngs Moduli (GPa) = 30.74354 115.37453 175.06079
#
# Poissons Ratio (x) = 0.45780 0.04512
# Poissons Ratio (y) = 0.12199 0.37745
# Poissons Ratio (z) = 0.00792 0.24876
#
# Static dielectric constant tensor:
#      x y z
#    x 2.203510 0.024580 0.122420 
#    y 0.024580 1.996380 0.016460 
#    z 0.122420 0.016460 2.147210 
# 
# From -- ./inp_files/281635.got.cif
#   From: 2010.05.17/outbox.cif.g08.bks.cpg/sg2_141_cif.got.tgz:281635.got - 2010.06.03 11:33:40.
