data_PCOD9086864
_publ_section_title
;
Structure prediction by ZEFSAII (Michael W. Deem and Ramdas Pophale) SiO2 
 PCOD9086864
Probable space group: P -1
;
_chemical_formula_sum "Si O2"
_cell_formula_units_Z 16
_cell_length_a 11.249295
_cell_length_b 9.077076
_cell_length_c 15.132409
_cell_angle_alpha 143.315561
_cell_angle_beta 76.162800
_cell_angle_gamma 120.602057
_cell_volume 750.353978
_symmetry_space_group_name_H-M "P -1"
_symmetry_group_IT_number 2
_symmetry_cell_setting 'triclinic'
loop_
_space_group_symop_operation_xyz
x,y,z
-x,-y,-z
loop_
_atom_site_type_symbol
_atom_site_label
_atom_site_fract_x
_atom_site_fract_y
_atom_site_fract_z
Si Si1 0.073233 0.027477 0.863167
Si Si2 0.459388 0.808077 0.825579
Si Si3 0.285215 0.883849 0.484647
Si Si4 0.408481 0.502275 0.277757
Si Si5 0.994186 0.239411 0.427349
Si Si6 0.609596 0.764094 0.042487
Si Si7 0.868546 0.659346 0.371304
Si Si8 0.070212 0.460769 0.195301
O O1 0.011852 0.968681 0.747438
O O2 0.231025 0.070617 0.861437
O O3 0.089854 0.316163 0.038134
O O4 0.970973 0.762340 0.821638
O O5 0.573373 0.705556 0.757577
O O6 0.298046 0.504188 0.707838
O O7 0.500000 0.000000 0.000000
O O8 0.446828 0.018362 0.858899
O O9 0.311543 0.628325 0.387232
O O10 0.160595 0.903035 0.564353
O O11 0.216363 0.768096 0.343666
O O12 0.434396 0.193747 0.614205
O O13 0.372151 0.349809 0.112773
O O14 0.000000 0.500000 0.500000
O O15 0.121523 0.365575 0.536796
O O16 0.500000 0.500000 0.000000
O O17 0.933549 0.492137 0.229926
O O18 0.000000 0.000000 0.500000
#
# Coordination Sequence:
#
# PCOD9086864 Si02
#       8
#     2   2   2   2   2   2   2   2
#     4  11  20  36  62  92 117 150 209 259 304 353
#     4  10  21  38  60  91 124 165 206 248 309 372
#     4  10  19  36  60  92 118 158 206 251 300 367
#     4  10  21  36  61  87 120 162 206 246 298 377
#     4  11  20  36  61  90 117 155 203 257 303 357
#     4  11  21  36  59  88 125 159 202 253 307 371
#     4  11  22  39  64  94 125 162 204 253 314 373
#     4  10  20  36  65  91 116 155 207 257 303 365
#
# _framework density 21.323267999999999
#
# number of rings (size 3 to 8) (size 9 to 14) (size 15 to 20)
#    0.000    1.500    5.000    2.250    0.000    1.000 
#    0.000    0.625    2.750    7.500    0.000    0.000 
#    0.000    0.000    0.000    0.000    0.000    0.000 
#
# Total GULP energy -89185.933474 kJ/mol
# GULP energy per Si atom -5574.120842 kJ/mol
# Density = 2.127474 g / cm^3
# Si number density = 21.323268 Si / 1000 Ang^3
#
#
#
# Elastic Constant Matrix: (Units=GPa)
#
#
# Indices 1 2 3 4 5 6 
#
# 1 70.4931 5.1232 15.5180 -7.9189 8.4214 -18.6658
# 2 5.1232 52.9052 17.5664 9.1089 3.8125 -10.7595
# 3 15.5180 17.5664 98.2699 -8.5769 9.6364 1.9313
# 4 -7.9189 9.1089 -8.5769 28.8272 3.9781 1.4296
# 5 8.4214 3.8125 9.6364 3.9781 43.9411 11.2480
# 6 -18.6658 -10.7595 1.9313 1.4296 11.2480 26.0888
#
#
#
# Elastic Compliance Matrix: (Units=1/GPa)
#
#
# Indices 1 2 3 4 5 6 
#
# 1 0.021841 0.003129 -0.003104 0.004363 -0.009554 0.021027
# 2 0.003129 0.025605 -0.005701 -0.009049 -0.004792 0.015782
# 3 -0.003104 -0.005701 0.012291 0.004967 -0.000655 -0.005472
# 4 0.004363 -0.009049 0.004967 0.040912 -0.004519 -0.001271
# 5 -0.009554 -0.004792 -0.000655 -0.004519 0.031178 -0.021958
# 6 0.021027 0.015782 -0.005472 -0.001271 -0.021958 0.069826
#
#
# Mechanical properties :
#
#
# Convention : Reuss Voigt Hill
#
# Bulk Modulus (GPa) = 20.66779 33.12037 26.89408
# Shear Modulus (GPa) = 21.82152 32.00214 26.91183
#
# Velocity S-wave (km/s) = 3.20248 3.87823 3.55644
# Velocity P-wave (km/s) = 4.83613 5.96829 5.43179
#
# Compressibility (1/GPa) = 0.04838446
#
# Stress axis : x y z
#
# Youngs Moduli (GPa) = 45.78573 39.05529 81.36291
#
# Poissons Ratio (x) = -0.12221 0.25254
# Poissons Ratio (y) = -0.14327 0.46387
# Poissons Ratio (z) = 0.14211 0.22266
#
# Static dielectric constant tensor:
#      x y z
#    x 1.801680 -0.056050 0.024890 
#    y -0.056050 1.849940 0.039030 
#    z 0.024890 0.039030 1.767740 
# 
# From -- ./inp_files/389538.got.cif
#   From: 2010.05.17/outbox.cif.g08.bks.cpg/sg2_195_cif.got.tgz:389538.got - 2010.06.03 11:33:40.
