data_PCOD9086166
_publ_section_title
;
Structure prediction by ZEFSAII (Michael W. Deem and Ramdas Pophale) SiO2 
 PCOD9086166
Probable space group: P -1
;
_chemical_formula_sum "Si O2"
_cell_formula_units_Z 10
_cell_length_a 9.567160
_cell_length_b 7.086980
_cell_length_c 9.358876
_cell_angle_alpha 98.609525
_cell_angle_beta 62.060481
_cell_angle_gamma 134.485016
_cell_volume 383.548498
_symmetry_space_group_name_H-M "P -1"
_symmetry_group_IT_number 2
_symmetry_cell_setting 'triclinic'
loop_
_space_group_symop_operation_xyz
x,y,z
-x,-y,-z
loop_
_atom_site_type_symbol
_atom_site_label
_atom_site_fract_x
_atom_site_fract_y
_atom_site_fract_z
Si Si1 0.063158 0.333143 0.133718
Si Si2 0.222639 0.826395 0.227481
Si Si3 0.861772 0.689002 0.572824
Si Si4 0.450581 0.566906 0.795701
Si Si5 0.587292 0.091499 0.308572
O O1 0.187183 0.649864 0.096648
O O2 0.071338 0.292989 0.293035
O O3 0.807282 0.151707 0.189595
O O4 0.225175 0.333442 0.968603
O O5 0.979150 0.646766 0.400482
O O6 0.361617 0.143055 0.170255
O O7 0.382676 0.863417 0.272584
O O8 0.596309 0.515334 0.666557
O O9 0.000000 0.000000 0.500000
O O10 0.377120 0.652471 0.717844
O O11 0.500000 0.000000 0.500000
#
# Coordination Sequence:
#
# PCOD9086166 Si02
#       5
#     2   2   2   2   2
#     4  12  19  36  63  79 109 147 182 227 271 317
#     4   9  21  35  59  82 108 142 192 214 268 331
#     4  10  19  36  56  80 112 149 178 219 278 325
#     4   9  21  36  56  85 113 140 178 230 278 313
#     4  10  20  35  57  81 114 139 187 222 267 325
#
# _framework density 26.072320000000001
#
# number of rings (size 3 to 8) (size 9 to 14) (size 15 to 20)
#    1.200    0.800    2.000    2.400    0.000    0.000 
#    0.000    1.000    8.800    2.400    0.000    0.000 
#    0.000    0.000    0.000    0.000    0.000    0.000 
#
# Total GULP energy -55932.271201 kJ/mol
# GULP energy per Si atom -5593.227120 kJ/mol
# Density = 2.601298 g / cm^3
# Si number density = 26.072320 Si / 1000 Ang^3
#
#
#
# Elastic Constant Matrix: (Units=GPa)
#
#
# Indices 1 2 3 4 5 6 
#
# 1 158.9608 20.3697 86.2753 -0.5866 -33.1261 7.2770
# 2 20.3697 62.1881 12.8944 -9.5893 -11.7397 8.1264
# 3 86.2753 12.8944 177.0736 -1.4001 -55.9587 7.7971
# 4 -0.5866 -9.5893 -1.4001 21.5286 -1.8054 -6.5597
# 5 -33.1261 -11.7397 -55.9587 -1.8054 74.4890 -10.3268
# 6 7.2770 8.1264 7.7971 -6.5597 -10.3268 37.0241
#
#
#
# Elastic Compliance Matrix: (Units=1/GPa)
#
#
# Indices 1 2 3 4 5 6 
#
# 1 0.008843 -0.002070 -0.003979 -0.001043 0.000525 -0.000484
# 2 -0.002070 0.018536 0.000544 0.007911 0.002363 -0.001715
# 3 -0.003979 0.000544 0.009225 0.001316 0.005339 0.000443
# 4 -0.001043 0.007911 0.001316 0.053066 0.004276 0.008786
# 5 0.000525 0.002363 0.005339 0.004276 0.018733 0.004236
# 6 -0.000484 -0.001715 0.000443 0.008786 0.004236 0.030126
#
#
# Mechanical properties :
#
#
# Convention : Reuss Voigt Hill
#
# Bulk Modulus (GPa) = 39.07348 70.81127 54.94238
# Shear Modulus (GPa) = 31.63141 45.18723 38.40932
#
# Velocity S-wave (km/s) = 3.48691 4.16763 3.84237
# Velocity P-wave (km/s) = 5.58842 7.09770 6.38779
#
# Compressibility (1/GPa) = 0.02559280
#
# Stress axis : x y z
#
# Youngs Moduli (GPa) = 113.07776 53.95017 108.40382
#
# Poissons Ratio (x) = 0.11169 0.43135
# Poissons Ratio (y) = 0.23409 -0.05894
# Poissons Ratio (z) = 0.44995 -0.02933
#
# Static dielectric constant tensor:
#      x y z
#    x 2.016730 -0.060220 -0.020190 
#    y -0.060220 2.083850 -0.067060 
#    z -0.020190 -0.067060 2.040180 
# 
# From -- ./inp_files/86333.got.cif
#   From: 2010.05.17/outbox.cif.g08.bks.cpg/sg2_44_cif.got.tgz:86333.got - 2010.06.03 11:33:40.
