data_PCOD9086571
_publ_section_title
;
Structure prediction by ZEFSAII (Michael W. Deem and Ramdas Pophale) SiO2 
 PCOD9086571
Probable space group: P -1
;
_chemical_formula_sum "Si O2"
_cell_formula_units_Z 14
_cell_length_a 7.904176
_cell_length_b 10.893983
_cell_length_c 21.700237
_cell_angle_alpha 29.757141
_cell_angle_beta 138.629740
_cell_angle_gamma 136.156453
_cell_volume 598.937413
_symmetry_space_group_name_H-M "P -1"
_symmetry_group_IT_number 2
_symmetry_cell_setting 'triclinic'
loop_
_space_group_symop_operation_xyz
x,y,z
-x,-y,-z
loop_
_atom_site_type_symbol
_atom_site_label
_atom_site_fract_x
_atom_site_fract_y
_atom_site_fract_z
Si Si1 0.466785 0.461609 0.752071
Si Si2 0.420353 0.873934 0.644641
Si Si3 0.693360 0.085565 0.818767
Si Si4 0.877697 0.213135 0.945767
Si Si5 0.064739 0.444514 0.391623
Si Si6 0.326321 0.668030 0.844250
Si Si7 0.297429 0.546486 0.536032
O O1 0.561056 0.735769 0.690733
O O2 0.653855 0.273836 0.902568
O O3 0.448849 0.464945 0.671638
O O4 0.167266 0.408828 0.716380
O O5 0.405188 0.724669 0.770118
O O6 0.115082 0.821396 0.562663
O O7 0.565168 0.161205 0.565381
O O8 0.740166 0.064426 0.913312
O O9 0.772856 0.376004 0.693167
O O10 0.409011 0.935102 0.785542
O O11 0.903449 0.939546 0.908144
O O12 0.038308 0.493931 0.847162
O O13 0.244257 0.424836 0.507192
O O14 0.500000 0.500000 0.000000
O O15 0.000000 0.500000 0.500000
#
# Coordination Sequence:
#
# PCOD9086571 Si02
#       7
#     2   2   2   2   2   2   2
#     4   9  21  35  55  87 114 143 182 241 281 315
#     4  10  19  36  60  81 112 147 191 225 282 331
#     4  10  19  36  61  74 108 162 181 228 276 339
#     4  10  20  38  53  83 118 140 193 230 280 329
#     4   9  19  34  59  82 107 150 189 223 280 332
#     4  10  20  36  58  80 108 154 192 220 279 337
#     4  10  19  36  59  84 113 148 189 225 279 342
#
# _framework density 23.374731000000001
#
# number of rings (size 3 to 8) (size 9 to 14) (size 15 to 20)
#    0.857    1.429    2.857    0.429    0.000    0.571 
#    5.143    4.286    0.000    0.000    0.000    0.000 
#    0.000    0.000    0.000    0.000    0.000    0.000 
#
# Total GULP energy -78006.169887 kJ/mol
# GULP energy per Si atom -5571.869278 kJ/mol
# Density = 2.332153 g / cm^3
# Si number density = 23.374731 Si / 1000 Ang^3
#
#
#
# Elastic Constant Matrix: (Units=GPa)
#
#
# Indices 1 2 3 4 5 6 
#
# 1 46.7498 22.3849 12.3320 -0.4295 4.3738 14.1620
# 2 22.3849 162.6378 40.3216 3.3117 -7.0242 2.4939
# 3 12.3320 40.3216 50.3911 -9.3487 3.9358 16.2427
# 4 -0.4295 3.3117 -9.3487 32.4162 -0.2379 -10.5469
# 5 4.3738 -7.0242 3.9358 -0.2379 44.5705 0.6879
# 6 14.1620 2.4939 16.2427 -10.5469 0.6879 25.9508
#
#
#
# Elastic Compliance Matrix: (Units=1/GPa)
#
#
# Indices 1 2 3 4 5 6 
#
# 1 0.028672 -0.004073 0.001425 -0.004658 -0.003329 -0.017953
# 2 -0.004073 0.008857 -0.008494 -0.001424 0.002445 0.006045
# 3 0.001425 -0.008494 0.033577 0.004322 -0.004125 -0.019112
# 4 -0.004658 -0.001424 0.004322 0.037073 -0.000183 0.015046
# 5 -0.003329 0.002445 -0.004125 -0.000183 0.023458 0.003468
# 6 -0.017953 0.006045 -0.019112 0.015046 0.003468 0.065736
#
#
# Mechanical properties :
#
#
# Convention : Reuss Voigt Hill
#
# Bulk Modulus (GPa) = 20.48264 45.53952 33.01108
# Shear Modulus (GPa) = 21.19271 32.90354 27.04813
#
# Velocity S-wave (km/s) = 3.01433 3.75594 3.40538
# Velocity P-wave (km/s) = 4.57129 6.19146 5.44200
#
# Compressibility (1/GPa) = 0.04882182
#
# Stress axis : x y z
#
# Youngs Moduli (GPa) = 34.87723 112.90608 29.78261
#
# Poissons Ratio (x) = 0.45990 -0.04244
# Poissons Ratio (y) = 0.14206 0.25296
# Poissons Ratio (z) = -0.04970 0.95899
#
# Static dielectric constant tensor:
#      x y z
#    x 1.922890 -0.017350 0.054400 
#    y -0.017350 1.901860 -0.030760 
#    z 0.054400 -0.030760 1.918690 
# 
# From -- ./inp_files/387196.got.cif
#   From: 2010.05.17/outbox.cif.g08.bks.cpg/sg2_194_cif.got.tgz:387196.got - 2010.06.03 11:33:40.
