data_PCOD9086185
_publ_section_title
;
Structure prediction by ZEFSAII (Michael W. Deem and Ramdas Pophale) SiO2 
 PCOD9086185
Probable space group: P -1
;
_chemical_formula_sum "Si O2"
_cell_formula_units_Z 16
_cell_length_a 7.688356
_cell_length_b 18.900497
_cell_length_c 13.953852
_cell_angle_alpha 35.652745
_cell_angle_beta 106.964400
_cell_angle_gamma 133.272747
_cell_volume 671.795635
_symmetry_space_group_name_H-M "P -1"
_symmetry_group_IT_number 2
_symmetry_cell_setting 'triclinic'
loop_
_space_group_symop_operation_xyz
x,y,z
-x,-y,-z
loop_
_atom_site_type_symbol
_atom_site_label
_atom_site_fract_x
_atom_site_fract_y
_atom_site_fract_z
Si Si1 0.869518 0.794048 0.188995
Si Si2 0.477222 0.019575 0.085931
Si Si3 0.321270 0.101098 0.208424
Si Si4 0.993777 0.846206 0.930766
Si Si5 0.142113 0.746309 0.567398
Si Si6 0.624895 0.572715 0.810958
Si Si7 0.309682 0.609722 0.235421
Si Si8 0.548905 0.313793 0.213541
O O1 0.117489 0.855212 0.224436
O O2 0.912943 0.775997 0.105800
O O3 0.504747 0.622944 0.319221
O O4 0.000000 0.000000 0.000000
O O5 0.668281 0.246720 0.874845
O O6 0.669977 0.026135 0.170204
O O7 0.500000 0.000000 0.000000
O O8 0.359742 0.979088 0.333511
O O9 0.011978 0.010721 0.237536
O O10 0.536341 0.282589 0.963991
O O11 0.389470 0.169405 0.254094
O O12 0.722601 0.643084 0.044927
O O13 0.862583 0.668903 0.659874
O O14 0.264505 0.698391 0.700535
O O15 0.015662 0.615056 0.596901
O O16 0.639033 0.714722 0.703014
O O17 0.712638 0.519583 0.965177
#
# Coordination Sequence:
#
# PCOD9086185 Si02
#       8
#     2   2   2   2   2   2   2   2
#     4   8  14  27  52  79 101 134 178 216 267 331
#     4   9  17  30  62  87 103 149 184 222 287 336
#     4  10  22  37  53  81 115 144 188 231 269 335
#     4   9  16  34  49  82 111 135 186 226 271 330
#     4  12  21  37  61  79 112 158 183 225 288 323
#     4  10  20  35  59  80 113 148 186 240 270 322
#     4  10  19  36  56  83 112 144 186 230 277 331
#     4  10  21  38  54  85 112 144 199 229 270 332
#
# _framework density 23.816766999999999
#
# number of rings (size 3 to 8) (size 9 to 14) (size 15 to 20)
#    0.000    2.250    3.750    1.500    0.000    0.500 
#    2.250    0.000    0.000   28.500    0.000    0.000 
#    0.000    0.000    0.000    0.000    0.000    0.000 
#
# Total GULP energy -89094.454530 kJ/mol
# GULP energy per Si atom -5568.403408 kJ/mol
# Density = 2.376256 g / cm^3
# Si number density = 23.816767 Si / 1000 Ang^3
#
#
#
# Elastic Constant Matrix: (Units=GPa)
#
#
# Indices 1 2 3 4 5 6 
#
# 1 113.1162 43.0193 34.5022 -5.7214 39.8948 13.5204
# 2 43.0193 111.1810 39.2939 0.7720 38.5117 15.1339
# 3 34.5022 39.2939 64.1602 2.0488 27.0020 8.7763
# 4 -5.7214 0.7720 2.0488 18.6083 -6.9742 19.4051
# 5 39.8948 38.5117 27.0020 -6.9742 35.5820 2.4632
# 6 13.5204 15.1339 8.7763 19.4051 2.4632 59.6757
#
#
#
# Elastic Compliance Matrix: (Units=1/GPa)
#
#
# Indices 1 2 3 4 5 6 
#
# 1 0.015198 0.000576 -0.001480 0.002626 -0.015778 -0.003574
# 2 0.000576 0.015606 -0.002616 -0.004794 -0.016391 -0.001468
# 3 -0.001480 -0.002616 0.025270 -0.011188 -0.016991 0.001622
# 4 0.002626 -0.004794 -0.011188 0.101955 0.032951 -0.032247
# 5 -0.015778 -0.016391 -0.016991 0.032951 0.083159 -0.003917
# 6 -0.003574 -0.001468 0.001622 -0.032247 -0.003917 0.028349
#
#
# Mechanical properties :
#
#
# Convention : Reuss Voigt Hill
#
# Bulk Modulus (GPa) = 20.39365 58.00979 39.20172
# Shear Modulus (GPa) = 17.06945 34.21597 25.64271
#
# Velocity S-wave (km/s) = 2.68003 3.79441 3.28482
# Velocity P-wave (km/s) = 4.26123 6.60351 5.55717
#
# Compressibility (1/GPa) = 0.04903487
#
# Stress axis : x y z
#
# Youngs Moduli (GPa) = 65.80018 64.07592 39.57228
#
# Poissons Ratio (x) = -0.03693 0.05857
# Poissons Ratio (y) = -0.03793 0.10352
# Poissons Ratio (z) = 0.09739 0.16762
#
# Static dielectric constant tensor:
#      x y z
#    x 1.998600 0.005740 -0.063850 
#    y 0.005740 1.941080 0.025280 
#    z -0.063850 0.025280 2.002670 
# 
# From -- ./inp_files/498129.got.cif
#   From: 2010.05.17/outbox.cif.g08.bks.cpg/sg2_250_cif.got.tgz:498129.got - 2010.06.03 11:33:40.
