data_PCOD9086188
_publ_section_title
;
Structure prediction by ZEFSAII (Michael W. Deem and Ramdas Pophale) SiO2 
 PCOD9086188
Probable space group: P -1
;
_chemical_formula_sum "Si O2"
_cell_formula_units_Z 16
_cell_length_a 11.437817
_cell_length_b 12.736216
_cell_length_c 18.330429
_cell_angle_alpha 34.493534
_cell_angle_beta 146.803286
_cell_angle_gamma 123.139661
_cell_volume 734.652273
_symmetry_space_group_name_H-M "P -1"
_symmetry_group_IT_number 2
_symmetry_cell_setting 'triclinic'
loop_
_space_group_symop_operation_xyz
x,y,z
-x,-y,-z
loop_
_atom_site_type_symbol
_atom_site_label
_atom_site_fract_x
_atom_site_fract_y
_atom_site_fract_z
Si Si1 0.123301 0.145010 0.505017
Si Si2 0.500954 0.815698 0.997043
Si Si3 0.409473 0.227515 0.232119
Si Si4 0.976182 0.729682 0.357077
Si Si5 0.842895 0.276606 0.023632
Si Si6 0.106686 0.389974 0.221195
Si Si7 0.273666 0.904782 0.380081
Si Si8 0.764686 0.382324 0.295817
O O1 0.208000 0.230170 0.431688
O O2 0.923960 0.345071 0.329504
O O3 0.327583 0.007045 0.747394
O O4 0.000000 0.000000 0.500000
O O5 0.704303 0.862583 0.113018
O O6 0.355740 0.758072 0.015863
O O7 0.622002 0.613371 0.122318
O O8 0.538546 0.185469 0.403295
O O9 0.579494 0.288560 0.237886
O O10 0.377640 0.023079 0.315048
O O11 0.148275 0.421754 0.993195
O O12 0.000000 0.500000 0.500000
O O13 0.178005 0.740641 0.403924
O O14 0.053666 0.751693 0.467196
O O15 0.751675 0.493175 0.806764
O O16 0.028319 0.284139 0.176155
O O17 0.016468 0.088787 0.169722
#
# Coordination Sequence:
#
# PCOD9086188 Si02
#       8
#     2   2   2   2   2   2   2   2
#     4  12  24  37  56  91 126 157 192 242 306 364
#     4  11  21  39  63  86 119 161 199 245 298 346
#     4   9  16  32  54  81 116 148 183 242 297 341
#     4   9  20  36  58  87 117 153 202 252 283 346
#     4  10  19  36  56  83 119 150 199 242 286 351
#     4  10  21  35  53  84 125 152 186 243 298 358
#     4   9  18  30  56  87 112 145 195 245 292 345
#     4  10  21  38  58  89 120 151 200 245 296 354
#
# _framework density 21.77901
#
# number of rings (size 3 to 8) (size 9 to 14) (size 15 to 20)
#    0.000    2.000    2.500    1.500    0.000    4.000 
#    0.000    0.000    0.000    6.750    0.000   12.250 
#    0.000    0.000    0.000    0.000    0.000    0.000 
#
# Total GULP energy -89340.100511 kJ/mol
# GULP energy per Si atom -5583.756282 kJ/mol
# Density = 2.172944 g / cm^3
# Si number density = 21.779010 Si / 1000 Ang^3
#
#
#
# Elastic Constant Matrix: (Units=GPa)
#
#
# Indices 1 2 3 4 5 6 
#
# 1 119.1012 37.6376 47.5953 -2.9636 4.6411 20.7240
# 2 37.6376 88.4850 32.4313 4.3250 -1.3909 33.7116
# 3 47.5953 32.4313 93.2109 8.9550 -3.3904 19.0166
# 4 -2.9636 4.3250 8.9550 31.5969 0.6795 6.0204
# 5 4.6411 -1.3909 -3.3904 0.6795 29.7880 -8.3735
# 6 20.7240 33.7116 19.0166 6.0204 -8.3735 28.7135
#
#
#
# Elastic Compliance Matrix: (Units=1/GPa)
#
#
# Indices 1 2 3 4 5 6 
#
# 1 0.012135 -0.001290 -0.005067 0.003982 -0.004299 -0.005977
# 2 -0.001290 0.022538 -0.002271 0.002622 -0.006507 -0.026474
# 3 -0.005067 -0.002271 0.015017 -0.004035 0.001857 -0.002235
# 4 0.003982 0.002622 -0.004035 0.035239 -0.005185 -0.012181
# 5 -0.004299 -0.006507 0.001857 -0.005185 0.040572 0.022432
# 6 -0.005977 -0.026474 -0.002235 -0.012181 0.022432 0.080798
#
#
# Mechanical properties :
#
#
# Convention : Reuss Voigt Hill
#
# Bulk Modulus (GPa) = 30.83096 59.56950 45.20023
# Shear Modulus (GPa) = 21.33410 30.22853 25.78132
#
# Velocity S-wave (km/s) = 3.13321 3.72958 3.44433
# Velocity P-wave (km/s) = 5.22267 6.77920 6.05119
#
# Compressibility (1/GPa) = 0.03243493
#
# Stress axis : x y z
#
# Youngs Moduli (GPa) = 82.40325 44.37002 66.59109
#
# Poissons Ratio (x) = 0.05722 0.33744
# Poissons Ratio (y) = 0.10626 0.15121
# Poissons Ratio (z) = 0.41757 0.10075
#
# Static dielectric constant tensor:
#      x y z
#    x 1.851420 0.025160 0.028850 
#    y 0.025160 1.896380 -0.059790 
#    z 0.028850 -0.059790 1.867920 
# 
# From -- ./inp_files/595478.got.cif
#   From: 2010.05.17/outbox.cif.g08.bks.cpg/sg2_298_cif.got.tgz:595478.got - 2010.06.03 11:33:40.
