data_PCOD9086109
_publ_section_title
;
Structure prediction by ZEFSAII (Michael W. Deem and Ramdas Pophale) SiO2 
 PCOD9086109
Probable space group: P -1
;
_chemical_formula_sum "Si O2"
_cell_formula_units_Z 16
_cell_length_a 7.610072
_cell_length_b 14.959155
_cell_length_c 14.875626
_cell_angle_alpha 40.109795
_cell_angle_beta 36.285447
_cell_angle_gamma 44.539537
_cell_volume 624.748378
_symmetry_space_group_name_H-M "P -1"
_symmetry_group_IT_number 2
_symmetry_cell_setting 'triclinic'
loop_
_space_group_symop_operation_xyz
x,y,z
-x,-y,-z
loop_
_atom_site_type_symbol
_atom_site_label
_atom_site_fract_x
_atom_site_fract_y
_atom_site_fract_z
Si Si1 0.335253 0.876867 0.611743
Si Si2 0.453669 0.661841 0.230986
Si Si3 0.976682 0.739900 0.501807
Si Si4 0.885128 0.843786 0.092812
Si Si5 0.408515 0.972329 0.769726
Si Si6 0.311234 0.088364 0.113818
Si Si7 0.611401 0.579560 0.673280
Si Si8 0.561360 0.623061 0.456562
O O1 0.645129 0.847897 0.566194
O O2 0.330773 0.710472 0.718913
O O3 0.012197 0.948555 0.733618
O O4 0.420909 0.950724 0.430265
O O5 0.428529 0.576920 0.213984
O O6 0.507143 0.535743 0.382311
O O7 0.148970 0.765403 0.319863
O O8 0.681964 0.760287 0.047375
O O9 0.872392 0.594994 0.624575
O O10 0.218290 0.720931 0.497423
O O11 0.788456 0.695778 0.250971
O O12 0.837895 0.904012 0.168556
O O13 0.610333 0.960277 0.067804
O O14 0.210316 0.859925 0.911315
O O15 0.645672 0.899169 0.805379
O O16 0.677362 0.629192 0.507336
#
# Coordination Sequence:
#
# PCOD9086109 Si02
#       8
#     2   2   2   2   2   2   2   2
#     4  10  19  36  54  88 115 154 193 231 288 346
#     4  10  20  36  58  86 114 151 193 240 288 334
#     4  10  20  36  60  88 113 151 193 240 283 344
#     4   9  18  33  58  84 114 151 187 240 288 329
#     4   9  17  32  57  83 115 146 193 232 283 336
#     4  10  20  32  60  85 119 152 192 236 283 345
#     4   8  20  32  61  77 118 141 197 218 299 317
#     4  10  20  37  60  87 118 147 191 244 286 335
#
# _framework density 25.610309000000001
#
# number of rings (size 3 to 8) (size 9 to 14) (size 15 to 20)
#    2.250    0.250    1.250    1.875    1.750    0.500 
#    0.000    3.750    0.000    1.500    0.000    0.000 
#    0.000    0.000    0.000    0.000    0.000    0.000 
#
# Total GULP energy -89095.216694 kJ/mol
# GULP energy per Si atom -5568.451043 kJ/mol
# Density = 2.555202 g / cm^3
# Si number density = 25.610309 Si / 1000 Ang^3
#
#
#
# Elastic Constant Matrix: (Units=GPa)
#
#
# Indices 1 2 3 4 5 6 
#
# 1 86.2353 25.0402 41.7166 -14.3442 -12.7543 -15.4148
# 2 25.0402 66.3141 53.3491 -6.2991 -1.5832 -7.0826
# 3 41.7166 53.3491 172.0570 -18.3255 -27.5494 -11.4174
# 4 -14.3442 -6.2991 -18.3255 34.1369 -2.7106 -5.5536
# 5 -12.7543 -1.5832 -27.5494 -2.7106 41.3327 -5.0049
# 6 -15.4148 -7.0826 -11.4174 -5.5536 -5.0049 45.9294
#
#
#
# Elastic Compliance Matrix: (Units=1/GPa)
#
#
# Indices 1 2 3 4 5 6 
#
# 1 0.016222 -0.004216 -0.000537 0.007204 0.005704 0.006153
# 2 -0.004216 0.021780 -0.006801 -0.001904 -0.005190 -0.000543
# 3 -0.000537 -0.006801 0.009795 0.004719 0.006716 0.002508
# 4 0.007204 -0.001904 0.004719 0.036609 0.008747 0.008677
# 5 0.005704 -0.005190 0.006716 0.008747 0.031688 0.007294
# 6 0.006153 -0.000543 0.002508 0.008677 0.007294 0.026222
#
#
# Mechanical properties :
#
#
# Convention : Reuss Voigt Hill
#
# Bulk Modulus (GPa) = 40.50197 62.75759 51.62978
# Shear Modulus (GPa) = 28.79283 37.91316 33.35299
#
# Velocity S-wave (km/s) = 3.35665 3.85175 3.61269
# Velocity P-wave (km/s) = 5.55624 6.65878 6.13234
#
# Compressibility (1/GPa) = 0.02469016
#
# Stress axis : x y z
#
# Youngs Moduli (GPa) = 61.64487 45.91325 102.08833
#
# Poissons Ratio (x) = 0.19355 0.05483
# Poissons Ratio (y) = 0.25987 0.69430
# Poissons Ratio (z) = 0.03311 0.31226
#
# Static dielectric constant tensor:
#      x y z
#    x 2.162140 0.080810 -0.032170 
#    y 0.080810 2.169000 -0.042180 
#    z -0.032170 -0.042180 1.949810 
# 
# From -- ./inp_files/591658.got.cif
#   From: 2010.05.17/outbox.cif.g08.bks.cpg/sg2_296_cif.got.tgz:591658.got - 2010.06.03 11:33:40.
