data_PCOD9086420
_publ_section_title
;
Structure prediction by ZEFSAII (Michael W. Deem and Ramdas Pophale) SiO2 
 PCOD9086420
Probable space group: P -1
;
_chemical_formula_sum "Si O2"
_cell_formula_units_Z 14
_cell_length_a 11.405547
_cell_length_b 16.871598
_cell_length_c 10.093129
_cell_angle_alpha 160.011091
_cell_angle_beta 69.034334
_cell_angle_gamma 114.089140
_cell_volume 604.035835
_symmetry_space_group_name_H-M "P -1"
_symmetry_group_IT_number 2
_symmetry_cell_setting 'triclinic'
loop_
_space_group_symop_operation_xyz
x,y,z
-x,-y,-z
loop_
_atom_site_type_symbol
_atom_site_label
_atom_site_fract_x
_atom_site_fract_y
_atom_site_fract_z
Si Si1 0.220285 0.445713 0.289518
Si Si2 0.326561 0.789117 0.137232
Si Si3 0.139968 0.655928 0.197714
Si Si4 0.774486 0.155938 0.282767
Si Si5 0.614724 0.819518 0.028994
Si Si6 0.003256 0.926216 0.089781
Si Si7 0.849296 0.936331 0.505614
O O1 0.252869 0.709889 0.629268
O O2 0.320308 0.384824 0.259755
O O3 0.217273 0.281881 0.902222
O O4 0.079427 0.331150 0.230843
O O5 0.226086 0.586499 0.937332
O O6 0.460586 0.745767 0.966596
O O7 0.359453 0.979693 0.547029
O O8 0.237032 0.876303 0.201541
O O9 0.205917 0.650876 0.303234
O O10 0.104809 0.917959 0.615638
O O11 0.000000 0.500000 0.000000
O O12 0.675921 0.936720 0.049522
O O13 0.916238 0.108057 0.125476
O O14 0.121591 0.063202 0.350631
O O15 0.000000 0.000000 0.500000
#
# Coordination Sequence:
#
# PCOD9086420 Si02
#       7
#     2   2   2   2   2   2   2
#     4  10  19  36  58  84 115 151 192 232 281 338
#     4   9  17  36  58  80 115 152 184 243 280 323
#     4  11  21  35  59  88 113 146 194 237 286 337
#     4  11  22  35  58  89 115 151 190 228 293 343
#     4   9  19  37  58  80 117 151 190 233 278 338
#     4  11  20  36  55  87 123 145 181 249 288 327
#     4   9  16  32  57  79 110 150 185 229 286 325
#
# _framework density 23.177433000000001
#
# number of rings (size 3 to 8) (size 9 to 14) (size 15 to 20)
#    0.000    2.000    5.714    1.714    2.000    0.000 
#    0.000   13.571    0.000    1.714    0.000    0.000 
#    0.000    0.000    0.000    0.000    0.000    0.000 
#
# Total GULP energy -77937.724507 kJ/mol
# GULP energy per Si atom -5566.980322 kJ/mol
# Density = 2.312468 g / cm^3
# Si number density = 23.177433 Si / 1000 Ang^3
#
#
#
# Elastic Constant Matrix: (Units=GPa)
#
#
# Indices 1 2 3 4 5 6 
#
# 1 134.0679 74.3728 37.4402 15.9088 -26.1281 20.3580
# 2 74.3728 169.2364 43.3753 22.7698 -30.2797 21.6103
# 3 37.4402 43.3753 51.5993 13.1559 -26.9511 3.7903
# 4 15.9088 22.7698 13.1559 28.9828 -11.3637 -3.6002
# 5 -26.1281 -30.2797 -26.9511 -11.3637 37.5078 -10.4452
# 6 20.3580 21.6103 3.7903 -3.6002 -10.4452 37.5612
#
#
#
# Elastic Compliance Matrix: (Units=1/GPa)
#
#
# Indices 1 2 3 4 5 6 
#
# 1 0.011339 -0.002881 -0.004773 -0.002174 0.000338 -0.004121
# 2 -0.002881 0.009361 -0.004391 -0.004222 0.000067 -0.003767
# 3 -0.004773 -0.004391 0.037818 -0.001651 0.021811 0.007204
# 4 -0.002174 -0.004222 -0.001651 0.045345 0.010721 0.011101
# 5 0.000338 0.000067 0.021811 0.010721 0.049300 0.012314
# 6 -0.004121 -0.003767 0.007204 0.011101 0.012314 0.034786
#
#
# Mechanical properties :
#
#
# Convention : Reuss Voigt Hill
#
# Bulk Modulus (GPa) = 29.04438 73.92004 51.48221
# Shear Modulus (GPa) = 22.36983 34.12471 28.24727
#
# Velocity S-wave (km/s) = 3.11007 3.84125 3.49483
# Velocity P-wave (km/s) = 5.04531 7.18582 6.20851
#
# Compressibility (1/GPa) = 0.03443007
#
# Stress axis : x y z
#
# Youngs Moduli (GPa) = 88.18747 106.82189 26.44254
#
# Poissons Ratio (x) = 0.30773 0.12621
# Poissons Ratio (y) = 0.25405 0.11610
# Poissons Ratio (z) = 0.42091 0.46902
#
# Static dielectric constant tensor:
#      x y z
#    x 1.869230 -0.031500 0.013560 
#    y -0.031500 1.980330 0.058080 
#    z 0.013560 0.058080 2.038000 
# 
# From -- ./inp_files/414591.got.cif
#   From: 2010.05.17/outbox.cif.g08.bks.cpg/sg2_208_cif.got.tgz:414591.got - 2010.06.03 11:33:40.
