data_PCOD9086985
_publ_section_title
;
Structure prediction by ZEFSAII (Michael W. Deem and Ramdas Pophale) SiO2 
 PCOD9086985
Probable space group: P -1
;
_chemical_formula_sum "Si O2"
_cell_formula_units_Z 16
_cell_length_a 9.143712
_cell_length_b 10.725315
_cell_length_c 11.744443
_cell_angle_alpha 108.453110
_cell_angle_beta 127.554953
_cell_angle_gamma 102.218189
_cell_volume 730.116665
_symmetry_space_group_name_H-M "P -1"
_symmetry_group_IT_number 2
_symmetry_cell_setting 'triclinic'
loop_
_space_group_symop_operation_xyz
x,y,z
-x,-y,-z
loop_
_atom_site_type_symbol
_atom_site_label
_atom_site_fract_x
_atom_site_fract_y
_atom_site_fract_z
Si Si1 0.870147 0.072073 0.901635
Si Si2 0.068209 0.321777 0.480852
Si Si3 0.344893 0.035468 0.008452
Si Si4 0.295727 0.653953 0.797141
Si Si5 0.903041 0.601320 0.027077
Si Si6 0.866941 0.918782 0.646204
Si Si7 0.495819 0.633108 0.104946
Si Si8 0.995278 0.805018 0.358475
O O1 0.018989 0.249118 0.975866
O O2 0.710767 0.049191 0.921271
O O3 0.757065 0.956087 0.707710
O O4 0.000000 0.000000 0.000000
O O5 0.217982 0.485981 0.661035
O O6 0.921389 0.215351 0.486990
O O7 0.908654 0.328410 0.316773
O O8 0.200883 0.253312 0.468145
O O9 0.493093 0.221988 0.138855
O O10 0.500000 0.000000 0.000000
O O11 0.121482 0.991092 0.825599
O O12 0.363062 0.675193 0.967213
O O13 0.974554 0.688328 0.212303
O O14 0.649097 0.461719 0.882752
O O15 0.000000 0.500000 0.000000
O O16 0.868985 0.021818 0.574552
O O17 0.751555 0.764806 0.263858
O O18 0.500000 0.500000 0.000000
#
# Coordination Sequence:
#
# PCOD9086985 Si02
#       8
#     2   2   2   2   2   2   2   2
#     4   9  22  36  57  87 124 154 203 253 297 356
#     4  11  22  35  58  93 124 156 192 253 313 354
#     4  11  21  37  63  88 116 159 208 248 292 362
#     4  11  22  36  61  93 121 149 204 256 297 350
#     4  10  21  35  59  91 123 158 199 254 306 348
#     4  10  20  38  59  87 119 163 197 245 306 356
#     4  10  19  36  61  87 118 151 206 247 285 352
#     4  10  20  37  62  87 120 159 206 249 287 366
#
# _framework density 21.914304999999999
#
# number of rings (size 3 to 8) (size 9 to 14) (size 15 to 20)
#    0.000    1.750    5.000    0.375    3.500    0.000 
#    0.000    0.625    2.750    1.500    0.000    0.000 
#    0.000    0.000    0.000    0.000    0.000    0.000 
#
# Total GULP energy -89144.893984 kJ/mol
# GULP energy per Si atom -5571.555874 kJ/mol
# Density = 2.186443 g / cm^3
# Si number density = 21.914305 Si / 1000 Ang^3
#
#
#
# Elastic Constant Matrix: (Units=GPa)
#
#
# Indices 1 2 3 4 5 6 
#
# 1 113.3923 44.6883 16.1651 0.6776 -26.8616 5.7954
# 2 44.6883 134.5525 21.6751 -6.7150 -22.6480 5.1475
# 3 16.1651 21.6751 47.7914 -2.4583 -13.0878 -8.1968
# 4 0.6776 -6.7150 -2.4583 29.7565 -5.6807 -7.2309
# 5 -26.8616 -22.6480 -13.0878 -5.6807 25.0466 1.4284
# 6 5.7954 5.1475 -8.1968 -7.2309 1.4284 41.8666
#
#
#
# Elastic Compliance Matrix: (Units=1/GPa)
#
#
# Indices 1 2 3 4 5 6 
#
# 1 0.012536 -0.002001 -0.000355 0.001052 0.011789 -0.001779
# 2 -0.002001 0.009667 -0.002000 0.003021 0.006292 -0.000996
# 3 -0.000355 -0.002000 0.026777 0.005680 0.012744 0.006084
# 4 0.001052 0.003021 0.005680 0.039333 0.015357 0.006864
# 5 0.011789 0.006292 0.012744 0.015357 0.068377 0.000409
# 6 -0.001779 -0.000996 0.006084 0.006864 0.000409 0.026617
#
#
# Mechanical properties :
#
#
# Convention : Reuss Voigt Hill
#
# Bulk Modulus (GPa) = 24.83409 51.19926 38.01667
# Shear Modulus (GPa) = 24.33789 33.54779 28.94284
#
# Velocity S-wave (km/s) = 3.33617 3.91687 3.63812
# Velocity P-wave (km/s) = 5.11830 6.62344 5.91891
#
# Compressibility (1/GPa) = 0.04026723
#
# Stress axis : x y z
#
# Youngs Moduli (GPa) = 79.77284 103.44727 37.34542
#
# Poissons Ratio (x) = 0.20703 0.01326
# Poissons Ratio (y) = 0.15965 0.07468
# Poissons Ratio (z) = 0.02832 0.20686
#
# Static dielectric constant tensor:
#      x y z
#    x 1.875440 -0.033710 -0.004180 
#    y -0.033710 1.976440 -0.010480 
#    z -0.004180 -0.010480 1.892850 
# 
# From -- ./inp_files/390760.got.cif
#   From: 2010.05.17/outbox.cif.g08.bks.cpg/sg2_196_cif.got.tgz:390760.got - 2010.06.03 11:33:40.
