data_PCOD9086289
_publ_section_title
;
Structure prediction by ZEFSAII (Michael W. Deem and Ramdas Pophale) SiO2 
 PCOD9086289
Probable space group: P -1
;
_chemical_formula_sum "Si O2"
_cell_formula_units_Z 16
_cell_length_a 14.285917
_cell_length_b 11.051458
_cell_length_c 11.327288
_cell_angle_alpha 133.097222
_cell_angle_beta 91.716699
_cell_angle_gamma 125.479092
_cell_volume 740.942885
_symmetry_space_group_name_H-M "P -1"
_symmetry_group_IT_number 2
_symmetry_cell_setting 'triclinic'
loop_
_space_group_symop_operation_xyz
x,y,z
-x,-y,-z
loop_
_atom_site_type_symbol
_atom_site_label
_atom_site_fract_x
_atom_site_fract_y
_atom_site_fract_z
Si Si1 0.571697 0.168566 0.955647
Si Si2 0.743955 0.099199 0.021546
Si Si3 0.180060 0.568123 0.562223
Si Si4 0.118834 0.351479 0.165422
Si Si5 0.263593 0.268451 0.236088
Si Si6 0.257046 0.347237 0.535299
Si Si7 0.655448 0.181849 0.708989
Si Si8 0.838338 0.160581 0.799914
O O1 0.640242 0.253056 0.881572
O O2 0.375187 0.878410 0.751663
O O3 0.628766 0.087115 0.974915
O O4 0.639196 0.424690 0.201157
O O5 0.860260 0.343924 0.290622
O O6 0.681543 0.826959 0.877585
O O7 0.820356 0.162857 0.940847
O O8 0.110861 0.447716 0.348668
O O9 0.153640 0.357612 0.493048
O O10 0.186853 0.536459 0.175250
O O11 0.253348 0.403892 0.235147
O O12 0.931387 0.018776 0.924957
O O13 0.352270 0.439253 0.477028
O O14 0.170251 0.047720 0.367554
O O15 0.685356 0.033478 0.646803
O O16 0.500000 0.000000 0.500000
O O17 0.000000 0.500000 0.000000
#
# Coordination Sequence:
#
# PCOD9086289 Si02
#       8
#     2   2   2   2   2   2   2   2
#     4  10  20  37  57  84 116 147 184 236 291 335
#     4   9  18  34  57  85 105 139 193 234 276 329
#     4  10  19  36  57  83 116 145 182 239 288 334
#     4  10  20  37  57  77 118 154 183 233 289 346
#     4   9  19  36  57  85 108 145 195 237 283 334
#     4   9  18  36  58  83 105 143 190 239 280 322
#     4  11  21  38  56  83 118 158 191 226 295 359
#     4  10  21  39  60  83 114 151 197 241 284 342
#
# _framework density 21.594107999999999
#
# number of rings (size 3 to 8) (size 9 to 14) (size 15 to 20)
#    0.000    2.250    1.250    3.000    0.000    0.500 
#    4.500   20.625    0.000    0.000    0.000    0.000 
#    0.000    0.000    0.000    0.000    0.000    0.000 
#
# Total GULP energy -89178.111227 kJ/mol
# GULP energy per Si atom -5573.631952 kJ/mol
# Density = 2.154496 g / cm^3
# Si number density = 21.594108 Si / 1000 Ang^3
#
#
#
# Elastic Constant Matrix: (Units=GPa)
#
#
# Indices 1 2 3 4 5 6 
#
# 1 112.3387 31.5139 54.3093 -1.0251 -26.5340 -18.2669
# 2 31.5139 100.4437 39.3273 -11.4031 -6.9560 -18.2660
# 3 54.3093 39.3273 158.1561 -15.4077 -30.9243 -8.2107
# 4 -1.0251 -11.4031 -15.4077 35.9707 -1.8364 2.8211
# 5 -26.5340 -6.9560 -30.9243 -1.8364 43.5568 7.5057
# 6 -18.2669 -18.2660 -8.2107 2.8211 7.5057 25.1515
#
#
#
# Elastic Compliance Matrix: (Units=1/GPa)
#
#
# Indices 1 2 3 4 5 6 
#
# 1 0.012788 -0.001637 -0.002997 -0.001692 0.004291 0.006030
# 2 -0.001637 0.012947 -0.002393 0.002332 -0.001862 0.007727
# 3 -0.002997 -0.002393 0.009100 0.003522 0.004883 -0.002796
# 4 -0.001692 0.002332 0.003522 0.030411 0.003620 -0.002877
# 5 0.004291 -0.001862 0.004883 0.003620 0.029925 -0.005978
# 6 0.006030 0.007727 -0.002796 -0.002877 -0.005978 0.050943
#
#
# Mechanical properties :
#
#
# Convention : Reuss Voigt Hill
#
# Bulk Modulus (GPa) = 48.12151 69.02661 58.57406
# Shear Modulus (GPa) = 29.92289 37.32167 33.62228
#
# Velocity S-wave (km/s) = 3.72653 4.16182 3.95018
# Velocity P-wave (km/s) = 6.39132 7.42491 6.92742
#
# Compressibility (1/GPa) = 0.02078073
#
# Stress axis : x y z
#
# Youngs Moduli (GPa) = 78.19603 77.23581 109.89136
#
# Poissons Ratio (x) = 0.12646 0.32936
# Poissons Ratio (y) = 0.12803 0.26298
# Poissons Ratio (z) = 0.23436 0.18483
#
# Static dielectric constant tensor:
#      x y z
#    x 1.925600 -0.044220 0.009960 
#    y -0.044220 1.812180 0.022130 
#    z 0.009960 0.022130 1.850110 
# 
# From -- ./inp_files/305815.got.cif
#   From: 2010.05.17/outbox.cif.g08.bks.cpg/sg2_153_cif.got.tgz:305815.got - 2010.06.03 11:33:40.
