data_PCOD9086675
_publ_section_title
;
Structure prediction by ZEFSAII (Michael W. Deem and Ramdas Pophale) SiO2 
 PCOD9086675
Probable space group: P -1
;
_chemical_formula_sum "Si O2"
_cell_formula_units_Z 16
_cell_length_a 13.074241
_cell_length_b 12.211373
_cell_length_c 8.550520
_cell_angle_alpha 127.691328
_cell_angle_beta 128.298274
_cell_angle_gamma 52.556770
_cell_volume 788.002146
_symmetry_space_group_name_H-M "P -1"
_symmetry_group_IT_number 2
_symmetry_cell_setting 'triclinic'
loop_
_space_group_symop_operation_xyz
x,y,z
-x,-y,-z
loop_
_atom_site_type_symbol
_atom_site_label
_atom_site_fract_x
_atom_site_fract_y
_atom_site_fract_z
Si Si1 0.654237 0.901521 0.990901
Si Si2 0.090428 0.048034 0.256643
Si Si3 0.305671 0.433743 0.313483
Si Si4 0.376365 0.970574 0.270758
Si Si5 0.625216 0.341984 0.995029
Si Si6 0.871845 0.296367 0.435471
Si Si7 0.396533 0.639207 0.354778
Si Si8 0.195624 0.909018 0.555579
O O1 0.693804 0.724508 0.878088
O O2 0.654190 0.945572 0.848609
O O3 0.500000 0.000000 0.000000
O O4 0.769756 0.952320 0.228981
O O5 0.238420 0.022914 0.294196
O O6 0.009718 0.216017 0.391730
O O7 0.114017 0.949345 0.350256
O O8 0.000000 0.000000 0.000000
O O9 0.167110 0.551560 0.368096
O O10 0.350041 0.514957 0.282127
O O11 0.436596 0.406667 0.532842
O O12 0.500000 0.000000 0.500000
O O13 0.422196 0.794537 0.128967
O O14 0.675951 0.316894 0.842203
O O15 0.500000 0.500000 0.000000
O O16 0.745165 0.329756 0.220943
O O17 0.866558 0.170584 0.444301
O O18 0.343938 0.780512 0.541806
#
# Coordination Sequence:
#
# PCOD9086675 Si02
#       8
#     2   2   2   2   2   2   2   2
#     4  12  23  39  64  96 136 177 216 275 344 396
#     4  12  23  45  70  99 133 180 228 278 333 405
#     4  10  22  37  59  92 134 174 218 273 332 395
#     4  12  26  43  65 103 139 173 224 284 338 393
#     4  12  22  38  66  99 132 171 224 279 334 389
#     4  11  23  41  66  96 131 178 232 270 331 398
#     4  10  19  36  59  93 130 169 223 277 321 386
#     4  11  21  40  66  99 126 174 228 280 323 402
#
# _framework density 20.304513
#
# number of rings (size 3 to 8) (size 9 to 14) (size 15 to 20)
#    0.000    0.750    6.250    1.875    1.750    0.000 
#    0.000    1.250    0.000    0.000    0.000    0.000 
#    0.000    0.000    0.000    0.000    0.000    0.000 
#
# Total GULP energy -89314.971569 kJ/mol
# GULP energy per Si atom -5582.185723 kJ/mol
# Density = 2.025830 g / cm^3
# Si number density = 20.304513 Si / 1000 Ang^3
#
#
#
# Elastic Constant Matrix: (Units=GPa)
#
#
# Indices 1 2 3 4 5 6 
#
# 1 89.3176 35.6936 30.7607 6.5464 -13.4756 -22.8859
# 2 35.6936 108.1776 44.0376 25.9767 -0.0653 2.1559
# 3 30.7607 44.0376 100.9264 4.1776 -4.3838 15.2464
# 4 6.5464 25.9767 4.1776 56.9206 1.4007 -12.3315
# 5 -13.4756 -0.0653 -4.3838 1.4007 24.3922 0.8139
# 6 -22.8859 2.1559 15.2464 -12.3315 0.8139 41.8897
#
#
#
# Elastic Compliance Matrix: (Units=1/GPa)
#
#
# Indices 1 2 3 4 5 6 
#
# 1 0.020091 -0.005438 -0.005617 0.003411 0.009409 0.014122
# 2 -0.005438 0.014194 -0.003781 -0.006396 -0.003140 -0.004147
# 3 -0.005617 -0.003781 0.014536 -0.000490 -0.000195 -0.008305
# 4 0.003411 -0.006396 -0.000490 0.022044 0.000218 0.008856
# 5 0.009409 -0.003140 -0.000195 0.000218 0.045987 0.004544
# 6 0.014122 -0.004147 -0.008305 0.008856 0.004544 0.037343
#
#
# Mechanical properties :
#
#
# Convention : Reuss Voigt Hill
#
# Bulk Modulus (GPa) = 52.21767 57.71172 54.96469
# Shear Modulus (GPa) = 26.28112 37.16915 31.72513
#
# Velocity S-wave (km/s) = 3.60161 4.28318 3.95709
# Velocity P-wave (km/s) = 6.56266 7.27637 6.92871
#
# Compressibility (1/GPa) = 0.01915061
#
# Stress axis : x y z
#
# Youngs Moduli (GPa) = 49.77247 70.45175 68.79251
#
# Poissons Ratio (x) = 0.38308 0.38640
# Poissons Ratio (y) = 0.27064 0.26013
# Poissons Ratio (z) = 0.27957 0.26640
#
# Static dielectric constant tensor:
#      x y z
#    x 1.775880 -0.069330 -0.045200 
#    y -0.069330 1.773780 0.008730 
#    z -0.045200 0.008730 1.724860 
# 
# From -- ./inp_files/308622.got.cif
#   From: 2010.05.17/outbox.cif.g08.bks.cpg/sg2_155_cif.got.tgz:308622.got - 2010.06.03 11:33:40.
