data_PCOD9086122
_publ_section_title
;
Structure prediction by ZEFSAII (Michael W. Deem and Ramdas Pophale) SiO2 
 PCOD9086122
Probable space group: P -1
;
_chemical_formula_sum "Si O2"
_cell_formula_units_Z 14
_cell_length_a 7.073199
_cell_length_b 11.851547
_cell_length_c 19.996478
_cell_angle_alpha 143.317150
_cell_angle_beta 37.463939
_cell_angle_gamma 124.073700
_cell_volume 595.528318
_symmetry_space_group_name_H-M "P -1"
_symmetry_group_IT_number 2
_symmetry_cell_setting 'triclinic'
loop_
_space_group_symop_operation_xyz
x,y,z
-x,-y,-z
loop_
_atom_site_type_symbol
_atom_site_label
_atom_site_fract_x
_atom_site_fract_y
_atom_site_fract_z
Si Si1 0.964995 0.409314 0.263744
Si Si2 0.169271 0.059544 0.359025
Si Si3 0.538335 0.934514 0.064831
Si Si4 0.362449 0.126942 0.764994
Si Si5 0.259458 0.747050 0.925769
Si Si6 0.602268 0.284082 0.420497
Si Si7 0.435999 0.652623 0.299585
O O1 0.893984 0.338081 0.324929
O O2 0.627455 0.535784 0.395301
O O3 0.134281 0.220477 0.087069
O O4 0.207094 0.551254 0.269665
O O5 0.380502 0.219788 0.393490
O O6 0.804519 0.166712 0.513915
O O7 0.285823 0.913531 0.318872
O O8 0.304810 0.966162 0.207773
O O9 0.390271 0.834871 0.997951
O O10 0.616222 0.133382 0.110702
O O11 0.333823 0.267040 0.777194
O O12 0.311740 0.913803 0.657417
O O13 0.115572 0.201683 0.928955
O O14 0.388989 0.517358 0.782357
#
# Coordination Sequence:
#
# PCOD9086122 Si02
#       7
#     2   2   2   2   2   2   2
#     4   9  16  31  51  82 102 138 175 221 257 318
#     4   9  20  34  59  79 109 140 182 227 264 310
#     4  10  19  36  55  81 112 139 182 222 273 313
#     4  10  19  36  59  82 105 143 182 224 264 323
#     4  10  21  34  57  78 111 147 176 218 273 325
#     4   8  17  30  56  79 106 129 186 219 265 298
#     4  10  20  35  57  79 113 143 181 211 276 329
#
# _framework density 23.50854
#
# number of rings (size 3 to 8) (size 9 to 14) (size 15 to 20)
#    0.857    1.714    1.429    0.857    0.000    2.857 
#    0.000    3.571    3.143    1.714    0.000    0.000 
#    0.000    0.000    0.000    0.000    0.000    0.000 
#
# Total GULP energy -78111.787591 kJ/mol
# GULP energy per Si atom -5579.413399 kJ/mol
# Density = 2.345503 g / cm^3
# Si number density = 23.508540 Si / 1000 Ang^3
#
#
#
# Elastic Constant Matrix: (Units=GPa)
#
#
# Indices 1 2 3 4 5 6 
#
# 1 38.4124 0.1714 21.8322 5.7314 8.7293 1.3560
# 2 0.1714 116.6860 21.7916 -1.2991 -3.9397 -17.8120
# 3 21.8322 21.7916 108.7570 9.6676 -21.4816 -32.8876
# 4 5.7314 -1.2991 9.6676 26.8653 -10.5706 -9.3829
# 5 8.7293 -3.9397 -21.4816 -10.5706 32.7450 -0.2707
# 6 1.3560 -17.8120 -32.8876 -9.3829 -0.2707 14.3606
#
#
#
# Elastic Compliance Matrix: (Units=1/GPa)
#
#
# Indices 1 2 3 4 5 6 
#
# 1 0.007312 0.006828 0.016944 0.020442 0.017085 0.060262
# 2 0.006828 0.007975 -0.007171 -0.005070 -0.007289 -0.010625
# 3 0.016944 -0.007171 -0.010687 -0.027170 -0.021601 -0.053128
# 4 0.020442 -0.005070 -0.027170 0.012494 -0.020369 -0.062663
# 5 0.017085 -0.007289 -0.021601 -0.020369 0.003755 -0.073361
# 6 0.060262 -0.010625 -0.053128 -0.062663 -0.073361 -0.113228
#
#
# Mechanical properties :
#
#
# Convention : Reuss Voigt Hill
#
# Bulk Modulus (GPa) = 26.45266 39.04952 32.75109
# Shear Modulus (GPa) = -44.25502 29.46487 -7.39508
#
# Velocity S-wave (km/s) = -4.34350 3.54414 -1.77554
# Velocity P-wave (km/s) = 3.72529 5.77882 3.12385
#
# Compressibility (1/GPa) = 0.03780338
#
# Stress axis : x y z
#
# Youngs Moduli (GPa) = 136.75719 125.39750 -93.57374
#
# Poissons Ratio (x) = -0.85623 1.58554
# Poissons Ratio (y) = -0.93380 -0.67100
# Poissons Ratio (z) = -2.31725 0.89920
#
# Static dielectric constant tensor:
#      x y z
#    x 1.947610 -0.014300 -0.055050 
#    y -0.014300 1.842380 0.047690 
#    z -0.055050 0.047690 1.921040 
# 
# From -- ./inp_files/589588.got.cif
#   From: 2010.05.17/outbox.cif.g08.bks.cpg/sg2_295_cif.got.tgz:589588.got - 2010.06.03 11:33:40.
