data_PCOD9086830
_publ_section_title
;
Structure prediction by ZEFSAII (Michael W. Deem and Ramdas Pophale) SiO2 
 PCOD9086830
Probable space group: P -1
;
_chemical_formula_sum "Si O2"
_cell_formula_units_Z 16
_cell_length_a 9.357973
_cell_length_b 12.014035
_cell_length_c 10.455171
_cell_angle_alpha 103.020193
_cell_angle_beta 54.355204
_cell_angle_gamma 137.662736
_cell_volume 596.274434
_symmetry_space_group_name_H-M "P -1"
_symmetry_group_IT_number 2
_symmetry_cell_setting 'triclinic'
loop_
_space_group_symop_operation_xyz
x,y,z
-x,-y,-z
loop_
_atom_site_type_symbol
_atom_site_label
_atom_site_fract_x
_atom_site_fract_y
_atom_site_fract_z
Si Si1 0.513975 0.705959 0.050449
Si Si2 0.014681 0.916676 0.674420
Si Si3 0.547812 0.266380 0.627696
Si Si4 0.197999 0.475052 0.755236
Si Si5 0.758317 0.624717 0.544147
Si Si6 0.308217 0.040840 0.155064
Si Si7 0.922582 0.344702 0.273144
Si Si8 0.220042 0.843462 0.929233
O O1 0.533569 0.779223 0.194067
O O2 0.248980 0.495297 0.144593
O O3 0.448451 0.761588 0.984683
O O4 0.797377 0.795919 0.874822
O O5 0.969333 0.786455 0.573978
O O6 0.896890 0.972044 0.680476
O O7 0.309277 0.097635 0.619014
O O8 0.614890 0.433731 0.611053
O O9 0.809275 0.321455 0.465116
O O10 0.510988 0.592851 0.649280
O O11 0.109950 0.343730 0.652534
O O12 0.171072 0.588514 0.741647
O O13 0.015806 0.358148 0.943666
O O14 0.473992 0.039483 0.157264
O O15 0.166347 0.925138 0.068588
O O16 0.797756 0.175990 0.218102
#
# Coordination Sequence:
#
# PCOD9086830 Si02
#       8
#     2   2   2   2   2   2   2   2
#     4  10  22  43  60  84 125 159 202 253 294 350
#     4  10  21  41  62  87 120 161 203 245 298 357
#     4  11  24  42  60  90 126 160 204 250 295 357
#     4  10  19  36  60  89 128 150 197 255 298 364
#     4  10  22  37  61  93 121 165 194 246 312 354
#     4   9  22  35  60  90 117 154 198 256 290 360
#     4  11  22  38  65  89 118 161 200 250 306 355
#     4  11  19  37  60  90 117 158 201 244 309 362
#
# _framework density 26.833282000000001
#
# number of rings (size 3 to 8) (size 9 to 14) (size 15 to 20)
#    0.750    1.000    1.250    3.375    0.000    2.500 
#    2.250    7.500    0.000    0.000    0.000    0.000 
#    0.000    0.000    0.000    0.000    0.000    0.000 
#
# Total GULP energy -89512.704486 kJ/mol
# GULP energy per Si atom -5594.544030 kJ/mol
# Density = 2.677221 g / cm^3
# Si number density = 26.833282 Si / 1000 Ang^3
#
#
#
# Elastic Constant Matrix: (Units=GPa)
#
#
# Indices 1 2 3 4 5 6 
#
# 1 73.4790 21.7547 12.0234 3.7633 -19.0886 -12.5213
# 2 21.7547 160.3411 35.4011 31.9909 -6.6964 19.5175
# 3 12.0234 35.4011 129.1654 11.1352 10.9235 -0.9318
# 4 3.7633 31.9909 11.1352 48.7936 2.6022 0.3529
# 5 -19.0886 -6.6964 10.9235 2.6022 27.9819 6.3354
# 6 -12.5213 19.5175 -0.9318 0.3529 6.3354 33.0391
#
#
#
# Elastic Compliance Matrix: (Units=1/GPa)
#
#
# Indices 1 2 3 4 5 6 
#
# 1 0.018708 -0.002337 -0.002028 -0.000111 0.011603 0.006190
# 2 -0.002337 0.009105 -0.002156 -0.005434 0.003502 -0.006939
# 3 -0.002028 -0.002156 0.009046 -0.000197 -0.005838 0.001882
# 4 -0.000111 -0.005434 -0.000197 0.024319 -0.004410 0.003748
# 5 0.011603 0.003502 -0.005838 -0.004410 0.048798 -0.007146
# 6 0.006190 -0.006939 0.001882 0.003748 -0.007146 0.038095
#
#
# Mechanical properties :
#
#
# Convention : Reuss Voigt Hill
#
# Bulk Modulus (GPa) = 41.98652 55.70488 48.84570
# Shear Modulus (GPa) = 29.57682 41.54999 35.56340
#
# Velocity S-wave (km/s) = 3.32361 3.93930 3.64448
# Velocity P-wave (km/s) = 5.51449 6.44170 5.99605
#
# Compressibility (1/GPa) = 0.02381717
#
# Stress axis : x y z
#
# Youngs Moduli (GPa) = 53.45333 109.83259 110.54753
#
# Poissons Ratio (x) = 0.25669 0.22418
# Poissons Ratio (y) = 0.12493 0.23830
# Poissons Ratio (z) = 0.10840 0.23676
#
# Static dielectric constant tensor:
#      x y z
#    x 2.133590 -0.069810 0.077930 
#    y -0.069810 2.137750 -0.006300 
#    z 0.077930 -0.006300 2.079680 
# 
# From -- ./inp_files/433070.got.cif
#   From: 2010.05.17/outbox.cif.g08.bks.cpg/sg2_217_cif.got.tgz:433070.got - 2010.06.03 11:33:40.
