data_PCOD9086902
_publ_section_title
;
Structure prediction by ZEFSAII (Michael W. Deem and Ramdas Pophale) SiO2 
 PCOD9086902
Probable space group: P -1
;
_chemical_formula_sum "Si O2"
_cell_formula_units_Z 14
_cell_length_a 5.591463
_cell_length_b 14.050977
_cell_length_c 8.470952
_cell_angle_alpha 67.674833
_cell_angle_beta 105.966214
_cell_angle_gamma 119.692159
_cell_volume 531.668159
_symmetry_space_group_name_H-M "P -1"
_symmetry_group_IT_number 2
_symmetry_cell_setting 'triclinic'
loop_
_space_group_symop_operation_xyz
x,y,z
-x,-y,-z
loop_
_atom_site_type_symbol
_atom_site_label
_atom_site_fract_x
_atom_site_fract_y
_atom_site_fract_z
Si Si1 0.105875 0.966081 0.386234
Si Si2 0.170336 0.133451 0.894473
Si Si3 0.646725 0.160090 0.306109
Si Si4 0.292693 0.869123 0.996581
Si Si5 0.576720 0.417337 0.453166
Si Si6 0.902985 0.620301 0.820223
Si Si7 0.934681 0.416716 0.790683
O O1 0.278946 0.893612 0.495124
O O2 0.859052 0.882539 0.287076
O O3 0.320835 0.086147 0.272938
O O4 0.000000 0.000000 0.500000
O O5 0.497041 0.189327 0.947652
O O6 0.965658 0.181143 0.900713
O O7 0.000000 0.000000 0.000000
O O8 0.795000 0.295521 0.248523
O O9 0.789031 0.129568 0.200192
O O10 0.500000 0.000000 0.000000
O O11 0.500000 0.500000 0.500000
O O12 0.311807 0.345812 0.336841
O O13 0.807893 0.498166 0.321535
O O14 0.710135 0.361225 0.639987
O O15 0.824004 0.491891 0.830340
O O16 0.938425 0.629724 0.011268
#
# Coordination Sequence:
#
# PCOD9086902 Si02
#       7
#     2   2   2   2   2   2   2
#     4  11  23  39  60  83 120 169 206 269 325 375
#     4  10  19  36  61  81 113 163 213 258 322 383
#     4  11  24  38  59  88 122 160 220 264 317 384
#     4  10  19  38  60  83 114 163 210 267 318 383
#     4   9  18  37  65  92 125 163 202 248 320 390
#     4  10  21  39  61  96 124 164 210 261 316 383
#     4   9  19  39  67  90 129 165 198 257 324 384
#
# _framework density 26.332215000000001
#
# number of rings (size 3 to 8) (size 9 to 14) (size 15 to 20)
#    0.000    2.000    2.857    2.143    2.000    1.143 
#    2.571    4.286    0.000    0.000    0.000    0.000 
#    0.000    0.000    0.000    0.000    0.000    0.000 
#
# Total GULP energy -78016.259786 kJ/mol
# GULP energy per Si atom -5572.589985 kJ/mol
# Density = 2.627228 g / cm^3
# Si number density = 26.332215 Si / 1000 Ang^3
#
#
#
# Elastic Constant Matrix: (Units=GPa)
#
#
# Indices 1 2 3 4 5 6 
#
# 1 129.3451 15.7693 45.8576 20.7483 -12.9340 19.2385
# 2 15.7693 77.6984 50.2874 22.0977 11.5240 13.1727
# 3 45.8576 50.2874 166.9066 20.8922 7.2340 24.8493
# 4 20.7483 22.0977 20.8922 52.7656 12.1317 4.3482
# 5 -12.9340 11.5240 7.2340 12.1317 40.6829 14.4535
# 6 19.2385 13.1727 24.8493 4.3482 14.4535 33.8084
#
#
#
# Elastic Compliance Matrix: (Units=1/GPa)
#
#
# Indices 1 2 3 4 5 6 
#
# 1 0.011096 0.000461 -0.001705 -0.005074 0.008069 -0.008037
# 2 0.000461 0.017796 -0.004362 -0.005323 -0.001601 -0.002621
# 3 -0.001705 -0.004362 0.008381 -0.000682 0.000725 -0.003712
# 4 -0.005074 -0.005323 -0.000682 0.025163 -0.009761 0.006399
# 5 0.008069 -0.001601 0.000725 -0.009761 0.037181 -0.019141
# 6 -0.008037 -0.002621 -0.003712 0.006399 -0.019141 0.045261
#
#
# Mechanical properties :
#
#
# Convention : Reuss Voigt Hill
#
# Bulk Modulus (GPa) = 38.37634 66.41987 52.39810
# Shear Modulus (GPa) = 30.34391 42.92042 36.63217
#
# Velocity S-wave (km/s) = 3.39831 4.04165 3.73386
# Velocity P-wave (km/s) = 5.47755 6.85992 6.20734
#
# Compressibility (1/GPa) = 0.02605772
#
# Stress axis : x y z
#
# Youngs Moduli (GPa) = 90.12416 56.19353 119.31917
#
# Poissons Ratio (x) = -0.02588 0.20349
# Poissons Ratio (y) = -0.04151 0.52052
# Poissons Ratio (z) = 0.15370 0.24514
#
# Static dielectric constant tensor:
#      x y z
#    x 2.125970 -0.012310 0.107450 
#    y -0.012310 2.100840 0.009780 
#    z 0.107450 0.009780 2.277310 
# 
# From -- ./inp_files/138765.got.cif
#   From: 2010.05.17/outbox.cif.g08.bks.cpg/sg2_70_cif.got.tgz:138765.got - 2010.06.03 11:33:40.
