data_PCOD9086947
_publ_section_title
;
Structure prediction by ZEFSAII (Michael W. Deem and Ramdas Pophale) SiO2 
 PCOD9086947
Probable space group: P -1
;
_chemical_formula_sum "Si O2"
_cell_formula_units_Z 16
_cell_length_a 9.213036
_cell_length_b 8.451328
_cell_length_c 11.591165
_cell_angle_alpha 64.563652
_cell_angle_beta 88.458169
_cell_angle_gamma 101.666831
_cell_volume 791.559213
_symmetry_space_group_name_H-M "P -1"
_symmetry_group_IT_number 2
_symmetry_cell_setting 'triclinic'
loop_
_space_group_symop_operation_xyz
x,y,z
-x,-y,-z
loop_
_atom_site_type_symbol
_atom_site_label
_atom_site_fract_x
_atom_site_fract_y
_atom_site_fract_z
Si Si1 0.590032 0.795397 0.387915
Si Si2 0.469824 0.166178 0.875578
Si Si3 0.108291 0.997719 0.606222
Si Si4 0.953389 0.069351 0.809621
Si Si5 0.822349 0.737260 0.054710
Si Si6 0.215562 0.628568 0.263585
Si Si7 0.089855 0.584940 0.754455
Si Si8 0.289437 0.555309 0.537160
O O1 0.578126 0.896121 0.235735
O O2 0.429037 0.729652 0.471683
O O3 0.638712 0.615794 0.399441
O O4 0.718612 0.897962 0.438491
O O5 0.341507 0.242554 0.915771
O O6 0.619991 0.324069 0.808170
O O7 0.500000 0.000000 0.000000
O O8 0.108557 0.795136 0.707134
O O9 0.000000 0.000000 0.500000
O O10 0.039142 0.091180 0.681532
O O11 0.826174 0.179364 0.779510
O O12 0.071112 0.161562 0.875689
O O13 0.884017 0.860749 0.905314
O O14 0.843030 0.534304 0.118176
O O15 0.214847 0.542522 0.416826
O O16 0.085045 0.506858 0.229386
O O17 0.175817 0.564244 0.639005
#
# Coordination Sequence:
#
# PCOD9086947 Si02
#       8
#     2   2   2   2   2   2   2   2
#     4  10  21  37  60  91 117 154 200 251 296 348
#     4  11  19  36  65  93 113 147 203 262 301 335
#     4  12  24  39  60  87 128 166 194 236 297 371
#     4  10  20  38  61  88 119 150 205 249 292 350
#     4  10  20  38  63  88 114 154 201 259 294 339
#     4  10  20  33  62  90 114 152 203 250 295 348
#     4  11  22  36  57  88 122 162 195 239 300 361
#     4  10  19  36  61  85 117 150 201 255 293 337
#
# _framework density 20.213270000000001
#
# number of rings (size 3 to 8) (size 9 to 14) (size 15 to 20)
#    0.000    1.500    3.750    2.625    0.000    1.000 
#    0.000    0.000    0.000    1.500    0.000    0.000 
#    0.000    0.000    0.000    0.000    0.000    0.000 
#
# Total GULP energy -89361.602074 kJ/mol
# GULP energy per Si atom -5585.100130 kJ/mol
# Density = 2.016726 g / cm^3
# Si number density = 20.213270 Si / 1000 Ang^3
#
#
#
# Elastic Constant Matrix: (Units=GPa)
#
#
# Indices 1 2 3 4 5 6 
#
# 1 96.0938 3.2495 6.7158 -7.3445 3.0629 5.0093
# 2 3.2495 35.9462 -7.5371 -17.9128 6.8218 4.4552
# 3 6.7158 -7.5371 68.6009 -13.4972 14.0111 2.2299
# 4 -7.3445 -17.9128 -13.4972 23.9621 -4.9512 2.2335
# 5 3.0629 6.8218 14.0111 -4.9512 35.1481 -3.5721
# 6 5.0093 4.4552 2.2299 2.2335 -3.5721 22.0880
#
#
#
# Elastic Compliance Matrix: (Units=1/GPa)
#
#
# Indices 1 2 3 4 5 6 
#
# 1 0.010978 0.003152 0.000952 0.006335 -0.001472 -0.004100
# 2 0.003152 0.076222 0.026987 0.072008 -0.018641 -0.029109
# 3 0.000952 0.026987 0.027299 0.034508 -0.012762 -0.013968
# 4 0.006335 0.072008 0.034508 0.116937 -0.015240 -0.033734
# 5 -0.001472 -0.018641 -0.012762 -0.015240 0.036440 0.012816
# 6 -0.004100 -0.029109 -0.013968 -0.033734 0.012816 0.058969
#
#
# Mechanical properties :
#
#
# Convention : Reuss Voigt Hill
#
# Bulk Modulus (GPa) = 5.65995 22.83303 14.24649
# Shear Modulus (GPa) = 15.45323 29.45380 22.45351
#
# Velocity S-wave (km/s) = 2.76798 3.82141 3.33653
# Velocity P-wave (km/s) = 3.60857 5.54900 4.68045
#
# Compressibility (1/GPa) = 0.17668014
#
# Stress axis : x y z
#
# Youngs Moduli (GPa) = 91.08927 13.11958 36.63159
#
# Poissons Ratio (x) = -0.04135 -0.03487
# Poissons Ratio (y) = -0.28708 -0.98858
# Poissons Ratio (z) = -0.08671 -0.35406
#
# Static dielectric constant tensor:
#      x y z
#    x 1.724440 0.017550 0.012100 
#    y 0.017550 1.708440 -0.035850 
#    z 0.012100 -0.035850 1.740450 
# 
# From -- ./inp_files/169427.got.cif
#   From: 2010.05.17/outbox.cif.g08.bks.cpg/sg2_85_cif.got.tgz:169427.got - 2010.06.03 11:33:40.
