data_PCOD9086867
_publ_section_title
;
Structure prediction by ZEFSAII (Michael W. Deem and Ramdas Pophale) SiO2 
 PCOD9086867
Probable space group: P -1
;
_chemical_formula_sum "Si O2"
_cell_formula_units_Z 16
_cell_length_a 8.707175
_cell_length_b 11.626142
_cell_length_c 19.777027
_cell_angle_alpha 29.302273
_cell_angle_beta 108.656941
_cell_angle_gamma 90.715295
_cell_volume 759.727502
_symmetry_space_group_name_H-M "P -1"
_symmetry_group_IT_number 2
_symmetry_cell_setting 'triclinic'
loop_
_space_group_symop_operation_xyz
x,y,z
-x,-y,-z
loop_
_atom_site_type_symbol
_atom_site_label
_atom_site_fract_x
_atom_site_fract_y
_atom_site_fract_z
Si Si1 0.166788 0.750701 0.080800
Si Si2 0.127768 0.385070 0.645070
Si Si3 0.286148 0.364325 0.944773
Si Si4 0.718089 0.166386 0.753701
Si Si5 0.064453 0.336633 0.808289
Si Si6 0.010735 0.725581 0.841736
Si Si7 0.655790 0.332147 0.504634
Si Si8 0.321053 0.728854 0.979990
O O1 0.124319 0.580698 0.215431
O O2 0.310145 0.591434 0.119180
O O3 0.190371 0.987262 0.997115
O O4 0.947753 0.964064 0.907649
O O5 0.017369 0.464436 0.661001
O O6 0.263841 0.499805 0.604311
O O7 0.000000 0.500000 0.500000
O O8 0.253695 0.043992 0.831966
O O9 0.199058 0.397567 0.840414
O O10 0.111541 0.586626 0.856107
O O11 0.461250 0.408299 0.948047
O O12 0.353988 0.045886 0.142884
O O13 0.708242 0.274370 0.621403
O O14 0.580320 0.444370 0.638704
O O15 0.161240 0.768349 0.883202
O O16 0.789953 0.014125 0.656123
O O17 0.000000 0.500000 0.000000
#
# Coordination Sequence:
#
# PCOD9086867 Si02
#       8
#     2   2   2   2   2   2   2   2
#     4   9  17  36  58  88 122 153 207 256 302 352
#     4  11  20  36  63  93 122 152 204 263 312 354
#     4  11  22  38  59  93 126 160 210 248 304 368
#     4  10  19  36  60  92 120 159 207 254 298 364
#     4   9  20  36  58  90 120 164 199 255 307 363
#     4  12  22  39  61  89 127 168 202 250 306 370
#     4  11  20  35  61  89 123 160 201 254 307 353
#     4  11  21  37  62  92 121 160 208 255 300 353
#
# _framework density 21.060185000000001
#
# number of rings (size 3 to 8) (size 9 to 14) (size 15 to 20)
#    0.000    1.500    5.000    1.875    0.000    2.000 
#    2.250    0.625    0.000    0.750    0.000    0.000 
#    0.000    0.000    0.000    0.000    0.000    0.000 
#
# Total GULP energy -89251.539890 kJ/mol
# GULP energy per Si atom -5578.221243 kJ/mol
# Density = 2.101225 g / cm^3
# Si number density = 21.060185 Si / 1000 Ang^3
#
#
#
# Elastic Constant Matrix: (Units=GPa)
#
#
# Indices 1 2 3 4 5 6 
#
# 1 94.4779 24.7901 31.6450 4.6860 1.6564 -19.3007
# 2 24.7901 78.2440 22.0971 10.6848 1.6029 -21.0605
# 3 31.6450 22.0971 57.1684 -6.0185 0.5997 -15.4303
# 4 4.6860 10.6848 -6.0185 36.3292 -10.7647 -3.5951
# 5 1.6564 1.6029 0.5997 -10.7647 28.2128 -1.1419
# 6 -19.3007 -21.0605 -15.4303 -3.5951 -1.1419 41.0337
#
#
#
# Elastic Compliance Matrix: (Units=1/GPa)
#
#
# Indices 1 2 3 4 5 6 
#
# 1 0.013945 -0.001315 -0.006632 -0.002642 -0.001485 0.003118
# 2 -0.001315 0.016965 -0.004896 -0.005903 -0.002806 0.005652
# 3 -0.006632 -0.004896 0.025090 0.007893 0.003331 0.004587
# 4 -0.002642 -0.005903 0.007893 0.035230 0.013853 0.002168
# 5 -0.001485 -0.002806 0.003331 0.013853 0.040966 0.001468
# 6 0.003118 0.005652 0.004587 0.002168 0.001468 0.030693
#
#
# Mechanical properties :
#
#
# Convention : Reuss Voigt Hill
#
# Bulk Modulus (GPa) = 32.98820 42.99496 37.99158
# Shear Modulus (GPa) = 25.16638 31.20570 28.18604
#
# Velocity S-wave (km/s) = 3.46059 3.85351 3.66232
# Velocity P-wave (km/s) = 5.62720 6.34500 5.99685
#
# Compressibility (1/GPa) = 0.03031387
#
# Stress axis : x y z
#
# Youngs Moduli (GPa) = 71.71141 58.94551 39.85714
#
# Poissons Ratio (x) = 0.07750 0.26433
# Poissons Ratio (y) = 0.09429 0.19514
# Poissons Ratio (z) = 0.47558 0.28859
#
# Static dielectric constant tensor:
#      x y z
#    x 1.811940 -0.007560 -0.003640 
#    y -0.007560 1.813370 0.019730 
#    z -0.003640 0.019730 1.768720 
# 
# From -- ./inp_files/589374.got.cif
#   From: 2010.05.17/outbox.cif.g08.bks.cpg/sg2_295_cif.got.tgz:589374.got - 2010.06.03 11:33:40.
