data_PCOD9086645
_publ_section_title
;
Structure prediction by ZEFSAII (Michael W. Deem and Ramdas Pophale) SiO2 
 PCOD9086645
Probable space group: P -1
;
_chemical_formula_sum "Si O2"
_cell_formula_units_Z 16
_cell_length_a 12.073312
_cell_length_b 14.549215
_cell_length_c 12.193146
_cell_angle_alpha 118.019603
_cell_angle_beta 153.505549
_cell_angle_gamma 52.083663
_cell_volume 733.959980
_symmetry_space_group_name_H-M "P -1"
_symmetry_group_IT_number 2
_symmetry_cell_setting 'triclinic'
loop_
_space_group_symop_operation_xyz
x,y,z
-x,-y,-z
loop_
_atom_site_type_symbol
_atom_site_label
_atom_site_fract_x
_atom_site_fract_y
_atom_site_fract_z
Si Si1 0.190081 0.332993 0.649975
Si Si2 0.751843 0.923063 0.811301
Si Si3 0.473579 0.231841 0.500547
Si Si4 0.628396 0.508721 0.828176
Si Si5 0.252513 0.830785 0.058855
Si Si6 0.097964 0.730509 0.197883
Si Si7 0.080652 0.589274 0.767964
Si Si8 0.034947 0.343350 0.745604
O O1 0.524805 0.269227 0.880643
O O2 0.078956 0.469380 0.664149
O O3 0.011076 0.336231 0.385134
O O4 0.151148 0.276690 0.695034
O O5 0.490103 0.898787 0.555204
O O6 0.715756 0.052451 0.867663
O O7 0.923721 0.875001 0.820415
O O8 0.907811 0.838149 0.006648
O O9 0.629363 0.223383 0.747127
O O10 0.604919 0.266874 0.536030
O O11 0.157251 0.332368 0.308761
O O12 0.811008 0.397989 0.847159
O O13 0.305400 0.571546 0.532092
O O14 0.637060 0.459445 0.933691
O O15 0.781930 0.590414 0.021890
O O16 0.953348 0.738128 0.188754
#
# Coordination Sequence:
#
# PCOD9086645 Si02
#       8
#     2   2   2   2   2   2   2   2
#     4   9  19  39  58  87 128 161 197 246 306 373
#     4  10  20  36  62  88 114 155 207 258 307 348
#     4  10  19  36  59  89 119 154 197 263 304 356
#     4  11  22  39  60  90 127 162 206 253 304 353
#     4   9  20  38  59  88 118 154 203 258 306 358
#     4  11  22  35  60  88 123 158 208 251 303 356
#     4   9  18  36  60  90 119 156 201 246 312 363
#     4  11  25  39  59  91 128 169 201 242 303 377
#
# _framework density 21.799555000000002
#
# number of rings (size 3 to 8) (size 9 to 14) (size 15 to 20)
#    0.000    2.000    1.250    2.625    1.750    1.500 
#    9.000    0.625    0.000    0.750    0.000    0.000 
#    0.000    0.000    0.000    0.000    0.000    0.000 
#
# Total GULP energy -89098.179127 kJ/mol
# GULP energy per Si atom -5568.636195 kJ/mol
# Density = 2.174994 g / cm^3
# Si number density = 21.799555 Si / 1000 Ang^3
#
#
#
# Elastic Constant Matrix: (Units=GPa)
#
#
# Indices 1 2 3 4 5 6 
#
# 1 148.9900 29.8786 18.6471 5.8894 -1.2558 17.9187
# 2 29.8786 59.3544 19.8264 8.3459 11.0251 23.0805
# 3 18.6471 19.8264 64.1181 2.0345 5.1739 10.7878
# 4 5.8894 8.3459 2.0345 26.8804 8.6229 6.1255
# 5 -1.2558 11.0251 5.1739 8.6229 23.5195 4.3745
# 6 17.9187 23.0805 10.7878 6.1255 4.3745 15.0959
#
#
#
# Elastic Compliance Matrix: (Units=1/GPa)
#
#
# Indices 1 2 3 4 5 6 
#
# 1 0.008030 -0.001229 -0.000880 -0.000464 0.002790 -0.007644
# 2 -0.001229 0.043953 -0.001919 0.004420 -0.010106 -0.063237
# 3 -0.000880 -0.001919 0.018106 0.002236 -0.002235 -0.009221
# 4 -0.000464 0.004420 0.002236 0.045646 -0.015249 -0.021908
# 5 0.002790 -0.010106 -0.002235 -0.015249 0.052617 0.004678
# 6 -0.007644 -0.063237 -0.009221 -0.021908 0.004678 0.186124
#
#
# Mechanical properties :
#
#
# Convention : Reuss Voigt Hill
#
# Bulk Modulus (GPa) = 16.12012 45.46298 30.79155
# Shear Modulus (GPa) = 13.04769 26.70650 19.87710
#
# Velocity S-wave (km/s) = 2.44914 3.50393 3.02290
# Velocity P-wave (km/s) = 3.92536 6.10494 5.13219
#
# Compressibility (1/GPa) = 0.06203426
#
# Stress axis : x y z
#
# Youngs Moduli (GPa) = 124.53999 22.75133 55.22973
#
# Poissons Ratio (x) = 0.02796 0.04858
# Poissons Ratio (y) = 0.15304 0.10599
# Poissons Ratio (z) = 0.10954 0.04366
#
# Static dielectric constant tensor:
#      x y z
#    x 1.836370 0.021900 0.059160 
#    y 0.021900 1.830960 -0.044270 
#    z 0.059160 -0.044270 2.009700 
# 
# From -- ./inp_files/433151.got.cif
#   From: 2010.05.17/outbox.cif.g08.bks.cpg/sg2_217_cif.got.tgz:433151.got - 2010.06.03 11:33:40.
