data_PCOD9086756
_publ_section_title
;
Structure prediction by ZEFSAII (Michael W. Deem and Ramdas Pophale) SiO2 
 PCOD9086756
Probable space group: P -1
;
_chemical_formula_sum "Si O2"
_cell_formula_units_Z 16
_cell_length_a 7.655700
_cell_length_b 9.989475
_cell_length_c 11.234656
_cell_angle_alpha 103.331435
_cell_angle_beta 130.184177
_cell_angle_gamma 78.889155
_cell_volume 637.592070
_symmetry_space_group_name_H-M "P -1"
_symmetry_group_IT_number 2
_symmetry_cell_setting 'triclinic'
loop_
_space_group_symop_operation_xyz
x,y,z
-x,-y,-z
loop_
_atom_site_type_symbol
_atom_site_label
_atom_site_fract_x
_atom_site_fract_y
_atom_site_fract_z
Si Si1 0.402357 0.023418 0.829666
Si Si2 0.197309 0.121245 0.368541
Si Si3 0.673108 0.433992 0.272310
Si Si4 0.429672 0.246311 0.276689
Si Si5 0.095733 0.828874 0.318945
Si Si6 0.973232 0.341406 0.975836
Si Si7 0.271703 0.766349 0.944512
Si Si8 0.086132 0.304461 0.565454
O O1 0.153205 0.093951 0.749721
O O2 0.414073 0.883524 0.731827
O O3 0.582222 0.132522 0.892076
O O4 0.500000 0.000000 0.000000
O O5 0.361754 0.207051 0.373123
O O6 0.194737 0.175410 0.513915
O O7 0.945335 0.151530 0.199591
O O8 0.241551 0.957337 0.370337
O O9 0.522563 0.394713 0.312319
O O10 0.594834 0.330678 0.113977
O O11 0.720318 0.590498 0.292631
O O12 0.928656 0.375704 0.407285
O O13 0.197907 0.249639 0.097335
O O14 0.089889 0.734890 0.416188
O O15 0.110725 0.726795 0.194226
O O16 0.818217 0.338299 0.022576
O O17 0.000000 0.500000 0.000000
#
# Coordination Sequence:
#
# PCOD9086756 Si02
#       8
#     2   2   2   2   2   2   2   2
#     4  12  19  36  62  92 116 150 193 239 296 350
#     4  10  21  38  59  85 116 154 197 244 290 341
#     4  10  20  41  62  82 116 162 204 235 289 352
#     4  11  22  39  64  88 117 157 197 241 297 354
#     4  12  22  39  62  90 122 151 198 245 293 350
#     4  11  23  37  58  91 125 153 188 242 300 355
#     4  10  19  36  60  86 117 153 195 237 293 353
#     4  10  23  39  60  84 116 162 201 243 287 344
#
# _framework density 25.094418000000001
#
# number of rings (size 3 to 8) (size 9 to 14) (size 15 to 20)
#    0.000    1.250    3.750    2.625    0.000    4.500 
#    0.000    6.250    0.000    0.000    0.000    0.000 
#    0.000    0.000    0.000    0.000    0.000    0.000 
#
# Total GULP energy -89342.190803 kJ/mol
# GULP energy per Si atom -5583.886925 kJ/mol
# Density = 2.503730 g / cm^3
# Si number density = 25.094418 Si / 1000 Ang^3
#
#
#
# Elastic Constant Matrix: (Units=GPa)
#
#
# Indices 1 2 3 4 5 6 
#
# 1 72.1816 19.5973 8.3679 0.1142 -20.2394 30.1980
# 2 19.5973 129.9489 31.7373 20.3925 -20.2175 35.1201
# 3 8.3679 31.7373 63.7162 5.7735 -18.0391 5.5242
# 4 0.1142 20.3925 5.7735 42.3527 1.1445 5.6385
# 5 -20.2394 -20.2175 -18.0391 1.1445 40.2126 -3.7006
# 6 30.1980 35.1201 5.5242 5.6385 -3.7006 54.8857
#
#
#
# Elastic Compliance Matrix: (Units=1/GPa)
#
#
# Indices 1 2 3 4 5 6 
#
# 1 0.021454 0.001519 0.000445 0.000481 0.010629 -0.012153
# 2 0.001519 0.011689 -0.003760 -0.004280 0.004414 -0.007199
# 3 0.000445 -0.003760 0.019592 -0.001163 0.007229 0.000796
# 4 0.000481 -0.004280 -0.001163 0.025955 -0.003197 -0.000291
# 5 0.010629 0.004414 0.007229 -0.003197 0.035154 -0.006701
# 6 -0.012153 -0.007199 0.000796 -0.000291 -0.006701 0.029011
#
#
# Mechanical properties :
#
#
# Convention : Reuss Voigt Hill
#
# Bulk Modulus (GPa) = 20.34895 42.80575 31.57735
# Shear Modulus (GPa) = 30.70747 41.23313 35.97030
#
# Velocity S-wave (km/s) = 3.50191 4.05794 3.79013
# Velocity P-wave (km/s) = 4.94749 6.24906 5.63597
#
# Compressibility (1/GPa) = 0.04914259
#
# Stress axis : x y z
#
# Youngs Moduli (GPa) = 46.61106 85.55348 51.04128
#
# Poissons Ratio (x) = -0.12992 -0.02274
# Poissons Ratio (y) = -0.07078 0.19192
# Poissons Ratio (z) = -0.02076 0.32168
#
# Static dielectric constant tensor:
#      x y z
#    x 2.053130 0.103960 0.120420 
#    y 0.103960 2.118530 -0.000560 
#    z 0.120420 -0.000560 2.026110 
# 
# From -- ./inp_files/207381.got.cif
#   From: 2010.05.17/outbox.cif.g08.bks.cpg/sg2_104_cif.got.tgz:207381.got - 2010.06.03 11:33:40.
