data_PCOD9086580
_publ_section_title
;
Structure prediction by ZEFSAII (Michael W. Deem and Ramdas Pophale) SiO2 
 PCOD9086580
Probable space group: P -1
;
_chemical_formula_sum "Si O2"
_cell_formula_units_Z 14
_cell_length_a 10.842276
_cell_length_b 9.813973
_cell_length_c 7.734830
_cell_angle_alpha 49.243400
_cell_angle_beta 78.398518
_cell_angle_gamma 62.630959
_cell_volume 547.620939
_symmetry_space_group_name_H-M "P -1"
_symmetry_group_IT_number 2
_symmetry_cell_setting 'triclinic'
loop_
_space_group_symop_operation_xyz
x,y,z
-x,-y,-z
loop_
_atom_site_type_symbol
_atom_site_label
_atom_site_fract_x
_atom_site_fract_y
_atom_site_fract_z
Si Si1 0.386115 0.210590 0.127709
Si Si2 0.832244 0.292298 0.880978
Si Si3 0.475499 0.807225 0.530786
Si Si4 0.518795 0.417160 0.755025
Si Si5 0.108153 0.526893 0.819971
Si Si6 0.788188 0.685352 0.410606
Si Si7 0.965738 0.901708 0.325104
O O1 0.477614 0.186886 0.291828
O O2 0.361055 0.014447 0.310827
O O3 0.479273 0.235403 0.929604
O O4 0.250341 0.419944 0.979762
O O5 0.670130 0.351200 0.849444
O O6 0.851340 0.493347 0.681613
O O7 0.909254 0.166423 0.793213
O O8 0.897094 0.142317 0.146093
O O9 0.428028 0.631245 0.693696
O O10 0.620740 0.763125 0.421127
O O11 0.500000 0.500000 0.500000
O O12 0.159544 0.397073 0.730295
O O13 0.036440 0.756839 0.586150
O O14 0.000000 0.500000 0.000000
O O15 0.848235 0.837722 0.332189
#
# Coordination Sequence:
#
# PCOD9086580 Si02
#       7
#     2   2   2   2   2   2   2
#     4  11  23  41  62  88 126 160 199 253 299 356
#     4   9  19  33  58  87 115 151 197 240 288 354
#     4  10  23  41  64  90 118 162 205 245 305 357
#     4  11  22  38  62  92 122 155 201 253 302 357
#     4  11  23  38  60  90 121 155 200 249 298 358
#     4  10  20  39  64  86 116 158 201 247 298 354
#     4  10  19  36  59  84 117 159 198 240 296 353
#
# _framework density 25.565128000000001
#
# number of rings (size 3 to 8) (size 9 to 14) (size 15 to 20)
#    0.000    1.714    0.000    6.429    0.000    5.714 
#    0.000    1.429    0.000   18.000    0.000    0.000 
#    0.000    0.000    0.000    0.000    0.000    0.000 
#
# Total GULP energy -78148.691456 kJ/mol
# GULP energy per Si atom -5582.049390 kJ/mol
# Density = 2.550694 g / cm^3
# Si number density = 25.565128 Si / 1000 Ang^3
#
#
#
# Elastic Constant Matrix: (Units=GPa)
#
#
# Indices 1 2 3 4 5 6 
#
# 1 38.0018 6.2853 37.3636 -4.6620 -6.4025 -5.4074
# 2 6.2853 50.1595 51.5887 3.4329 2.6714 2.4055
# 3 37.3636 51.5887 229.5241 -23.9373 18.7542 -6.1517
# 4 -4.6620 3.4329 -23.9373 52.9830 2.8659 0.7855
# 5 -6.4025 2.6714 18.7542 2.8659 30.0460 7.8745
# 6 -5.4074 2.4055 -6.1517 0.7855 7.8745 24.4315
#
#
#
# Elastic Compliance Matrix: (Units=1/GPa)
#
#
# Indices 1 2 3 4 5 6 
#
# 1 0.035107 0.002392 -0.007223 -0.000973 0.011319 0.002099
# 2 0.002392 0.028016 -0.007785 -0.005301 0.004846 -0.005581
# 3 -0.007223 -0.007785 0.008400 0.004012 -0.007401 0.003539
# 4 -0.000973 -0.005301 0.004012 0.021173 -0.004835 0.002194
# 5 0.011319 0.004846 -0.007401 -0.004835 0.043975 -0.013853
# 6 0.002099 -0.005581 0.003539 0.002194 -0.013853 0.047230
#
#
# Mechanical properties :
#
#
# Convention : Reuss Voigt Hill
#
# Bulk Modulus (GPa) = 21.60180 56.46231 39.03206
# Shear Modulus (GPa) = 22.26562 36.32195 29.29379
#
# Velocity S-wave (km/s) = 2.95437 3.77339 3.38871
# Velocity P-wave (km/s) = 4.48395 6.41235 5.53281
#
# Compressibility (1/GPa) = 0.04629244
#
# Stress axis : x y z
#
# Youngs Moduli (GPa) = 28.48468 35.69452 119.04350
#
# Poissons Ratio (x) = -0.08540 0.85982
# Poissons Ratio (y) = -0.06815 0.92673
# Poissons Ratio (z) = 0.20574 0.27787
#
# Static dielectric constant tensor:
#      x y z
#    x 2.222070 0.241650 -0.195410 
#    y 0.241650 2.446480 -0.248550 
#    z -0.195410 -0.248550 2.193930 
# 
# From -- ./inp_files/255725.got.cif
#   From: 2010.05.17/outbox.cif.g08.bks.cpg/sg2_128_cif.got.tgz:255725.got - 2010.06.03 11:33:40.
