data_PCOD9086506
_publ_section_title
;
Structure prediction by ZEFSAII (Michael W. Deem and Ramdas Pophale) SiO2 
 PCOD9086506
Probable space group: P -1
;
_chemical_formula_sum "Si O2"
_cell_formula_units_Z 14
_cell_length_a 7.026688
_cell_length_b 14.096138
_cell_length_c 17.058320
_cell_angle_alpha 151.872382
_cell_angle_beta 113.704401
_cell_angle_gamma 54.875614
_cell_volume 626.693524
_symmetry_space_group_name_H-M "P -1"
_symmetry_group_IT_number 2
_symmetry_cell_setting 'triclinic'
loop_
_space_group_symop_operation_xyz
x,y,z
-x,-y,-z
loop_
_atom_site_type_symbol
_atom_site_label
_atom_site_fract_x
_atom_site_fract_y
_atom_site_fract_z
Si Si1 0.474544 0.081336 0.159480
Si Si2 0.651240 0.277901 0.807405
Si Si3 0.406265 0.019847 0.644268
Si Si4 0.119969 0.226402 0.905150
Si Si5 0.484981 0.338056 0.202726
Si Si6 0.266827 0.407071 0.509568
Si Si7 0.890946 0.311119 0.719996
O O1 0.392512 0.238974 0.184414
O O2 0.414752 0.250892 0.346246
O O3 0.760243 0.907819 0.092818
O O4 0.398417 0.882732 0.999391
O O5 0.692879 0.336603 0.769472
O O6 0.921485 0.163801 0.802392
O O7 0.528909 0.124109 0.685291
O O8 0.500000 0.500000 0.000000
O O9 0.622378 0.765382 0.522355
O O10 0.306009 0.149868 0.806866
O O11 0.154567 0.072368 0.599045
O O12 0.033602 0.496062 0.102249
O O13 0.677402 0.391404 0.312360
O O14 0.263631 0.575365 0.301825
O O15 0.000000 0.500000 0.500000
#
# Coordination Sequence:
#
# PCOD9086506 Si02
#       7
#     2   2   2   2   2   2   2
#     4   9  21  43  69  92 120 177 214 255 330 376
#     4  11  17  30  60  93 125 166 207 263 320 376
#     4  10  20  36  57  91 123 167 208 255 325 373
#     4   9  17  32  59  91 124 158 215 258 308 386
#     4  10  22  43  66  94 128 166 215 262 319 384
#     4  11  25  43  64  95 131 163 216 269 317 384
#     4  10  19  36  58  91 128 163 210 261 315 384
#
# _framework density 22.339468
#
# number of rings (size 3 to 8) (size 9 to 14) (size 15 to 20)
#    0.000    2.000    2.857    1.286    2.000    1.143 
#    5.143    0.714    0.000    0.000    0.000    0.000 
#    0.000    0.000    0.000    0.000    0.000    0.000 
#
# Total GULP energy -77946.770393 kJ/mol
# GULP energy per Si atom -5567.626457 kJ/mol
# Density = 2.228862 g / cm^3
# Si number density = 22.339468 Si / 1000 Ang^3
#
#
#
# Elastic Constant Matrix: (Units=GPa)
#
#
# Indices 1 2 3 4 5 6 
#
# 1 99.9111 46.4101 14.5857 2.5248 18.6092 -2.8506
# 2 46.4101 171.4475 18.3827 7.0513 8.0680 1.3792
# 3 14.5857 18.3827 55.5150 -11.0430 17.8129 -3.6563
# 4 2.5248 7.0513 -11.0430 33.6347 -9.4794 8.3362
# 5 18.6092 8.0680 17.8129 -9.4794 22.3463 -10.2229
# 6 -2.8506 1.3792 -3.6563 8.3362 -10.2229 28.8771
#
#
#
# Elastic Compliance Matrix: (Units=1/GPa)
#
#
# Indices 1 2 3 4 5 6 
#
# 1 0.013850 -0.003050 0.000920 -0.003387 -0.013615 -0.002213
# 2 -0.003050 0.006906 -0.002145 -0.001613 0.001041 -0.000069
# 3 0.000920 -0.002145 0.025751 0.004174 -0.021144 -0.005236
# 4 -0.003387 -0.001613 0.004174 0.036795 0.013065 -0.005726
# 5 -0.013615 0.001041 -0.021144 0.013065 0.088923 0.023637
# 6 -0.002213 -0.000069 -0.005236 -0.005726 0.023637 0.043772
#
#
# Mechanical properties :
#
#
# Convention : Reuss Voigt Hill
#
# Bulk Modulus (GPa) = 26.34457 53.95894 40.15175
# Shear Modulus (GPa) = 21.07936 33.47129 27.27532
#
# Velocity S-wave (km/s) = 3.07513 3.87499 3.49800
# Velocity P-wave (km/s) = 4.94237 6.65036 5.85894
#
# Compressibility (1/GPa) = 0.03795849
#
# Stress axis : x y z
#
# Youngs Moduli (GPa) = 72.20427 144.79814 38.83279
#
# Poissons Ratio (x) = 0.44162 -0.03574
# Poissons Ratio (y) = 0.22022 0.08329
# Poissons Ratio (z) = -0.06645 0.31055
#
# Static dielectric constant tensor:
#      x y z
#    x 1.849970 0.057470 0.096720 
#    y 0.057470 1.672330 -0.336950 
#    z 0.096720 -0.336950 1.393020 
# 
# From -- ./inp_files/549893.got.cif
#   From: 2010.05.17/outbox.cif.g08.bks.cpg/sg2_275_cif.got.tgz:549893.got - 2010.06.03 11:33:40.
