data_PCOD9086128
_publ_section_title
;
Structure prediction by ZEFSAII (Michael W. Deem and Ramdas Pophale) SiO2 
 PCOD9086128
Probable space group: P -1
;
_chemical_formula_sum "Si O2"
_cell_formula_units_Z 16
_cell_length_a 8.191323
_cell_length_b 9.234403
_cell_length_c 9.084555
_cell_angle_alpha 85.278919
_cell_angle_beta 74.580048
_cell_angle_gamma 95.300057
_cell_volume 655.504616
_symmetry_space_group_name_H-M "P -1"
_symmetry_group_IT_number 2
_symmetry_cell_setting 'triclinic'
loop_
_space_group_symop_operation_xyz
x,y,z
-x,-y,-z
loop_
_atom_site_type_symbol
_atom_site_label
_atom_site_fract_x
_atom_site_fract_y
_atom_site_fract_z
Si Si1 0.011493 0.723406 0.850501
Si Si2 0.974049 0.871033 0.136606
Si Si3 0.367779 0.714129 0.632072
Si Si4 0.250072 0.519571 0.128962
Si Si5 0.197408 0.477439 0.472903
Si Si6 0.784158 0.952318 0.739310
Si Si7 0.288577 0.155028 0.550595
Si Si8 0.486695 0.281596 0.094649
O O1 0.203259 0.768058 0.744236
O O2 0.941554 0.555974 0.843236
O O3 0.903432 0.828050 0.770376
O O4 0.979961 0.740209 0.031239
O O5 0.801756 0.880294 0.268958
O O6 0.123491 0.901805 0.220153
O O7 0.000000 0.000000 0.000000
O O8 0.294090 0.576631 0.566109
O O9 0.505434 0.820211 0.497168
O O10 0.479981 0.677226 0.746893
O O11 0.276361 0.530695 0.294456
O O12 0.358175 0.390649 0.053078
O O13 0.333179 0.670406 0.027694
O O14 0.219929 0.309677 0.513437
O O15 0.000000 0.500000 0.500000
O O16 0.767539 0.950306 0.566672
O O17 0.604369 0.884073 0.861196
#
# Coordination Sequence:
#
# PCOD9086128 Si02
#       8
#     2   2   2   2   2   2   2   2
#     4  10  20  38  57  89 123 153 200 250 298 359
#     4  10  23  39  66  86 116 160 211 251 299 352
#     4  11  22  36  59  91 127 152 201 246 304 370
#     4  10  19  36  55  83 124 156 191 241 304 363
#     4  12  22  37  58  90 124 164 195 240 305 371
#     4   9  18  42  60  85 116 160 206 248 296 356
#     4  11  22  39  61  91 119 160 203 250 299 360
#     4   9  20  34  59  84 117 157 192 249 301 350
#
# _framework density 24.408674999999999
#
# number of rings (size 3 to 8) (size 9 to 14) (size 15 to 20)
#    0.000    1.750    5.000    0.750    1.750    4.500 
#    0.000    5.000    0.000    4.500    0.000    0.000 
#    0.000    0.000    0.000    0.000    0.000    0.000 
#
# Total GULP energy -89318.436985 kJ/mol
# GULP energy per Si atom -5582.402312 kJ/mol
# Density = 2.435312 g / cm^3
# Si number density = 24.408675 Si / 1000 Ang^3
#
#
#
# Elastic Constant Matrix: (Units=GPa)
#
#
# Indices 1 2 3 4 5 6 
#
# 1 95.0581 26.2648 24.6709 -1.9338 -21.0675 22.0450
# 2 26.2648 42.2385 31.3954 11.3856 -0.4281 18.4875
# 3 24.6709 31.3954 146.5514 -11.9092 -29.8170 19.2135
# 4 -1.9338 11.3856 -11.9092 39.8259 17.7580 6.1824
# 5 -21.0675 -0.4281 -29.8170 17.7580 39.7708 -5.8476
# 6 22.0450 18.4875 19.2135 6.1824 -5.8476 42.2535
#
#
#
# Elastic Compliance Matrix: (Units=1/GPa)
#
#
# Indices 1 2 3 4 5 6 
#
# 1 0.015395 -0.009314 0.001657 0.000705 0.008446 -0.003645
# 2 -0.009314 0.042879 -0.008816 -0.010385 -0.007835 -0.009458
# 3 0.001657 -0.008816 0.010236 0.002655 0.007115 -0.001066
# 4 0.000705 -0.010385 0.002655 0.036025 -0.014466 -0.004304
# 5 0.008446 -0.007835 0.007115 -0.014466 0.041872 0.003697
# 6 -0.003645 -0.009458 -0.001066 -0.004304 0.003697 0.031332
#
#
# Mechanical properties :
#
#
# Convention : Reuss Voigt Hill
#
# Bulk Modulus (GPa) = 28.11768 49.83447 38.97607
# Shear Modulus (GPa) = 22.46792 37.80449 30.13620
#
# Velocity S-wave (km/s) = 3.03725 3.93977 3.51757
# Velocity P-wave (km/s) = 4.88307 6.41535 5.70092
#
# Compressibility (1/GPa) = 0.03556482
#
# Stress axis : x y z
#
# Youngs Moduli (GPa) = 64.95721 23.32132 97.69147
#
# Poissons Ratio (x) = 0.21721 -0.16191
# Poissons Ratio (y) = 0.60501 0.86126
# Poissons Ratio (z) = -0.10766 0.20560
#
# Static dielectric constant tensor:
#      x y z
#    x 2.002010 -0.003390 -0.043000 
#    y -0.003390 2.025820 -0.016350 
#    z -0.043000 -0.016350 1.959340 
# 
# From -- ./inp_files/178866.got.cif
#   From: 2010.05.17/outbox.cif.g08.bks.cpg/sg2_90_cif.got.tgz:178866.got - 2010.06.03 11:33:40.
