data_PCOD9086848
_publ_section_title
;
Structure prediction by ZEFSAII (Michael W. Deem and Ramdas Pophale) SiO2 
 PCOD9086848
Probable space group: P -1
;
_chemical_formula_sum "Si O2"
_cell_formula_units_Z 14
_cell_length_a 19.405248
_cell_length_b 12.807936
_cell_length_c 8.861289
_cell_angle_alpha 142.989326
_cell_angle_beta 42.775706
_cell_angle_gamma 155.235371
_cell_volume 555.002284
_symmetry_space_group_name_H-M "P -1"
_symmetry_group_IT_number 2
_symmetry_cell_setting 'triclinic'
loop_
_space_group_symop_operation_xyz
x,y,z
-x,-y,-z
loop_
_atom_site_type_symbol
_atom_site_label
_atom_site_fract_x
_atom_site_fract_y
_atom_site_fract_z
Si Si1 0.383944 0.369121 0.393329
Si Si2 0.146416 0.543301 0.003476
Si Si3 0.573849 0.968584 0.721497
Si Si4 0.759345 0.056418 0.114436
Si Si5 0.854279 0.803937 0.213481
Si Si6 0.342372 0.731090 0.593284
Si Si7 0.232265 0.254007 0.047676
O O1 0.500000 0.500000 0.500000
O O2 0.461848 0.647033 0.520009
O O3 0.359475 0.189251 0.103056
O O4 0.203487 0.156122 0.509137
O O5 0.248056 0.831031 0.260469
O O6 0.181828 0.435008 0.939409
O O7 0.218938 0.594239 0.780203
O O8 0.951219 0.305927 0.043591
O O9 0.523894 0.996602 0.680038
O O10 0.500000 0.000000 0.000000
O O11 0.742983 0.907387 0.113647
O O12 0.713081 0.194221 0.345616
O O13 0.758813 0.721393 0.118366
O O14 0.046365 0.062652 0.168333
O O15 0.334937 0.536361 0.297288
#
# Coordination Sequence:
#
# PCOD9086848 Si02
#       7
#     2   2   2   2   2   2   2
#     4  12  22  38  67  97 129 163 213 275 316 369
#     4  10  20  38  64  93 123 165 218 264 311 375
#     4  10  19  36  60  90 127 156 206 265 316 368
#     4  11  23  39  66  98 125 165 219 264 313 381
#     4  10  21  40  65  91 134 170 214 258 325 376
#     4  11  20  38  65  91 129 160 212 265 321 372
#     4  10  22  42  64  93 131 176 207 262 314 390
#
# _framework density 25.22512
#
# number of rings (size 3 to 8) (size 9 to 14) (size 15 to 20)
#    0.000    1.429    4.286    3.000    0.000    3.429 
#    0.000   10.714    0.000    0.000    0.000    0.000 
#    0.000    0.000    0.000    0.000    0.000    0.000 
#
# Total GULP energy -78263.555660 kJ/mol
# GULP energy per Si atom -5590.253976 kJ/mol
# Density = 2.516771 g / cm^3
# Si number density = 25.225120 Si / 1000 Ang^3
#
#
#
# Elastic Constant Matrix: (Units=GPa)
#
#
# Indices 1 2 3 4 5 6 
#
# 1 153.4549 33.6138 31.2344 -3.0227 1.9983 -9.9419
# 2 33.6138 96.5553 48.5383 -10.5245 13.5075 -2.0195
# 3 31.2344 48.5383 59.7510 3.3086 10.6366 -15.1047
# 4 -3.0227 -10.5245 3.3086 33.7791 -1.5693 14.4432
# 5 1.9983 13.5075 10.6366 -1.5693 32.7190 8.5058
# 6 -9.9419 -2.0195 -15.1047 14.4432 8.5058 35.3212
#
#
#
# Elastic Compliance Matrix: (Units=1/GPa)
#
#
# Indices 1 2 3 4 5 6 
#
# 1 0.007405 -0.001033 -0.003209 0.000638 0.001009 0.000149
# 2 -0.001033 0.024836 -0.025988 0.018233 0.003911 -0.018382
# 3 -0.003209 -0.025988 0.053807 -0.030445 -0.017735 0.037341
# 4 0.000638 0.018233 -0.030445 0.055246 0.014850 -0.037964
# 5 0.001009 0.003911 -0.017735 0.014850 0.041373 -0.023112
# 6 0.000149 -0.018382 0.037341 -0.037964 -0.023112 0.064360
#
#
# Mechanical properties :
#
#
# Convention : Reuss Voigt Hill
#
# Bulk Modulus (GPa) = 39.08094 59.61491 49.34793
# Shear Modulus (GPa) = 15.82184 33.45551 24.63867
#
# Velocity S-wave (km/s) = 2.50716 3.64576 3.12869
# Velocity P-wave (km/s) = 4.88955 6.43479 5.71464
#
# Compressibility (1/GPa) = 0.02558792
#
# Stress axis : x y z
#
# Youngs Moduli (GPa) = 135.04110 40.26340 18.58484
#
# Poissons Ratio (x) = 0.04161 0.05964
# Poissons Ratio (y) = 0.13955 0.48299
# Poissons Ratio (z) = 0.43334 1.04637
#
# Static dielectric constant tensor:
#      x y z
#    x 2.132410 0.006150 -0.043880 
#    y 0.006150 2.132000 0.026020 
#    z -0.043880 0.026020 1.978620 
# 
# From -- ./inp_files/298427.got.cif
#   From: 2010.05.17/outbox.cif.g08.bks.cpg/sg2_150_cif.got.tgz:298427.got - 2010.06.03 11:33:40.
