data_PCOD9086009
_publ_section_title
;
Structure prediction by ZEFSAII (Michael W. Deem and Ramdas Pophale) SiO2 
 PCOD9086009
Probable space group: P -1
;
_chemical_formula_sum "Si O2"
_cell_formula_units_Z 16
_cell_length_a 20.618799
_cell_length_b 6.870630
_cell_length_c 8.532550
_cell_angle_alpha 74.959346
_cell_angle_beta 116.489090
_cell_angle_gamma 54.279127
_cell_volume 613.612320
_symmetry_space_group_name_H-M "P -1"
_symmetry_group_IT_number 2
_symmetry_cell_setting 'triclinic'
loop_
_space_group_symop_operation_xyz
x,y,z
-x,-y,-z
loop_
_atom_site_type_symbol
_atom_site_label
_atom_site_fract_x
_atom_site_fract_y
_atom_site_fract_z
Si Si1 0.079231 0.220760 0.280817
Si Si2 0.329214 0.595836 0.525579
Si Si3 0.561742 0.296564 0.947799
Si Si4 0.258665 0.288207 0.506588
Si Si5 0.317736 0.647443 0.132007
Si Si6 0.752811 0.616971 0.861759
Si Si7 0.891859 0.595686 0.256907
Si Si8 0.979997 0.120111 0.728548
O O1 0.003570 0.441340 0.310064
O O2 0.224137 0.926780 0.459366
O O3 0.061565 0.018534 0.301845
O O4 0.000000 0.500000 0.000000
O O5 0.468104 0.343863 0.769135
O O6 0.305794 0.410889 0.549211
O O7 0.312439 0.685145 0.305905
O O8 0.581241 0.437724 0.821813
O O9 0.500000 0.500000 0.000000
O O10 0.689603 0.926688 0.233564
O O11 0.110839 0.592736 0.295567
O O12 0.296282 0.160711 0.392995
O O13 0.331012 0.378685 0.168149
O O14 0.191815 0.031582 0.852650
O O15 0.801996 0.662006 0.033750
O O16 0.874408 0.218288 0.018072
O O17 0.948083 0.310798 0.497384
#
# Coordination Sequence:
#
# PCOD9086009 Si02
#       8
#     2   2   2   2   2   2   2   2
#     4  10  19  35  67 102 128 164 216 261 327 395
#     4  10  23  45  69  92 133 178 219 268 331 395
#     4  12  27  44  65  96 131 170 230 280 323 387
#     4  10  22  44  65  94 131 175 220 272 332 390
#     4  11  24  46  67  98 131 177 224 270 329 394
#     4  10  23  41  67 100 134 170 221 267 334 399
#     4  11  22  42  69  99 139 174 212 271 336 393
#     4  10  21  40  65  97 139 176 213 269 332 399
#
# _framework density 26.075098000000001
#
# number of rings (size 3 to 8) (size 9 to 14) (size 15 to 20)
#    0.000    1.500    2.500    2.625    1.750    4.500 
#    4.500    1.250    0.000    0.000    0.000    0.000 
#    0.000    0.000    0.000    0.000    0.000    0.000 
#
# Total GULP energy -89560.404234 kJ/mol
# GULP energy per Si atom -5597.525265 kJ/mol
# Density = 2.601575 g / cm^3
# Si number density = 26.075098 Si / 1000 Ang^3
#
#
#
# Elastic Constant Matrix: (Units=GPa)
#
#
# Indices 1 2 3 4 5 6 
#
# 1 197.3438 20.3879 41.8010 17.8180 -20.7679 -2.3969
# 2 20.3879 34.8962 -8.8555 0.2362 5.5514 -0.8496
# 3 41.8010 -8.8555 94.0325 13.9855 -8.8068 7.5843
# 4 17.8180 0.2362 13.9855 25.5714 -1.2620 8.5758
# 5 -20.7679 5.5514 -8.8068 -1.2620 57.8675 7.9346
# 6 -2.3969 -0.8496 7.5843 8.5758 7.9346 41.0203
#
#
#
# Elastic Compliance Matrix: (Units=1/GPa)
#
#
# Indices 1 2 3 4 5 6 
#
# 1 0.006732 -0.004961 -0.002840 -0.003344 0.002238 0.001082
# 2 -0.004961 0.033489 0.004912 0.000152 -0.004282 0.000292
# 3 -0.002840 0.004912 0.013258 -0.004731 0.000651 -0.001652
# 4 -0.003344 0.000152 -0.004731 0.047140 0.000361 -0.009243
# 5 0.002238 -0.004282 0.000651 0.000361 0.019130 -0.003854
# 6 0.001082 0.000292 -0.001652 -0.009243 -0.003854 0.027431
#
#
# Mechanical properties :
#
#
# Convention : Reuss Voigt Hill
#
# Bulk Modulus (GPa) = 20.96440 48.10437 34.53438
# Shear Modulus (GPa) = 29.61077 43.08778 36.34928
#
# Velocity S-wave (km/s) = 3.37352 4.06944 3.73771
# Velocity P-wave (km/s) = 4.81992 6.36937 5.64803
#
# Compressibility (1/GPa) = 0.04769991
#
# Stress axis : x y z
#
# Youngs Moduli (GPa) = 148.54300 29.86088 75.42869
#
# Poissons Ratio (x) = 0.14814 0.21422
# Poissons Ratio (y) = 0.73692 -0.37050
# Poissons Ratio (z) = 0.42188 -0.14667
#
# Static dielectric constant tensor:
#      x y z
#    x 2.092410 -0.047310 0.117250 
#    y -0.047310 2.217620 -0.169160 
#    z 0.117250 -0.169160 2.387270 
# 
# From -- ./inp_files/343427.got.cif
#   From: 2010.05.17/outbox.cif.g08.bks.cpg/sg2_172_cif.got.tgz:343427.got - 2010.06.03 11:33:40.
