data_PCOD9086842
_publ_section_title
;
Structure prediction by ZEFSAII (Michael W. Deem and Ramdas Pophale) SiO2 
 PCOD9086842
Probable space group: P -1
;
_chemical_formula_sum "Si O2"
_cell_formula_units_Z 16
_cell_length_a 10.083350
_cell_length_b 16.435937
_cell_length_c 13.563991
_cell_angle_alpha 144.140871
_cell_angle_beta 43.684209
_cell_angle_gamma 116.294865
_cell_volume 850.731034
_symmetry_space_group_name_H-M "P -1"
_symmetry_group_IT_number 2
_symmetry_cell_setting 'triclinic'
loop_
_space_group_symop_operation_xyz
x,y,z
-x,-y,-z
loop_
_atom_site_type_symbol
_atom_site_label
_atom_site_fract_x
_atom_site_fract_y
_atom_site_fract_z
Si Si1 0.969411 0.100600 0.265300
Si Si2 0.553759 0.400696 0.020476
Si Si3 0.674973 0.626373 0.302356
Si Si4 0.967017 0.410690 0.084636
Si Si5 0.162090 0.564360 0.277399
Si Si6 0.678613 0.076657 0.723796
Si Si7 0.932299 0.097462 0.785509
Si Si8 0.660209 0.064039 0.241769
O O1 0.951851 0.270930 0.457582
O O2 0.761533 0.097887 0.321083
O O3 0.012100 0.009014 0.254200
O O4 0.155242 0.016491 0.010102
O O5 0.575946 0.513931 0.200423
O O6 0.321169 0.457887 0.164295
O O7 0.698254 0.408858 0.859901
O O8 0.637598 0.237410 0.858208
O O9 0.497385 0.782727 0.566341
O O10 0.799388 0.548061 0.254331
O O11 0.838081 0.638295 0.143955
O O12 0.028615 0.476519 0.214800
O O13 0.900169 0.268361 0.995448
O O14 0.745187 0.081065 0.806231
O O15 0.872034 0.960041 0.449282
O O16 0.479614 0.035642 0.769970
#
# Coordination Sequence:
#
# PCOD9086842 Si02
#       8
#     2   2   2   2   2   2   2   2
#     4  11  25  44  60  88 128 163 207 247 301 372
#     4  10  19  36  60  90 120 155 201 255 299 351
#     4  10  19  38  60  87 124 159 199 243 305 361
#     4  10  21  34  62  93 121 152 199 256 303 351
#     4  10  21  36  60  90 121 157 200 250 303 354
#     4  11  23  38  64  94 124 158 203 254 308 354
#     4  11  23  39  61  96 127 152 204 260 300 358
#     4  11  25  43  63  86 124 172 200 246 308 366
#
# _framework density 18.807354
#
# number of rings (size 3 to 8) (size 9 to 14) (size 15 to 20)
#    0.000    1.500    5.000    0.000    3.500    1.000 
#    0.000    2.500    0.000    0.000    0.000    0.000 
#    0.000    0.000    0.000    0.000    0.000    0.000 
#
# Total GULP energy -89317.843198 kJ/mol
# GULP energy per Si atom -5582.365200 kJ/mol
# Density = 1.876455 g / cm^3
# Si number density = 18.807354 Si / 1000 Ang^3
#
#
#
# Elastic Constant Matrix: (Units=GPa)
#
#
# Indices 1 2 3 4 5 6 
#
# 1 49.0779 -1.4294 -5.0177 3.2663 -5.8010 -7.6296
# 2 -1.4294 31.0018 -2.6633 24.1508 -3.6181 14.3514
# 3 -5.0177 -2.6633 60.7233 19.0018 -2.0168 -2.3543
# 4 3.2663 24.1508 19.0018 34.8265 -4.1351 10.0080
# 5 -5.8010 -3.6181 -2.0168 -4.1351 30.1977 -3.2200
# 6 -7.6296 14.3514 -2.3543 10.0080 -3.2200 42.8615
#
#
#
# Elastic Compliance Matrix: (Units=1/GPa)
#
#
# Indices 1 2 3 4 5 6 
#
# 1 0.023950 0.013005 0.008006 -0.016351 0.004939 0.004537
# 2 0.013005 0.122902 0.038496 -0.103417 0.004327 -0.012249
# 3 0.008006 0.038496 0.033223 -0.045648 0.002245 0.001188
# 4 -0.016351 -0.103417 -0.045648 0.126865 -0.001263 -0.000508
# 5 0.004939 0.004327 0.002245 -0.001263 0.034822 0.002464
# 6 0.004537 -0.012249 0.001188 -0.000508 0.002464 0.028609
#
#
# Mechanical properties :
#
#
# Convention : Reuss Voigt Hill
#
# Bulk Modulus (GPa) = 3.34348 13.62025 8.48187
# Shear Modulus (GPa) = 14.24282 31.57136 22.90709
#
# Velocity S-wave (km/s) = 2.75490 4.10160 3.49375
# Velocity P-wave (km/s) = 3.44976 5.44872 4.56012
#
# Compressibility (1/GPa) = 0.29908916
#
# Stress axis : x y z
#
# Youngs Moduli (GPa) = 41.75304 8.13657 30.09965
#
# Poissons Ratio (x) = -0.10582 -0.24097
# Poissons Ratio (y) = -0.54301 -1.15871
# Poissons Ratio (z) = -0.33427 -0.31322
#
# Static dielectric constant tensor:
#      x y z
#    x 1.687040 -0.012750 -0.019980 
#    y -0.012750 1.657040 0.029650 
#    z -0.019980 0.029650 1.670600 
# 
# From -- ./inp_files/187667.got.cif
#   From: 2010.05.17/outbox.cif.g08.bks.cpg/sg2_94_cif.got.tgz:187667.got - 2010.06.03 11:33:40.
