data_PCOD9086757
_publ_section_title
;
Structure prediction by ZEFSAII (Michael W. Deem and Ramdas Pophale) SiO2 
 PCOD9086757
Probable space group: P -1
;
_chemical_formula_sum "Si O2"
_cell_formula_units_Z 16
_cell_length_a 9.375565
_cell_length_b 13.384082
_cell_length_c 17.569060
_cell_angle_alpha 32.701777
_cell_angle_beta 132.806131
_cell_angle_gamma 149.109019
_cell_volume 604.253462
_symmetry_space_group_name_H-M "P -1"
_symmetry_group_IT_number 2
_symmetry_cell_setting 'triclinic'
loop_
_space_group_symop_operation_xyz
x,y,z
-x,-y,-z
loop_
_atom_site_type_symbol
_atom_site_label
_atom_site_fract_x
_atom_site_fract_y
_atom_site_fract_z
Si Si1 0.880017 0.280534 0.918812
Si Si2 0.446063 0.218716 0.179776
Si Si3 0.795514 0.280895 0.490921
Si Si4 0.414560 0.695466 0.408605
Si Si5 0.252594 0.423181 0.358558
Si Si6 0.136267 0.282991 0.141120
Si Si7 0.459607 0.113199 0.093399
Si Si8 0.754247 0.952561 0.557268
O O1 0.747691 0.393043 0.809179
O O2 0.214203 0.539645 0.856123
O O3 0.737721 0.078372 0.925599
O O4 0.874279 0.164594 0.070301
O O5 0.327347 0.298132 0.140033
O O6 0.323888 0.126478 0.108661
O O7 0.335776 0.958447 0.346396
O O8 0.875081 0.454443 0.556479
O O9 0.780030 0.155803 0.486694
O O10 0.581092 0.304642 0.397564
O O11 0.339007 0.556545 0.388104
O O12 0.556082 0.625165 0.551660
O O13 0.558237 0.987961 0.249098
O O14 0.933711 0.130029 0.435754
O O15 0.092516 0.110680 0.304168
O O16 0.293409 0.575476 0.037961
#
# Coordination Sequence:
#
# PCOD9086757 Si02
#       8
#     2   2   2   2   2   2   2   2
#     4  10  19  36  60  86 117 156 196 246 294 354
#     4  10  20  36  56  86 120 157 195 242 296 358
#     4   9  17  33  58  84 119 152 195 248 302 338
#     4   9  19  33  57  88 114 155 197 248 291 353
#     4   9  17  35  62  84 111 159 200 239 302 345
#     4  10  22  35  55  89 121 156 196 239 299 360
#     4  10  21  35  55  86 123 154 196 243 296 356
#     4   9  17  33  59  83 114 157 195 241 299 353
#
# _framework density 26.478956
#
# number of rings (size 3 to 8) (size 9 to 14) (size 15 to 20)
#    0.000    2.500    1.250    1.500    5.250    2.500 
#    0.000    3.125    0.000   18.750    0.000    0.000 
#    0.000    0.000    0.000    0.000    0.000    0.000 
#
# Total GULP energy -89445.833776 kJ/mol
# GULP energy per Si atom -5590.364611 kJ/mol
# Density = 2.641869 g / cm^3
# Si number density = 26.478956 Si / 1000 Ang^3
#
#
#
# Elastic Constant Matrix: (Units=GPa)
#
#
# Indices 1 2 3 4 5 6 
#
# 1 80.6227 41.6281 26.2355 -9.8029 12.3284 3.5490
# 2 41.6281 145.3023 61.1980 -4.2520 16.3372 -17.7960
# 3 26.2355 61.1980 155.2551 17.6080 24.3266 4.5327
# 4 -9.8029 -4.2520 17.6080 41.9587 -3.7164 7.9490
# 5 12.3284 16.3372 24.3266 -3.7164 31.0954 5.0141
# 6 3.5490 -17.7960 4.5327 7.9490 5.0141 44.7022
#
#
#
# Elastic Compliance Matrix: (Units=1/GPa)
#
#
# Indices 1 2 3 4 5 6 
#
# 1 0.015879 -0.004119 -0.001083 0.004168 -0.002257 -0.003278
# 2 -0.004119 0.010248 -0.003211 0.000319 -0.001991 0.004899
# 3 -0.001083 -0.003211 0.009353 -0.004886 -0.005682 -0.000634
# 4 0.004168 0.000319 -0.004886 0.028485 0.006290 -0.005479
# 5 -0.002257 -0.001991 -0.005682 0.006290 0.040211 -0.005666
# 6 -0.003278 0.004899 -0.000634 -0.005479 -0.005666 0.026255
#
#
# Mechanical properties :
#
#
# Convention : Reuss Voigt Hill
#
# Bulk Modulus (GPa) = 53.60703 71.03373 62.32038
# Shear Modulus (GPa) = 32.57906 40.35916 36.46911
#
# Velocity S-wave (km/s) = 3.51148 3.90833 3.71521
# Velocity P-wave (km/s) = 6.06050 6.87397 6.48002
#
# Compressibility (1/GPa) = 0.01865427
#
# Stress axis : x y z
#
# Youngs Moduli (GPa) = 62.97684 97.58361 106.92219
#
# Poissons Ratio (x) = 0.40193 0.11580
# Poissons Ratio (y) = 0.25939 0.34328
# Poissons Ratio (z) = 0.06820 0.31330
#
# Static dielectric constant tensor:
#      x y z
#    x 2.113550 -0.034780 0.007990 
#    y -0.034780 2.189140 0.056850 
#    z 0.007990 0.056850 2.084420 
# 
# From -- ./inp_files/595352.got.cif
#   From: 2010.05.17/outbox.cif.g08.bks.cpg/sg2_298_cif.got.tgz:595352.got - 2010.06.03 11:33:40.
