data_PCOD9086208
_publ_section_title
;
Structure prediction by ZEFSAII (Michael W. Deem and Ramdas Pophale) SiO2 
 PCOD9086208
Probable space group: P -1
;
_chemical_formula_sum "Si O2"
_cell_formula_units_Z 16
_cell_length_a 9.762570
_cell_length_b 6.613721
_cell_length_c 17.123188
_cell_angle_alpha 136.864790
_cell_angle_beta 60.098709
_cell_angle_gamma 105.960105
_cell_volume 647.895493
_symmetry_space_group_name_H-M "P -1"
_symmetry_group_IT_number 2
_symmetry_cell_setting 'triclinic'
loop_
_space_group_symop_operation_xyz
x,y,z
-x,-y,-z
loop_
_atom_site_type_symbol
_atom_site_label
_atom_site_fract_x
_atom_site_fract_y
_atom_site_fract_z
Si Si1 0.307676 0.074796 0.263943
Si Si2 0.379294 0.113885 0.980436
Si Si3 0.010996 0.670687 0.367733
Si Si4 0.890241 0.373653 0.853951
Si Si5 0.289041 0.363834 0.623383
Si Si6 0.135610 0.731164 0.911944
Si Si7 0.371567 0.692590 0.442870
Si Si8 0.637423 0.418009 0.755988
O O1 0.277284 0.413752 0.397786
O O2 0.471149 0.021030 0.152386
O O3 0.175162 0.939209 0.212161
O O4 0.337641 0.863086 0.272121
O O5 0.259648 0.878748 0.970720
O O6 0.265027 0.367638 0.032569
O O7 0.430364 0.303324 0.092257
O O8 0.038183 0.639445 0.257892
O O9 0.185413 0.519426 0.302503
O O10 0.836173 0.573718 0.394580
O O11 0.000000 0.000000 0.500000
O O12 0.032086 0.472206 0.893199
O O13 0.237579 0.609626 0.773182
O O14 0.478040 0.347975 0.553425
O O15 0.277981 0.027276 0.564254
O O16 0.000000 0.000000 0.000000
O O17 0.440779 0.662750 0.324852
#
# Coordination Sequence:
#
# PCOD9086208 Si02
#       8
#     2   2   2   2   2   2   2   2
#     4  10  19  36  56  88 118 158 194 245 299 353
#     4   9  16  32  57  84 112 152 197 241 291 345
#     4   9  15  32  57  76 108 152 194 227 285 349
#     4   8  17  28  53  83 109 145 200 237 280 345
#     4  10  20  35  55  86 118 159 187 247 298 344
#     4   9  16  32  57  85 109 157 201 231 293 360
#     4  11  22  36  59  86 128 151 194 246 303 355
#     4  10  21  36  60  91 113 156 205 245 287 359
#
# _framework density 24.695340999999999
#
# number of rings (size 3 to 8) (size 9 to 14) (size 15 to 20)
#    0.000    2.750    2.500    2.250    0.000    0.500 
#    0.000    8.125    0.000    0.750    0.000    0.875 
#    0.000    0.000    0.000    0.000    0.000    0.000 
#
# Total GULP energy -89177.268054 kJ/mol
# GULP energy per Si atom -5573.579253 kJ/mol
# Density = 2.463913 g / cm^3
# Si number density = 24.695341 Si / 1000 Ang^3
#
#
#
# Elastic Constant Matrix: (Units=GPa)
#
#
# Indices 1 2 3 4 5 6 
#
# 1 106.7796 23.2274 -7.1323 -5.3948 8.9644 32.5199
# 2 23.2274 87.1237 5.8516 24.0846 14.5893 9.9755
# 3 -7.1323 5.8516 102.8727 13.1633 1.8732 -4.3824
# 4 -5.3948 24.0846 13.1633 42.9741 8.3720 14.5564
# 5 8.9644 14.5893 1.8732 8.3720 37.9942 0.7910
# 6 32.5199 9.9755 -4.3824 14.5564 0.7910 39.0716
#
#
#
# Elastic Compliance Matrix: (Units=1/GPa)
#
#
# Indices 1 2 3 4 5 6 
#
# 1 0.016374 -0.004887 -0.000685 0.011444 -0.004128 -0.016637
# 2 -0.004887 0.015590 0.000309 -0.010284 -0.002666 0.004007
# 3 -0.000685 0.000309 0.010391 -0.004687 0.000493 0.003393
# 4 0.011444 -0.010284 -0.004687 0.040912 -0.007066 -0.022524
# 5 -0.004128 -0.002666 0.000493 -0.007066 0.029721 0.006203
# 6 -0.016637 0.004007 0.003393 -0.022524 0.006203 0.047065
#
#
# Mechanical properties :
#
#
# Convention : Reuss Voigt Hill
#
# Bulk Modulus (GPa) = 31.41507 37.85215 34.63361
# Shear Modulus (GPa) = 27.59567 42.32993 34.96280
#
# Velocity S-wave (km/s) = 3.34645 4.14464 3.76675
# Velocity P-wave (km/s) = 5.26120 6.18587 5.74218
#
# Compressibility (1/GPa) = 0.03183186
#
# Stress axis : x y z
#
# Youngs Moduli (GPa) = 61.07229 64.14180 96.23692
#
# Poissons Ratio (x) = 0.31344 0.06589
# Poissons Ratio (y) = 0.29844 -0.02978
# Poissons Ratio (z) = 0.04182 -0.01985
#
# Static dielectric constant tensor:
#      x y z
#    x 2.116440 0.023770 -0.016610 
#    y 0.023770 2.036840 0.024040 
#    z -0.016610 0.024040 1.944420 
# 
# From -- ./inp_files/609958.got.cif
#   From: 2010.05.17/outbox.cif.g08.bks.cpg/sg2_305_cif.got.tgz:609958.got - 2010.06.03 11:33:40.
