data_PCOD9086775
_publ_section_title
;
Structure prediction by ZEFSAII (Michael W. Deem and Ramdas Pophale) SiO2 
 PCOD9086775
Probable space group: P -1
;
_chemical_formula_sum "Si O2"
_cell_formula_units_Z 12
_cell_length_a 12.791784
_cell_length_b 8.229360
_cell_length_c 16.604165
_cell_angle_alpha 112.991856
_cell_angle_beta 154.482827
_cell_angle_gamma 54.984803
_cell_volume 575.183898
_symmetry_space_group_name_H-M "P -1"
_symmetry_group_IT_number 2
_symmetry_cell_setting 'triclinic'
loop_
_space_group_symop_operation_xyz
x,y,z
-x,-y,-z
loop_
_atom_site_type_symbol
_atom_site_label
_atom_site_fract_x
_atom_site_fract_y
_atom_site_fract_z
Si Si1 0.225736 0.012708 0.773773
Si Si2 0.615235 0.447059 0.196715
Si Si3 0.210663 0.568551 0.521290
Si Si4 0.019521 0.688386 0.741941
Si Si5 0.254859 0.838347 0.391333
Si Si6 0.732941 0.508823 0.773378
O O1 0.076989 0.191448 0.636246
O O2 0.981388 0.093958 0.688689
O O3 0.325777 0.776566 0.775594
O O4 0.500000 0.000000 0.000000
O O5 0.715800 0.524628 0.355939
O O6 0.804606 0.394050 0.237242
O O7 0.276626 0.605060 0.969437
O O8 0.148027 0.428406 0.392522
O O9 0.486354 0.563522 0.678435
O O10 0.808587 0.941836 0.643777
O O11 0.569228 0.685763 0.623146
O O12 0.194691 0.708024 0.260128
O O13 0.000000 0.500000 0.000000
#
# Coordination Sequence:
#
# PCOD9086775 Si02
#       6
#     2   2   2   2   2   2
#     4  10  19  36  60  87 116 152 188 233 288 339
#     4  10  21  36  57  88 123 152 184 234 290 350
#     4  11  22  36  61  89 116 152 196 237 281 344
#     4  10  21  39  57  87 121 152 185 234 300 341
#     4   9  22  41  59  82 117 152 189 242 285 339
#     4  10  23  41  61  82 111 155 201 239 278 335
#
# _framework density 20.862891999999999
#
# number of rings (size 3 to 8) (size 9 to 14) (size 15 to 20)
#    0.000    2.000    1.667    1.000    2.333    3.333 
#    0.000    1.667    0.000    0.000    0.000    0.000 
#    0.000    0.000    0.000    0.000    0.000    0.000 
#
# Total GULP energy -67032.290185 kJ/mol
# GULP energy per Si atom -5586.024182 kJ/mol
# Density = 2.081541 g / cm^3
# Si number density = 20.862892 Si / 1000 Ang^3
#
#
#
# Elastic Constant Matrix: (Units=GPa)
#
#
# Indices 1 2 3 4 5 6 
#
# 1 37.0935 5.3207 29.4616 -4.0313 -11.9301 -1.0199
# 2 5.3207 78.4596 43.6591 -14.3792 1.6208 13.3751
# 3 29.4616 43.6591 169.7056 7.7916 -6.9862 15.6146
# 4 -4.0313 -14.3792 7.7916 26.7068 4.1258 -2.2814
# 5 -11.9301 1.6208 -6.9862 4.1258 30.7176 4.6983
# 6 -1.0199 13.3751 15.6146 -2.2814 4.6983 24.1118
#
#
#
# Elastic Compliance Matrix: (Units=1/GPa)
#
#
# Indices 1 2 3 4 5 6 
#
# 1 0.036748 0.001943 -0.007091 0.007266 0.011030 0.003607
# 2 0.001943 0.018658 -0.005280 0.011766 -0.002199 -0.005307
# 3 -0.007091 -0.005280 0.009257 -0.007173 0.001249 -0.004288
# 4 0.007266 0.011766 -0.007173 0.048350 -0.006579 0.004283
# 5 0.011030 -0.002199 0.001249 -0.006579 0.039253 -0.007394
# 6 0.003607 -0.005307 -0.004288 0.004283 -0.007394 0.049193
#
#
# Mechanical properties :
#
#
# Convention : Reuss Voigt Hill
#
# Bulk Modulus (GPa) = 22.82717 49.12681 35.97699
# Shear Modulus (GPa) = 21.10438 30.09506 25.59972
#
# Velocity S-wave (km/s) = 3.18398 3.80217 3.50672
# Velocity P-wave (km/s) = 4.94795 6.54782 5.80328
#
# Compressibility (1/GPa) = 0.04380744
#
# Stress axis : x y z
#
# Youngs Moduli (GPa) = 27.21208 53.59653 108.02466
#
# Poissons Ratio (x) = -0.10411 0.76599
# Poissons Ratio (y) = -0.05286 0.57034
# Poissons Ratio (z) = 0.19296 0.28297
#
# Static dielectric constant tensor:
#      x y z
#    x 1.805410 0.003050 -0.018100 
#    y 0.003050 1.759990 0.004640 
#    z -0.018100 0.004640 1.726930 
# 
# From -- ./inp_files/18443.got.cif
#   From: 2010.05.17/outbox.cif.g08.bks.cpg/sg2_10_cif.got.tgz:18443.got - 2010.06.03 11:33:40.
