data_PCOD9086253
_publ_section_title
;
Structure prediction by ZEFSAII (Michael W. Deem and Ramdas Pophale) SiO2 
 PCOD9086253
Probable space group: P -1
;
_chemical_formula_sum "Si O2"
_cell_formula_units_Z 16
_cell_length_a 14.394383
_cell_length_b 12.759448
_cell_length_c 12.849906
_cell_angle_alpha 34.580624
_cell_angle_beta 135.796294
_cell_angle_gamma 109.745132
_cell_volume 719.313193
_symmetry_space_group_name_H-M "P -1"
_symmetry_group_IT_number 2
_symmetry_cell_setting 'triclinic'
loop_
_space_group_symop_operation_xyz
x,y,z
-x,-y,-z
loop_
_atom_site_type_symbol
_atom_site_label
_atom_site_fract_x
_atom_site_fract_y
_atom_site_fract_z
Si Si1 0.672727 0.233093 0.820590
Si Si2 0.416589 0.178702 0.381651
Si Si3 0.605888 0.337813 0.315879
Si Si4 0.150544 0.760840 0.249279
Si Si5 0.808248 0.311241 0.054904
Si Si6 0.819024 0.943838 0.470961
Si Si7 0.877481 0.804564 0.873018
Si Si8 0.555596 0.873507 0.332422
O O1 0.500000 0.500000 0.500000
O O2 0.753320 0.210479 0.790504
O O3 0.604365 0.082599 0.888142
O O4 0.808641 0.180978 0.058164
O O5 0.483110 0.325438 0.301477
O O6 0.213795 0.313782 0.096175
O O7 0.490839 0.020451 0.675454
O O8 0.500000 0.000000 0.500000
O O9 0.703081 0.402283 0.412752
O O10 0.749965 0.068426 0.607271
O O11 0.500000 0.500000 0.000000
O O12 0.057440 0.676337 0.181917
O O13 0.000000 0.000000 0.000000
O O14 0.996268 0.227611 0.296999
O O15 0.757685 0.206496 0.186949
O O16 0.683706 0.590915 0.699338
O O17 0.870743 0.855545 0.703698
O O18 0.672517 0.928336 0.331167
#
# Coordination Sequence:
#
# PCOD9086253 Si02
#       8
#     2   2   2   2   2   2   2   2
#     4  10  20  35  57  84 114 153 194 239 296 350
#     4   9  18  34  52  80 108 147 193 234 288 351
#     4  10  20  32  56  84 108 144 195 240 287 346
#     4  10  19  36  57  81 113 155 191 235 297 357
#     4  10  21  35  56  84 116 148 196 242 287 354
#     4  10  20  35  56  84 113 148 196 237 293 348
#     4   9  19  34  56  78 109 151 190 231 291 354
#     4  10  20  35  57  80 115 153 190 241 297 347
#
# _framework density 22.243442000000002
#
# number of rings (size 3 to 8) (size 9 to 14) (size 15 to 20)
#    0.000    2.250    2.500    0.375    1.750    0.500 
#    0.000    0.625    0.000    0.000    9.750    0.000 
#    0.000    0.000    0.000    0.000    0.000    0.000 
#
# Total GULP energy -89095.191194 kJ/mol
# GULP energy per Si atom -5568.449450 kJ/mol
# Density = 2.219281 g / cm^3
# Si number density = 22.243442 Si / 1000 Ang^3
#
#
#
# Elastic Constant Matrix: (Units=GPa)
#
#
# Indices 1 2 3 4 5 6 
#
# 1 98.5945 40.1475 31.1670 12.4532 4.6664 20.2227
# 2 40.1475 85.4730 9.2718 36.2049 16.9829 5.7230
# 3 31.1670 9.2718 44.5660 9.9271 0.7754 -2.7939
# 4 12.4532 36.2049 9.9271 41.7223 -4.6021 6.5988
# 5 4.6664 16.9829 0.7754 -4.6021 20.9177 8.9426
# 6 20.2227 5.7230 -2.7939 6.5988 8.9426 42.9029
#
#
#
# Elastic Compliance Matrix: (Units=1/GPa)
#
#
# Indices 1 2 3 4 5 6 
#
# 1 0.027365 -0.026894 -0.021497 0.027181 0.031698 -0.021499
# 2 -0.026894 0.060131 0.023301 -0.062272 -0.070390 0.030423
# 3 -0.021497 0.023301 0.041244 -0.030371 -0.031268 0.020899
# 4 0.027181 -0.062272 -0.030371 0.092138 0.082031 -0.037753
# 5 0.031698 -0.070390 -0.031268 0.082031 0.138029 -0.048976
# 6 -0.021499 0.030423 0.020899 -0.037753 -0.048976 0.046760
#
#
# Mechanical properties :
#
#
# Convention : Reuss Voigt Hill
#
# Bulk Modulus (GPa) = 12.72891 43.31177 28.02034
# Shear Modulus (GPa) = 10.37275 30.97838 20.67557
#
# Velocity S-wave (km/s) = 2.16181 3.73593 3.05210
# Velocity P-wave (km/s) = 3.45922 6.17443 5.00449
#
# Compressibility (1/GPa) = 0.07856131
#
# Stress axis : x y z
#
# Youngs Moduli (GPa) = 36.54246 16.63044 24.24602
#
# Poissons Ratio (x) = 0.44726 0.52121
# Poissons Ratio (y) = 0.98278 -0.56497
# Poissons Ratio (z) = 0.78554 -0.38751
#
# Static dielectric constant tensor:
#      x y z
#    x 1.919280 -0.036370 0.097420 
#    y -0.036370 1.908820 -0.010330 
#    z 0.097420 -0.010330 1.930680 
# 
# From -- ./inp_files/281677.got.cif
#   From: 2010.05.17/outbox.cif.g08.bks.cpg/sg2_141_cif.got.tgz:281677.got - 2010.06.03 11:33:40.
