data_PCOD9086085
_publ_section_title
;
Structure prediction by ZEFSAII (Michael W. Deem and Ramdas Pophale) SiO2 
 PCOD9086085
Probable space group: P -1
;
_chemical_formula_sum "Si O2"
_cell_formula_units_Z 16
_cell_length_a 11.823554
_cell_length_b 21.489989
_cell_length_c 5.344682
_cell_angle_alpha 70.576362
_cell_angle_beta 127.426427
_cell_angle_gamma 137.756148
_cell_volume 707.295689
_symmetry_space_group_name_H-M "P -1"
_symmetry_group_IT_number 2
_symmetry_cell_setting 'triclinic'
loop_
_space_group_symop_operation_xyz
x,y,z
-x,-y,-z
loop_
_atom_site_type_symbol
_atom_site_label
_atom_site_fract_x
_atom_site_fract_y
_atom_site_fract_z
Si Si1 0.494337 0.385236 0.644606
Si Si2 0.914369 0.824514 0.672061
Si Si3 0.678837 0.552110 0.968520
Si Si4 0.783434 0.430814 0.533839
Si Si5 0.071361 0.732956 0.087273
Si Si6 0.921597 0.366639 0.165194
Si Si7 0.591091 0.246741 0.258805
Si Si8 0.119332 0.105559 0.945068
O O1 0.308024 0.274637 0.592492
O O2 0.646544 0.466659 0.944983
O O3 0.379875 0.412922 0.362203
O O4 0.622180 0.401320 0.563371
O O5 0.883764 0.849895 0.866648
O O6 0.052917 0.805200 0.930467
O O7 0.981199 0.892847 0.437907
O O8 0.909814 0.654410 0.187694
O O9 0.500000 0.500000 0.000000
O O10 0.658569 0.344056 0.288991
O O11 0.941121 0.544665 0.576055
O O12 0.912028 0.415281 0.859826
O O13 0.002253 0.673420 0.818024
O O14 0.285720 0.769755 0.402603
O O15 0.694204 0.276466 0.083858
O O16 0.351096 0.163016 0.098922
O O17 0.000000 0.000000 0.000000
#
# Coordination Sequence:
#
# PCOD9086085 Si02
#       8
#     2   2   2   2   2   2   2   2
#     4  10  20  35  57  89 138 184 234 275 332 400
#     4  11  26  48  76 106 141 184 238 293 367 433
#     4  10  22  33  55  92 143 194 237 275 326 409
#     4  10  19  36  53  94 132 190 231 275 334 401
#     4  10  24  41  64 105 143 189 234 291 348 414
#     4  10  21  36  59  90 148 183 232 278 339 410
#     4  11  24  40  70  99 139 186 237 294 355 417
#     4  12  28  53  80 106 135 178 238 308 376 442
#
# _framework density 22.621375
#
# number of rings (size 3 to 8) (size 9 to 14) (size 15 to 20)
#    0.000    1.500    2.500    1.500    8.750    1.000 
#    0.000    1.250    0.000    0.000    0.000    0.000 
#    0.000    0.000    0.000    0.000    0.000    0.000 
#
# Total GULP energy -89238.720492 kJ/mol
# GULP energy per Si atom -5577.420031 kJ/mol
# Density = 2.256989 g / cm^3
# Si number density = 22.621375 Si / 1000 Ang^3
#
#
#
# Elastic Constant Matrix: (Units=GPa)
#
#
# Indices 1 2 3 4 5 6 
#
# 1 155.4877 46.9927 24.9666 -9.6858 6.2223 -1.7882
# 2 46.9927 115.0597 23.7518 -32.0295 15.4534 6.3820
# 3 24.9666 23.7518 67.6872 -15.1702 13.4116 -3.9948
# 4 -9.6858 -32.0295 -15.1702 30.6703 -1.5801 -1.0466
# 5 6.2223 15.4534 13.4116 -1.5801 40.0069 -5.1503
# 6 -1.7882 6.3820 -3.9948 -1.0466 -5.1503 27.3270
#
#
#
# Elastic Compliance Matrix: (Units=1/GPa)
#
#
# Indices 1 2 3 4 5 6 
#
# 1 0.007679 -0.003484 -0.002235 -0.002233 0.000952 0.001083
# 2 -0.003484 0.014983 -0.000019 0.014126 -0.005218 -0.004172
# 3 -0.002235 -0.000019 0.018626 0.008278 -0.005318 0.001896
# 4 -0.002233 0.014126 0.008278 0.050383 -0.006081 -0.001451
# 5 0.000952 -0.005218 -0.005318 -0.006081 0.029148 0.005764
# 6 0.001083 -0.004172 0.001896 -0.001451 0.005764 0.038947
#
#
# Mechanical properties :
#
#
# Convention : Reuss Voigt Hill
#
# Bulk Modulus (GPa) = 33.54449 58.85078 46.19763
# Shear Modulus (GPa) = 27.59724 35.76907 31.68315
#
# Velocity S-wave (km/s) = 3.49659 3.98075 3.74650
# Velocity P-wave (km/s) = 5.58232 6.87027 6.25951
#
# Compressibility (1/GPa) = 0.02981116
#
# Stress axis : x y z
#
# Youngs Moduli (GPa) = 130.23306 66.74407 53.68947
#
# Poissons Ratio (x) = 0.23256 0.11998
# Poissons Ratio (y) = 0.45378 0.00100
# Poissons Ratio (z) = 0.29104 0.00124
#
# Static dielectric constant tensor:
#      x y z
#    x 1.957440 0.051780 -0.002330 
#    y 0.051780 1.845220 0.007530 
#    z -0.002330 0.007530 2.089470 
# 
# From -- ./inp_files/83142.got.cif
#   From: 2010.05.17/outbox.cif.g08.bks.cpg/sg2_42_cif.got.tgz:83142.got - 2010.06.03 11:33:40.
