data_PCOD9086872
_publ_section_title
;
Structure prediction by ZEFSAII (Michael W. Deem and Ramdas Pophale) SiO2 
 PCOD9086872
Probable space group: P -1
;
_chemical_formula_sum "Si O2"
_cell_formula_units_Z 16
_cell_length_a 15.060683
_cell_length_b 9.269471
_cell_length_c 11.371966
_cell_angle_alpha 83.928608
_cell_angle_beta 101.342900
_cell_angle_gamma 149.702688
_cell_volume 778.657758
_symmetry_space_group_name_H-M "P -1"
_symmetry_group_IT_number 2
_symmetry_cell_setting 'triclinic'
loop_
_space_group_symop_operation_xyz
x,y,z
-x,-y,-z
loop_
_atom_site_type_symbol
_atom_site_label
_atom_site_fract_x
_atom_site_fract_y
_atom_site_fract_z
Si Si1 0.358819 0.418448 0.177086
Si Si2 0.128861 0.351609 0.678642
Si Si3 0.736878 0.159048 0.757331
Si Si4 0.247920 0.292908 0.429961
Si Si5 0.021950 0.755217 0.104258
Si Si6 0.714047 0.318846 0.529263
Si Si7 0.647165 0.257193 0.920904
Si Si8 0.591283 0.507658 0.299387
O O1 0.325671 0.372782 0.313651
O O2 0.383301 0.615776 0.124653
O O3 0.536610 0.565879 0.198065
O O4 0.184745 0.097601 0.101673
O O5 0.217874 0.590736 0.594036
O O6 0.261515 0.398078 0.723129
O O7 0.069320 0.334557 0.787017
O O8 0.951427 0.045938 0.595870
O O9 0.885551 0.274041 0.856853
O O10 0.802498 0.330015 0.642202
O O11 0.639332 0.143531 0.814309
O O12 0.590234 0.837868 0.707328
O O13 0.249011 0.466921 0.435848
O O14 0.346122 0.364916 0.563972
O O15 0.855911 0.533306 0.991654
O O16 0.500000 0.000000 0.500000
O O17 0.500000 0.000000 0.000000
#
# Coordination Sequence:
#
# PCOD9086872 Si02
#       8
#     2   2   2   2   2   2   2   2
#     4  10  22  40  65  88 116 167 203 243 307 361
#     4  10  21  38  60  93 126 157 199 246 299 357
#     4  11  22  40  64  90 120 163 204 248 307 353
#     4  10  19  36  60  92 127 156 196 244 300 367
#     4  10  24  44  63  85 121 164 206 252 294 364
#     4  11  19  34  64  88 128 162 189 243 311 365
#     4  12  25  44  63  89 122 156 210 262 299 347
#     4  10  19  37  62  91 125 156 197 241 301 370
#
# _framework density 20.548179000000001
#
# number of rings (size 3 to 8) (size 9 to 14) (size 15 to 20)
#    0.000    1.500    3.750    3.375    0.000    0.500 
#    4.500    6.875    0.000    0.000    0.000    0.000 
#    0.000    0.000    0.000    0.000    0.000    0.000 
#
# Total GULP energy -89361.377118 kJ/mol
# GULP energy per Si atom -5585.086070 kJ/mol
# Density = 2.050141 g / cm^3
# Si number density = 20.548179 Si / 1000 Ang^3
#
#
#
# Elastic Constant Matrix: (Units=GPa)
#
#
# Indices 1 2 3 4 5 6 
#
# 1 86.8384 29.6521 29.8395 -17.5707 29.6393 -8.2655
# 2 29.6521 79.3056 29.8225 -8.9360 16.7700 -4.5883
# 3 29.8395 29.8225 51.9158 6.9559 19.6316 -5.0863
# 4 -17.5707 -8.9360 6.9559 32.3972 -1.3390 0.6986
# 5 29.6393 16.7700 19.6316 -1.3390 43.7973 -2.0578
# 6 -8.2655 -4.5883 -5.0863 0.6986 -2.0578 21.8582
#
#
#
# Elastic Compliance Matrix: (Units=1/GPa)
#
#
# Indices 1 2 3 4 5 6 
#
# 1 0.021222 -0.000653 -0.009655 0.012929 -0.009184 0.004363
# 2 -0.000653 0.017755 -0.010017 0.006610 -0.001627 0.000785
# 3 -0.009655 -0.010017 0.035084 -0.015820 -0.005729 0.002377
# 4 0.012929 0.006610 -0.015820 0.042961 -0.002831 0.000956
# 5 -0.009184 -0.001627 -0.005729 -0.002831 0.032056 -0.002039
# 6 0.004363 0.000785 0.002377 0.000956 -0.002039 0.047895
#
#
# Mechanical properties :
#
#
# Convention : Reuss Voigt Hill
#
# Bulk Modulus (GPa) = 29.92969 44.07646 37.00307
# Shear Modulus (GPa) = 20.09973 28.19358 24.14665
#
# Velocity S-wave (km/s) = 3.13097 3.70817 3.43173
# Velocity P-wave (km/s) = 5.26003 6.31117 5.80942
#
# Compressibility (1/GPa) = 0.03341164
#
# Stress axis : x y z
#
# Youngs Moduli (GPa) = 47.12059 56.32290 28.50295
#
# Poissons Ratio (x) = 0.03678 0.27519
# Poissons Ratio (y) = 0.03077 0.28551
# Poissons Ratio (z) = 0.45493 0.56419
#
# Static dielectric constant tensor:
#      x y z
#    x 1.770340 -0.001090 0.004190 
#    y -0.001090 1.714610 0.013270 
#    z 0.004190 0.013270 1.763980 
# 
# From -- ./inp_files/205808.got.cif
#   From: 2010.05.17/outbox.cif.g08.bks.cpg/sg2_103_cif.got.tgz:205808.got - 2010.06.03 11:33:40.
