data_PCOD9086596
_publ_section_title
;
Structure prediction by ZEFSAII (Michael W. Deem and Ramdas Pophale) SiO2 
 PCOD9086596
Probable space group: P -1
;
_chemical_formula_sum "Si O2"
_cell_formula_units_Z 16
_cell_length_a 11.870519
_cell_length_b 9.502100
_cell_length_c 18.310214
_cell_angle_alpha 112.670749
_cell_angle_beta 160.427537
_cell_angle_gamma 74.780469
_cell_volume 603.627413
_symmetry_space_group_name_H-M "P -1"
_symmetry_group_IT_number 2
_symmetry_cell_setting 'triclinic'
loop_
_space_group_symop_operation_xyz
x,y,z
-x,-y,-z
loop_
_atom_site_type_symbol
_atom_site_label
_atom_site_fract_x
_atom_site_fract_y
_atom_site_fract_z
Si Si1 0.684651 0.330492 0.948568
Si Si2 0.988588 0.379188 0.403425
Si Si3 0.986930 0.610899 0.084200
Si Si4 0.234115 0.966931 0.762486
Si Si5 0.336069 0.447836 0.481426
Si Si6 0.209092 0.080865 0.023056
Si Si7 0.620529 0.696308 0.104129
Si Si8 0.231336 0.194232 0.216602
O O1 0.739567 0.492065 0.969520
O O2 0.971519 0.362811 0.199191
O O3 0.843775 0.220576 0.974279
O O4 0.347129 0.268475 0.780377
O O5 0.042646 0.213118 0.431673
O O6 0.632284 0.317348 0.124827
O O7 0.000000 0.500000 0.500000
O O8 0.261293 0.469247 0.524986
O O9 0.384450 0.647800 0.365436
O O10 0.879535 0.767410 0.034744
O O11 0.000000 0.500000 0.000000
O O12 0.500491 0.964231 0.857172
O O13 0.500000 0.000000 0.000000
O O14 0.104298 0.123360 0.712058
O O15 0.504498 0.622700 0.583028
O O16 0.335600 0.129196 0.192582
O O17 0.852164 0.929889 0.792138
O O18 0.500000 0.500000 0.000000
#
# Coordination Sequence:
#
# PCOD9086596 Si02
#       8
#     2   2   2   2   2   2   2   2
#     4  10  20  38  58  83 127 157 193 253 315 368
#     4  10  22  40  64  89 124 173 201 254 316 369
#     4  11  21  34  59  93 116 152 208 253 291 365
#     4  10  22  40  62  89 126 161 210 256 306 373
#     4  10  21  40  57  86 129 163 195 243 324 369
#     4  11  21  35  60  95 115 153 204 260 302 354
#     4  10  22  40  64  90 118 166 216 254 304 369
#     4  10  19  36  59  85 123 153 192 249 320 356
#
# _framework density 26.506419999999999
#
# number of rings (size 3 to 8) (size 9 to 14) (size 15 to 20)
#    0.000    1.750    3.750    2.250    3.500    0.000 
#    0.000    5.625    0.000    0.000    0.000    0.000 
#    0.000    0.000    0.000    0.000    0.000    0.000 
#
# Total GULP energy -89089.398431 kJ/mol
# GULP energy per Si atom -5568.087402 kJ/mol
# Density = 2.644609 g / cm^3
# Si number density = 26.506420 Si / 1000 Ang^3
#
#
#
# Elastic Constant Matrix: (Units=GPa)
#
#
# Indices 1 2 3 4 5 6 
#
# 1 138.1520 16.4334 14.2843 -0.3948 -9.8103 11.8945
# 2 16.4334 219.2657 36.1621 29.7655 1.5270 29.8766
# 3 14.2843 36.1621 52.4033 0.3496 -17.8181 -2.3480
# 4 -0.3948 29.7655 0.3496 38.2453 1.7099 1.6945
# 5 -9.8103 1.5270 -17.8181 1.7099 18.7123 3.0802
# 6 11.8945 29.8766 -2.3480 1.6945 3.0802 47.1033
#
#
#
# Elastic Compliance Matrix: (Units=1/GPa)
#
#
# Indices 1 2 3 4 5 6 
#
# 1 0.007791 -0.000205 -0.000844 0.000179 0.003631 -0.002123
# 2 -0.000205 0.007027 -0.007086 -0.004941 -0.006291 -0.004170
# 3 -0.000844 -0.007086 0.035594 0.003519 0.033016 0.004197
# 4 0.000179 -0.004941 0.003519 0.029833 0.000770 0.002140
# 5 0.003631 -0.006291 0.033016 0.000770 0.087394 -0.001023
# 6 -0.002123 -0.004170 0.004197 0.002140 -0.001023 0.024610
#
#
# Mechanical properties :
#
#
# Convention : Reuss Voigt Hill
#
# Bulk Modulus (GPa) = 29.29005 60.39784 44.84395
# Shear Modulus (GPa) = 22.73749 43.67491 33.20620
#
# Velocity S-wave (km/s) = 2.93202 4.06360 3.54328
# Velocity P-wave (km/s) = 4.74726 6.69722 5.80471
#
# Compressibility (1/GPa) = 0.03414128
#
# Stress axis : x y z
#
# Youngs Moduli (GPa) = 128.34961 142.29942 28.09480
#
# Poissons Ratio (x) = 0.02918 0.02371
# Poissons Ratio (y) = 0.02632 0.19909
# Poissons Ratio (z) = 0.10833 1.00840
#
# Static dielectric constant tensor:
#      x y z
#    x 2.190990 -0.149290 0.049040 
#    y -0.149290 2.222540 0.006670 
#    z 0.049040 0.006670 2.202030 
# 
# From -- ./inp_files/557208.got.cif
#   From: 2010.05.17/outbox.cif.g08.bks.cpg/sg2_279_cif.got.tgz:557208.got - 2010.06.03 11:33:40.
