data_PCOD9086527
_publ_section_title
;
Structure prediction by ZEFSAII (Michael W. Deem and Ramdas Pophale) SiO2 
 PCOD9086527
Probable space group: P -1
;
_chemical_formula_sum "Si O2"
_cell_formula_units_Z 16
_cell_length_a 13.198782
_cell_length_b 15.337869
_cell_length_c 14.299999
_cell_angle_alpha 142.364744
_cell_angle_beta 49.193229
_cell_angle_gamma 152.777442
_cell_volume 795.217310
_symmetry_space_group_name_H-M "P -1"
_symmetry_group_IT_number 2
_symmetry_cell_setting 'triclinic'
loop_
_space_group_symop_operation_xyz
x,y,z
-x,-y,-z
loop_
_atom_site_type_symbol
_atom_site_label
_atom_site_fract_x
_atom_site_fract_y
_atom_site_fract_z
Si Si1 0.152761 0.253358 0.448711
Si Si2 0.434907 0.775745 0.171079
Si Si3 0.345175 0.253535 0.506401
Si Si4 0.940852 0.191663 0.196664
Si Si5 0.761465 0.106215 0.624687
Si Si6 0.417470 0.697003 0.331149
Si Si7 0.450869 0.486178 0.829015
Si Si8 0.959922 0.970187 0.862008
O O1 0.202377 0.204308 0.469463
O O2 0.393818 0.509418 0.480420
O O3 0.032012 0.054620 0.272988
O O4 0.996982 0.254350 0.566614
O O5 0.435232 0.770633 0.278923
O O6 0.690114 0.035668 0.205414
O O7 0.263181 0.748802 0.217157
O O8 0.376468 0.568806 0.991173
O O9 0.286649 0.040429 0.384249
O O10 0.318748 0.315589 0.673181
O O11 0.154573 0.472408 0.330005
O O12 0.918532 0.050300 0.170222
O O13 0.021628 0.176465 0.041582
O O14 0.571039 0.909226 0.493963
O O15 0.508089 0.611045 0.208641
O O16 0.699827 0.732431 0.847623
#
# Coordination Sequence:
#
# PCOD9086527 Si02
#       8
#     2   2   2   2   2   2   2   2
#     4  10  19  36  59  77 100 132 179 218 255 308
#     4  11  21  33  51  77 112 141 164 210 264 308
#     4   9  20  38  60  76  94 136 179 219 257 301
#     4   9  18  32  50  76 109 136 170 206 250 304
#     4  11  23  34  50  81 111 133 167 217 266 305
#     4  10  20  33  52  77 104 144 180 203 245 307
#     4   8  17  34  54  77 102 133 179 215 249 301
#     4   8  15  30  54  79 100 132 172 219 248 285
#
# _framework density 20.120287000000001
#
# number of rings (size 3 to 8) (size 9 to 14) (size 15 to 20)
#    0.000    2.500    0.000    3.375    0.000    3.500 
#    0.000    0.625    0.000   12.000    0.000    0.000 
#    0.000    0.000    0.000    0.000    0.000    0.000 
#
# Total GULP energy -89338.212235 kJ/mol
# GULP energy per Si atom -5583.638265 kJ/mol
# Density = 2.007449 g / cm^3
# Si number density = 20.120287 Si / 1000 Ang^3
#
#
#
# Elastic Constant Matrix: (Units=GPa)
#
#
# Indices 1 2 3 4 5 6 
#
# 1 94.2782 30.2864 48.7017 -21.7049 -6.1894 4.0739
# 2 30.2864 83.9973 13.3833 -8.0360 -1.0886 6.4097
# 3 48.7017 13.3833 54.3932 -10.2417 -14.4766 2.6814
# 4 -21.7049 -8.0360 -10.2417 20.0440 1.4509 2.6340
# 5 -6.1894 -1.0886 -14.4766 1.4509 30.0770 0.5055
# 6 4.0739 6.4097 2.6814 2.6340 0.5055 24.7509
#
#
#
# Elastic Compliance Matrix: (Units=1/GPa)
#
#
# Indices 1 2 3 4 5 6 
#
# 1 0.026354 -0.004464 -0.020624 0.016951 -0.005438 -0.002641
# 2 -0.004464 0.013735 0.001101 0.001640 0.000082 -0.003118
# 3 -0.020624 0.001101 0.040304 -0.002232 0.015325 -0.001332
# 4 0.016951 0.001640 -0.002232 0.069169 -0.000690 -0.010320
# 5 -0.005438 0.000082 0.015325 -0.000690 0.039567 -0.001521
# 6 -0.002641 -0.003118 -0.001332 -0.010320 -0.001521 0.042918
#
#
# Mechanical properties :
#
#
# Convention : Reuss Voigt Hill
#
# Bulk Modulus (GPa) = 30.84466 46.37906 38.61186
# Shear Modulus (GPa) = 17.19243 24.32752 20.75997
#
# Velocity S-wave (km/s) = 2.92632 3.48099 3.21564
# Velocity P-wave (km/s) = 5.17506 6.26557 5.74624
#
# Compressibility (1/GPa) = 0.03242053
#
# Stress axis : x y z
#
# Youngs Moduli (GPa) = 37.94468 72.80715 24.81174
#
# Poissons Ratio (x) = 0.32498 0.51171
# Poissons Ratio (y) = 0.16937 -0.02733
# Poissons Ratio (z) = 0.78256 -0.08019
#
# Static dielectric constant tensor:
#      x y z
#    x 1.684790 0.006650 0.002840 
#    y 0.006650 1.766630 0.008030 
#    z 0.002840 0.008030 1.742740 
# 
# From -- ./inp_files/284904.got.cif
#   From: 2010.05.17/outbox.cif.g08.bks.cpg/sg2_143_cif.got.tgz:284904.got - 2010.06.03 11:33:40.
