data_PCOD9086275
_publ_section_title
;
Structure prediction by ZEFSAII (Michael W. Deem and Ramdas Pophale) SiO2 
 PCOD9086275
Probable space group: P -1
;
_chemical_formula_sum "Si O2"
_cell_formula_units_Z 14
_cell_length_a 10.646214
_cell_length_b 9.200303
_cell_length_c 15.682010
_cell_angle_alpha 114.134393
_cell_angle_beta 35.494718
_cell_angle_gamma 128.040270
_cell_volume 687.786083
_symmetry_space_group_name_H-M "P -1"
_symmetry_group_IT_number 2
_symmetry_cell_setting 'triclinic'
loop_
_space_group_symop_operation_xyz
x,y,z
-x,-y,-z
loop_
_atom_site_type_symbol
_atom_site_label
_atom_site_fract_x
_atom_site_fract_y
_atom_site_fract_z
Si Si1 0.995129 0.856653 0.900977
Si Si2 0.539536 0.142524 0.388033
Si Si3 0.628525 0.881575 0.981572
Si Si4 0.495050 0.831826 0.789255
Si Si5 0.983690 0.044135 0.662565
Si Si6 0.219602 0.456080 0.632624
Si Si7 0.177297 0.556124 0.040361
O O1 0.790553 0.825215 0.935831
O O2 0.901332 0.656718 0.950236
O O3 0.282293 0.942780 0.725339
O O4 0.000000 0.000000 0.000000
O O5 0.537175 0.177809 0.295905
O O6 0.712003 0.341509 0.391466
O O7 0.237181 0.044256 0.549351
O O8 0.813257 0.005563 0.831768
O O9 0.389346 0.697781 0.026403
O O10 0.549408 0.007036 0.109203
O O11 0.780734 0.890040 0.672200
O O12 0.295759 0.642370 0.904280
O O13 0.069321 0.249130 0.626055
O O14 0.500000 0.500000 0.500000
O O15 0.066478 0.432812 0.798119
#
# Coordination Sequence:
#
# PCOD9086275 Si02
#       7
#     2   2   2   2   2   2   2
#     4  11  23  37  53  83 115 148 183 224 275 327
#     4  10  22  34  54  83 116 143 177 231 282 315
#     4  11  20  36  60  81 110 150 185 221 269 333
#     4  11  19  35  61  86 106 143 185 234 273 316
#     4  10  19  36  57  83 110 141 187 228 271 327
#     4   9  17  31  51  80 111 137 172 226 276 317
#     4  10  20  36  57  83 108 145 190 223 268 327
#
# _framework density 20.355166000000001
#
# number of rings (size 3 to 8) (size 9 to 14) (size 15 to 20)
#    0.000    1.714    4.286    1.714    0.000    4.000 
#    0.000    0.000    0.000    3.429    0.000    0.000 
#    0.000    0.000    0.000    0.000    0.000    0.000 
#
# Total GULP energy -77984.072309 kJ/mol
# GULP energy per Si atom -5570.290879 kJ/mol
# Density = 2.030884 g / cm^3
# Si number density = 20.355166 Si / 1000 Ang^3
#
#
#
# Elastic Constant Matrix: (Units=GPa)
#
#
# Indices 1 2 3 4 5 6 
#
# 1 39.6959 9.7860 21.5424 -6.5026 2.8906 6.3828
# 2 9.7860 91.8828 31.8546 3.7545 -7.1181 8.6007
# 3 21.5424 31.8546 107.8657 0.0302 -29.4454 11.7480
# 4 -6.5026 3.7545 0.0302 32.4076 2.2379 -7.0995
# 5 2.8906 -7.1181 -29.4454 2.2379 27.7268 -1.7536
# 6 6.3828 8.6007 11.7480 -7.0995 -1.7536 25.4654
#
#
#
# Elastic Compliance Matrix: (Units=1/GPa)
#
#
# Indices 1 2 3 4 5 6 
#
# 1 0.033917 -0.001313 -0.010434 0.007566 -0.015704 -0.002216
# 2 -0.001313 0.012482 -0.003056 -0.002401 0.000091 -0.003139
# 3 -0.010434 -0.003056 0.018086 -0.004090 0.019556 -0.004490
# 4 0.007566 -0.002401 -0.004090 0.035426 -0.007968 0.010129
# 5 -0.015704 0.000091 0.019556 -0.007968 0.058931 -0.003280
# 6 -0.002216 -0.003139 -0.004490 0.010129 -0.003280 0.045554
#
#
# Mechanical properties :
#
#
# Convention : Reuss Voigt Hill
#
# Bulk Modulus (GPa) = 28.67174 40.64559 34.65866
# Shear Modulus (GPa) = 20.35598 28.87072 24.61335
#
# Velocity S-wave (km/s) = 3.16577 3.77018 3.48112
# Velocity P-wave (km/s) = 5.24205 6.24211 5.76381
#
# Compressibility (1/GPa) = 0.03487755
#
# Stress axis : x y z
#
# Youngs Moduli (GPa) = 29.48398 80.11570 55.29220
#
# Poissons Ratio (x) = 0.10523 0.57689
# Poissons Ratio (y) = 0.03873 0.16900
# Poissons Ratio (z) = 0.30762 0.24487
#
# Static dielectric constant tensor:
#      x y z
#    x 1.743730 0.015770 -0.024230 
#    y 0.015770 1.792910 -0.002800 
#    z -0.024230 -0.002800 1.761970 
# 
# From -- ./inp_files/442592.got.cif
#   From: 2010.05.17/outbox.cif.g08.bks.cpg/sg2_222_cif.got.tgz:442592.got - 2010.06.03 11:33:40.
