data_PCOD9086058
_publ_section_title
;
Structure prediction by ZEFSAII (Michael W. Deem and Ramdas Pophale) SiO2 
 PCOD9086058
Probable space group: P -1
;
_chemical_formula_sum "Si O2"
_cell_formula_units_Z 16
_cell_length_a 14.679599
_cell_length_b 8.338581
_cell_length_c 6.998770
_cell_angle_alpha 112.972812
_cell_angle_beta 131.302033
_cell_angle_gamma 63.866698
_cell_volume 571.461793
_symmetry_space_group_name_H-M "P -1"
_symmetry_group_IT_number 2
_symmetry_cell_setting 'triclinic'
loop_
_space_group_symop_operation_xyz
x,y,z
-x,-y,-z
loop_
_atom_site_type_symbol
_atom_site_label
_atom_site_fract_x
_atom_site_fract_y
_atom_site_fract_z
Si Si1 0.358132 0.785064 0.432742
Si Si2 0.561316 0.943371 0.857438
Si Si3 0.786779 0.806965 0.523689
Si Si4 0.243149 0.321753 0.194808
Si Si5 0.998117 0.061335 0.305837
Si Si6 0.122254 0.564395 0.627430
Si Si7 0.500308 0.656058 0.226805
Si Si8 0.868453 0.312737 0.744668
O O1 0.501614 0.772023 0.674520
O O2 0.386124 0.668457 0.224695
O O3 0.265637 0.733831 0.430634
O O4 0.312418 0.005077 0.464901
O O5 0.703751 0.843398 0.950506
O O6 0.532206 0.134914 0.795359
O O7 0.500000 0.000000 0.000000
O O8 0.832164 0.736257 0.763670
O O9 0.767194 0.624611 0.311326
O O10 0.881468 0.869458 0.546914
O O11 0.362043 0.364823 0.495139
O O12 0.153501 0.505770 0.075844
O O13 0.029465 0.871861 0.149677
O O14 0.000000 0.000000 0.500000
O O15 0.884287 0.239349 0.194124
O O16 0.112600 0.629254 0.419662
O O17 0.000000 0.500000 0.500000
O O18 0.500000 0.500000 0.000000
#
# Coordination Sequence:
#
# PCOD9086058 Si02
#       8
#     2   2   2   2   2   2   2   2
#     4  10  19  36  52  73 112 141 177 217 257 302
#     4  11  23  36  53  73 105 144 179 218 261 306
#     4   9  14  28  50  68 101 146 164 210 259 307
#     4  10  19  36  52  73 108 143 179 208 262 304
#     4   8  14  25  41  76 110 126 160 219 261 300
#     4   8  14  25  45  74 110 134 164 213 261 311
#     4  11  23  36  53  73 105 144 179 218 261 306
#     4   9  18  26  50  76 105 142 168 216 258 302
#
# _framework density 27.998374999999999
#
# number of rings (size 3 to 8) (size 9 to 14) (size 15 to 20)
#    0.000    2.500    2.500    0.750    3.500    1.000 
#    0.000    0.000    0.000    0.000    0.000    0.000 
#    0.000  504.000    0.000    0.000    0.000    0.000 
#
# Total GULP energy -89083.068272 kJ/mol
# GULP energy per Si atom -5567.691767 kJ/mol
# Density = 2.793465 g / cm^3
# Si number density = 27.998375 Si / 1000 Ang^3
#
#
#
# Elastic Constant Matrix: (Units=GPa)
#
#
# Indices 1 2 3 4 5 6 
#
# 1 175.8147 49.3614 61.2466 24.9141 -22.6031 14.7515
# 2 49.3614 215.6969 62.4063 49.0864 -22.6095 -5.0486
# 3 61.2466 62.4063 101.3540 32.5786 -8.8802 -25.7502
# 4 24.9141 49.0864 32.5786 42.2844 -14.4380 -18.7625
# 5 -22.6031 -22.6095 -8.8802 -14.4380 48.6682 19.7698
# 6 14.7515 -5.0486 -25.7502 -18.7625 19.7698 45.0838
#
#
#
# Elastic Compliance Matrix: (Units=1/GPa)
#
#
# Indices 1 2 3 4 5 6 
#
# 1 0.011798 0.001969 -0.009719 -0.005469 0.009316 -0.015552
# 2 0.001969 0.007822 -0.004930 -0.008516 0.004395 -0.008056
# 3 -0.009719 -0.004930 0.023405 -0.001386 -0.011204 0.020332
# 4 -0.005469 -0.008516 -0.001386 0.046226 -0.001056 0.019745
# 5 0.009316 0.004395 -0.011204 -0.001056 0.034524 -0.024535
# 6 -0.015552 -0.008056 0.020332 0.019745 -0.024535 0.056957
#
#
# Mechanical properties :
#
#
# Convention : Reuss Voigt Hill
#
# Bulk Modulus (GPa) = 56.61082 93.21048 74.91065
# Shear Modulus (GPa) = 23.58701 48.53070 36.05885
#
# Velocity S-wave (km/s) = 2.90563 4.16786 3.59261
# Velocity P-wave (km/s) = 5.61428 7.51831 6.63495
#
# Compressibility (1/GPa) = 0.01766447
#
# Stress axis : x y z
#
# Youngs Moduli (GPa) = 84.75815 127.84388 42.72625
#
# Poissons Ratio (x) = -0.25173 0.41525
# Poissons Ratio (y) = -0.16690 0.21066
# Poissons Ratio (z) = 0.82376 0.63033
#
# Static dielectric constant tensor:
#      x y z
#    x 2.288760 -0.217840 -0.257670 
#    y -0.217840 2.579930 0.054800 
#    z -0.257670 0.054800 3.290410 
# 
# From -- ./inp_files/208007.got.cif
#   From: 2010.05.17/outbox.cif.g08.bks.cpg/sg2_105_cif.got.tgz:208007.got - 2010.06.03 11:33:40.
