data_PCOD9086125
_publ_section_title
;
Structure prediction by ZEFSAII (Michael W. Deem and Ramdas Pophale) SiO2 
 PCOD9086125
Probable space group: P -1
;
_chemical_formula_sum "Si O2"
_cell_formula_units_Z 16
_cell_length_a 7.280321
_cell_length_b 7.402975
_cell_length_c 26.600482
_cell_angle_alpha 51.330313
_cell_angle_beta 53.568539
_cell_angle_gamma 93.883309
_cell_volume 644.462814
_symmetry_space_group_name_H-M "P -1"
_symmetry_group_IT_number 2
_symmetry_cell_setting 'triclinic'
loop_
_space_group_symop_operation_xyz
x,y,z
-x,-y,-z
loop_
_atom_site_type_symbol
_atom_site_label
_atom_site_fract_x
_atom_site_fract_y
_atom_site_fract_z
Si Si1 0.194039 0.819207 0.146969
Si Si2 0.803218 0.184327 0.205443
Si Si3 0.114487 0.247345 0.636881
Si Si4 0.384991 0.292475 0.122400
Si Si5 0.626273 0.290715 0.393727
Si Si6 0.177480 0.886308 0.987438
Si Si7 0.104247 0.980513 0.881043
Si Si8 0.568931 0.148544 0.577750
O O1 0.926291 0.508658 0.104902
O O2 0.508572 0.906967 0.065603
O O3 0.967042 0.509262 0.273138
O O4 0.333635 0.119276 0.108521
O O5 0.128456 0.318749 0.155561
O O6 0.742244 0.970962 0.205738
O O7 0.526483 0.982250 0.327061
O O8 0.309701 0.455966 0.620880
O O9 0.280104 0.126242 0.612964
O O10 0.147811 0.478917 0.551092
O O11 0.756342 0.949411 0.765569
O O12 0.751377 0.619800 0.007710
O O13 0.500000 0.000000 0.500000
O O14 0.407635 0.076645 0.417659
O O15 0.971492 0.797829 0.147307
O O16 0.297602 0.994572 0.891297
O O17 0.000000 0.000000 0.000000
#
# Coordination Sequence:
#
# PCOD9086125 Si02
#       8
#     2   2   2   2   2   2   2   2
#     4  10  20  38  59  87 118 146 202 243 289 358
#     4  10  19  36  55  82 114 152 196 242 291 348
#     4   8  16  30  52  89 112 143 201 238 291 352
#     4   9  16  34  63  83 109 151 201 241 288 348
#     4   9  18  33  59  89 112 153 196 241 301 347
#     4  12  26  36  52  88 124 156 196 238 295 360
#     4  11  21  38  63  80 112 161 195 242 301 343
#     4   9  17  30  54  83 119 146 187 252 287 348
#
# _framework density 24.826879999999999
#
# number of rings (size 3 to 8) (size 9 to 14) (size 15 to 20)
#    0.000    2.250    2.500    1.875    1.750    2.500 
#    0.000    0.000    0.000    1.500    0.000    0.000 
#    0.000    0.000    0.000    0.000    0.000    0.000 
#
# Total GULP energy -89191.505855 kJ/mol
# GULP energy per Si atom -5574.469116 kJ/mol
# Density = 2.477037 g / cm^3
# Si number density = 24.826880 Si / 1000 Ang^3
#
#
#
# Elastic Constant Matrix: (Units=GPa)
#
#
# Indices 1 2 3 4 5 6 
#
# 1 101.4024 17.7245 34.5002 2.5879 18.4134 0.9680
# 2 17.7245 73.7894 10.5478 13.7639 5.2601 -0.0347
# 3 34.5002 10.5478 147.5911 18.0742 42.4560 6.1109
# 4 2.5879 13.7639 18.0742 40.5337 3.4927 7.2798
# 5 18.4134 5.2601 42.4560 3.4927 29.5910 6.9559
# 6 0.9680 -0.0347 6.1109 7.2798 6.9559 30.4108
#
#
#
# Elastic Compliance Matrix: (Units=1/GPa)
#
#
# Indices 1 2 3 4 5 6 
#
# 1 0.011632 -0.002405 -0.001093 0.000877 -0.005560 0.000908
# 2 -0.002405 0.015185 0.000589 -0.005412 -0.001805 0.001684
# 3 -0.001093 0.000589 0.012436 -0.004652 -0.017333 0.002615
# 4 0.000877 -0.005412 -0.004652 0.029387 0.005351 -0.007358
# 5 -0.005560 -0.001805 -0.017333 0.005351 0.064734 -0.012430
# 6 0.000908 0.001684 0.002615 -0.007358 -0.012430 0.036935
#
#
# Mechanical properties :
#
#
# Convention : Reuss Voigt Hill
#
# Bulk Modulus (GPa) = 29.90733 49.81420 39.86077
# Shear Modulus (GPa) = 26.69907 37.44113 32.07010
#
# Velocity S-wave (km/s) = 3.28290 3.88762 3.59799
# Velocity P-wave (km/s) = 5.14222 6.34505 5.77504
#
# Compressibility (1/GPa) = 0.03343662
#
# Stress axis : x y z
#
# Youngs Moduli (GPa) = 85.96634 65.85655 80.40924
#
# Poissons Ratio (x) = 0.15837 0.08788
# Poissons Ratio (y) = 0.20673 -0.04739
# Poissons Ratio (z) = 0.09396 -0.03881
#
# Static dielectric constant tensor:
#      x y z
#    x 2.002910 -0.004750 0.040050 
#    y -0.004750 2.191200 0.075000 
#    z 0.040050 0.075000 1.987310 
# 
# From -- ./inp_files/196533.got.cif
#   From: 2010.05.17/outbox.cif.g08.bks.cpg/sg2_99_cif.got.tgz:196533.got - 2010.06.03 11:33:40.
