data_PCOD9086557
_publ_section_title
;
Structure prediction by ZEFSAII (Michael W. Deem and Ramdas Pophale) SiO2 
 PCOD9086557
Probable space group: P -1
;
_chemical_formula_sum "Si O2"
_cell_formula_units_Z 13
_cell_length_a 17.999565
_cell_length_b 9.639364
_cell_length_c 8.203081
_cell_angle_alpha 149.007039
_cell_angle_beta 51.467303
_cell_angle_gamma 126.908108
_cell_volume 565.434501
_symmetry_space_group_name_H-M "P -1"
_symmetry_group_IT_number 2
_symmetry_cell_setting 'triclinic'
loop_
_space_group_symop_operation_xyz
x,y,z
-x,-y,-z
loop_
_atom_site_type_symbol
_atom_site_label
_atom_site_fract_x
_atom_site_fract_y
_atom_site_fract_z
Si Si1 0.242300 0.829603 0.520639
Si Si2 0.813454 0.526628 0.315168
Si Si3 0.564366 0.781478 0.741412
Si Si4 0.000000 0.000000 0.000000
Si Si5 0.306545 0.032340 0.963984
Si Si6 0.755258 0.681920 0.206568
Si Si7 0.948815 0.449231 0.312610
O O1 0.154119 0.660498 0.569398
O O2 0.317074 0.961914 0.689089
O O3 0.201124 0.075571 0.732457
O O4 0.275657 0.604709 0.132768
O O5 0.814106 0.612558 0.213174
O O6 0.913371 0.481050 0.209792
O O7 0.736753 0.247864 0.165023
O O8 0.771935 0.765460 0.710487
O O9 0.500000 0.500000 0.500000
O O10 0.662582 0.794311 0.517788
O O11 0.600018 0.824599 0.922515
O O12 0.500000 0.000000 0.000000
O O13 0.006055 0.213087 0.048273
O O14 0.007512 0.265239 0.380501
#
# Coordination Sequence:
#
# PCOD9086557 Si02
#       7
#     2   2   2   1   2   2   2
#     4  11  21  37  59  87 115 139 190 249 288 306
#     4  10  19  36  59  83 109 149 199 228 268 329
#     4  11  22  39  57  79 115 156 189 227 286 349
#     4  10  20  34  58  88 114 146 192 214 274 350
#     4  10  20  36  58  82 109 149 195 235 272 340
#     4  11  22  36  59  87 111 145 193 243 283 332
#     4  10  20  36  60  84 113 150 184 232 272 335
#
# _framework density 22.991168999999999
#
# number of rings (size 3 to 8) (size 9 to 14) (size 15 to 20)
#    0.000    1.538    0.000    9.231    0.000    0.000 
#    0.000    4.615    0.000   18.462    0.000    0.000 
#    0.000    0.000    0.000    0.000    0.000    0.000 
#
# Total GULP energy -72471.528396 kJ/mol
# GULP energy per Si atom -5574.732954 kJ/mol
# Density = 2.293884 g / cm^3
# Si number density = 22.991169 Si / 1000 Ang^3
#
#
#
# Elastic Constant Matrix: (Units=GPa)
#
#
# Indices 1 2 3 4 5 6 
#
# 1 170.7324 47.8103 68.4985 3.1976 9.8132 -47.1818
# 2 47.8103 65.4265 49.5973 21.1044 -9.8425 -32.1437
# 3 68.4985 49.5973 178.3107 39.5008 10.0647 -31.0175
# 4 3.1976 21.1044 39.5008 46.1051 -5.6235 -2.1037
# 5 9.8132 -9.8425 10.0647 -5.6235 41.2344 1.7582
# 6 -47.1818 -32.1437 -31.0175 -2.1037 1.7582 34.2944
#
#
#
# Elastic Compliance Matrix: (Units=1/GPa)
#
#
# Indices 1 2 3 4 5 6 
#
# 1 0.010233 -0.001544 -0.001773 0.001711 -0.002618 0.011266
# 2 -0.001544 0.038674 -0.002192 -0.013453 0.006979 0.030958
# 3 -0.001773 -0.002192 0.009310 -0.007109 -0.003500 0.003670
# 4 0.001711 -0.013453 -0.007109 0.033550 0.003323 -0.014798
# 5 -0.002618 0.006979 -0.003500 0.003323 0.027910 -0.001453
# 6 0.011266 0.030958 0.003670 -0.014798 -0.001453 0.076162
#
#
# Mechanical properties :
#
#
# Convention : Reuss Voigt Hill
#
# Bulk Modulus (GPa) = 21.18760 82.92019 52.05390
# Shear Modulus (GPa) = 22.46293 40.89767 31.68030
#
# Velocity S-wave (km/s) = 3.12913 4.22221 3.71608
# Velocity P-wave (km/s) = 4.72131 7.74040 6.41111
#
# Compressibility (1/GPa) = 0.04719742
#
# Stress axis : x y z
#
# Youngs Moduli (GPa) = 97.72578 25.85745 107.41380
#
# Poissons Ratio (x) = 0.03993 0.19042
# Poissons Ratio (y) = 0.15091 0.23549
# Poissons Ratio (z) = 0.17325 0.05669
#
# Static dielectric constant tensor:
#      x y z
#    x 1.982640 0.111500 -0.027660 
#    y 0.111500 2.197210 -0.086180 
#    z -0.027660 -0.086180 1.839980 
# 
# From -- ./inp_files/329704.got.cif
#   From: 2010.05.17/outbox.cif.g08.bks.cpg/sg2_165_cif.got.tgz:329704.got - 2010.06.03 11:33:40.
