data_PCOD9086633
_publ_section_title
;
Structure prediction by ZEFSAII (Michael W. Deem and Ramdas Pophale) SiO2 
 PCOD9086633
Probable space group: P -1
;
_chemical_formula_sum "Si O2"
_cell_formula_units_Z 14
_cell_length_a 18.872591
_cell_length_b 13.202121
_cell_length_c 9.225949
_cell_angle_alpha 131.997803
_cell_angle_beta 103.270772
_cell_angle_gamma 37.469598
_cell_volume 774.414583
_symmetry_space_group_name_H-M "P -1"
_symmetry_group_IT_number 2
_symmetry_cell_setting 'triclinic'
loop_
_space_group_symop_operation_xyz
x,y,z
-x,-y,-z
loop_
_atom_site_type_symbol
_atom_site_label
_atom_site_fract_x
_atom_site_fract_y
_atom_site_fract_z
Si Si1 0.277867 0.346147 0.319197
Si Si2 0.290112 0.449481 0.884292
Si Si3 0.170401 0.740446 0.396568
Si Si4 0.490766 0.879431 0.569073
Si Si5 0.744058 0.174830 0.274726
Si Si6 0.030087 0.797867 0.875336
Si Si7 0.605440 0.119754 0.229650
O O1 0.219618 0.543333 0.350300
O O2 0.409320 0.207275 0.342624
O O3 0.135917 0.555498 0.566559
O O4 0.349745 0.087107 0.042689
O O5 0.382669 0.378228 0.735483
O O6 0.134822 0.649118 0.925652
O O7 0.384058 0.161651 0.704280
O O8 0.274862 0.558941 0.128534
O O9 0.181127 0.868931 0.598019
O O10 0.000000 0.000000 0.500000
O O11 0.384221 0.946188 0.662531
O O12 0.711743 0.070400 0.187311
O O13 0.574391 0.529482 0.524272
O O14 0.866102 0.000000 0.034218
O O15 0.000000 0.000000 0.000000
#
# Coordination Sequence:
#
# PCOD9086633 Si02
#       7
#     2   2   2   2   2   2   2
#     4  11  21  37  66  84 116 160 205 240 288 358
#     4  10  20  32  60  88 112 145 206 248 283 337
#     4  12  20  36  60  90 111 153 203 244 288 355
#     4  10  19  36  59  88 113 151 202 245 284 350
#     4  11  23  37  59  89 124 154 195 249 304 343
#     4  11  20  39  59  89 118 155 199 250 293 347
#     4  11  22  38  59  89 122 158 194 246 298 356
#
# _framework density 18.078171999999999
#
# number of rings (size 3 to 8) (size 9 to 14) (size 15 to 20)
#    0.000    1.143    5.714    2.143    0.000    0.571 
#    0.000    3.571    0.000    6.857    0.000    0.000 
#    0.000    0.000    0.000    0.000    0.000    0.000 
#
# Total GULP energy -78019.009561 kJ/mol
# GULP energy per Si atom -5572.786397 kJ/mol
# Density = 1.803703 g / cm^3
# Si number density = 18.078172 Si / 1000 Ang^3
#
#
#
# Elastic Constant Matrix: (Units=GPa)
#
#
# Indices 1 2 3 4 5 6 
#
# 1 129.0810 34.7875 55.9646 -5.4440 -21.6392 18.2219
# 2 34.7875 110.3630 23.2290 2.8143 -0.3243 7.6892
# 3 55.9646 23.2290 115.4334 -18.8439 -21.6542 12.1339
# 4 -5.4440 2.8143 -18.8439 31.8192 3.7074 -6.2503
# 5 -21.6392 -0.3243 -21.6542 3.7074 31.0601 -2.6997
# 6 18.2219 7.6892 12.1339 -6.2503 -2.6997 19.3671
#
#
#
# Elastic Compliance Matrix: (Units=1/GPa)
#
#
# Indices 1 2 3 4 5 6 
#
# 1 0.011942 -0.002327 -0.003884 -0.002199 0.005166 -0.007868
# 2 -0.002327 0.010324 -0.001594 -0.002359 -0.002519 -0.002023
# 3 -0.003884 -0.001594 0.013053 0.006353 0.005526 -0.001070
# 4 -0.002199 -0.002359 0.006353 0.037247 -0.000621 0.010959
# 5 0.005166 -0.002519 0.005526 -0.000621 0.039520 -0.002014
# 6 -0.007868 -0.002023 -0.001070 0.010959 -0.002014 0.063766
#
#
# Mechanical properties :
#
#
# Convention : Reuss Voigt Hill
#
# Bulk Modulus (GPa) = 50.74175 64.75997 57.75086
# Shear Modulus (GPa) = 25.24806 32.50903 28.87855
#
# Velocity S-wave (km/s) = 3.74117 4.24518 4.00112
# Velocity P-wave (km/s) = 6.84037 7.74136 7.30477
#
# Compressibility (1/GPa) = 0.01970764
#
# Stress axis : x y z
#
# Youngs Moduli (GPa) = 83.73469 96.86283 76.60943
#
# Poissons Ratio (x) = 0.22544 0.29758
# Poissons Ratio (y) = 0.19488 0.12213
# Poissons Ratio (z) = 0.32525 0.15442
#
# Static dielectric constant tensor:
#      x y z
#    x 1.610940 0.010440 -0.055140 
#    y 0.010440 1.635860 0.014280 
#    z -0.055140 0.014280 1.724370 
# 
# From -- ./inp_files/175402.got.cif
#   From: 2010.05.17/outbox.cif.g08.bks.cpg/sg2_88_cif.got.tgz:175402.got - 2010.06.03 11:33:40.
