data_PCOD9086389
_publ_section_title
;
Structure prediction by ZEFSAII (Michael W. Deem and Ramdas Pophale) SiO2 
 PCOD9086389
Probable space group: P -1
;
_chemical_formula_sum "Si O2"
_cell_formula_units_Z 16
_cell_length_a 22.763681
_cell_length_b 5.175967
_cell_length_c 5.868264
_cell_angle_alpha 89.887665
_cell_angle_beta 87.162946
_cell_angle_gamma 57.828809
_cell_volume 584.301638
_symmetry_space_group_name_H-M "P -1"
_symmetry_group_IT_number 2
_symmetry_cell_setting 'triclinic'
loop_
_space_group_symop_operation_xyz
x,y,z
-x,-y,-z
loop_
_atom_site_type_symbol
_atom_site_label
_atom_site_fract_x
_atom_site_fract_y
_atom_site_fract_z
Si Si1 0.727036 0.932493 0.941151
Si Si2 0.972901 0.313207 0.871148
Si Si3 0.096719 0.087716 0.583853
Si Si4 0.521914 0.830416 0.749358
Si Si5 0.851302 0.534556 0.177430
Si Si6 0.399720 0.779623 0.776415
Si Si7 0.221635 0.688867 0.299455
Si Si8 0.649178 0.601548 0.467929
O O1 0.756462 0.652960 0.760749
O O2 0.750102 0.168625 0.884103
O O3 0.770051 0.757778 0.159523
O O4 0.645387 0.080121 0.987492
O O5 0.891025 0.498626 0.930128
O O6 0.014124 0.232556 0.624983
O O7 0.000000 0.500000 0.000000
O O8 0.000000 0.000000 0.000000
O O9 0.129396 0.797232 0.748111
O O10 0.139577 0.922114 0.349759
O O11 0.118220 0.323511 0.656707
O O12 0.481173 0.652712 0.764333
O O13 0.604634 0.647408 0.705124
O O14 0.500000 0.000000 0.500000
O O15 0.500000 0.000000 0.000000
O O16 0.380667 0.539845 0.699979
O O17 0.368391 0.071395 0.614257
O O18 0.269734 0.638657 0.508534
#
# Coordination Sequence:
#
# PCOD9086389 Si02
#       8
#     2   2   2   2   2   2   2   2
#     4  12  24  38  57  88 123 160 201 256 319 385
#     4   8  16  30  54  80 104 142 198 250 302 368
#     4  10  19  36  58  81 110 152 201 252 306 379
#     4  10  23  44  70 102 138 178 224 276 334 398
#     4  10  19  36  58  81 110 152 201 252 306 379
#     4  11  23  43  66  93 124 168 216 266 321 385
#     4  12  24  38  57  88 123 160 201 256 319 385
#     4  11  23  43  66  93 124 168 216 266 321 385
#
# _framework density 27.383118
#
# number of rings (size 3 to 8) (size 9 to 14) (size 15 to 20)
#    0.000    1.500    0.000    5.625    0.000    2.000 
#    0.000    6.875    0.000    0.000    0.000    0.000 
#    0.000    0.000    0.000    0.000    0.000    0.000 
#
# Total GULP energy -89503.843489 kJ/mol
# GULP energy per Si atom -5593.990218 kJ/mol
# Density = 2.732079 g / cm^3
# Si number density = 27.383118 Si / 1000 Ang^3
#
#
#
# Elastic Constant Matrix: (Units=GPa)
#
#
# Indices 1 2 3 4 5 6 
#
# 1 107.8186 19.8891 42.9789 14.2989 -23.6059 7.6760
# 2 19.8891 89.7851 35.6153 -10.6105 0.7706 0.9948
# 3 42.9789 35.6153 99.6039 11.7274 -21.4776 -2.5626
# 4 14.2989 -10.6105 11.7274 66.1506 0.3279 -1.0644
# 5 -23.6059 0.7706 -21.4776 0.3279 58.4142 19.3305
# 6 7.6760 0.9948 -2.5626 -1.0644 19.3305 17.5275
#
#
#
# Elastic Compliance Matrix: (Units=1/GPa)
#
#
# Indices 1 2 3 4 5 6 
#
# 1 0.015623 -0.002393 -0.003430 -0.003543 0.011905 -0.020553
# 2 -0.002393 0.014270 -0.005440 0.003875 -0.004836 0.005011
# 3 -0.003430 -0.005440 0.014735 -0.002785 0.004508 -0.001175
# 4 -0.003543 0.003875 -0.002785 0.017146 -0.005123 0.007615
# 5 0.011905 -0.004836 0.004508 -0.005123 0.039682 -0.048355
# 6 -0.020553 0.005011 -0.001175 0.007615 -0.048355 0.119390
#
#
# Mechanical properties :
#
#
# Convention : Reuss Voigt Hill
#
# Bulk Modulus (GPa) = 45.24672 54.90822 50.07747
# Shear Modulus (GPa) = 19.94108 41.66675 30.80392
#
# Velocity S-wave (km/s) = 2.70149 3.90503 3.35763
# Velocity P-wave (km/s) = 5.12740 6.35828 5.77572
#
# Compressibility (1/GPa) = 0.02210105
#
# Stress axis : x y z
#
# Youngs Moduli (GPa) = 64.00726 70.07931 67.86766
#
# Poissons Ratio (x) = 0.16772 0.23280
# Poissons Ratio (y) = 0.15319 0.36918
# Poissons Ratio (z) = 0.21956 0.38121
#
# Static dielectric constant tensor:
#      x y z
#    x 2.108760 -0.054430 -0.029620 
#    y -0.054430 2.144000 0.051230 
#    z -0.029620 0.051230 2.212740 
# 
# From -- ./inp_files/13319.got.cif
#   From: 2010.05.17/outbox.cif.g08.bks.cpg/sg2_7_cif.got.tgz:13319.got - 2010.06.03 11:33:40.
