data_PCOD9086494
_publ_section_title
;
Structure prediction by ZEFSAII (Michael W. Deem and Ramdas Pophale) SiO2 
 PCOD9086494
Probable space group: P -1
;
_chemical_formula_sum "Si O2"
_cell_formula_units_Z 16
_cell_length_a 13.740314
_cell_length_b 11.476241
_cell_length_c 10.456620
_cell_angle_alpha 116.240274
_cell_angle_beta 136.487728
_cell_angle_gamma 94.284956
_cell_volume 782.239135
_symmetry_space_group_name_H-M "P -1"
_symmetry_group_IT_number 2
_symmetry_cell_setting 'triclinic'
loop_
_space_group_symop_operation_xyz
x,y,z
-x,-y,-z
loop_
_atom_site_type_symbol
_atom_site_label
_atom_site_fract_x
_atom_site_fract_y
_atom_site_fract_z
Si Si1 0.601816 0.985309 0.765562
Si Si2 0.656248 0.541687 0.860483
Si Si3 0.635239 0.264263 0.809885
Si Si4 0.964223 0.085722 0.615269
Si Si5 0.891464 0.938207 0.000524
Si Si6 0.320359 0.450415 0.405260
Si Si7 0.337016 0.879888 0.686643
Si Si8 0.036134 0.495321 0.183005
O O1 0.631766 0.158692 0.869812
O O2 0.519046 0.880469 0.504086
O O3 0.442891 0.878155 0.666928
O O4 0.786605 0.010107 0.971388
O O5 0.611696 0.406206 0.857048
O O6 0.502372 0.564051 0.720459
O O7 0.640910 0.479849 0.669047
O O8 0.863588 0.714851 0.144868
O O9 0.837757 0.370529 0.995384
O O10 0.773591 0.051636 0.409962
O O11 0.983314 0.032431 0.747065
O O12 0.000000 0.000000 0.500000
O O13 0.739787 0.735040 0.747105
O O14 0.000000 0.000000 0.000000
O O15 0.145326 0.426321 0.271944
O O16 0.171554 0.682679 0.462911
O O17 0.500000 0.000000 0.000000
O O18 0.000000 0.500000 0.000000
#
# Coordination Sequence:
#
# PCOD9086494 Si02
#       8
#     2   2   2   2   2   2   2   2
#     4  11  24  38  65  97 136 167 212 273 332 380
#     4  10  19  36  58  90 118 166 209 264 317 386
#     4  11  21  38  63  96 129 165 212 272 327 383
#     4  11  25  42  67  91 130 174 219 267 329 401
#     4  11  23  40  64  98 132 165 213 271 331 382
#     4  10  20  31  59  90 124 153 211 268 317 363
#     4  12  26  42  65  97 133 174 222 268 329 402
#     4  12  20  37  63  92 125 164 221 267 318 383
#
# _framework density 20.454104000000001
#
# number of rings (size 3 to 8) (size 9 to 14) (size 15 to 20)
#    0.000    1.000    5.000    2.250    8.750    0.000 
#    0.000    0.625    2.750    1.500    0.000    0.000 
#    0.000    0.000    0.000    0.000    0.000    0.000 
#
# Total GULP energy -89241.153464 kJ/mol
# GULP energy per Si atom -5577.572091 kJ/mol
# Density = 2.040755 g / cm^3
# Si number density = 20.454104 Si / 1000 Ang^3
#
#
#
# Elastic Constant Matrix: (Units=GPa)
#
#
# Indices 1 2 3 4 5 6 
#
# 1 50.9436 16.4374 12.2759 -13.9547 9.0563 -13.6534
# 2 16.4374 103.5824 38.4619 -11.9990 4.3661 -15.7870
# 3 12.2759 38.4619 102.7695 -21.8830 13.3997 -9.6860
# 4 -13.9547 -11.9990 -21.8830 33.7428 -8.6333 15.4675
# 5 9.0563 4.3661 13.3997 -8.6333 28.6122 -4.0882
# 6 -13.6534 -15.7870 -9.6860 15.4675 -4.0882 29.5724
#
#
#
# Elastic Compliance Matrix: (Units=1/GPa)
#
#
# Indices 1 2 3 4 5 6 
#
# 1 0.024367 -0.002120 0.000261 0.005067 -0.005002 0.006862
# 2 -0.002120 0.012119 -0.004239 -0.001290 0.001122 0.004933
# 3 0.000261 -0.004239 0.013084 0.007086 -0.003722 -0.002078
# 4 0.005067 -0.001290 0.007086 0.046434 0.006511 -0.019415
# 5 -0.005002 0.001122 -0.003722 0.006511 0.039954 -0.000811
# 6 0.006862 0.004933 -0.002078 -0.019415 -0.000811 0.048979
#
#
# Mechanical properties :
#
#
# Convention : Reuss Voigt Hill
#
# Bulk Modulus (GPa) = 26.75610 43.51622 35.13616
# Shear Modulus (GPa) = 23.85603 31.06016 27.45809
#
# Velocity S-wave (km/s) = 3.41885 3.90106 3.66789
# Velocity P-wave (km/s) = 5.35669 6.45076 5.92901
#
# Compressibility (1/GPa) = 0.03737465
#
# Stress axis : x y z
#
# Youngs Moduli (GPa) = 41.03908 82.51179 76.42926
#
# Poissons Ratio (x) = 0.17492 -0.01992
# Poissons Ratio (y) = 0.08700 0.32395
# Poissons Ratio (z) = -0.01069 0.34973
#
# Static dielectric constant tensor:
#      x y z
#    x 1.754140 -0.057120 -0.008590 
#    y -0.057120 1.837830 -0.001090 
#    z -0.008590 -0.001090 1.748720 
# 
# From -- ./inp_files/345166.got.cif
#   From: 2010.05.17/outbox.cif.g08.bks.cpg/sg2_173_cif.got.tgz:345166.got - 2010.06.03 11:33:40.
