data_PCOD9086637
_publ_section_title
;
Structure prediction by ZEFSAII (Michael W. Deem and Ramdas Pophale) SiO2 
 PCOD9086637
Probable space group: P -1
;
_chemical_formula_sum "Si O2"
_cell_formula_units_Z 16
_cell_length_a 14.932607
_cell_length_b 10.983118
_cell_length_c 13.008244
_cell_angle_alpha 33.184969
_cell_angle_beta 58.093091
_cell_angle_gamma 79.745562
_cell_volume 815.267165
_symmetry_space_group_name_H-M "P -1"
_symmetry_group_IT_number 2
_symmetry_cell_setting 'triclinic'
loop_
_space_group_symop_operation_xyz
x,y,z
-x,-y,-z
loop_
_atom_site_type_symbol
_atom_site_label
_atom_site_fract_x
_atom_site_fract_y
_atom_site_fract_z
Si Si1 0.861350 0.949243 0.099566
Si Si2 0.619111 0.937635 0.878098
Si Si3 0.950649 0.578277 0.869376
Si Si4 0.232636 0.208304 0.968442
Si Si5 0.037575 0.117966 0.541420
Si Si6 0.328104 0.635735 0.290386
Si Si7 0.873585 0.424072 0.692968
Si Si8 0.204215 0.686435 0.661609
O O1 0.815206 0.888149 0.051007
O O2 0.757074 0.683078 0.412370
O O3 0.862771 0.215641 0.931497
O O4 0.000000 0.000000 0.000000
O O5 0.652148 0.209036 0.724184
O O6 0.702448 0.038080 0.651879
O O7 0.655362 0.796073 0.041780
O O8 0.468151 0.751114 0.080803
O O9 0.909194 0.678290 0.729823
O O10 0.062550 0.540367 0.798193
O O11 0.834781 0.344316 0.172435
O O12 0.028379 0.851961 0.700812
O O13 0.256935 0.500345 0.752406
O O14 0.110571 0.003423 0.259163
O O15 0.108716 0.307647 0.461315
O O16 0.247314 0.701350 0.219567
O O17 0.000000 0.500000 0.500000
#
# Coordination Sequence:
#
# PCOD9086637 Si02
#       8
#     2   2   2   2   2   2   2   2
#     4  12  23  34  56  88 121 157 194 234 294 362
#     4  11  22  38  61  81 130 156 201 247 285 366
#     4   9  20  35  60  92 115 151 202 253 297 345
#     4  11  20  33  58  86 120 157 191 240 295 350
#     4  10  19  36  59  88 122 147 196 252 305 345
#     4  11  24  39  55  92 118 168 196 235 305 354
#     4  12  22  38  61  87 123 159 192 243 305 361
#     4  10  20  36  59  87 114 153 196 250 298 336
#
# _framework density 19.625468000000001
#
# number of rings (size 3 to 8) (size 9 to 14) (size 15 to 20)
#    0.000    1.250    6.250    0.000    1.750    1.500 
#    2.250    0.000    0.000    1.500    0.000    0.000 
#    0.000    0.000    0.000    0.000    0.000    0.000 
#
# Total GULP energy -89101.675649 kJ/mol
# GULP energy per Si atom -5568.854728 kJ/mol
# Density = 1.958080 g / cm^3
# Si number density = 19.625468 Si / 1000 Ang^3
#
#
#
# Elastic Constant Matrix: (Units=GPa)
#
#
# Indices 1 2 3 4 5 6 
#
# 1 117.3132 18.4419 58.3537 15.0319 -1.2614 -9.6760
# 2 18.4419 40.6593 16.5465 2.1364 1.6379 -0.1668
# 3 58.3537 16.5465 94.4201 12.9219 0.1540 -2.2328
# 4 15.0319 2.1364 12.9219 29.9209 -0.3935 3.0872
# 5 -1.2614 1.6379 0.1540 -0.3935 32.0052 0.4997
# 6 -9.6760 -0.1668 -2.2328 3.0872 0.4997 20.7878
#
#
#
# Elastic Compliance Matrix: (Units=1/GPa)
#
#
# Indices 1 2 3 4 5 6 
#
# 1 0.013612 -0.003037 -0.007168 -0.004153 0.000579 0.006144
# 2 -0.003037 0.027220 -0.003075 0.001061 -0.001459 -0.001648
# 3 -0.007168 -0.003075 0.015934 -0.002939 -0.000219 -0.001208
# 4 -0.004153 0.001061 -0.002939 0.037513 0.000380 -0.007820
# 5 0.000579 -0.001459 -0.000219 0.000380 0.031357 -0.000576
# 6 0.006144 -0.001648 -0.001208 -0.007820 -0.000576 0.051998
#
#
# Mechanical properties :
#
#
# Convention : Reuss Voigt Hill
#
# Bulk Modulus (GPa) = 33.10588 48.78633 40.94611
# Shear Modulus (GPa) = 23.33598 27.14612 25.24105
#
# Velocity S-wave (km/s) = 3.45203 3.72319 3.59017
# Velocity P-wave (km/s) = 5.72661 6.58752 6.17210
#
# Compressibility (1/GPa) = 0.03020611
#
# Stress axis : x y z
#
# Youngs Moduli (GPa) = 73.46416 36.73800 62.76035
#
# Poissons Ratio (x) = 0.11158 0.44985
# Poissons Ratio (y) = 0.22312 0.19298
# Poissons Ratio (z) = 0.52657 0.11297
#
# Static dielectric constant tensor:
#      x y z
#    x 1.704500 0.003070 0.037910 
#    y 0.003070 1.772810 -0.016060 
#    z 0.037910 -0.016060 1.708790 
# 
# From -- ./inp_files/532267.got.cif
#   From: 2010.05.17/outbox.cif.g08.bks.cpg/sg2_267_cif.got.tgz:532267.got - 2010.06.03 11:33:40.
