data_PCOD9086649
_publ_section_title
;
Structure prediction by ZEFSAII (Michael W. Deem and Ramdas Pophale) SiO2 
 PCOD9086649
Probable space group: P -1
;
_chemical_formula_sum "Si O2"
_cell_formula_units_Z 16
_cell_length_a 14.251834
_cell_length_b 9.412259
_cell_length_c 15.411216
_cell_angle_alpha 77.870495
_cell_angle_beta 150.901766
_cell_angle_gamma 122.883862
_cell_volume 643.628170
_symmetry_space_group_name_H-M "P -1"
_symmetry_group_IT_number 2
_symmetry_cell_setting 'triclinic'
loop_
_space_group_symop_operation_xyz
x,y,z
-x,-y,-z
loop_
_atom_site_type_symbol
_atom_site_label
_atom_site_fract_x
_atom_site_fract_y
_atom_site_fract_z
Si Si1 0.538501 0.391122 0.480861
Si Si2 0.663916 0.504253 0.369995
Si Si3 0.187635 0.826920 0.560418
Si Si4 0.059886 0.019379 0.941969
Si Si5 0.750943 0.352316 0.215964
Si Si6 0.308926 0.858908 0.191290
Si Si7 0.593923 0.768051 0.212849
Si Si8 0.955880 0.534717 0.082670
O O1 0.500000 0.500000 0.500000
O O2 0.558321 0.464966 0.389500
O O3 0.832150 0.468079 0.712339
O O4 0.272020 0.135750 0.333731
O O5 0.747578 0.701719 0.364809
O O6 0.950369 0.561453 0.588722
O O7 0.353337 0.263773 0.113750
O O8 0.331263 0.794956 0.749474
O O9 0.867726 0.575507 0.315568
O O10 0.358669 0.920404 0.594623
O O11 0.254794 0.021375 0.632898
O O12 0.128370 0.887907 0.998117
O O13 0.000000 0.000000 0.000000
O O14 0.488399 0.222048 0.951180
O O15 0.169135 0.775947 0.184008
O O16 0.238872 0.659205 0.122587
O O17 0.268549 0.547762 0.015574
#
# Coordination Sequence:
#
# PCOD9086649 Si02
#       8
#     2   2   2   2   2   2   2   2
#     4  11  21  35  58  95 132 175 213 265 335 396
#     4  11  24  43  63  95 136 169 225 276 320 404
#     4  10  24  43  72  96 134 173 227 278 323 397
#     4  10  20  35  54  85 128 163 202 264 316 377
#     4  11  23  48  71  96 130 181 223 273 336 383
#     4  10  19  36  59  89 130 167 208 271 324 385
#     4  11  24  45  68 100 133 174 220 276 335 394
#     4  10  20  34  61  93 127 169 214 261 331 402
#
# _framework density 24.859072999999999
#
# number of rings (size 3 to 8) (size 9 to 14) (size 15 to 20)
#    0.000    1.500    3.750    1.875    3.500    1.500 
#    0.000    5.000    2.750    0.000    0.000    0.000 
#    0.000    0.000    0.000    0.000    0.000    0.000 
#
# Total GULP energy -89190.365517 kJ/mol
# GULP energy per Si atom -5574.397845 kJ/mol
# Density = 2.480249 g / cm^3
# Si number density = 24.859073 Si / 1000 Ang^3
#
#
#
# Elastic Constant Matrix: (Units=GPa)
#
#
# Indices 1 2 3 4 5 6 
#
# 1 76.0700 26.6255 17.1792 6.8021 19.3854 4.4916
# 2 26.6255 119.3486 23.4524 11.3944 4.8328 -9.1117
# 3 17.1792 23.4524 64.5561 3.1465 13.0241 -8.9749
# 4 6.8021 11.3944 3.1465 26.3042 8.2333 4.8257
# 5 19.3854 4.8328 13.0241 8.2333 29.9279 15.4724
# 6 4.4916 -9.1117 -8.9749 4.8257 15.4724 41.7519
#
#
#
# Elastic Compliance Matrix: (Units=1/GPa)
#
#
# Indices 1 2 3 4 5 6 
#
# 1 0.017143 -0.003097 -0.001092 0.000200 -0.010821 0.001232
# 2 -0.003097 0.010063 -0.002755 -0.004115 0.001811 0.001742
# 3 -0.001092 -0.002755 0.020375 0.001393 -0.012405 0.008332
# 4 0.000200 -0.004115 0.001393 0.043370 -0.011244 -0.001466
# 5 -0.010821 0.001811 -0.012405 -0.011244 0.060022 -0.022051
# 6 0.001232 0.001742 0.008332 -0.001466 -0.022051 0.034331
#
#
# Mechanical properties :
#
#
# Convention : Reuss Voigt Hill
#
# Bulk Modulus (GPa) = 29.67848 43.83209 36.75528
# Shear Modulus (GPa) = 23.76167 32.44464 28.10315
#
# Velocity S-wave (km/s) = 3.09504 3.61660 3.36594
# Velocity P-wave (km/s) = 4.97363 5.92539 5.47025
#
# Compressibility (1/GPa) = 0.03369445
#
# Stress axis : x y z
#
# Youngs Moduli (GPa) = 58.33186 99.36933 49.07965
#
# Poissons Ratio (x) = 0.30771 0.05362
# Poissons Ratio (y) = 0.18064 0.13519
# Poissons Ratio (z) = 0.06372 0.27372
#
# Static dielectric constant tensor:
#      x y z
#    x 2.076490 -0.013610 -0.021130 
#    y -0.013610 1.983190 0.030130 
#    z -0.021130 0.030130 2.085470 
# 
# From -- ./inp_files/572877.got.cif
#   From: 2010.05.17/outbox.cif.g08.bks.cpg/sg2_287_cif.got.tgz:572877.got - 2010.06.03 11:33:40.
