data_PCOD9086366
_publ_section_title
;
Structure prediction by ZEFSAII (Michael W. Deem and Ramdas Pophale) SiO2 
 PCOD9086366
Probable space group: P -1
;
_chemical_formula_sum "Si O2"
_cell_formula_units_Z 16
_cell_length_a 15.823406
_cell_length_b 10.614662
_cell_length_c 11.883234
_cell_angle_alpha 126.351783
_cell_angle_beta 24.856650
_cell_angle_gamma 132.071372
_cell_volume 622.039870
_symmetry_space_group_name_H-M "P -1"
_symmetry_group_IT_number 2
_symmetry_cell_setting 'triclinic'
loop_
_space_group_symop_operation_xyz
x,y,z
-x,-y,-z
loop_
_atom_site_type_symbol
_atom_site_label
_atom_site_fract_x
_atom_site_fract_y
_atom_site_fract_z
Si Si1 0.876267 0.359121 0.832033
Si Si2 0.148133 0.186148 0.125639
Si Si3 0.268951 0.515472 0.270685
Si Si4 0.990961 0.118210 0.705284
Si Si5 0.601636 0.171024 0.584864
Si Si6 0.960351 0.690471 0.015799
Si Si7 0.284916 0.094626 0.595071
Si Si8 0.550469 0.839292 0.822970
O O1 0.100811 0.438804 0.535944
O O2 0.857979 0.182311 0.814089
O O3 0.874160 0.489635 0.999896
O O4 0.671437 0.322991 0.978246
O O5 0.156858 0.375056 0.234520
O O6 0.386140 0.191217 0.809827
O O7 0.098795 0.074092 0.242315
O O8 0.947349 0.066606 0.228812
O O9 0.332135 0.716913 0.319606
O O10 0.500000 0.500000 0.000000
O O11 0.231467 0.162310 0.387288
O O12 0.016568 0.234115 0.847361
O O13 0.805911 0.235473 0.288133
O O14 0.565814 0.978569 0.555147
O O15 0.788375 0.756260 0.197981
O O16 0.393199 0.149100 0.371555
O O17 0.500000 0.000000 0.000000
#
# Coordination Sequence:
#
# PCOD9086366 Si02
#       8
#     2   2   2   2   2   2   2   2
#     4  11  20  38  61  78 112 152 176 225 284 315
#     4   9  19  36  53  81 113 137 181 231 266 320
#     4   9  20  36  55  82 111 138 181 228 267 328
#     4  10  22  36  57  84 110 146 187 225 271 328
#     4  10  19  36  58  77 108 150 180 221 279 321
#     4   9  21  38  54  83 114 140 190 233 261 326
#     4  10  21  35  55  81 109 144 185 224 270 326
#     4  10  22  37  56  86 112 140 187 228 268 333
#
# _framework density 25.721822
#
# number of rings (size 3 to 8) (size 9 to 14) (size 15 to 20)
#    0.000    2.500    0.000    3.000    0.000    8.500 
#    0.000   12.500    0.000    0.000    0.000    0.000 
#    0.000    0.000    0.000    0.000    0.000    0.000 
#
# Total GULP energy -89469.134879 kJ/mol
# GULP energy per Si atom -5591.820930 kJ/mol
# Density = 2.566328 g / cm^3
# Si number density = 25.721822 Si / 1000 Ang^3
#
#
#
# Elastic Constant Matrix: (Units=GPa)
#
#
# Indices 1 2 3 4 5 6 
#
# 1 44.0268 27.1106 23.9299 12.7388 -1.1527 7.2957
# 2 27.1106 107.4288 33.4321 17.8346 -0.6499 8.7230
# 3 23.9299 33.4321 166.7073 11.6619 -2.4093 8.7302
# 4 12.7388 17.8346 11.6619 40.3435 5.1188 2.8589
# 5 -1.1527 -0.6499 -2.4093 5.1188 29.0468 5.3328
# 6 7.2957 8.7230 8.7302 2.8589 5.3328 35.7671
#
#
#
# Elastic Compliance Matrix: (Units=1/GPa)
#
#
# Indices 1 2 3 4 5 6 
#
# 1 0.030002 -0.005369 -0.002526 -0.006428 0.002744 -0.004089
# 2 -0.005369 0.011686 -0.001277 -0.003101 0.000728 -0.001304
# 3 -0.002526 -0.001277 0.006715 -0.000605 0.000694 -0.000867
# 4 -0.006428 -0.003101 -0.000605 0.029025 -0.005624 0.000734
# 5 0.002744 0.000728 0.000694 -0.005624 0.036689 -0.005928
# 6 -0.004089 -0.001304 -0.000867 0.000734 -0.005928 0.030148
#
#
# Mechanical properties :
#
#
# Convention : Reuss Voigt Hill
#
# Bulk Modulus (GPa) = 33.26922 54.12311 43.69617
# Shear Modulus (GPa) = 28.96370 36.61082 32.78726
#
# Velocity S-wave (km/s) = 3.35929 3.77681 3.57415
# Velocity P-wave (km/s) = 5.29233 6.33296 5.83589
#
# Compressibility (1/GPa) = 0.03005781
#
# Stress axis : x y z
#
# Youngs Moduli (GPa) = 33.33083 85.57188 148.91814
#
# Poissons Ratio (x) = 0.45947 0.37623
# Poissons Ratio (y) = 0.17897 0.19018
# Poissons Ratio (z) = 0.08421 0.10928
#
# Static dielectric constant tensor:
#      x y z
#    x 2.094930 0.019550 -0.009060 
#    y 0.019550 1.995390 -0.014450 
#    z -0.009060 -0.014450 1.998170 
# 
# From -- ./inp_files/538451.got.cif
#   From: 2010.05.17/outbox.cif.g08.bks.cpg/sg2_270_cif.got.tgz:538451.got - 2010.06.03 11:33:40.
