data_PCOD9086490
_publ_section_title
;
Structure prediction by ZEFSAII (Michael W. Deem and Ramdas Pophale) SiO2 
 PCOD9086490
Probable space group: P -1
;
_chemical_formula_sum "Si O2"
_cell_formula_units_Z 14
_cell_length_a 7.502292
_cell_length_b 17.986956
_cell_length_c 12.237544
_cell_angle_alpha 29.709247
_cell_angle_beta 92.001938
_cell_angle_gamma 70.932139
_cell_volume 566.902304
_symmetry_space_group_name_H-M "P -1"
_symmetry_group_IT_number 2
_symmetry_cell_setting 'triclinic'
loop_
_space_group_symop_operation_xyz
x,y,z
-x,-y,-z
loop_
_atom_site_type_symbol
_atom_site_label
_atom_site_fract_x
_atom_site_fract_y
_atom_site_fract_z
Si Si1 0.942560 0.526152 0.200082
Si Si2 0.224552 0.478733 0.571770
Si Si3 0.876752 0.286916 0.372002
Si Si4 0.509263 0.813460 0.242598
Si Si5 0.940252 0.948269 0.909179
Si Si6 0.825719 0.925049 0.704830
Si Si7 0.304939 0.697921 0.880698
O O1 0.778563 0.543207 0.270598
O O2 0.971921 0.391848 0.274347
O O3 0.229489 0.384449 0.432930
O O4 0.806706 0.766321 0.870157
O O5 0.455411 0.282415 0.752461
O O6 0.000000 0.500000 0.500000
O O7 0.145173 0.696180 0.264860
O O8 0.017124 0.064698 0.717635
O O9 0.859270 0.273146 0.260031
O O10 0.580939 0.455928 0.192012
O O11 0.254351 0.916644 0.166797
O O12 0.500000 0.000000 0.000000
O O13 0.780609 0.972930 0.771425
O O14 0.126914 0.787349 0.867322
O O15 0.669374 0.143416 0.355275
#
# Coordination Sequence:
#
# PCOD9086490 Si02
#       7
#     2   2   2   2   2   2   2
#     4  11  21  37  60  92 123 150 201 247 288 348
#     4  10  19  36  58  89 121 152 198 237 282 364
#     4  10  23  38  60  90 119 156 198 249 298 350
#     4  11  19  36  62  85 119 163 194 232 287 354
#     4  11  20  38  64  85 122 164 191 232 304 357
#     4  10  19  38  66  83 115 161 198 247 291 357
#     4   9  21  42  60  85 117 158 202 242 306 349
#
# _framework density 24.695613999999999
#
# number of rings (size 3 to 8) (size 9 to 14) (size 15 to 20)
#    0.000    1.714    5.714    0.857    0.000    1.714 
#    0.000    9.286    0.000    0.000    0.000    0.000 
#    0.000    0.000    0.000    0.000    0.000    0.000 
#
# Total GULP energy -78356.430040 kJ/mol
# GULP energy per Si atom -5596.887860 kJ/mol
# Density = 2.463941 g / cm^3
# Si number density = 24.695614 Si / 1000 Ang^3
#
#
#
# Elastic Constant Matrix: (Units=GPa)
#
#
# Indices 1 2 3 4 5 6 
#
# 1 53.1398 26.9517 33.3322 -3.6155 -4.5133 16.9604
# 2 26.9517 107.6258 39.9262 -25.0418 -0.1441 -3.7353
# 3 33.3322 39.9262 146.9837 -25.2841 -31.8966 13.9143
# 4 -3.6155 -25.0418 -25.2841 33.8661 2.2676 -5.2765
# 5 -4.5133 -0.1441 -31.8966 2.2676 43.2729 -19.2958
# 6 16.9604 -3.7353 13.9143 -5.2765 -19.2958 37.4871
#
#
#
# Elastic Compliance Matrix: (Units=1/GPa)
#
#
# Indices 1 2 3 4 5 6 
#
# 1 0.032314 -0.008596 -0.007159 -0.010615 -0.010074 -0.019499
# 2 -0.008596 0.014334 -0.000525 0.010399 0.001726 0.007865
# 3 -0.007159 -0.000525 0.011460 0.007527 0.009476 0.004870
# 4 -0.010615 0.010399 0.007527 0.043234 0.008153 0.013327
# 5 -0.010074 0.001726 0.009476 0.008153 0.038514 0.022184
# 6 -0.019499 0.007865 0.004870 0.013327 0.022184 0.047769
#
#
# Mechanical properties :
#
#
# Convention : Reuss Voigt Hill
#
# Bulk Modulus (GPa) = 39.14477 56.46327 47.80402
# Shear Modulus (GPa) = 21.86250 36.76116 29.31183
#
# Velocity S-wave (km/s) = 2.97859 3.86239 3.44891
# Velocity P-wave (km/s) = 5.26447 6.54248 5.93796
#
# Compressibility (1/GPa) = 0.02554620
#
# Stress axis : x y z
#
# Youngs Moduli (GPa) = 30.94597 69.76499 87.26116
#
# Poissons Ratio (x) = 0.59973 0.62472
# Poissons Ratio (y) = 0.26602 0.04584
# Poissons Ratio (z) = 0.22155 0.03665
#
# Static dielectric constant tensor:
#      x y z
#    x 1.985290 0.002550 0.021630 
#    y 0.002550 1.954110 -0.000680 
#    z 0.021630 -0.000680 1.932380 
# 
# From -- ./inp_files/213696.got.cif
#   From: 2010.05.17/outbox.cif.g08.bks.cpg/sg2_107_cif.got.tgz:213696.got - 2010.06.03 11:33:40.
