data_PCOD9086570
_publ_section_title
;
Structure prediction by ZEFSAII (Michael W. Deem and Ramdas Pophale) SiO2 
 PCOD9086570
Probable space group: P -1
;
_chemical_formula_sum "Si O2"
_cell_formula_units_Z 14
_cell_length_a 7.187561
_cell_length_b 8.069233
_cell_length_c 16.940133
_cell_angle_alpha 79.663648
_cell_angle_beta 133.773778
_cell_angle_gamma 68.990984
_cell_volume 512.090250
_symmetry_space_group_name_H-M "P -1"
_symmetry_group_IT_number 2
_symmetry_cell_setting 'triclinic'
loop_
_space_group_symop_operation_xyz
x,y,z
-x,-y,-z
loop_
_atom_site_type_symbol
_atom_site_label
_atom_site_fract_x
_atom_site_fract_y
_atom_site_fract_z
Si Si1 0.847265 0.250327 0.257160
Si Si2 0.305544 0.795629 0.344040
Si Si3 0.740050 0.659847 0.817474
Si Si4 0.022430 0.209752 0.898931
Si Si5 0.546623 0.723118 0.158169
Si Si6 0.316287 0.148045 0.665018
Si Si7 0.687492 0.172523 0.481902
O O1 0.510320 0.316644 0.193278
O O2 0.760335 0.481962 0.198124
O O3 0.994718 0.072428 0.244673
O O4 0.151171 0.082099 0.426034
O O5 0.614698 0.744945 0.389776
O O6 0.429118 0.708430 0.476946
O O7 0.144159 0.730662 0.242592
O O8 0.564909 0.730559 0.673379
O O9 0.057314 0.387053 0.923573
O O10 0.688537 0.878497 0.805817
O O11 0.738216 0.246812 0.871557
O O12 0.357121 0.941411 0.028173
O O13 0.761099 0.734330 0.284081
O O14 0.008104 0.154412 0.555562
#
# Coordination Sequence:
#
# PCOD9086570 Si02
#       7
#     2   2   2   2   2   2   2
#     4   8  17  35  55  79 114 145 179 231 276 328
#     4   9  20  36  56  84 114 144 191 220 285 327
#     4  10  19  37  58  78 119 149 181 228 286 323
#     4   9  19  36  57  83 113 151 183 232 276 335
#     4   9  18  35  59  82 113 147 190 225 282 329
#     4  10  19  36  59  84 111 148 186 230 274 340
#     4   9  20  38  57  82 117 144 183 234 277 330
#
# _framework density 27.338927999999999
#
# number of rings (size 3 to 8) (size 9 to 14) (size 15 to 20)
#    0.857    2.000    0.000    1.714    0.000    2.286 
#    2.571   13.571    0.000    0.000    0.000    0.000 
#    0.000    0.000    0.000    0.000    0.000    0.000 
#
# Total GULP energy -78293.920970 kJ/mol
# GULP energy per Si atom -5592.422926 kJ/mol
# Density = 2.727670 g / cm^3
# Si number density = 27.338928 Si / 1000 Ang^3
#
#
#
# Elastic Constant Matrix: (Units=GPa)
#
#
# Indices 1 2 3 4 5 6 
#
# 1 111.3868 3.7485 26.1133 5.3637 -14.4822 -23.7222
# 2 3.7485 143.5551 25.0190 -30.1762 4.7923 -15.0285
# 3 26.1133 25.0190 98.7999 2.4090 -16.2750 -3.9132
# 4 5.3637 -30.1762 2.4090 35.5166 -0.9169 -6.5595
# 5 -14.4822 4.7923 -16.2750 -0.9169 24.7001 5.9648
# 6 -23.7222 -15.0285 -3.9132 -6.5595 5.9648 24.5231
#
#
#
# Elastic Compliance Matrix: (Units=1/GPa)
#
#
# Indices 1 2 3 4 5 6 
#
# 1 0.012544 0.002051 -0.003071 0.002529 0.001858 0.013126
# 2 0.002051 0.011982 -0.004478 0.012515 -0.006902 0.013639
# 3 -0.003071 -0.004478 0.013475 -0.005360 0.009514 -0.007312
# 4 0.002529 0.012515 -0.005360 0.042753 -0.008380 0.022735
# 5 0.001858 -0.006902 0.009514 -0.008380 0.052731 -0.015982
# 6 0.013126 0.013639 -0.007312 0.022735 -0.015982 0.070635
#
#
# Mechanical properties :
#
#
# Convention : Reuss Voigt Hill
#
# Bulk Modulus (GPa) = 37.02887 51.50037 44.26462
# Shear Modulus (GPa) = 22.30977 36.87202 29.59090
#
# Velocity S-wave (km/s) = 2.85975 3.67645 3.29351
# Velocity P-wave (km/s) = 4.94752 6.07457 5.53978
#
# Compressibility (1/GPa) = 0.02700595
#
# Stress axis : x y z
#
# Youngs Moduli (GPa) = 79.72120 83.46010 74.20933
#
# Poissons Ratio (x) = -0.17120 0.22787
# Poissons Ratio (y) = -0.16353 0.33232
# Poissons Ratio (z) = 0.24479 0.37375
#
# Static dielectric constant tensor:
#      x y z
#    x 2.105580 -0.002820 0.035980 
#    y -0.002820 2.142530 -0.086910 
#    z 0.035980 -0.086910 2.140830 
# 
# From -- ./inp_files/312601.got.cif
#   From: 2010.05.17/outbox.cif.g08.bks.cpg/sg2_157_cif.got.tgz:312601.got - 2010.06.03 11:33:40.
