data_PCOD9086360
_publ_section_title
;
Structure prediction by ZEFSAII (Michael W. Deem and Ramdas Pophale) SiO2 
 PCOD9086360
Probable space group: P -1
;
_chemical_formula_sum "Si O2"
_cell_formula_units_Z 16
_cell_length_a 9.782585
_cell_length_b 16.361974
_cell_length_c 11.728301
_cell_angle_alpha 118.267830
_cell_angle_beta 153.906921
_cell_angle_gamma 73.173412
_cell_volume 681.025416
_symmetry_space_group_name_H-M "P -1"
_symmetry_group_IT_number 2
_symmetry_cell_setting 'triclinic'
loop_
_space_group_symop_operation_xyz
x,y,z
-x,-y,-z
loop_
_atom_site_type_symbol
_atom_site_label
_atom_site_fract_x
_atom_site_fract_y
_atom_site_fract_z
Si Si1 0.932437 0.286537 0.601701
Si Si2 0.325866 0.930079 0.717378
Si Si3 0.606249 0.398975 0.287632
Si Si4 0.393698 0.547110 0.341025
Si Si5 0.611134 0.895210 0.252773
Si Si6 0.602645 0.116559 0.673172
Si Si7 0.001476 0.707724 0.597181
Si Si8 0.320678 0.241087 0.393708
O O1 0.656275 0.178908 0.346639
O O2 0.111746 0.284276 0.611757
O O3 0.494563 0.334776 0.506047
O O4 0.228679 0.324202 0.937615
O O5 0.936426 0.902924 0.431870
O O6 0.435012 0.999438 0.734977
O O7 0.500000 0.000000 0.000000
O O8 0.573563 0.504734 0.348326
O O9 0.761253 0.365567 0.493035
O O10 0.839889 0.379072 0.351202
O O11 0.500000 0.500000 0.500000
O O12 0.000000 0.500000 0.000000
O O13 0.624470 0.877244 0.384612
O O14 0.310604 0.808291 0.916031
O O15 0.532250 0.176086 0.553398
O O16 0.500000 0.000000 0.500000
O O17 0.978292 0.169490 0.034097
O O18 0.758512 0.708551 0.516626
#
# Coordination Sequence:
#
# PCOD9086360 Si02
#       8
#     2   2   2   2   2   2   2   2
#     4  10  19  36  57  97 132 167 212 271 334 393
#     4  11  18  32  54  92 132 178 214 261 345 397
#     4  10  22  40  66  96 129 170 211 286 324 394
#     4  12  27  52  71  99 139 181 232 281 341 414
#     4  10  21  35  58  91 135 174 217 276 332 394
#     4  11  25  48  68 101 138 179 238 281 326 408
#     4   9  20  38  67  95 133 166 220 280 346 393
#     4  11  25  46  77  98 132 186 226 286 356 397
#
# _framework density 23.493981999999999
#
# number of rings (size 3 to 8) (size 9 to 14) (size 15 to 20)
#    0.750    0.750    2.500    2.625    5.250    0.500 
#    6.750    0.625    0.000    0.000    0.000    0.000 
#    0.000    0.000    0.000    0.000    0.000    0.000 
#
# Total GULP energy -89348.525756 kJ/mol
# GULP energy per Si atom -5584.282860 kJ/mol
# Density = 2.344051 g / cm^3
# Si number density = 23.493982 Si / 1000 Ang^3
#
#
#
# Elastic Constant Matrix: (Units=GPa)
#
#
# Indices 1 2 3 4 5 6 
#
# 1 65.0508 16.3927 19.6255 0.5737 -6.6951 14.8336
# 2 16.3927 139.7487 31.2515 5.4145 -9.1524 18.2909
# 3 19.6255 31.2515 56.1292 -11.1040 -15.2270 20.0721
# 4 0.5737 5.4145 -11.1040 36.4260 6.1061 0.2172
# 5 -6.6951 -9.1524 -15.2270 6.1061 15.8597 -0.8335
# 6 14.8336 18.2909 20.0721 0.2172 -0.8335 43.3679
#
#
#
# Elastic Compliance Matrix: (Units=1/GPa)
#
#
# Indices 1 2 3 4 5 6 
#
# 1 0.018034 -0.000342 -0.003900 -0.002113 0.004268 -0.004127
# 2 -0.000342 0.008555 -0.004178 -0.002831 0.001792 -0.001509
# 3 -0.003900 -0.004178 0.034154 0.006904 0.025432 -0.012258
# 4 -0.002113 -0.002831 0.006904 0.031372 -0.008059 -0.001591
# 5 0.004268 0.001792 0.025432 -0.008059 0.092770 -0.012163
# 6 -0.004127 -0.001509 -0.012258 -0.001591 -0.012163 0.030554
#
#
# Mechanical properties :
#
#
# Convention : Reuss Voigt Hill
#
# Bulk Modulus (GPa) = 22.77684 43.94091 33.35887
# Shear Modulus (GPa) = 20.25012 32.04132 26.14572
#
# Velocity S-wave (km/s) = 2.93905 3.69699 3.33959
# Velocity P-wave (km/s) = 4.60794 6.08007 5.39446
#
# Compressibility (1/GPa) = 0.04390425
#
# Stress axis : x y z
#
# Youngs Moduli (GPa) = 55.45021 116.89587 29.27901
#
# Poissons Ratio (x) = 0.03996 0.11418
# Poissons Ratio (y) = 0.01896 0.12233
# Poissons Ratio (z) = 0.21623 0.48838
#
# Static dielectric constant tensor:
#      x y z
#    x 1.963720 -0.062910 -0.016720 
#    y -0.062910 1.985530 0.013450 
#    z -0.016720 0.013450 1.830410 
# 
# From -- ./inp_files/404879.got.cif
#   From: 2010.05.17/outbox.cif.g08.bks.cpg/sg2_203_cif.got.tgz:404879.got - 2010.06.03 11:33:40.
