data_PCOD9086450
_publ_section_title
;
Structure prediction by ZEFSAII (Michael W. Deem and Ramdas Pophale) SiO2 
 PCOD9086450
Probable space group: P -1
;
_chemical_formula_sum "Si O2"
_cell_formula_units_Z 10
_cell_length_a 15.224281
_cell_length_b 18.565565
_cell_length_c 7.790723
_cell_angle_alpha 143.963038
_cell_angle_beta 27.211941
_cell_angle_gamma 159.389773
_cell_volume 350.571308
_symmetry_space_group_name_H-M "P -1"
_symmetry_group_IT_number 2
_symmetry_cell_setting 'triclinic'
loop_
_space_group_symop_operation_xyz
x,y,z
-x,-y,-z
loop_
_atom_site_type_symbol
_atom_site_label
_atom_site_fract_x
_atom_site_fract_y
_atom_site_fract_z
Si Si1 0.950858 0.219168 0.817121
Si Si2 0.129667 0.917553 0.953650
Si Si3 0.323788 0.614201 0.061694
Si Si4 0.333300 0.512940 0.194181
Si Si5 0.350779 0.078410 0.544265
O O1 0.041932 0.185033 0.760057
O O2 0.608208 0.115122 0.255288
O O3 0.200983 0.460995 0.831595
O O4 0.838896 0.088436 0.594865
O O5 0.016910 0.727555 0.702467
O O6 0.444343 0.153928 0.931566
O O7 0.098989 0.976845 0.941440
O O8 0.471540 0.604979 0.938942
O O9 0.000000 0.500000 0.500000
O O10 0.417503 0.689663 0.465896
O O11 0.500000 0.500000 0.000000
#
# Coordination Sequence:
#
# PCOD9086450 Si02
#       5
#     2   2   2   2   2
#     4  10  20  35  57  91 115 144 191 241 281 341
#     4  10  21  36  63  79 119 157 181 238 299 322
#     4  10  19  36  58  86 114 146 195 232 280 348
#     4  10  22  38  58  85 116 154 196 233 281 347
#     4  10  21  35  57  88 118 144 195 234 280 350
#
# _framework density 28.524867
#
# number of rings (size 3 to 8) (size 9 to 14) (size 15 to 20)
#    0.000    2.000    4.000    0.600    2.800    4.800 
#    0.000    8.000    0.000   10.800    0.000    0.000 
#    0.000    0.000    0.000    0.000    0.000    0.000 
#
# Total GULP energy -55670.615569 kJ/mol
# GULP energy per Si atom -5567.061557 kJ/mol
# Density = 2.845994 g / cm^3
# Si number density = 28.524867 Si / 1000 Ang^3
#
#
#
# Elastic Constant Matrix: (Units=GPa)
#
#
# Indices 1 2 3 4 5 6 
#
# 1 147.2329 63.1307 43.8984 27.9337 8.9301 1.7192
# 2 63.1307 340.0737 58.8696 73.4528 19.8081 10.1830
# 3 43.8984 58.8696 86.3767 30.7213 2.7110 15.5252
# 4 27.9337 73.4528 30.7213 52.5876 16.4563 13.8916
# 5 8.9301 19.8081 2.7110 16.4563 47.4838 15.3779
# 6 1.7192 10.1830 15.5252 13.8916 15.3779 62.6666
#
#
#
# Elastic Compliance Matrix: (Units=1/GPa)
#
#
# Indices 1 2 3 4 5 6 
#
# 1 0.008451 -0.000583 -0.003518 -0.001661 -0.001007 0.001350
# 2 -0.000583 0.004356 -0.000861 -0.005466 -0.000002 0.000733
# 3 -0.003518 -0.000861 0.016946 -0.007081 0.003565 -0.003267
# 4 -0.001661 -0.005466 -0.007081 0.035032 -0.008147 -0.003078
# 5 -0.001007 -0.000002 0.003565 -0.008147 0.025596 -0.005330
# 6 0.001350 0.000733 -0.003267 -0.003078 -0.005330 0.018601
#
#
# Mechanical properties :
#
#
# Convention : Reuss Voigt Hill
#
# Bulk Modulus (GPa) = 50.42784 100.60896 75.51840
# Shear Modulus (GPa) = 39.83559 59.73325 49.78442
#
# Velocity S-wave (km/s) = 3.74106 4.58107 4.18221
# Velocity P-wave (km/s) = 6.03139 7.95794 7.06068
#
# Compressibility (1/GPa) = 0.01983032
#
# Stress axis : x y z
#
# Youngs Moduli (GPa) = 118.32518 229.54727 59.01240
#
# Poissons Ratio (x) = 0.13378 0.20760
# Poissons Ratio (y) = 0.06896 0.05079
# Poissons Ratio (z) = 0.41627 0.19757
#
# Static dielectric constant tensor:
#      x y z
#    x 2.233280 0.039820 -0.130920 
#    y 0.039820 2.145590 -0.119840 
#    z -0.130920 -0.119840 2.480030 
# 
# From -- ./inp_files/318149.got.cif
#   From: 2010.05.17/outbox.cif.g08.bks.cpg/sg2_160_cif.got.tgz:318149.got - 2010.06.03 11:33:40.
