data_PCOD9086246
_publ_section_title
;
Structure prediction by ZEFSAII (Michael W. Deem and Ramdas Pophale) SiO2 
 PCOD9086246
Probable space group: P -1
;
_chemical_formula_sum "Si O2"
_cell_formula_units_Z 16
_cell_length_a 16.380388
_cell_length_b 16.868152
_cell_length_c 9.289433
_cell_angle_alpha 146.467831
_cell_angle_beta 126.418015
_cell_angle_gamma 35.884699
_cell_volume 804.213008
_symmetry_space_group_name_H-M "P -1"
_symmetry_group_IT_number 2
_symmetry_cell_setting 'triclinic'
loop_
_space_group_symop_operation_xyz
x,y,z
-x,-y,-z
loop_
_atom_site_type_symbol
_atom_site_label
_atom_site_fract_x
_atom_site_fract_y
_atom_site_fract_z
Si Si1 0.439751 0.134317 0.288919
Si Si2 0.220053 0.505832 0.145583
Si Si3 0.237984 0.557058 0.562101
Si Si4 0.915840 0.699329 0.053988
Si Si5 0.951321 0.716631 0.582972
Si Si6 0.770717 0.909136 0.942934
Si Si7 0.667822 0.325277 0.384916
Si Si8 0.286562 0.136400 0.639209
O O1 0.342636 0.368986 0.496621
O O2 0.339107 0.112578 0.220988
O O3 0.566351 0.047115 0.401683
O O4 0.500000 0.000000 0.000000
O O5 0.248556 0.456584 0.271717
O O6 0.267953 0.621649 0.355008
O O7 0.052763 0.659244 0.169479
O O8 0.296572 0.292037 0.829686
O O9 0.287541 0.660358 0.705550
O O10 0.071664 0.717033 0.680042
O O11 0.836155 0.742250 0.182016
O O12 0.805966 0.882760 0.108144
O O13 0.973259 0.500598 0.731574
O O14 0.915502 0.737660 0.744319
O O15 0.792980 0.880760 0.589956
O O16 0.715219 0.117349 0.147784
O O17 0.500000 0.500000 0.500000
#
# Coordination Sequence:
#
# PCOD9086246 Si02
#       8
#     2   2   2   2   2   2   2   2
#     4  12  19  33  58  88 108 145 201 234 277 335
#     4   9  17  33  55  84 107 147 190 226 282 324
#     4  10  19  36  57  80 114 149 185 229 285 336
#     4  11  18  34  60  87 111 147 194 242 275 328
#     4  11  21  38  56  87 122 148 185 238 294 338
#     4  12  24  33  60  89 116 147 191 240 288 331
#     4  10  21  38  56  83 116 152 189 235 284 343
#     4  11  18  34  63  83 114 150 193 238 277 340
#
# _framework density 19.895225
#
# number of rings (size 3 to 8) (size 9 to 14) (size 15 to 20)
#    0.750    0.500    6.250    2.625    0.000    1.500 
#    0.000    0.000    0.000    0.750    0.000    0.000 
#    0.000    0.000    0.000    0.000    0.000    0.000 
#
# Total GULP energy -89098.879346 kJ/mol
# GULP energy per Si atom -5568.679959 kJ/mol
# Density = 1.984994 g / cm^3
# Si number density = 19.895225 Si / 1000 Ang^3
#
#
#
# Elastic Constant Matrix: (Units=GPa)
#
#
# Indices 1 2 3 4 5 6 
#
# 1 107.4761 19.9233 16.3561 13.4550 16.2728 2.5514
# 2 19.9233 105.4086 8.3763 13.4698 24.7359 -3.9894
# 3 16.3561 8.3763 31.3100 11.2666 7.0268 11.2067
# 4 13.4550 13.4698 11.2666 18.2773 6.2997 5.0160
# 5 16.2728 24.7359 7.0268 6.2997 22.8782 0.0086
# 6 2.5514 -3.9894 11.2067 5.0160 0.0086 29.8398
#
#
#
# Elastic Compliance Matrix: (Units=1/GPa)
#
#
# Indices 1 2 3 4 5 6 
#
# 1 0.011219 0.000145 -0.003318 -0.004600 -0.005851 0.001081
# 2 0.000145 0.013400 0.000707 -0.006670 -0.012972 0.002639
# 3 -0.003318 0.000707 0.047729 -0.021170 -0.007229 -0.013987
# 4 -0.004600 -0.006670 -0.021170 0.079357 -0.004863 -0.005886
# 5 -0.005851 -0.012972 -0.007229 -0.004863 0.065455 0.002280
# 6 0.001081 0.002639 -0.013987 -0.005886 0.002280 0.040014
#
#
# Mechanical properties :
#
#
# Convention : Reuss Voigt Hill
#
# Bulk Modulus (GPa) = 14.83348 37.05626 25.94487
# Shear Modulus (GPa) = 17.56990 27.50164 22.53577
#
# Velocity S-wave (km/s) = 2.97496 3.72199 3.36925
# Velocity P-wave (km/s) = 4.39005 6.09402 5.31082
#
# Compressibility (1/GPa) = 0.06741507
#
# Stress axis : x y z
#
# Youngs Moduli (GPa) = 89.13800 74.62839 20.95159
#
# Poissons Ratio (x) = -0.01082 0.06951
# Poissons Ratio (y) = -0.01293 -0.01480
# Poissons Ratio (z) = 0.29574 -0.05273
#
# Static dielectric constant tensor:
#      x y z
#    x 1.824290 0.116270 0.237580 
#    y 0.116270 1.932420 0.325430 
#    z 0.237580 0.325430 2.257820 
# 
# From -- ./inp_files/314265.got.cif
#   From: 2010.05.17/outbox.cif.g08.bks.cpg/sg2_158_cif.got.tgz:314265.got - 2010.06.03 11:33:40.
