data_PCOD9086688
_publ_section_title
;
Structure prediction by ZEFSAII (Michael W. Deem and Ramdas Pophale) SiO2 
 PCOD9086688
Probable space group: P -1
;
_chemical_formula_sum "Si O2"
_cell_formula_units_Z 16
_cell_length_a 8.543313
_cell_length_b 11.213895
_cell_length_c 16.999428
_cell_angle_alpha 61.164400
_cell_angle_beta 53.587352
_cell_angle_gamma 40.362194
_cell_volume 847.389028
_symmetry_space_group_name_H-M "P -1"
_symmetry_group_IT_number 2
_symmetry_cell_setting 'triclinic'
loop_
_space_group_symop_operation_xyz
x,y,z
-x,-y,-z
loop_
_atom_site_type_symbol
_atom_site_label
_atom_site_fract_x
_atom_site_fract_y
_atom_site_fract_z
Si Si1 0.411020 0.489972 0.634517
Si Si2 0.207222 0.808100 0.951947
Si Si3 0.793024 0.479145 0.158160
Si Si4 0.181234 0.519394 0.392218
Si Si5 0.879278 0.202015 0.489430
Si Si6 0.686774 0.220354 0.251127
Si Si7 0.208457 0.089844 0.580932
Si Si8 0.731973 0.535562 0.983209
O O1 0.359928 0.421843 0.747064
O O2 0.598933 0.522014 0.600944
O O3 0.580590 0.331147 0.569694
O O4 0.155422 0.677834 0.610873
O O5 0.246411 0.840007 0.840302
O O6 0.149526 0.671346 0.005453
O O7 0.484738 0.680091 0.955741
O O8 0.000000 0.000000 0.000000
O O9 0.821425 0.301716 0.205757
O O10 0.649594 0.573493 0.087980
O O11 0.052958 0.447217 0.092883
O O12 0.369227 0.381878 0.309141
O O13 0.000000 0.500000 0.500000
O O14 0.967514 0.734171 0.364716
O O15 0.052668 0.172632 0.519122
O O16 0.000000 0.000000 0.500000
O O17 0.779885 0.062764 0.334660
O O18 0.500000 0.000000 0.500000
#
# Coordination Sequence:
#
# PCOD9086688 Si02
#       8
#     2   2   2   2   2   2   2   2
#     4   9  20  35  55  81 110 149 193 231 285 333
#     4  10  22  40  62  88 123 148 188 246 299 351
#     4   9  18  39  64  83 111 153 196 241 288 348
#     4  10  19  36  60  80 115 156 197 241 280 340
#     4  10  20  35  52  75 113 151 184 236 280 333
#     4  10  21  38  59  89 116 158 197 240 292 346
#     4  11  22  35  56  86 116 156 201 236 288 344
#     4   9  20  40  64  87 114 148 192 243 299 346
#
# _framework density 18.881530000000001
#
# number of rings (size 3 to 8) (size 9 to 14) (size 15 to 20)
#    0.000    2.250    1.250    1.500    0.000    6.000 
#    2.250   11.875    0.000    0.000    0.000    0.000 
#    0.000    0.000    0.000    0.000    0.000    0.000 
#
# Total GULP energy -89075.334546 kJ/mol
# GULP energy per Si atom -5567.208409 kJ/mol
# Density = 1.883855 g / cm^3
# Si number density = 18.881530 Si / 1000 Ang^3
#
#
#
# Elastic Constant Matrix: (Units=GPa)
#
#
# Indices 1 2 3 4 5 6 
#
# 1 61.4281 22.5329 44.9843 -7.6213 -0.1667 -11.5352
# 2 22.5329 98.0769 26.4937 10.5813 -0.1851 1.6946
# 3 44.9843 26.4937 106.1309 1.8850 -1.2372 3.5178
# 4 -7.6213 10.5813 1.8850 31.2775 10.3474 8.2904
# 5 -0.1667 -0.1851 -1.2372 10.3474 29.1533 -0.9118
# 6 -11.5352 1.6946 3.5178 8.2904 -0.9118 23.3038
#
#
#
# Elastic Compliance Matrix: (Units=1/GPa)
#
#
# Indices 1 2 3 4 5 6 
#
# 1 0.030810 -0.004669 -0.012536 0.006601 -0.002258 0.015046
# 2 -0.004669 0.012132 -0.000895 -0.005571 0.001958 -0.001000
# 3 -0.012536 -0.000895 0.015261 -0.001970 0.001029 -0.007703
# 4 0.006601 -0.005571 -0.001970 0.044215 -0.016162 -0.012392
# 5 -0.002258 0.001958 0.001029 -0.016162 0.040266 0.005910
# 6 0.015046 -0.001000 -0.007703 -0.012392 0.005910 0.056234
#
#
# Mechanical properties :
#
#
# Convention : Reuss Voigt Hill
#
# Bulk Modulus (GPa) = 45.44397 50.40642 47.92519
# Shear Modulus (GPa) = 20.62250 28.18857 24.40553
#
# Velocity S-wave (km/s) = 3.30844 3.86802 3.59912
# Velocity P-wave (km/s) = 6.22210 6.83395 6.53519
#
# Compressibility (1/GPa) = 0.02200512
#
# Stress axis : x y z
#
# Youngs Moduli (GPa) = 32.45689 82.42368 65.52448
#
# Poissons Ratio (x) = 0.38480 0.82141
# Poissons Ratio (y) = 0.15153 0.05864
# Poissons Ratio (z) = 0.40688 0.07376
#
# Static dielectric constant tensor:
#      x y z
#    x 1.935820 0.085920 0.192010 
#    y 0.085920 1.718740 0.041920 
#    z 0.192010 0.041920 1.797110 
# 
# From -- ./inp_files/558497.got.cif
#   From: 2010.05.17/outbox.cif.g08.bks.cpg/sg2_280_cif.got.tgz:558497.got - 2010.06.03 11:33:40.
