data_PCOD9086061
_publ_section_title
;
Structure prediction by ZEFSAII (Michael W. Deem and Ramdas Pophale) SiO2 
 PCOD9086061
Probable space group: P -1
;
_chemical_formula_sum "Si O2"
_cell_formula_units_Z 16
_cell_length_a 13.425607
_cell_length_b 14.961923
_cell_length_c 12.891039
_cell_angle_alpha 159.443833
_cell_angle_beta 78.483782
_cell_angle_gamma 95.745275
_cell_volume 862.084042
_symmetry_space_group_name_H-M "P -1"
_symmetry_group_IT_number 2
_symmetry_cell_setting 'triclinic'
loop_
_space_group_symop_operation_xyz
x,y,z
-x,-y,-z
loop_
_atom_site_type_symbol
_atom_site_label
_atom_site_fract_x
_atom_site_fract_y
_atom_site_fract_z
Si Si1 0.994225 0.068108 0.198788
Si Si2 0.685302 0.637499 0.596576
Si Si3 0.591326 0.019181 0.648638
Si Si4 0.606419 0.237423 0.317557
Si Si5 0.378532 0.435849 0.686098
Si Si6 0.651059 0.857829 0.224999
Si Si7 0.920804 0.499783 0.419840
Si Si8 0.750126 0.248794 0.496919
O O1 0.874513 0.161594 0.359849
O O2 0.052976 0.297466 0.446690
O O3 0.000000 0.000000 0.000000
O O4 0.053116 0.798489 0.947626
O O5 0.624438 0.444036 0.453006
O O6 0.699687 0.564694 0.393528
O O7 0.799447 0.592983 0.577443
O O8 0.624580 0.941948 0.950531
O O9 0.463647 0.097928 0.756815
O O10 0.627899 0.775238 0.454012
O O11 0.630088 0.934059 0.432239
O O12 0.627998 0.275666 0.954395
O O13 0.493639 0.335910 0.501047
O O14 0.693789 0.227772 0.376778
O O15 0.711436 0.052194 0.368967
O O16 0.711470 0.552627 0.869554
O O17 0.000000 0.500000 0.500000
#
# Coordination Sequence:
#
# PCOD9086061 Si02
#       8
#     2   2   2   2   2   2   2   2
#     4  10  20  34  53  82 115 147 180 235 283 340
#     4  12  24  36  57  81 120 164 198 226 281 354
#     4  11  22  41  59  83 120 150 201 248 286 333
#     4  12  21  36  52  84 121 158 195 231 271 350
#     4  12  23  39  55  84 117 163 194 234 285 344
#     4  11  22  38  61  88 113 155 192 249 297 338
#     4  10  19  36  52  78 109 148 189 234 279 315
#     4  12  21  36  61  90 119 153 193 232 306 345
#
# _framework density 18.559674999999999
#
# number of rings (size 3 to 8) (size 9 to 14) (size 15 to 20)
#    0.000    0.750    2.500    8.250    0.000    2.000 
#    0.000    0.000    0.000    0.000    0.000   17.500 
#    0.000    0.000    0.000    0.000    0.000    0.000 
#
# Total GULP energy -89433.643975 kJ/mol
# GULP energy per Si atom -5589.602748 kJ/mol
# Density = 1.851743 g / cm^3
# Si number density = 18.559675 Si / 1000 Ang^3
#
#
#
# Elastic Constant Matrix: (Units=GPa)
#
#
# Indices 1 2 3 4 5 6 
#
# 1 50.6339 8.4259 22.0371 6.7658 1.4042 13.8837
# 2 8.4259 134.9702 52.0067 36.3086 -18.5088 -5.2926
# 3 22.0371 52.0067 156.0597 31.0301 15.7764 20.4177
# 4 6.7658 36.3086 31.0301 45.4864 -8.4360 1.9662
# 5 1.4042 -18.5088 15.7764 -8.4360 52.9117 17.7540
# 6 13.8837 -5.2926 20.4177 1.9662 17.7540 40.2328
#
#
#
# Elastic Compliance Matrix: (Units=1/GPa)
#
#
# Indices 1 2 3 4 5 6 
#
# 1 0.022965 -0.000340 -0.002168 -0.000874 0.002429 -0.007898
# 2 -0.000340 0.010633 -0.002852 -0.006026 0.002964 0.001950
# 3 -0.002168 -0.002852 0.009187 -0.004207 -0.003498 -0.002540
# 4 -0.000874 -0.006026 -0.004207 0.030755 0.004725 -0.001945
# 5 0.002429 0.002964 -0.003498 0.004725 0.025002 -0.009937
# 6 -0.007898 0.001950 -0.002540 -0.001945 -0.009937 0.033607
#
#
# Mechanical properties :
#
#
# Convention : Reuss Voigt Hill
#
# Bulk Modulus (GPa) = 31.18671 56.28924 43.73797
# Shear Modulus (GPa) = 32.56108 45.00580 38.78344
#
# Velocity S-wave (km/s) = 4.19310 4.92969 4.57624
# Velocity P-wave (km/s) = 6.34687 7.92446 7.17913
#
# Compressibility (1/GPa) = 0.03206495
#
# Stress axis : x y z
#
# Youngs Moduli (GPa) = 43.54477 94.04466 108.85181
#
# Poissons Ratio (x) = 0.03196 0.23600
# Poissons Ratio (y) = 0.01480 0.31045
# Poissons Ratio (z) = 0.09441 0.26822
#
# Static dielectric constant tensor:
#      x y z
#    x 1.643480 -0.017950 0.016940 
#    y -0.017950 1.635350 0.023650 
#    z 0.016940 0.023650 1.641370 
# 
# From -- ./inp_files/77460.got.cif
#   From: 2010.05.17/outbox.cif.g08.bks.cpg/sg2_39_cif.got.tgz:77460.got - 2010.06.03 11:33:40.
