data_PCOD9086921
_publ_section_title
;
Structure prediction by ZEFSAII (Michael W. Deem and Ramdas Pophale) SiO2 
 PCOD9086921
Probable space group: P -1
;
_chemical_formula_sum "Si O2"
_cell_formula_units_Z 14
_cell_length_a 8.756460
_cell_length_b 5.449147
_cell_length_c 11.894177
_cell_angle_alpha 98.108155
_cell_angle_beta 84.893815
_cell_angle_gamma 109.716572
_cell_volume 528.397410
_symmetry_space_group_name_H-M "P -1"
_symmetry_group_IT_number 2
_symmetry_cell_setting 'triclinic'
loop_
_space_group_symop_operation_xyz
x,y,z
-x,-y,-z
loop_
_atom_site_type_symbol
_atom_site_label
_atom_site_fract_x
_atom_site_fract_y
_atom_site_fract_z
Si Si1 0.335712 0.856883 0.867426
Si Si2 0.610506 0.353739 0.920847
Si Si3 0.629240 0.876625 0.525137
Si Si4 0.939190 0.055121 0.630671
Si Si5 0.635577 0.470221 0.342325
Si Si6 0.055198 0.606489 0.631102
Si Si7 0.976543 0.715692 0.927114
O O1 0.373900 0.613851 0.790351
O O2 0.146161 0.804595 0.849102
O O3 0.477040 0.127739 0.840131
O O4 0.341837 0.823729 0.998508
O O5 0.786679 0.568202 0.888924
O O6 0.500000 0.500000 0.000000
O O7 0.699171 0.761582 0.406634
O O8 0.541849 0.637283 0.599720
O O9 0.500000 0.000000 0.500000
O O10 0.761467 0.054556 0.611040
O O11 0.016495 0.343828 0.692880
O O12 0.964393 0.812739 0.677830
O O13 0.000000 0.000000 0.500000
O O14 0.750409 0.315992 0.378152
O O15 0.000000 0.500000 0.500000
O O16 0.000000 0.500000 0.000000
O O17 0.000000 0.000000 0.000000
#
# Coordination Sequence:
#
# PCOD9086921 Si02
#       7
#     2   2   2   2   2   2   2
#     4  10  23  42  64 102 137 178 232 282 343 421
#     4  10  20  41  71  96 141 179 215 281 351 417
#     4  11  23  39  63  88 132 178 227 284 344 398
#     4  10  19  36  61  83 114 164 218 265 334 388
#     4  11  24  40  62  94 129 179 229 286 337 403
#     4  10  19  38  61  84 117 164 217 270 333 386
#     4  10  20  40  71  99 131 178 220 271 351 419
#
# _framework density 26.495211000000001
#
# number of rings (size 3 to 8) (size 9 to 14) (size 15 to 20)
#    0.000    1.714    4.286    1.714    2.000    1.143 
#    2.571    1.429    0.000    0.000    0.000    0.000 
#    0.000    0.000    0.000    0.000    0.000    0.000 
#
# Total GULP energy -77957.617967 kJ/mol
# GULP energy per Si atom -5568.401283 kJ/mol
# Density = 2.643491 g / cm^3
# Si number density = 26.495211 Si / 1000 Ang^3
#
#
#
# Elastic Constant Matrix: (Units=GPa)
#
#
# Indices 1 2 3 4 5 6 
#
# 1 150.7831 70.7154 30.9564 13.9315 0.0526 20.3480
# 2 70.7154 156.6778 28.8559 41.2899 -6.8564 9.8770
# 3 30.9564 28.8559 73.6100 17.9554 -12.1797 11.0942
# 4 13.9315 41.2899 17.9554 37.9548 -2.8019 -3.9360
# 5 0.0526 -6.8564 -12.1797 -2.8019 40.2475 6.0030
# 6 20.3480 9.8770 11.0942 -3.9360 6.0030 72.8798
#
#
#
# Elastic Compliance Matrix: (Units=1/GPa)
#
#
# Indices 1 2 3 4 5 6 
#
# 1 0.009129 -0.004180 -0.002750 0.002269 -0.001198 -0.001342
# 2 -0.004180 0.011181 0.000428 -0.010841 0.001452 -0.001119
# 3 -0.002750 0.000428 0.017784 -0.007771 0.005344 -0.002857
# 4 0.002269 -0.010841 -0.007771 0.041295 -0.001985 0.004412
# 5 -0.001198 0.001452 0.005344 -0.001985 0.027023 -0.003009
# 6 -0.001342 -0.001119 -0.002857 0.004412 -0.003009 0.015169
#
#
# Mechanical properties :
#
#
# Convention : Reuss Voigt Hill
#
# Bulk Modulus (GPa) = 39.85618 71.34739 55.60178
# Shear Modulus (GPa) = 34.97793 46.91929 40.94861
#
# Velocity S-wave (km/s) = 3.63734 4.21272 3.93556
# Velocity P-wave (km/s) = 5.71977 7.11685 6.45621
#
# Compressibility (1/GPa) = 0.02509021
#
# Stress axis : x y z
#
# Youngs Moduli (GPa) = 109.54480 89.43700 56.22943
#
# Poissons Ratio (x) = 0.37380 0.15463
# Poissons Ratio (y) = 0.45785 -0.02405
# Poissons Ratio (z) = 0.30125 -0.03825
#
# Static dielectric constant tensor:
#      x y z
#    x 2.284020 0.197600 0.074130 
#    y 0.197600 2.334830 -0.003240 
#    z 0.074130 -0.003240 2.172530 
# 
# From -- ./inp_files/488754.got.cif
#   From: 2010.05.17/outbox.cif.g08.bks.cpg/sg2_245_cif.got.tgz:488754.got - 2010.06.03 11:33:40.
