data_PCOD9086965
_publ_section_title
;
Structure prediction by ZEFSAII (Michael W. Deem and Ramdas Pophale) SiO2 
 PCOD9086965
Probable space group: P -1
;
_chemical_formula_sum "Si O2"
_cell_formula_units_Z 16
_cell_length_a 8.930523
_cell_length_b 8.719198
_cell_length_c 16.633754
_cell_angle_alpha 41.515676
_cell_angle_beta 122.748030
_cell_angle_gamma 133.641700
_cell_volume 620.483718
_symmetry_space_group_name_H-M "P -1"
_symmetry_group_IT_number 2
_symmetry_cell_setting 'triclinic'
loop_
_space_group_symop_operation_xyz
x,y,z
-x,-y,-z
loop_
_atom_site_type_symbol
_atom_site_label
_atom_site_fract_x
_atom_site_fract_y
_atom_site_fract_z
Si Si1 0.334453 0.751132 0.361480
Si Si2 0.891152 0.712802 0.820017
Si Si3 0.910772 0.220199 0.951433
Si Si4 0.660147 0.713675 0.898319
Si Si5 0.070205 0.954895 0.622657
Si Si6 0.461711 0.453500 0.620457
Si Si7 0.931002 0.514845 0.268453
Si Si8 0.706689 0.785660 0.170580
O O1 0.453925 0.717345 0.486191
O O2 0.379679 0.597351 0.363508
O O3 0.083805 0.572693 0.365349
O O4 0.381394 0.047462 0.233666
O O5 0.937812 0.477336 0.906458
O O6 0.697010 0.612216 0.862313
O O7 0.885964 0.819076 0.687490
O O8 0.088491 0.969369 0.819649
O O9 0.917675 0.281209 0.836150
O O10 0.114711 0.197877 0.032086
O O11 0.702193 0.964054 0.025329
O O12 0.500000 0.500000 0.000000
O O13 0.155590 0.760194 0.697619
O O14 0.247049 0.217607 0.612480
O O15 0.000000 0.000000 0.500000
O O16 0.451590 0.370438 0.742623
O O17 0.765389 0.585020 0.223750
#
# Coordination Sequence:
#
# PCOD9086965 Si02
#       8
#     2   2   2   2   2   2   2   2
#     4  11  23  40  60  88 124 157 204 246 303 354
#     4   9  20  36  59  91 118 159 205 251 287 375
#     4  10  21  38  60  89 124 154 202 253 297 360
#     4  11  23  36  62  92 125 161 202 247 308 358
#     4  10  20  37  66  88 115 159 208 247 306 356
#     4  10  24  41  62  86 123 163 202 247 300 364
#     4  11  21  37  62  90 120 154 198 258 296 352
#     4  10  19  36  61  86 116 157 204 243 298 354
#
# _framework density 25.786335000000001
#
# number of rings (size 3 to 8) (size 9 to 14) (size 15 to 20)
#    0.000    1.750    3.750    1.875    7.000    1.500 
#    0.000    3.125    0.000    2.250    0.000    0.000 
#    0.000    0.000    0.000    0.000    0.000    0.000 
#
# Total GULP energy -89353.086971 kJ/mol
# GULP energy per Si atom -5584.567936 kJ/mol
# Density = 2.572764 g / cm^3
# Si number density = 25.786335 Si / 1000 Ang^3
#
#
#
# Elastic Constant Matrix: (Units=GPa)
#
#
# Indices 1 2 3 4 5 6 
#
# 1 104.4990 21.1478 30.7137 -20.0590 -17.3734 -5.1189
# 2 21.1478 75.4316 26.3394 -12.6696 -2.4814 -16.8833
# 3 30.7137 26.3394 130.0504 -19.9957 -0.6747 -4.5759
# 4 -20.0590 -12.6696 -19.9957 44.2089 -6.4965 6.1338
# 5 -17.3734 -2.4814 -0.6747 -6.4965 49.2644 -1.5212
# 6 -5.1189 -16.8833 -4.5759 6.1338 -1.5212 41.2064
#
#
#
# Elastic Compliance Matrix: (Units=1/GPa)
#
#
# Indices 1 2 3 4 5 6 
#
# 1 0.012200 -0.001824 -0.001726 0.004940 0.004839 0.000020
# 2 -0.001824 0.016268 -0.002339 0.002046 0.000596 0.005897
# 3 -0.001726 -0.002339 0.008954 0.002637 -0.000274 -0.000581
# 4 0.004940 0.002046 0.002637 0.027748 0.005473 -0.002183
# 5 0.004839 0.000596 -0.000274 0.005473 0.022779 0.000841
# 6 0.000020 0.005897 -0.000581 -0.002183 0.000841 0.026978
#
#
# Mechanical properties :
#
#
# Convention : Reuss Voigt Hill
#
# Bulk Modulus (GPa) = 38.99625 51.82035 45.40830
# Shear Modulus (GPa) = 36.96758 42.38793 39.67776
#
# Velocity S-wave (km/s) = 3.79041 4.05880 3.92690
# Velocity P-wave (km/s) = 5.85764 6.48882 6.18129
#
# Compressibility (1/GPa) = 0.02564349
#
# Stress axis : x y z
#
# Youngs Moduli (GPa) = 81.96876 61.46957 111.67844
#
# Poissons Ratio (x) = 0.11213 0.19280
# Poissons Ratio (y) = 0.14952 0.26120
# Poissons Ratio (z) = 0.14151 0.14377
#
# Static dielectric constant tensor:
#      x y z
#    x 2.027470 0.083210 -0.044840 
#    y 0.083210 2.169800 0.002900 
#    z -0.044840 0.002900 2.144760 
# 
# From -- ./inp_files/216769.got.cif
#   From: 2010.05.17/outbox.cif.g08.bks.cpg/sg2_109_cif.got.tgz:216769.got - 2010.06.03 11:33:40.
