data_PCOD9086229
_publ_section_title
;
Structure prediction by ZEFSAII (Michael W. Deem and Ramdas Pophale) SiO2 
 PCOD9086229
Probable space group: P -1
;
_chemical_formula_sum "Si O2"
_cell_formula_units_Z 16
_cell_length_a 10.506729
_cell_length_b 7.273073
_cell_length_c 18.331138
_cell_angle_alpha 72.255553
_cell_angle_beta 145.731285
_cell_angle_gamma 113.637378
_cell_volume 721.618374
_symmetry_space_group_name_H-M "P -1"
_symmetry_group_IT_number 2
_symmetry_cell_setting 'triclinic'
loop_
_space_group_symop_operation_xyz
x,y,z
-x,-y,-z
loop_
_atom_site_type_symbol
_atom_site_label
_atom_site_fract_x
_atom_site_fract_y
_atom_site_fract_z
Si Si1 0.951357 0.326006 0.556497
Si Si2 0.020808 0.733660 0.891220
Si Si3 0.100664 0.976567 0.630632
Si Si4 0.940822 0.131894 0.865498
Si Si5 0.765599 0.814658 0.619981
Si Si6 0.725420 0.551547 0.907764
Si Si7 0.227630 0.737781 0.373567
Si Si8 0.450011 0.840709 0.721139
O O1 0.911556 0.393919 0.610267
O O2 0.705264 0.182216 0.423808
O O3 0.000000 0.500000 0.500000
O O4 0.137075 0.195715 0.656889
O O5 0.249553 0.653985 0.020773
O O6 0.904349 0.727013 0.757628
O O7 0.052343 0.959411 0.908363
O O8 0.828940 0.583335 0.870916
O O9 0.325211 0.905377 0.723947
O O10 0.910749 0.835494 0.611304
O O11 0.000000 0.000000 0.500000
O O12 0.892913 0.268901 0.760545
O O13 0.101002 0.273671 0.982924
O O14 0.691929 0.006298 0.796670
O O15 0.487891 0.711814 0.493794
O O16 0.766823 0.037409 0.622597
O O17 0.493182 0.625510 0.784512
#
# Coordination Sequence:
#
# PCOD9086229 Si02
#       8
#     2   2   2   2   2   2   2   2
#     4  10  20  36  55  85 114 144 182 232 285 341
#     4   9  18  34  56  81 115 141 185 241 272 323
#     4   9  18  34  55  77 112 147 181 223 286 341
#     4  10  19  36  60  85 114 146 190 240 275 329
#     4   9  16  32  59  82 107 146 187 233 283 330
#     4  10  20  36  57  87 112 146 194 233 278 329
#     4   9  16  31  58  82 108 144 183 231 290 330
#     4  10  19  36  57  78 111 155 183 224 290 335
#
# _framework density 22.172383
#
# number of rings (size 3 to 8) (size 9 to 14) (size 15 to 20)
#    0.000    2.500    0.000    6.000    0.000    0.000 
#   15.750    1.250    0.000    4.500    0.000    0.000 
#    0.000    0.000    0.000    0.000    0.000    0.000 
#
# Total GULP energy -89297.696165 kJ/mol
# GULP energy per Si atom -5581.106010 kJ/mol
# Density = 2.212192 g / cm^3
# Si number density = 22.172383 Si / 1000 Ang^3
#
#
#
# Elastic Constant Matrix: (Units=GPa)
#
#
# Indices 1 2 3 4 5 6 
#
# 1 135.9893 36.8820 63.1209 -34.8711 -7.9809 12.7109
# 2 36.8820 62.7343 24.0295 -23.5611 5.2131 -8.8759
# 3 63.1209 24.0295 108.4706 -35.0538 -13.1746 0.4624
# 4 -34.8711 -23.5611 -35.0538 36.9836 -3.5621 -1.8377
# 5 -7.9809 5.2131 -13.1746 -3.5621 41.4974 -19.8742
# 6 12.7109 -8.8759 0.4624 -1.8377 -19.8742 28.8814
#
#
#
# Elastic Compliance Matrix: (Units=1/GPa)
#
#
# Indices 1 2 3 4 5 6 
#
# 1 0.012801 -0.005445 -0.005753 0.002437 -0.002763 -0.008961
# 2 -0.005445 0.025260 0.002931 0.014925 0.004906 0.014438
# 3 -0.005753 0.002931 0.018220 0.015398 0.011344 0.011926
# 4 0.002437 0.014925 0.015398 0.056030 0.017249 0.018702
# 5 -0.002763 0.004906 0.011344 0.017249 0.044412 0.034201
# 6 -0.008961 0.014438 0.011926 0.018702 0.034201 0.067539
#
#
# Mechanical properties :
#
#
# Convention : Reuss Voigt Hill
#
# Bulk Modulus (GPa) = 25.15968 61.69543 43.42755
# Shear Modulus (GPa) = 19.68156 33.68328 26.68242
#
# Velocity S-wave (km/s) = 2.98260 3.90186 3.47278
# Velocity P-wave (km/s) = 4.82007 6.94155 5.97571
#
# Compressibility (1/GPa) = 0.03974613
#
# Stress axis : x y z
#
# Youngs Moduli (GPa) = 78.11999 39.58877 54.88368
#
# Poissons Ratio (x) = 0.21558 0.31573
# Poissons Ratio (y) = 0.42539 -0.16084
# Poissons Ratio (z) = 0.44940 -0.11602
#
# Static dielectric constant tensor:
#      x y z
#    x 1.848410 -0.022440 0.028350 
#    y -0.022440 1.910760 -0.010280 
#    z 0.028350 -0.010280 1.865300 
# 
# From -- ./inp_files/593162.got.cif
#   From: 2010.05.17/outbox.cif.g08.bks.cpg/sg2_297_cif.got.tgz:593162.got - 2010.06.03 11:33:40.
