data_PCOD9086828
_publ_section_title
;
Structure prediction by ZEFSAII (Michael W. Deem and Ramdas Pophale) SiO2 
 PCOD9086828
Probable space group: P -1
;
_chemical_formula_sum "Si O2"
_cell_formula_units_Z 16
_cell_length_a 8.633584
_cell_length_b 17.504260
_cell_length_c 11.829816
_cell_angle_alpha 28.402742
_cell_angle_beta 58.218149
_cell_angle_gamma 55.856456
_cell_volume 701.332871
_symmetry_space_group_name_H-M "P -1"
_symmetry_group_IT_number 2
_symmetry_cell_setting 'triclinic'
loop_
_space_group_symop_operation_xyz
x,y,z
-x,-y,-z
loop_
_atom_site_type_symbol
_atom_site_label
_atom_site_fract_x
_atom_site_fract_y
_atom_site_fract_z
Si Si1 0.098659 0.198111 0.947137
Si Si2 0.794978 0.030986 0.980374
Si Si3 0.275827 0.803303 0.000229
Si Si4 0.821095 0.470728 0.038148
Si Si5 0.078652 0.160598 0.246891
Si Si6 0.341545 0.638120 0.534441
Si Si7 0.385716 0.190643 0.273083
Si Si8 0.244297 0.484248 0.556053
O O1 0.181398 0.141676 0.111010
O O2 0.217982 0.123225 0.889754
O O3 0.084946 0.392156 0.707876
O O4 0.905188 0.139237 0.084535
O O5 0.673516 0.074484 0.083946
O O6 0.761883 0.181320 0.708160
O O7 0.000000 0.000000 0.000000
O O8 0.215753 0.663841 0.279303
O O9 0.458733 0.736136 0.945648
O O10 0.705527 0.393047 0.278037
O O11 0.908462 0.328210 0.099420
O O12 0.707705 0.657797 0.802687
O O13 0.000000 0.500000 0.000000
O O14 0.220044 0.173404 0.275832
O O15 0.000000 0.000000 0.500000
O O16 0.270794 0.507965 0.648845
O O17 0.558303 0.614114 0.446133
O O18 0.500000 0.000000 0.500000
#
# Coordination Sequence:
#
# PCOD9086828 Si02
#       8
#     2   2   2   2   2   2   2   2
#     4  11  22  39  62  93 127 163 211 268 317 377
#     4   9  21  37  60  89 129 165 203 255 329 383
#     4  10  21  42  62  89 127 165 207 261 329 392
#     4  10  21  39  65  91 124 174 217 254 323 392
#     4  11  24  42  65  95 131 172 219 268 320 382
#     4  10  19  36  60  89 124 165 210 255 317 391
#     4  11  23  43  68  93 125 174 218 268 326 390
#     4  10  20  34  63  90 122 160 208 262 317 372
#
# _framework density 22.813701999999999
#
# number of rings (size 3 to 8) (size 9 to 14) (size 15 to 20)
#    0.000    1.750    1.250    3.375    3.500    3.500 
#    2.250    5.000    0.000    0.000    0.000    0.000 
#    0.000    0.000    0.000    0.000    0.000    0.000 
#
# Total GULP energy -89172.901772 kJ/mol
# GULP energy per Si atom -5573.306361 kJ/mol
# Density = 2.276178 g / cm^3
# Si number density = 22.813702 Si / 1000 Ang^3
#
#
#
# Elastic Constant Matrix: (Units=GPa)
#
#
# Indices 1 2 3 4 5 6 
#
# 1 49.2220 28.8295 11.8955 -13.7166 2.9003 5.7332
# 2 28.8295 103.4146 11.8101 -21.9513 -0.1802 5.1375
# 3 11.8955 11.8101 50.7784 -17.2825 11.2179 0.9949
# 4 -13.7166 -21.9513 -17.2825 34.4385 -4.7423 1.7505
# 5 2.9003 -0.1802 11.2179 -4.7423 35.5966 -11.1927
# 6 5.7332 5.1375 0.9949 1.7505 -11.1927 33.1245
#
#
#
# Elastic Compliance Matrix: (Units=1/GPa)
#
#
# Indices 1 2 3 4 5 6 
#
# 1 0.026464 -0.005675 -0.002387 0.005667 -0.002140 -0.004651
# 2 -0.005675 0.012557 0.000286 0.006066 0.000936 -0.000978
# 3 -0.002387 0.000286 0.025768 0.011306 -0.007534 -0.003548
# 4 0.005667 0.006066 0.011306 0.041071 0.000094 -0.004400
# 5 -0.002140 0.000936 -0.007534 0.000094 0.034460 0.012091
# 6 -0.004651 -0.000978 -0.003548 -0.004400 0.012091 0.035570
#
#
# Mechanical properties :
#
#
# Convention : Reuss Voigt Hill
#
# Bulk Modulus (GPa) = 20.31000 34.27613 27.29306
# Shear Modulus (GPa) = 24.05533 30.69057 27.37295
#
# Velocity S-wave (km/s) = 3.25071 3.67177 3.46764
# Velocity P-wave (km/s) = 4.79702 5.74742 5.29359
#
# Compressibility (1/GPa) = 0.04923683
#
# Stress axis : x y z
#
# Youngs Moduli (GPa) = 37.78757 79.63752 38.80788
#
# Poissons Ratio (x) = 0.45191 0.09263
# Poissons Ratio (y) = 0.21443 -0.01108
# Poissons Ratio (z) = 0.09019 -0.02274
#
# Static dielectric constant tensor:
#      x y z
#    x 1.868250 -0.018110 0.048620 
#    y -0.018110 1.919800 -0.046530 
#    z 0.048620 -0.046530 1.926200 
# 
# From -- ./inp_files/401629.got.cif
#   From: 2010.05.17/outbox.cif.g08.bks.cpg/sg2_201_cif.got.tgz:401629.got - 2010.06.03 11:33:40.
