data_PCOD9086707
_publ_section_title
;
Structure prediction by ZEFSAII (Michael W. Deem and Ramdas Pophale) SiO2 
 PCOD9086707
Probable space group: P -1
;
_chemical_formula_sum "Si O2"
_cell_formula_units_Z 14
_cell_length_a 9.444627
_cell_length_b 9.109830
_cell_length_c 20.800980
_cell_angle_alpha 30.937547
_cell_angle_beta 142.285749
_cell_angle_gamma 134.823192
_cell_volume 560.853583
_symmetry_space_group_name_H-M "P -1"
_symmetry_group_IT_number 2
_symmetry_cell_setting 'triclinic'
loop_
_space_group_symop_operation_xyz
x,y,z
-x,-y,-z
loop_
_atom_site_type_symbol
_atom_site_label
_atom_site_fract_x
_atom_site_fract_y
_atom_site_fract_z
Si Si1 0.718689 0.216502 0.212518
Si Si2 0.661152 0.639525 0.210690
Si Si3 0.019076 0.000303 0.902292
Si Si4 0.649951 0.485497 0.957483
Si Si5 0.094201 0.836867 0.487631
Si Si6 0.317864 0.568534 0.564841
Si Si7 0.700400 0.267387 0.782494
O O1 0.595714 0.453337 0.119562
O O2 0.510773 0.964738 0.226319
O O3 0.771069 0.323345 0.118531
O O4 0.954925 0.092488 0.366203
O O5 0.424407 0.672373 0.075371
O O6 0.725587 0.307973 0.347924
O O7 0.656350 0.643266 0.284351
O O8 0.853975 0.850634 0.168042
O O9 0.813330 0.767730 0.895356
O O10 0.187956 0.841117 0.070735
O O11 0.900709 0.236990 0.813842
O O12 0.226771 0.846669 0.462003
O O13 0.886448 0.581672 0.495468
O O14 0.571792 0.561028 0.628251
#
# Coordination Sequence:
#
# PCOD9086707 Si02
#       7
#     2   2   2   2   2   2   2
#     4   9  17  34  56  79 110 154 178 223 278 333
#     4  10  19  36  60  83 110 145 186 230 275 325
#     4  10  20  33  57  89 110 138 189 234 271 322
#     4  10  20  33  56  85 116 138 187 231 274 323
#     4   8  17  35  61  76 108 154 189 211 285 333
#     4   8  17  35  59  78 108 155 183 217 282 338
#     4   9  17  34  56  78 113 147 182 224 278 326
#
# _framework density 24.961953000000001
#
# number of rings (size 3 to 8) (size 9 to 14) (size 15 to 20)
#    0.857    2.000    1.429    0.000    2.000    1.143 
#    0.000    7.143    6.286    2.571    0.000    0.000 
#    0.000    0.000    0.000    0.000    0.000    0.000 
#
# Total GULP energy -78115.132767 kJ/mol
# GULP energy per Si atom -5579.652340 kJ/mol
# Density = 2.490514 g / cm^3
# Si number density = 24.961953 Si / 1000 Ang^3
#
#
#
# Elastic Constant Matrix: (Units=GPa)
#
#
# Indices 1 2 3 4 5 6 
#
# 1 42.8699 11.5462 28.5394 5.5691 17.0213 3.5246
# 2 11.5462 55.4507 -8.3212 1.3167 1.8728 14.1762
# 3 28.5394 -8.3212 74.4044 4.2034 28.1807 -4.9367
# 4 5.5691 1.3167 4.2034 28.3504 -9.1715 4.8420
# 5 17.0213 1.8728 28.1807 -9.1715 56.0816 4.0676
# 6 3.5246 14.1762 -4.9367 4.8420 4.0676 28.7164
#
#
#
# Elastic Compliance Matrix: (Units=1/GPa)
#
#
# Indices 1 2 3 4 5 6 
#
# 1 0.037649 -0.009361 -0.012961 -0.006838 -0.005701 -0.000267
# 2 -0.009361 0.023216 0.005284 0.001777 0.000409 -0.009761
# 3 -0.012961 0.005284 0.023006 -0.004869 -0.008964 0.005028
# 4 -0.006838 0.001777 -0.004869 0.042878 0.012188 -0.009831
# 5 -0.005701 0.000409 -0.008964 0.012188 0.026543 -0.006858
# 6 -0.000267 -0.009761 0.005028 -0.009831 -0.006858 0.043168
#
#
# Mechanical properties :
#
#
# Convention : Reuss Voigt Hill
#
# Bulk Modulus (GPa) = 20.08192 26.25042 23.16617
# Shear Modulus (GPa) = 20.23195 32.02707 26.12951
#
# Velocity S-wave (km/s) = 2.85004 3.58583 3.23890
# Velocity P-wave (km/s) = 4.34658 5.26149 4.82577
#
# Compressibility (1/GPa) = 0.04979603
#
# Stress axis : x y z
#
# Youngs Moduli (GPa) = 26.56082 43.07446 43.46643
#
# Poissons Ratio (x) = 0.40323 0.56335
# Poissons Ratio (y) = 0.24864 -0.22968
# Poissons Ratio (z) = 0.34424 -0.22761
#
# Static dielectric constant tensor:
#      x y z
#    x 2.015230 -0.048350 0.078730 
#    y -0.048350 1.981000 -0.052750 
#    z 0.078730 -0.052750 1.984440 
# 
# From -- ./inp_files/331240.got.cif
#   From: 2010.05.17/outbox.cif.g08.bks.cpg/sg2_166_cif.got.tgz:331240.got - 2010.06.03 11:33:40.
