data_PCOD9086624
_publ_section_title
;
Structure prediction by ZEFSAII (Michael W. Deem and Ramdas Pophale) SiO2 
 PCOD9086624
Probable space group: P -1
;
_chemical_formula_sum "Si O2"
_cell_formula_units_Z 16
_cell_length_a 10.255955
_cell_length_b 18.209516
_cell_length_c 9.235557
_cell_angle_alpha 113.820557
_cell_angle_beta 67.706942
_cell_angle_gamma 56.963312
_cell_volume 824.874046
_symmetry_space_group_name_H-M "P -1"
_symmetry_group_IT_number 2
_symmetry_cell_setting 'triclinic'
loop_
_space_group_symop_operation_xyz
x,y,z
-x,-y,-z
loop_
_atom_site_type_symbol
_atom_site_label
_atom_site_fract_x
_atom_site_fract_y
_atom_site_fract_z
Si Si1 0.334005 0.260690 0.922768
Si Si2 0.235103 0.846934 0.199995
Si Si3 0.860778 0.883135 0.718183
Si Si4 0.912235 0.487349 0.892540
Si Si5 0.588646 0.940828 0.142803
Si Si6 0.418662 0.192632 0.498917
Si Si7 0.775483 0.097058 0.060409
Si Si8 0.596016 0.366070 0.822894
O O1 0.538276 0.199624 0.896427
O O2 0.429285 0.214989 0.679243
O O3 0.292882 0.187199 0.918392
O O4 0.117229 0.430018 0.151862
O O5 0.304679 0.731404 0.158435
O O6 0.209268 0.850550 0.040783
O O7 0.000000 0.000000 0.500000
O O8 0.694541 0.947836 0.696692
O O9 0.156737 0.741751 0.463886
O O10 0.752186 0.873102 0.874744
O O11 0.796046 0.001457 0.898247
O O12 0.134369 0.318270 0.660246
O O13 0.643583 0.570989 0.084698
O O14 0.000000 0.500000 0.000000
O O15 0.564930 0.039611 0.303421
O O16 0.536351 0.203149 0.349501
O O17 0.000000 0.000000 0.000000
O O18 0.500000 0.500000 0.000000
#
# Coordination Sequence:
#
# PCOD9086624 Si02
#       8
#     2   2   2   2   2   2   2   2
#     4  10  19  36  59  87 115 156 202 241 293 357
#     4  11  20  37  61  88 118 157 200 252 296 354
#     4  10  21  36  59  86 123 155 190 255 301 350
#     4   9  21  37  58  83 119 161 192 240 300 355
#     4  10  19  36  60  88 120 149 199 247 303 347
#     4  10  21  36  58  88 117 156 194 244 296 356
#     4  11  22  36  60  91 117 152 202 252 299 346
#     4  11  22  39  62  89 121 163 203 243 306 368
#
# _framework density 19.396899000000001
#
# number of rings (size 3 to 8) (size 9 to 14) (size 15 to 20)
#    0.000    1.750    2.500    1.875    3.500    0.000 
#    2.250    6.250    0.000    3.750    0.000    0.000 
#    0.000    0.000    0.000    0.000    0.000    0.000 
#
# Total GULP energy -89103.250719 kJ/mol
# GULP energy per Si atom -5568.953170 kJ/mol
# Density = 1.935275 g / cm^3
# Si number density = 19.396899 Si / 1000 Ang^3
#
#
#
# Elastic Constant Matrix: (Units=GPa)
#
#
# Indices 1 2 3 4 5 6 
#
# 1 66.2692 32.1497 7.7087 0.0094 -7.5916 -4.6859
# 2 32.1497 122.7168 41.3602 3.0685 -1.4048 7.5364
# 3 7.7087 41.3602 58.1541 -6.5039 -19.2997 1.3031
# 4 0.0094 3.0685 -6.5039 23.0399 -2.8722 6.9336
# 5 -7.5916 -1.4048 -19.2997 -2.8722 33.3677 7.6107
# 6 -4.6859 7.5364 1.3031 6.9336 7.6107 40.2175
#
#
#
# Elastic Compliance Matrix: (Units=1/GPa)
#
#
# Indices 1 2 3 4 5 6 
#
# 1 0.018546 -0.006459 0.004494 0.002438 0.006393 0.001596
# 2 -0.006459 0.014303 -0.013017 -0.006636 -0.008927 -0.000178
# 3 0.004494 -0.013017 0.035727 0.016453 0.023818 -0.005538
# 4 0.002438 -0.006636 0.016453 0.054577 0.017149 -0.011660
# 5 0.006393 -0.008927 0.023818 0.017149 0.048701 -0.010527
# 6 0.001596 -0.000178 -0.005538 -0.011660 -0.010527 0.029266
#
#
# Mechanical properties :
#
#
# Convention : Reuss Voigt Hill
#
# Bulk Modulus (GPa) = 25.89965 45.50858 35.70411
# Shear Modulus (GPa) = 20.49568 30.38644 25.44106
#
# Velocity S-wave (km/s) = 3.25414 3.96228 3.62554
# Velocity P-wave (km/s) = 5.24411 6.66675 5.99776
#
# Compressibility (1/GPa) = 0.03861056
#
# Stress axis : x y z
#
# Youngs Moduli (GPa) = 53.92138 69.91579 27.99018
#
# Poissons Ratio (x) = 0.45158 -0.12578
# Poissons Ratio (y) = 0.34828 0.36435
# Poissons Ratio (z) = -0.24231 0.91011
#
# Static dielectric constant tensor:
#      x y z
#    x 1.695470 0.012790 -0.020320 
#    y 0.012790 1.746010 0.008660 
#    z -0.020320 0.008660 1.745060 
# 
# From -- ./inp_files/279511.got.cif
#   From: 2010.05.17/outbox.cif.g08.bks.cpg/sg2_140_cif.got.tgz:279511.got - 2010.06.03 11:33:40.
