data_PCOD9086992
_publ_section_title
;
Structure prediction by ZEFSAII (Michael W. Deem and Ramdas Pophale) SiO2 
 PCOD9086992
Probable space group: P -1
;
_chemical_formula_sum "Si O2"
_cell_formula_units_Z 14
_cell_length_a 7.635687
_cell_length_b 8.034436
_cell_length_c 17.216979
_cell_angle_alpha 91.543101
_cell_angle_beta 51.453723
_cell_angle_gamma 59.523414
_cell_volume 612.892477
_symmetry_space_group_name_H-M "P -1"
_symmetry_group_IT_number 2
_symmetry_cell_setting 'triclinic'
loop_
_space_group_symop_operation_xyz
x,y,z
-x,-y,-z
loop_
_atom_site_type_symbol
_atom_site_label
_atom_site_fract_x
_atom_site_fract_y
_atom_site_fract_z
Si Si1 0.349493 0.657974 0.182812
Si Si2 0.791428 0.772493 0.954659
Si Si3 0.098410 0.394054 0.750570
Si Si4 0.247282 0.924563 0.365189
Si Si5 0.004172 0.816844 0.036784
Si Si6 0.961785 0.043296 0.192315
Si Si7 0.176709 0.682188 0.628896
O O1 0.333786 0.738860 0.275052
O O2 0.656921 0.417258 0.069371
O O3 0.075622 0.665810 0.245796
O O4 0.284262 0.834705 0.139341
O O5 0.904989 0.546893 0.881857
O O6 0.800210 0.789278 0.044965
O O7 0.035109 0.791201 0.857664
O O8 0.500000 0.000000 0.000000
O O9 0.442330 0.189307 0.677725
O O10 0.092112 0.559309 0.698426
O O11 0.000000 0.000000 0.500000
O O12 0.081366 0.144678 0.359983
O O13 0.000000 0.000000 0.000000
O O14 0.893308 0.921755 0.154464
O O15 0.784426 0.182994 0.319803
O O16 0.500000 0.500000 0.500000
#
# Coordination Sequence:
#
# PCOD9086992 Si02
#       7
#     2   2   2   2   2   2   2
#     4  11  23  42  62  91 128 161 210 264 311 377
#     4  10  20  39  62  91 127 166 206 256 320 378
#     4  11  22  42  66  92 127 167 213 256 319 381
#     4  11  23  43  67  91 128 169 211 264 318 366
#     4  10  19  36  61  87 124 163 200 255 315 367
#     4   9  21  38  60  87 123 161 206 258 312 366
#     4  10  21  42  66  89 128 167 208 267 317 368
#
# _framework density 22.842507000000001
#
# number of rings (size 3 to 8) (size 9 to 14) (size 15 to 20)
#    0.000    1.714    2.857    2.143    0.000    0.571 
#   12.857    2.143    0.000    0.000    0.000    0.000 
#    0.000    0.000    0.000    0.000    0.000    0.000 
#
# Total GULP energy -78192.691755 kJ/mol
# GULP energy per Si atom -5585.192268 kJ/mol
# Density = 2.279052 g / cm^3
# Si number density = 22.842507 Si / 1000 Ang^3
#
#
#
# Elastic Constant Matrix: (Units=GPa)
#
#
# Indices 1 2 3 4 5 6 
#
# 1 129.5052 41.8014 40.5538 3.9736 -3.7676 -14.4439
# 2 41.8014 120.9809 52.6166 6.5054 -2.0544 -11.9146
# 3 40.5538 52.6166 116.4375 18.2829 3.5388 -8.8467
# 4 3.9736 6.5054 18.2829 42.2663 -5.4055 -1.6107
# 5 -3.7676 -2.0544 3.5388 -5.4055 34.2190 3.5066
# 6 -14.4439 -11.9146 -8.8467 -1.6107 3.5066 37.1798
#
#
#
# Elastic Compliance Matrix: (Units=1/GPa)
#
#
# Indices 1 2 3 4 5 6 
#
# 1 0.009369 -0.002020 -0.002302 0.000645 0.001007 0.002378
# 2 -0.002020 0.010949 -0.004219 0.000493 0.000778 0.001668
# 3 -0.002302 -0.004219 0.012165 -0.004700 -0.002578 0.000688
# 4 0.000645 0.000493 -0.004700 0.026159 0.004721 -0.000022
# 5 0.001007 0.000778 -0.002578 0.004721 0.030666 -0.002661
# 6 0.002378 0.001668 0.000688 -0.000022 -0.002661 0.028768
#
#
# Mechanical properties :
#
#
# Convention : Reuss Voigt Hill
#
# Bulk Modulus (GPa) = 64.92093 70.76302 67.84197
# Shear Modulus (GPa) = 35.64012 38.19648 36.91830
#
# Velocity S-wave (km/s) = 3.95429 4.09365 4.02457
# Velocity P-wave (km/s) = 7.02363 7.30684 7.16663
#
# Compressibility (1/GPa) = 0.01540335
#
# Stress axis : x y z
#
# Youngs Moduli (GPa) = 106.73460 91.32927 82.20358
#
# Poissons Ratio (x) = 0.18444 0.18921
# Poissons Ratio (y) = 0.21556 0.34679
# Poissons Ratio (z) = 0.24567 0.38529
#
# Static dielectric constant tensor:
#      x y z
#    x 1.938770 0.002620 0.009750 
#    y 0.002620 1.930170 -0.077860 
#    z 0.009750 -0.077860 1.899090 
# 
# From -- ./inp_files/312694.got.cif
#   From: 2010.05.17/outbox.cif.g08.bks.cpg/sg2_157_cif.got.tgz:312694.got - 2010.06.03 11:33:40.
