data_PCOD9086078
_publ_section_title
;
Structure prediction by ZEFSAII (Michael W. Deem and Ramdas Pophale) SiO2 
 PCOD9086078
Probable space group: P -1
;
_chemical_formula_sum "Si O2"
_cell_formula_units_Z 16
_cell_length_a 5.928362
_cell_length_b 20.276560
_cell_length_c 18.609858
_cell_angle_alpha 161.204867
_cell_angle_beta 116.488027
_cell_angle_gamma 73.194790
_cell_volume 572.243626
_symmetry_space_group_name_H-M "P -1"
_symmetry_group_IT_number 2
_symmetry_cell_setting 'triclinic'
loop_
_space_group_symop_operation_xyz
x,y,z
-x,-y,-z
loop_
_atom_site_type_symbol
_atom_site_label
_atom_site_fract_x
_atom_site_fract_y
_atom_site_fract_z
Si Si1 0.566034 0.631747 0.741603
Si Si2 0.543993 0.136863 0.894469
Si Si3 0.777620 0.200715 0.209453
Si Si4 0.139734 0.334215 0.850467
Si Si5 0.121084 0.032695 0.158781
Si Si6 0.920153 0.477924 0.714928
Si Si7 0.252965 0.296558 0.659401
Si Si8 0.998537 0.861286 0.229434
O O1 0.305417 0.597079 0.615492
O O2 0.651998 0.439138 0.585698
O O3 0.509276 0.751701 0.926028
O O4 0.844623 0.831882 0.950441
O O5 0.263551 0.079103 0.751049
O O6 0.616518 0.930353 0.714771
O O7 0.812954 0.336453 0.100041
O O8 0.037995 0.233490 0.332340
O O9 0.500000 0.000000 0.000000
O O10 0.831097 0.084467 0.026561
O O11 0.548111 0.521470 0.920351
O O12 0.940856 0.143253 0.682916
O O13 0.000000 0.500000 0.000000
O O14 0.807252 0.693072 0.253413
O O15 0.017206 0.293429 0.567394
O O16 0.908226 0.614823 0.925778
O O17 0.242830 0.046660 0.403855
#
# Coordination Sequence:
#
# PCOD9086078 Si02
#       8
#     2   2   2   2   2   2   2   2
#     4   8  15  25  45  69 105 146 179 231 272 314
#     4   9  17  31  50  72 108 143 179 232 272 319
#     4   8  12  20  36  68 106 144 187 225 268 320
#     4  11  23  42  59  82 112 139 180 231 275 332
#     4   8  13  22  40  68 105 145 184 227 268 321
#     4  10  19  36  53  79 110 141 186 228 271 332
#     4  11  24  39  60  83 108 144 183 224 278 337
#     4  11  22  38  59  82 109 145 182 225 281 330
#
# _framework density 27.96012
#
# number of rings (size 3 to 8) (size 9 to 14) (size 15 to 20)
#    0.000    2.500    2.500    0.375    0.000    1.500 
#    0.000    0.000    0.000    0.000    0.000    0.875 
#    0.000  195.000    0.000   50.000    0.000   11.625 
#
# Total GULP energy -89497.234440 kJ/mol
# GULP energy per Si atom -5593.577152 kJ/mol
# Density = 2.789648 g / cm^3
# Si number density = 27.960120 Si / 1000 Ang^3
#
#
#
# Elastic Constant Matrix: (Units=GPa)
#
#
# Indices 1 2 3 4 5 6 
#
# 1 123.8047 38.5907 8.1508 -3.4563 2.8590 13.0226
# 2 38.5907 166.3447 25.1018 37.9218 -8.0043 0.3144
# 3 8.1508 25.1018 74.7151 8.2432 0.9316 6.6159
# 4 -3.4563 37.9218 8.2432 49.5969 -1.2774 -4.3911
# 5 2.8590 -8.0043 0.9316 -1.2774 24.4572 1.5025
# 6 13.0226 0.3144 6.6159 -4.3911 1.5025 62.7059
#
#
#
# Elastic Compliance Matrix: (Units=1/GPa)
#
#
# Indices 1 2 3 4 5 6 
#
# 1 0.009250 -0.002796 -0.000190 0.002622 -0.001750 -0.001661
# 2 -0.002796 0.008522 -0.001919 -0.006298 0.002846 0.000231
# 3 -0.000190 -0.001919 0.014317 -0.001088 -0.001115 -0.001511
# 4 0.002622 -0.006298 -0.001088 0.025439 -0.001084 0.001409
# 5 -0.001750 0.002846 -0.001115 -0.001084 0.042047 -0.000617
# 6 -0.001661 0.000231 -0.001511 0.001409 -0.000617 0.016564
#
#
# Mechanical properties :
#
#
# Convention : Reuss Voigt Hill
#
# Bulk Modulus (GPa) = 44.88573 56.50569 50.69571
# Shear Modulus (GPa) = 37.48798 46.88675 42.18736
#
# Velocity S-wave (km/s) = 3.66562 4.09946 3.88859
# Velocity P-wave (km/s) = 5.83130 6.53151 6.19131
#
# Compressibility (1/GPa) = 0.02227879
#
# Stress axis : x y z
#
# Youngs Moduli (GPa) = 108.11264 117.34103 69.84491
#
# Poissons Ratio (x) = 0.32808 0.01327
# Poissons Ratio (y) = 0.30227 0.13405
# Poissons Ratio (z) = 0.02055 0.22521
#
# Static dielectric constant tensor:
#      x y z
#    x 2.189220 -0.073890 0.100300 
#    y -0.073890 2.277440 -0.076130 
#    z 0.100300 -0.076130 2.389420 
# 
# From -- ./inp_files/115361.got.cif
#   From: 2010.05.17/outbox.cif.g08.bks.cpg/sg2_58_cif.got.tgz:115361.got - 2010.06.03 11:33:40.
