data_PCOD9086255
_publ_section_title
;
Structure prediction by ZEFSAII (Michael W. Deem and Ramdas Pophale) SiO2 
 PCOD9086255
Probable space group: P -1
;
_chemical_formula_sum "Si O2"
_cell_formula_units_Z 16
_cell_length_a 12.012061
_cell_length_b 9.696617
_cell_length_c 19.195100
_cell_angle_alpha 34.169446
_cell_angle_beta 44.015520
_cell_angle_gamma 50.638062
_cell_volume 868.117206
_symmetry_space_group_name_H-M "P -1"
_symmetry_group_IT_number 2
_symmetry_cell_setting 'triclinic'
loop_
_space_group_symop_operation_xyz
x,y,z
-x,-y,-z
loop_
_atom_site_type_symbol
_atom_site_label
_atom_site_fract_x
_atom_site_fract_y
_atom_site_fract_z
Si Si1 0.668881 0.606155 0.369395
Si Si2 0.367916 0.011552 0.891821
Si Si3 0.923770 0.403600 0.645287
Si Si4 0.137032 0.670309 0.067559
Si Si5 0.898423 0.917870 0.190031
Si Si6 0.689411 0.028234 0.910775
Si Si7 0.073550 0.775666 0.515288
Si Si8 0.747967 0.872168 0.803444
O O1 0.500000 0.500000 0.500000
O O2 0.664447 0.734370 0.242300
O O3 0.719481 0.828673 0.302916
O O4 0.802450 0.388595 0.422711
O O5 0.557393 0.929069 0.849930
O O6 0.289879 0.795933 0.975974
O O7 0.280812 0.038761 0.994276
O O8 0.749836 0.301155 0.758812
O O9 0.000000 0.500000 0.500000
O O10 0.028556 0.169117 0.732487
O O11 0.943023 0.616471 0.604860
O O12 0.176646 0.380172 0.160651
O O13 0.999029 0.762689 0.147238
O O14 0.098853 0.805338 0.954200
O O15 0.770051 0.866066 0.879470
O O16 0.500000 0.000000 0.000000
O O17 0.170380 0.895619 0.360137
O O18 0.000000 0.000000 0.500000
#
# Coordination Sequence:
#
# PCOD9086255 Si02
#       8
#     2   2   2   2   2   2   2   2
#     4  10  19  36  57  83 116 150 189 240 291 351
#     4  10  20  36  60  83 113 157 194 237 299 346
#     4  11  20  39  59  78 118 157 193 235 292 357
#     4  10  19  36  57  81 116 145 193 248 286 340
#     4   9  20  34  57  82 109 155 192 230 303 343
#     4  10  22  37  56  85 116 155 196 234 295 354
#     4  11  23  37  59  91 117 148 200 246 290 343
#     4  11  20  35  56  89 114 147 199 245 284 347
#
# _framework density 18.430690999999999
#
# number of rings (size 3 to 8) (size 9 to 14) (size 15 to 20)
#    0.000    1.750    3.750    1.875    0.000    0.000 
#    0.000    1.875    0.000    0.000    0.000    7.000 
#    0.000    0.000    0.000    0.000    0.000    0.000 
#
# Total GULP energy -89074.808466 kJ/mol
# GULP energy per Si atom -5567.175529 kJ/mol
# Density = 1.838874 g / cm^3
# Si number density = 18.430691 Si / 1000 Ang^3
#
#
#
# Elastic Constant Matrix: (Units=GPa)
#
#
# Indices 1 2 3 4 5 6 
#
# 1 75.6907 25.2949 45.8523 -6.5545 -1.1295 6.3088
# 2 25.2949 65.0170 24.2731 -10.7708 3.1835 8.1827
# 3 45.8523 24.2731 140.6269 -5.4602 2.3008 1.9328
# 4 -6.5545 -10.7708 -5.4602 24.4948 2.1128 1.7826
# 5 -1.1295 3.1835 2.3008 2.1128 54.8280 -0.6438
# 6 6.3088 8.1827 1.9328 1.7826 -0.6438 19.5923
#
#
#
# Elastic Compliance Matrix: (Units=1/GPa)
#
#
# Indices 1 2 3 4 5 6 
#
# 1 0.018262 -0.004453 -0.005069 0.002004 0.000727 -0.003679
# 2 -0.004453 0.020047 -0.001569 0.007960 -0.001585 -0.007560
# 3 -0.005069 -0.001569 0.009018 -0.000106 -0.000371 0.001396
# 4 0.002004 0.007960 -0.000106 0.045630 -0.002271 -0.008186
# 5 0.000727 -0.001585 -0.000371 -0.002271 0.018464 0.001278
# 6 -0.003679 -0.007560 0.001396 -0.008186 0.001278 0.056032
#
#
# Mechanical properties :
#
#
# Convention : Reuss Voigt Hill
#
# Bulk Modulus (GPa) = 39.77259 52.46389 46.11824
# Shear Modulus (GPa) = 25.25062 32.17731 28.71396
#
# Velocity S-wave (km/s) = 3.70541 4.18288 3.95136
# Velocity P-wave (km/s) = 6.31927 7.20110 6.77455
#
# Compressibility (1/GPa) = 0.02514294
#
# Stress axis : x y z
#
# Youngs Moduli (GPa) = 54.75962 49.88345 110.89485
#
# Poissons Ratio (x) = 0.22212 0.56216
# Poissons Ratio (y) = 0.24383 0.17404
# Poissons Ratio (z) = 0.27759 0.07829
#
# Static dielectric constant tensor:
#      x y z
#    x 1.696230 0.011840 -0.016360 
#    y 0.011840 1.615060 0.006200 
#    z -0.016360 0.006200 1.713480 
# 
# From -- ./inp_files/279425.got.cif
#   From: 2010.05.17/outbox.cif.g08.bks.cpg/sg2_140_cif.got.tgz:279425.got - 2010.06.03 11:33:40.
