data_PCOD9086380
_publ_section_title
;
Structure prediction by ZEFSAII (Michael W. Deem and Ramdas Pophale) SiO2 
 PCOD9086380
Probable space group: P -1
;
_chemical_formula_sum "Si O2"
_cell_formula_units_Z 16
_cell_length_a 26.510136
_cell_length_b 7.383409
_cell_length_c 11.136954
_cell_angle_alpha 39.248891
_cell_angle_beta 30.859956
_cell_angle_gamma 43.179121
_cell_volume 693.356444
_symmetry_space_group_name_H-M "P -1"
_symmetry_group_IT_number 2
_symmetry_cell_setting 'triclinic'
loop_
_space_group_symop_operation_xyz
x,y,z
-x,-y,-z
loop_
_atom_site_type_symbol
_atom_site_label
_atom_site_fract_x
_atom_site_fract_y
_atom_site_fract_z
Si Si1 0.153235 0.781616 0.469897
Si Si2 0.581368 0.549615 0.049500
Si Si3 0.165438 0.847223 0.680558
Si Si4 0.682677 0.718092 0.547821
Si Si5 0.941651 0.101290 0.760210
Si Si6 0.008080 0.623061 0.231842
Si Si7 0.630003 0.161118 0.612736
Si Si8 0.250665 0.981810 0.938514
O O1 0.185800 0.887000 0.478672
O O2 0.214796 0.449817 0.510613
O O3 0.190597 0.973244 0.190972
O O4 0.033406 0.825776 0.700867
O O5 0.604085 0.546295 0.860267
O O6 0.655952 0.285964 0.094064
O O7 0.609243 0.861066 0.871502
O O8 0.465027 0.585860 0.299148
O O9 0.265327 0.786078 0.582724
O O10 0.096276 0.607927 0.963827
O O11 0.090047 0.142070 0.724570
O O12 0.644337 0.046267 0.506218
O O13 0.703930 0.752369 0.347078
O O14 0.950625 0.249794 0.795231
O O15 0.832149 0.061151 0.969380
O O16 0.972474 0.329903 0.485764
#
# Coordination Sequence:
#
# PCOD9086380 Si02
#       8
#     2   2   2   2   2   2   2   2
#     4  10  23  36  51  86 115 146 182 219 274 336
#     4   8  19  36  59  88 104 135 192 234 267 320
#     4  10  19  36  58  80 111 152 179 224 278 322
#     4   9  20  36  56  81 111 142 181 230 272 320
#     4  10  20  36  53  84 112 148 182 229 269 321
#     4   9  20  34  55  82 114 141 192 226 264 326
#     4   9  17  38  61  82 108 141 185 233 275 313
#     4  11  20  36  57  79 117 146 182 225 273 325
#
# _framework density 23.076153999999999
#
# number of rings (size 3 to 8) (size 9 to 14) (size 15 to 20)
#    0.750    1.750    0.000    1.875    1.750    1.000 
#    0.000    2.500    0.000    1.500    0.000    0.000 
#    0.000    0.000    0.000    0.000    0.000    0.000 
#
# Total GULP energy -89220.577956 kJ/mol
# GULP energy per Si atom -5576.286122 kJ/mol
# Density = 2.302363 g / cm^3
# Si number density = 23.076154 Si / 1000 Ang^3
#
#
#
# Elastic Constant Matrix: (Units=GPa)
#
#
# Indices 1 2 3 4 5 6 
#
# 1 30.0450 4.9861 19.3691 10.8381 4.9154 -2.7741
# 2 4.9861 73.3025 36.6585 18.7524 -4.0546 -25.7048
# 3 19.3691 36.6585 97.5624 17.1669 17.2805 -14.7198
# 4 10.8381 18.7524 17.1669 41.4731 -12.7026 -0.8676
# 5 4.9154 -4.0546 17.2805 -12.7026 38.1133 4.0735
# 6 -2.7741 -25.7048 -14.7198 -0.8676 4.0735 29.0840
#
#
#
# Elastic Compliance Matrix: (Units=1/GPa)
#
#
# Indices 1 2 3 4 5 6 
#
# 1 0.042771 0.005241 -0.005850 -0.013261 -0.007409 0.006392
# 2 0.005241 0.025923 -0.005631 -0.010671 -0.001102 0.020397
# 3 -0.005850 -0.005631 0.016981 -0.005919 -0.009974 0.004280
# 4 -0.013261 -0.010671 -0.005919 0.040124 0.018240 -0.015050
# 5 -0.007409 -0.001102 -0.009974 0.018240 0.038921 -0.011635
# 6 0.006392 0.020397 0.004280 -0.015050 -0.011635 0.056367
#
#
# Mechanical properties :
#
#
# Convention : Reuss Voigt Hill
#
# Bulk Modulus (GPa) = 13.66225 35.88191 24.77208
# Shear Modulus (GPa) = 19.38237 31.06051 25.22144
#
# Velocity S-wave (km/s) = 2.90130 3.67277 3.30959
# Velocity P-wave (km/s) = 4.14207 5.79385 5.03614
#
# Compressibility (1/GPa) = 0.07319440
#
# Stress axis : x y z
#
# Youngs Moduli (GPa) = 23.38029 38.57566 58.88942
#
# Poissons Ratio (x) = -0.20216 0.34453
# Poissons Ratio (y) = -0.12253 0.33159
# Poissons Ratio (z) = 0.13678 0.21721
#
# Static dielectric constant tensor:
#      x y z
#    x 1.848960 0.027470 0.051160 
#    y 0.027470 1.935400 0.023050 
#    z 0.051160 0.023050 1.883650 
# 
# From -- ./inp_files/477462.got.cif
#   From: 2010.05.17/outbox.cif.g08.bks.cpg/sg2_239_cif.got.tgz:477462.got - 2010.06.03 11:33:40.
