data_PCOD9086257
_publ_section_title
;
Structure prediction by ZEFSAII (Michael W. Deem and Ramdas Pophale) SiO2 
 PCOD9086257
Probable space group: P -1
;
_chemical_formula_sum "Si O2"
_cell_formula_units_Z 16
_cell_length_a 14.431284
_cell_length_b 14.788150
_cell_length_c 7.426389
_cell_angle_alpha 85.040770
_cell_angle_beta 132.682288
_cell_angle_gamma 131.823040
_cell_volume 646.563129
_symmetry_space_group_name_H-M "P -1"
_symmetry_group_IT_number 2
_symmetry_cell_setting 'triclinic'
loop_
_space_group_symop_operation_xyz
x,y,z
-x,-y,-z
loop_
_atom_site_type_symbol
_atom_site_label
_atom_site_fract_x
_atom_site_fract_y
_atom_site_fract_z
Si Si1 0.205881 0.354945 0.312386
Si Si2 0.433317 0.206360 0.706074
Si Si3 0.495599 0.297045 0.372029
Si Si4 0.527850 0.970310 0.259183
Si Si5 0.977396 0.245776 0.640559
Si Si6 0.015852 0.071370 0.684235
Si Si7 0.732579 0.032031 0.906420
Si Si8 0.441636 0.544969 0.053435
O O1 0.301853 0.514341 0.457363
O O2 0.412809 0.407796 0.594944
O O3 0.098658 0.298883 0.983550
O O4 0.002423 0.193595 0.196724
O O5 0.537395 0.301130 0.638291
O O6 0.520332 0.157443 0.866207
O O7 0.470515 0.301916 0.895529
O O8 0.160419 0.048757 0.364316
O O9 0.406175 0.144559 0.207097
O O10 0.269516 0.220562 0.061432
O O11 0.334918 0.926051 0.058613
O O12 0.632541 0.002624 0.584347
O O13 0.734160 0.139546 0.391519
O O14 0.943371 0.128286 0.522590
O O15 0.178772 0.407478 0.763693
O O16 0.000000 0.000000 0.500000
O O17 0.500000 0.500000 0.000000
#
# Coordination Sequence:
#
# PCOD9086257 Si02
#       8
#     2   2   2   2   2   2   2   2
#     4  11  21  37  60  86 119 151 190 243 288 350
#     4  10  20  34  56  82 110 155 188 233 293 339
#     4  11  20  36  59  86 116 154 193 233 294 348
#     4   8  18  37  57  81 115 145 193 245 278 341
#     4  10  19  36  57  81 117 149 186 236 292 341
#     4  11  21  34  54  83 117 153 189 239 289 347
#     4   9  19  37  58  87 114 148 196 241 288 334
#     4  12  22  34  54  86 119 148 187 241 294 349
#
# _framework density 24.746229
#
# number of rings (size 3 to 8) (size 9 to 14) (size 15 to 20)
#    0.000    1.750    2.500    3.750    0.000    0.000 
#    2.250    2.500    0.000    7.500    0.000    0.000 
#    0.000    0.000    0.000    0.000    0.000    0.000 
#
# Total GULP energy -89288.271590 kJ/mol
# GULP energy per Si atom -5580.516974 kJ/mol
# Density = 2.468991 g / cm^3
# Si number density = 24.746229 Si / 1000 Ang^3
#
#
#
# Elastic Constant Matrix: (Units=GPa)
#
#
# Indices 1 2 3 4 5 6 
#
# 1 124.0455 52.1455 30.5271 20.3056 3.4334 -28.6978
# 2 52.1455 114.6976 31.2906 20.0000 4.1366 -13.4511
# 3 30.5271 31.2906 45.0374 13.9461 1.6639 -15.8610
# 4 20.3056 20.0000 13.9461 46.2128 4.0347 -6.1624
# 5 3.4334 4.1366 1.6639 4.0347 45.9351 1.7945
# 6 -28.6978 -13.4511 -15.8610 -6.1624 1.7945 42.9976
#
#
#
# Elastic Compliance Matrix: (Units=1/GPa)
#
#
# Indices 1 2 3 4 5 6 
#
# 1 0.011916 -0.003585 -0.003029 -0.002000 -0.000495 0.005448
# 2 -0.003585 0.012167 -0.005712 -0.002061 -0.000402 -0.000973
# 3 -0.003029 -0.005712 0.032392 -0.004954 -0.000288 0.007442
# 4 -0.002000 -0.002061 -0.004954 0.025031 -0.001678 -0.000150
# 5 -0.000495 -0.000402 -0.000288 -0.001678 0.022068 -0.001724
# 6 0.005448 -0.000973 0.007442 -0.000150 -0.001724 0.029384
#
#
# Mechanical properties :
#
#
# Convention : Reuss Voigt Hill
#
# Bulk Modulus (GPa) = 31.42720 56.85631 44.14175
# Shear Modulus (GPa) = 29.72312 38.35025 34.03669
#
# Velocity S-wave (km/s) = 3.46947 3.94095 3.71270
# Velocity P-wave (km/s) = 5.36442 6.61315 6.02124
#
# Compressibility (1/GPa) = 0.03181958
#
# Stress axis : x y z
#
# Youngs Moduli (GPa) = 83.92261 82.19093 30.87227
#
# Poissons Ratio (x) = 0.29468 0.09353
# Poissons Ratio (y) = 0.30089 0.17636
# Poissons Ratio (z) = 0.25424 0.46951
#
# Static dielectric constant tensor:
#      x y z
#    x 1.982670 0.050440 -0.112590 
#    y 0.050440 2.070680 0.013870 
#    z -0.112590 0.013870 2.051290 
# 
# From -- ./inp_files/188670.got.cif
#   From: 2010.05.17/outbox.cif.g08.bks.cpg/sg2_95_cif.got.tgz:188670.got - 2010.06.03 11:33:40.
