data_PCOD9086737
_publ_section_title
;
Structure prediction by ZEFSAII (Michael W. Deem and Ramdas Pophale) SiO2 
 PCOD9086737
Probable space group: P -1
;
_chemical_formula_sum "Si O2"
_cell_formula_units_Z 14
_cell_length_a 5.400286
_cell_length_b 25.914024
_cell_length_c 8.849845
_cell_angle_alpha 142.952851
_cell_angle_beta 64.525484
_cell_angle_gamma 115.618599
_cell_volume 664.505693
_symmetry_space_group_name_H-M "P -1"
_symmetry_group_IT_number 2
_symmetry_cell_setting 'triclinic'
loop_
_space_group_symop_operation_xyz
x,y,z
-x,-y,-z
loop_
_atom_site_type_symbol
_atom_site_label
_atom_site_fract_x
_atom_site_fract_y
_atom_site_fract_z
Si Si1 0.574916 0.385711 0.570916
Si Si2 0.767222 0.028553 0.309802
Si Si3 0.211117 0.933786 0.274628
Si Si4 0.092509 0.443757 0.982147
Si Si5 0.733844 0.442768 0.351443
Si Si6 0.279674 0.777757 0.713157
Si Si7 0.928872 0.858256 0.765610
O O1 0.703320 0.484969 0.807141
O O2 0.595826 0.376487 0.363003
O O3 0.748772 0.321079 0.457604
O O4 0.270144 0.377058 0.704786
O O5 0.705793 0.072140 0.585117
O O6 0.939846 0.098003 0.318967
O O7 0.464470 0.984748 0.228179
O O8 0.914776 0.942491 0.074649
O O9 0.141102 0.836980 0.006007
O O10 0.000000 0.000000 0.500000
O O11 0.850820 0.408880 0.084470
O O12 0.000000 0.500000 0.000000
O O13 0.500000 0.500000 0.500000
O O14 0.000000 0.500000 0.500000
O O15 0.133035 0.798977 0.647059
O O16 0.612992 0.811496 0.712520
#
# Coordination Sequence:
#
# PCOD9086737 Si02
#       7
#     2   2   2   2   2   2   2
#     4  10  23  40  60  90 127 158 201 258 305 362
#     4   9  20  36  60  85 113 161 205 246 287 364
#     4  10  19  36  60  85 119 158 202 242 301 357
#     4  10  20  39  67  88 118 165 205 244 302 371
#     4  10  20  37  63  91 114 154 201 240 295 366
#     4  11  24  39  58  87 123 156 194 255 307 347
#     4  10  22  38  60  86 117 157 203 245 300 354
#
# _framework density 21.068293000000001
#
# number of rings (size 3 to 8) (size 9 to 14) (size 15 to 20)
#    0.000    2.000    2.857    0.000    4.000    1.714 
#    2.571    0.000    0.000    0.000    0.000    0.000 
#    0.000    0.000    0.000    0.000    0.000    0.000 
#
# Total GULP energy -77960.903954 kJ/mol
# GULP energy per Si atom -5568.635997 kJ/mol
# Density = 2.102034 g / cm^3
# Si number density = 21.068293 Si / 1000 Ang^3
#
#
#
# Elastic Constant Matrix: (Units=GPa)
#
#
# Indices 1 2 3 4 5 6 
#
# 1 80.5511 21.4486 17.1008 4.1623 -21.3293 -17.6964
# 2 21.4486 97.4883 48.7046 -14.7771 -19.6821 -9.2539
# 3 17.1008 48.7046 75.4177 -10.4330 -27.2155 6.1108
# 4 4.1623 -14.7771 -10.4330 40.5804 -3.1696 -9.0721
# 5 -21.3293 -19.6821 -27.2155 -3.1696 36.3885 9.5548
# 6 -17.6964 -9.2539 6.1108 -9.0721 9.5548 23.0718
#
#
#
# Elastic Compliance Matrix: (Units=1/GPa)
#
#
# Indices 1 2 3 4 5 6 
#
# 1 0.016898 -0.000028 -0.003145 0.000510 0.004387 0.012167
# 2 -0.000028 0.018859 -0.013803 0.006443 -0.003573 0.015212
# 3 -0.003145 -0.013803 0.032919 -0.000314 0.022095 -0.025942
# 4 0.000510 0.006443 -0.000314 0.030153 0.002535 0.013866
# 5 0.004387 -0.003573 0.022095 0.002535 0.051201 -0.024128
# 6 0.012167 0.015212 -0.025942 0.013866 -0.024128 0.081092
#
#
# Mechanical properties :
#
#
# Convention : Reuss Voigt Hill
#
# Bulk Modulus (GPa) = 28.80061 47.55169 38.17615
# Shear Modulus (GPa) = 18.07335 31.08836 24.58086
#
# Velocity S-wave (km/s) = 2.93208 3.84552 3.41944
# Velocity P-wave (km/s) = 5.01623 6.50666 5.80944
#
# Compressibility (1/GPa) = 0.03472149
#
# Stress axis : x y z
#
# Youngs Moduli (GPa) = 59.17892 53.02450 30.37805
#
# Poissons Ratio (x) = 0.00150 0.09555
# Poissons Ratio (y) = 0.00168 0.41931
# Poissons Ratio (z) = 0.18615 0.73191
#
# Static dielectric constant tensor:
#      x y z
#    x 1.786630 -0.041950 0.015360 
#    y -0.041950 1.765240 -0.037090 
#    z 0.015360 -0.037090 1.800300 
# 
# From -- ./inp_files/35631.got.cif
#   From: 2010.05.17/outbox.cif.g08.bks.cpg/sg2_18_cif.got.tgz:35631.got - 2010.06.03 11:33:40.
