data_PCOD9086425
_publ_section_title
;
Structure prediction by ZEFSAII (Michael W. Deem and Ramdas Pophale) SiO2 
 PCOD9086425
Probable space group: P -1
;
_chemical_formula_sum "Si O2"
_cell_formula_units_Z 14
_cell_length_a 7.545898
_cell_length_b 9.084256
_cell_length_c 13.259782
_cell_angle_alpha 70.332788
_cell_angle_beta 100.507125
_cell_angle_gamma 115.190122
_cell_volume 773.704570
_symmetry_space_group_name_H-M "P -1"
_symmetry_group_IT_number 2
_symmetry_cell_setting 'triclinic'
loop_
_space_group_symop_operation_xyz
x,y,z
-x,-y,-z
loop_
_atom_site_type_symbol
_atom_site_label
_atom_site_fract_x
_atom_site_fract_y
_atom_site_fract_z
Si Si1 0.040113 0.411518 0.123028
Si Si2 0.296250 0.752341 0.729675
Si Si3 0.342157 0.337164 0.463815
Si Si4 0.347811 0.601519 0.246083
Si Si5 0.561296 0.136942 0.621127
Si Si6 0.069152 0.689075 0.509684
Si Si7 0.543475 0.542914 0.877892
O O1 0.136074 0.558647 0.184254
O O2 0.220397 0.357063 0.129852
O O3 0.853710 0.270380 0.188110
O O4 0.000000 0.500000 0.000000
O O5 0.171815 0.695137 0.626812
O O6 0.415338 0.638516 0.798497
O O7 0.447478 0.943757 0.683612
O O8 0.500000 0.500000 0.500000
O O9 0.330817 0.423838 0.337162
O O10 0.429387 0.194618 0.516055
O O11 0.127006 0.276437 0.503705
O O12 0.407410 0.745033 0.303245
O O13 0.488035 0.619807 0.160423
O O14 0.230688 0.815581 0.422527
O O15 0.000000 0.500000 0.500000
O O16 0.500000 0.500000 0.000000
#
# Coordination Sequence:
#
# PCOD9086425 Si02
#       7
#     2   2   2   2   2   2   2
#     4  10  20  39  64  86 107 155 208 244 289 352
#     4  12  23  38  61  90 124 148 195 255 294 335
#     4  10  19  36  58  84 119 160 199 227 279 363
#     4   9  19  39  59  81 118 157 196 236 285 350
#     4  11  24  37  56  94 123 156 190 244 299 338
#     4  12  21  36  61  88 121 163 201 225 280 368
#     4  10  21  38  64  86 107 152 208 242 290 355
#
# _framework density 18.094763
#
# number of rings (size 3 to 8) (size 9 to 14) (size 15 to 20)
#    0.857    0.571    5.714    1.286    2.000    1.714 
#    0.000    2.857    0.000    1.714    0.000    0.000 
#    0.000    0.000    0.000    0.000    0.000    0.000 
#
# Total GULP energy -77961.692200 kJ/mol
# GULP energy per Si atom -5568.692300 kJ/mol
# Density = 1.805358 g / cm^3
# Si number density = 18.094763 Si / 1000 Ang^3
#
#
#
# Elastic Constant Matrix: (Units=GPa)
#
#
# Indices 1 2 3 4 5 6 
#
# 1 133.6399 22.2128 39.2798 -3.4424 -18.9185 19.7106
# 2 22.2128 55.0030 43.2409 -1.4789 -9.2122 17.7896
# 3 39.2798 43.2409 119.3829 12.0421 -12.1071 16.9532
# 4 -3.4424 -1.4789 12.0421 21.4954 3.5943 -5.9782
# 5 -18.9185 -9.2122 -12.1071 3.5943 43.5312 -0.2599
# 6 19.7106 17.7896 16.9532 -5.9782 -0.2599 19.2132
#
#
#
# Elastic Compliance Matrix: (Units=1/GPa)
#
#
# Indices 1 2 3 4 5 6 
#
# 1 0.009803 0.001309 -0.001820 -0.000730 0.004033 -0.009835
# 2 0.001309 0.033011 -0.008296 -0.000604 0.005150 -0.024706
# 3 -0.001820 -0.008296 0.014228 -0.010993 0.002280 -0.006396
# 4 -0.000730 -0.000604 -0.010993 0.062365 -0.008471 0.030299
# 5 0.004033 0.005150 0.002280 -0.008471 0.027069 -0.013187
# 6 -0.009835 -0.024706 -0.006396 0.030299 -0.013187 0.099906
#
#
# Mechanical properties :
#
#
# Convention : Reuss Voigt Hill
#
# Bulk Modulus (GPa) = 25.36258 57.49920 41.43089
# Shear Modulus (GPa) = 18.04149 30.40079 24.22114
#
# Velocity S-wave (km/s) = 3.16104 4.10333 3.66262
# Velocity P-wave (km/s) = 5.23163 7.36855 6.39005
#
# Compressibility (1/GPa) = 0.03942816
#
# Stress axis : x y z
#
# Youngs Moduli (GPa) = 102.01080 30.29299 70.28153
#
# Poissons Ratio (x) = -0.03965 0.12793
# Poissons Ratio (y) = -0.13351 0.58303
# Poissons Ratio (z) = 0.18568 0.25130
#
# Static dielectric constant tensor:
#      x y z
#    x 1.697470 -0.007870 0.007800 
#    y -0.007870 1.622230 0.021700 
#    z 0.007800 0.021700 1.658250 
# 
# From -- ./inp_files/489297.got.cif
#   From: 2010.05.17/outbox.cif.g08.bks.cpg/sg2_245_cif.got.tgz:489297.got - 2010.06.03 11:33:40.
