data_PCOD9086335
_publ_section_title
;
Structure prediction by ZEFSAII (Michael W. Deem and Ramdas Pophale) SiO2 
 PCOD9086335
Probable space group: P -1
;
_chemical_formula_sum "Si O2"
_cell_formula_units_Z 16
_cell_length_a 12.107484
_cell_length_b 11.145440
_cell_length_c 8.593846
_cell_angle_alpha 120.741417
_cell_angle_beta 52.752599
_cell_angle_gamma 118.254689
_cell_volume 770.290339
_symmetry_space_group_name_H-M "P -1"
_symmetry_group_IT_number 2
_symmetry_cell_setting 'triclinic'
loop_
_space_group_symop_operation_xyz
x,y,z
-x,-y,-z
loop_
_atom_site_type_symbol
_atom_site_label
_atom_site_fract_x
_atom_site_fract_y
_atom_site_fract_z
Si Si1 0.554781 0.877870 0.777172
Si Si2 0.913058 0.657900 0.016960
Si Si3 0.733094 0.135131 0.671228
Si Si4 0.654240 0.337522 0.405819
Si Si5 0.496118 0.281774 0.974067
Si Si6 0.917727 0.337333 0.410393
Si Si7 0.149073 0.651256 0.028234
Si Si8 0.609153 0.601886 0.156172
O O1 0.443302 0.803982 0.689737
O O2 0.568665 0.769319 0.834440
O O3 0.697560 0.966805 0.627530
O O4 0.500000 0.000000 0.000000
O O5 0.751616 0.668200 0.173612
O O6 0.025905 0.712308 0.092065
O O7 0.913563 0.487625 0.906997
O O8 0.977539 0.713991 0.833688
O O9 0.864391 0.218966 0.510839
O O10 0.756967 0.221590 0.869829
O O11 0.586311 0.171955 0.760488
O O12 0.771948 0.333672 0.434839
O O13 0.535186 0.407066 0.629770
O O14 0.754543 0.404546 0.219864
O O15 0.605506 0.437843 0.005519
O O16 0.394290 0.310619 0.942438
O O17 0.000000 0.500000 0.500000
#
# Coordination Sequence:
#
# PCOD9086335 Si02
#       8
#     2   2   2   2   2   2   2   2
#     4  10  21  39  60  88 121 159 203 255 288 347
#     4  10  21  35  56  86 123 158 189 247 299 356
#     4  11  19  40  62  86 121 157 208 248 292 350
#     4  11  22  35  62  98 116 157 197 252 304 356
#     4  10  20  36  58  87 121 159 189 250 311 345
#     4  11  21  36  59  93 121 152 208 245 301 351
#     4  10  19  36  57  88 119 153 203 239 298 348
#     4  11  21  37  60  90 130 148 194 253 311 361
#
# _framework density 20.771388000000002
#
# number of rings (size 3 to 8) (size 9 to 14) (size 15 to 20)
#    0.000    1.500    6.250    0.000    1.750    2.500 
#    0.000    1.250    0.000    4.500    0.000    0.000 
#    0.000    0.000    0.000    0.000    0.000    0.000 
#
# Total GULP energy -89080.607609 kJ/mol
# GULP energy per Si atom -5567.537976 kJ/mol
# Density = 2.072411 g / cm^3
# Si number density = 20.771388 Si / 1000 Ang^3
#
#
#
# Elastic Constant Matrix: (Units=GPa)
#
#
# Indices 1 2 3 4 5 6 
#
# 1 107.6726 33.9842 23.8035 -9.9696 3.5591 3.0280
# 2 33.9842 101.3170 16.0465 -30.1078 15.1551 -4.1152
# 3 23.8035 16.0465 53.4553 -23.8380 0.4491 -2.4182
# 4 -9.9696 -30.1078 -23.8380 38.1637 2.0774 5.1178
# 5 3.5591 15.1551 0.4491 2.0774 28.8252 -3.5913
# 6 3.0280 -4.1152 -2.4182 5.1178 -3.5913 24.0271
#
#
#
# Elastic Compliance Matrix: (Units=1/GPa)
#
#
# Indices 1 2 3 4 5 6 
#
# 1 0.011559 -0.004300 -0.005582 -0.003666 0.000956 -0.001831
# 2 -0.004300 0.016494 0.003580 0.014743 -0.009360 -0.000812
# 3 -0.005582 0.003580 0.028880 0.019631 -0.003111 -0.000423
# 4 -0.003666 0.014743 0.019631 0.050836 -0.012227 -0.007693
# 5 0.000956 -0.009360 -0.003111 -0.012227 0.041264 0.006735
# 6 -0.001831 -0.000812 -0.000423 -0.007693 0.006735 0.044314
#
#
# Mechanical properties :
#
#
# Convention : Reuss Voigt Hill
#
# Bulk Modulus (GPa) = 22.55874 45.56813 34.06344
# Shear Modulus (GPa) = 22.65255 30.77724 26.71490
#
# Velocity S-wave (km/s) = 3.30595 3.85348 3.59017
# Velocity P-wave (km/s) = 5.04544 6.46410 5.79832
#
# Compressibility (1/GPa) = 0.04432872
#
# Stress axis : x y z
#
# Youngs Moduli (GPa) = 86.51199 60.62945 34.62654
#
# Poissons Ratio (x) = 0.26070 0.19329
# Poissons Ratio (y) = 0.37200 -0.12397
# Poissons Ratio (z) = 0.48292 -0.21707
#
# Static dielectric constant tensor:
#      x y z
#    x 1.784160 0.000950 0.010280 
#    y 0.000950 1.775260 -0.056260 
#    z 0.010280 -0.056260 1.785160 
# 
# From -- ./inp_files/259860.got.cif
#   From: 2010.05.17/outbox.cif.g08.bks.cpg/sg2_130_cif.got.tgz:259860.got - 2010.06.03 11:33:40.
