data_PCOD9086572
_publ_section_title
;
Structure prediction by ZEFSAII (Michael W. Deem and Ramdas Pophale) SiO2 
 PCOD9086572
Probable space group: P -1
;
_chemical_formula_sum "Si O2"
_cell_formula_units_Z 14
_cell_length_a 14.910725
_cell_length_b 9.500643
_cell_length_c 7.854077
_cell_angle_alpha 104.804122
_cell_angle_beta 53.472980
_cell_angle_gamma 139.510735
_cell_volume 537.490384
_symmetry_space_group_name_H-M "P -1"
_symmetry_group_IT_number 2
_symmetry_cell_setting 'triclinic'
loop_
_space_group_symop_operation_xyz
x,y,z
-x,-y,-z
loop_
_atom_site_type_symbol
_atom_site_label
_atom_site_fract_x
_atom_site_fract_y
_atom_site_fract_z
Si Si1 0.019890 0.524951 0.285109
Si Si2 0.240452 0.157262 0.382354
Si Si3 0.688014 0.755921 0.291389
Si Si4 0.841584 0.623913 0.072114
Si Si5 0.539860 0.895615 0.527118
Si Si6 0.634560 0.005788 0.829090
Si Si7 0.908424 0.709101 0.393753
O O1 0.215855 0.801454 0.140504
O O2 0.000000 0.500000 0.500000
O O3 0.884919 0.511307 0.368930
O O4 0.048440 0.393271 0.143058
O O5 0.207571 0.109707 0.607395
O O6 0.252744 0.343098 0.396039
O O7 0.396136 0.199409 0.177506
O O8 0.067583 0.921830 0.403731
O O9 0.500000 0.500000 0.500000
O O10 0.784613 0.718706 0.078774
O O11 0.634964 0.858516 0.307810
O O12 0.650811 0.359198 0.265070
O O13 0.947586 0.771474 0.170087
O O14 0.500000 0.000000 0.500000
O O15 0.662239 0.045121 0.604005
O O16 0.500000 0.000000 0.000000
#
# Coordination Sequence:
#
# PCOD9086572 Si02
#       7
#     2   2   2   2   2   2   2
#     4  11  23  36  56  82 118 154 193 240 283 343
#     4   8  16  32  57  80 109 150 189 230 287 344
#     4   8  16  32  57  84 114 150 188 235 291 344
#     4  10  19  36  59  84 113 154 195 232 288 349
#     4  10  20  34  59  87 115 143 189 246 292 339
#     4  10  19  37  57  78 111 153 191 233 292 341
#     4   9  18  34  56  81 110 148 192 230 286 344
#
# _framework density 26.046976999999998
#
# number of rings (size 3 to 8) (size 9 to 14) (size 15 to 20)
#    0.000    2.571    1.429    0.429    2.000    0.000 
#    0.000    1.429    3.143   13.714    0.000    0.000 
#    0.000    0.000    0.000    0.000    0.000    0.000 
#
# Total GULP energy -77986.660421 kJ/mol
# GULP energy per Si atom -5570.475744 kJ/mol
# Density = 2.598769 g / cm^3
# Si number density = 26.046977 Si / 1000 Ang^3
#
#
#
# Elastic Constant Matrix: (Units=GPa)
#
#
# Indices 1 2 3 4 5 6 
#
# 1 151.3479 65.7923 54.0537 42.5964 -45.2516 -49.9633
# 2 65.7923 112.9811 56.2708 29.2384 -25.7184 -17.8753
# 3 54.0537 56.2708 112.2587 54.3393 -51.3617 -46.5975
# 4 42.5964 29.2384 54.3393 53.9711 -20.2716 -19.9144
# 5 -45.2516 -25.7184 -51.3617 -20.2716 54.8140 44.4343
# 6 -49.9633 -17.8753 -46.5975 -19.9144 44.4343 73.5860
#
#
#
# Elastic Compliance Matrix: (Units=1/GPa)
#
#
# Indices 1 2 3 4 5 6 
#
# 1 0.013172 -0.006135 0.005979 -0.008890 0.006170 0.005108
# 2 -0.006135 0.014790 -0.008395 0.003209 -0.001440 -0.004151
# 3 0.005979 -0.008395 0.032300 -0.023967 0.018489 0.004823
# 4 -0.008890 0.003209 -0.023967 0.043137 -0.010259 -0.002565
# 5 0.006170 -0.001440 0.018489 -0.010259 0.050615 -0.017793
# 6 0.005108 -0.004151 0.004823 -0.002565 -0.017793 0.029154
#
#
# Mechanical properties :
#
#
# Convention : Reuss Voigt Hill
#
# Bulk Modulus (GPa) = 23.16945 80.98013 52.07479
# Shear Modulus (GPa) = 23.29321 49.83896 36.56609
#
# Velocity S-wave (km/s) = 2.99369 4.37902 3.75087
# Velocity P-wave (km/s) = 4.56773 7.53162 6.22854
#
# Compressibility (1/GPa) = 0.04316027
#
# Stress axis : x y z
#
# Youngs Moduli (GPa) = 75.91997 67.61515 30.96013
#
# Poissons Ratio (x) = 0.41482 -0.18512
# Poissons Ratio (y) = 0.46577 0.25990
# Poissons Ratio (z) = -0.45394 0.56760
#
# Static dielectric constant tensor:
#      x y z
#    x 2.112300 0.000340 -0.076350 
#    y 0.000340 2.333150 -0.103750 
#    z -0.076350 -0.103750 2.111730 
# 
# From -- ./inp_files/178874.got.cif
#   From: 2010.05.17/outbox.cif.g08.bks.cpg/sg2_90_cif.got.tgz:178874.got - 2010.06.03 11:33:40.
