data_PCOD9086554
_publ_section_title
;
Structure prediction by ZEFSAII (Michael W. Deem and Ramdas Pophale) SiO2 
 PCOD9086554
Probable space group: P -1
;
_chemical_formula_sum "Si O2"
_cell_formula_units_Z 12
_cell_length_a 7.877237
_cell_length_b 9.200994
_cell_length_c 7.529621
_cell_angle_alpha 115.159431
_cell_angle_beta 88.889724
_cell_angle_gamma 110.475787
_cell_volume 457.336659
_symmetry_space_group_name_H-M "P -1"
_symmetry_group_IT_number 2
_symmetry_cell_setting 'triclinic'
loop_
_space_group_symop_operation_xyz
x,y,z
-x,-y,-z
loop_
_atom_site_type_symbol
_atom_site_label
_atom_site_fract_x
_atom_site_fract_y
_atom_site_fract_z
Si Si1 0.393943 0.584757 0.249591
Si Si2 0.813587 0.819195 0.449493
Si Si3 0.833063 0.490119 0.125740
Si Si4 0.286629 0.880616 0.412457
Si Si5 0.812586 0.148825 0.014282
Si Si6 0.785934 0.802536 0.859110
O O1 0.599564 0.705349 0.350657
O O2 0.272545 0.691992 0.381790
O O3 0.348579 0.394704 0.228388
O O4 0.338295 0.553165 0.026888
O O5 0.892695 0.679800 0.305617
O O6 0.832890 0.837164 0.669326
O O7 0.834339 0.007584 0.465880
O O8 0.795235 0.326124 0.172139
O O9 0.000000 0.500000 0.000000
O O10 0.258844 0.866565 0.193148
O O11 0.500000 0.000000 0.500000
O O12 0.721504 0.957263 0.003051
O O13 0.028785 0.182241 0.035274
#
# Coordination Sequence:
#
# PCOD9086554 Si02
#       6
#     2   2   2   2   2   2
#     4  10  19  37  61  83 115 150 184 235 288 336
#     4  10  21  36  58  88 113 149 193 230 281 344
#     4  11  21  38  58  81 114 153 194 236 280 327
#     4   8  17  34  57  84 115 147 187 231 278 336
#     4   9  19  35  56  80 118 151 178 235 290 328
#     4  10  19  36  59  82 116 150 185 231 292 337
#
# _framework density 26.238878
#
# number of rings (size 3 to 8) (size 9 to 14) (size 15 to 20)
#    0.000    2.333    1.667    1.000    0.000    0.667 
#    0.000   10.000    0.000    0.000    0.000    0.000 
#    0.000    0.000    0.000    0.000    0.000    0.000 
#
# Total GULP energy -67045.430162 kJ/mol
# GULP energy per Si atom -5587.119180 kJ/mol
# Density = 2.617916 g / cm^3
# Si number density = 26.238878 Si / 1000 Ang^3
#
#
#
# Elastic Constant Matrix: (Units=GPa)
#
#
# Indices 1 2 3 4 5 6 
#
# 1 50.4373 9.8877 26.3347 9.2542 -16.8962 -34.6497
# 2 9.8877 206.8542 50.6224 69.6015 -32.8441 -32.7235
# 3 26.3347 50.6224 126.6709 25.4015 11.1965 -12.3600
# 4 9.2542 69.6015 25.4015 63.7162 -17.8100 -6.7992
# 5 -16.8962 -32.8441 11.1965 -17.8100 49.8995 12.3263
# 6 -34.6497 -32.7235 -12.3600 -6.7992 12.3263 30.2339
#
#
#
# Elastic Compliance Matrix: (Units=1/GPa)
#
#
# Indices 1 2 3 4 5 6 
#
# 1 -2.225565 -0.662040 0.391802 0.473737 -0.408089 -2.834089
# 2 -0.662040 -0.187489 0.114979 0.132484 -0.119548 -0.836124
# 3 0.391802 0.114979 -0.058907 -0.086813 0.066373 0.502809
# 4 0.473737 0.132484 -0.086813 -0.073439 0.093616 0.596149
# 5 -0.408089 -0.119548 0.066373 0.093616 -0.047501 -0.529531
# 6 -2.834089 -0.836124 0.502809 0.596149 -0.529531 -3.564414
#
#
# Mechanical properties :
#
#
# Convention : Reuss Voigt Hill
#
# Bulk Modulus (GPa) = -0.35939 61.96132 30.80097
# Shear Modulus (GPa) = -0.73808 48.57776 23.91984
#
# Velocity S-wave (km/s) = -0.53095 4.30742 3.02258
# Velocity P-wave (km/s) = 0.71634 6.95730 4.89341
#
# Compressibility (1/GPa) = -2.78247718
#
# Stress axis : x y z
#
# Youngs Moduli (GPa) = -0.44932 -5.33364 -16.97594
#
# Poissons Ratio (x) = -3.53108 6.65121
# Poissons Ratio (y) = -0.29747 1.95188
# Poissons Ratio (z) = 0.17605 0.61326
#
# Static dielectric constant tensor:
#      x y z
#    x 2.206130 0.009570 -0.072700 
#    y 0.009570 2.192300 0.105310 
#    z -0.072700 0.105310 2.042330 
# 
# From -- ./inp_files/145007.got.cif
#   From: 2010.05.17/outbox.cif.g08.bks.cpg/sg2_73_cif.got.tgz:145007.got - 2010.06.03 11:33:40.
