data_PCOD9086900
_publ_section_title
;
Structure prediction by ZEFSAII (Michael W. Deem and Ramdas Pophale) SiO2 
 PCOD9086900
Probable space group: P -1
;
_chemical_formula_sum "Si O2"
_cell_formula_units_Z 14
_cell_length_a 8.238642
_cell_length_b 15.465929
_cell_length_c 8.899876
_cell_angle_alpha 68.426676
_cell_angle_beta 64.612885
_cell_angle_gamma 36.700792
_cell_volume 611.674292
_symmetry_space_group_name_H-M "P -1"
_symmetry_group_IT_number 2
_symmetry_cell_setting 'triclinic'
loop_
_space_group_symop_operation_xyz
x,y,z
-x,-y,-z
loop_
_atom_site_type_symbol
_atom_site_label
_atom_site_fract_x
_atom_site_fract_y
_atom_site_fract_z
Si Si1 0.448204 0.779655 0.721668
Si Si2 0.873761 0.649070 0.138197
Si Si3 0.568512 0.531793 0.806647
Si Si4 0.158774 0.683586 0.413390
Si Si5 0.052667 0.058597 0.564127
Si Si6 0.009507 0.390963 0.211419
Si Si7 0.612372 0.849714 0.360222
O O1 0.384082 0.697589 0.770298
O O2 0.668816 0.707375 0.813158
O O3 0.600769 0.760811 0.524568
O O4 0.176889 0.952959 0.724499
O O5 0.636318 0.805749 0.208448
O O6 0.117853 0.554954 0.227457
O O7 0.830122 0.557302 0.184096
O O8 0.982242 0.646763 0.938864
O O9 0.599935 0.456229 0.695600
O O10 0.500000 0.500000 0.000000
O O11 0.190953 0.774070 0.407432
O O12 0.086688 0.642528 0.603049
O O13 0.881093 0.799433 0.342446
O O14 0.316329 0.012370 0.419283
O O15 0.000000 0.000000 0.500000
#
# Coordination Sequence:
#
# PCOD9086900 Si02
#       7
#     2   2   2   2   2   2   2
#     4   8  18  35  57  76 109 146 179 221 275 324
#     4   9  17  33  54  88 110 139 177 240 264 319
#     4  10  20  36  56  82 113 143 182 225 279 327
#     4  10  19  36  61  81 104 152 186 223 266 334
#     4  10  21  37  55  83 114 143 185 224 276 330
#     4   9  17  31  58  85 108 135 194 222 271 317
#     4   8  17  34  61  74 109 144 188 215 270 320
#
# _framework density 22.887998
#
# number of rings (size 3 to 8) (size 9 to 14) (size 15 to 20)
#    0.857    2.000    0.000    1.286    0.000    4.571 
#    7.714    2.857    0.000    0.000    0.000    0.000 
#    0.000    0.000    0.000    0.000    0.000    0.000 
#
# Total GULP energy -78053.257022 kJ/mol
# GULP energy per Si atom -5575.232644 kJ/mol
# Density = 2.283590 g / cm^3
# Si number density = 22.887998 Si / 1000 Ang^3
#
#
#
# Elastic Constant Matrix: (Units=GPa)
#
#
# Indices 1 2 3 4 5 6 
#
# 1 56.3273 14.2900 3.8651 -0.5467 15.7125 8.4143
# 2 14.2900 85.2635 45.3305 2.3208 1.1126 28.2532
# 3 3.8651 45.3305 87.2587 6.7030 10.0808 24.9710
# 4 -0.5467 2.3208 6.7030 22.5616 9.5237 2.7137
# 5 15.7125 1.1126 10.0808 9.5237 30.8514 -2.2662
# 6 8.4143 28.2532 24.9710 2.7137 -2.2662 40.1001
#
#
#
# Elastic Compliance Matrix: (Units=1/GPa)
#
#
# Indices 1 2 3 4 5 6 
#
# 1 0.024021 -0.004218 0.004168 0.007326 -0.016151 -0.006073
# 2 -0.004218 0.019099 -0.008029 -0.000338 0.003648 -0.007342
# 3 0.004168 -0.008029 0.018481 -0.000177 -0.008345 -0.007185
# 4 0.007326 -0.000338 -0.000177 0.054094 -0.020802 -0.006025
# 5 -0.016151 0.003648 -0.008345 -0.020802 0.050411 0.010272
# 6 -0.006073 -0.007342 -0.007185 -0.006025 0.010272 0.036848
#
#
# Mechanical properties :
#
#
# Convention : Reuss Voigt Hill
#
# Bulk Modulus (GPa) = 22.00610 39.53564 30.77087
# Shear Modulus (GPa) = 21.34400 29.72688 25.53544
#
# Velocity S-wave (km/s) = 3.05707 3.60779 3.34379
# Velocity P-wave (km/s) = 4.70068 5.88778 5.32740
#
# Compressibility (1/GPa) = 0.04544195
#
# Stress axis : x y z
#
# Youngs Moduli (GPa) = 41.62986 52.35997 54.11081
#
# Poissons Ratio (x) = 0.22088 -0.22556
# Poissons Ratio (y) = 0.17561 0.43446
# Poissons Ratio (z) = -0.17353 0.42041
#
# Static dielectric constant tensor:
#      x y z
#    x 1.974720 -0.028590 0.018610 
#    y -0.028590 1.902330 0.012350 
#    z 0.018610 0.012350 1.821690 
# 
# From -- ./inp_files/200720.got.cif
#   From: 2010.05.17/outbox.cif.g08.bks.cpg/sg2_101_cif.got.tgz:200720.got - 2010.06.03 11:33:40.
