data_PCOD9086086
_publ_section_title
;
Structure prediction by ZEFSAII (Michael W. Deem and Ramdas Pophale) SiO2 
 PCOD9086086
Probable space group: P -1
;
_chemical_formula_sum "Si O2"
_cell_formula_units_Z 7
_cell_length_a 9.145306
_cell_length_b 8.697378
_cell_length_c 6.697404
_cell_angle_alpha 51.147648
_cell_angle_beta 52.466020
_cell_angle_gamma 45.583807
_cell_volume 282.111623
_symmetry_space_group_name_H-M "P -1"
_symmetry_group_IT_number 2
_symmetry_cell_setting 'triclinic'
loop_
_space_group_symop_operation_xyz
x,y,z
-x,-y,-z
loop_
_atom_site_type_symbol
_atom_site_label
_atom_site_fract_x
_atom_site_fract_y
_atom_site_fract_z
Si Si1 0.724224 0.113022 0.361571
Si Si2 0.000000 0.000000 0.500000
Si Si3 0.748915 0.471296 0.552267
Si Si4 0.047975 0.244631 0.867909
O O1 0.804549 0.943679 0.618326
O O2 0.501280 0.342733 0.364012
O O3 0.771719 0.972601 0.232437
O O4 0.932436 0.153517 0.187233
O O5 0.801099 0.247870 0.571512
O O6 0.853546 0.609497 0.256230
O O7 0.860681 0.391214 0.742704
#
# Coordination Sequence:
#
# PCOD9086086 Si02
#       4
#     2   1   2   2
#     4  10  19  36  54  75 104 134 166 213 253 293
#     4  10  22  34  50  78 108 134 170 202 250 314
#     4  10  19  36  54  75 104 134 166 213 253 293
#     4   9  20  34  56  79  96 130 180 207 246 306
#
# _framework density 24.812873
#
# number of rings (size 3 to 8) (size 9 to 14) (size 15 to 20)
#    0.000    2.286    0.000    2.571    0.000    1.143 
#    0.000    2.857    0.000    0.000    0.000    0.000 
#    0.000    0.000    0.000    0.000    0.000    0.000 
#
# Total GULP energy -38973.985359 kJ/mol
# GULP energy per Si atom -5567.712194 kJ/mol
# Density = 2.475640 g / cm^3
# Si number density = 24.812873 Si / 1000 Ang^3
#
#
#
# Elastic Constant Matrix: (Units=GPa)
#
#
# Indices 1 2 3 4 5 6 
#
# 1 53.1370 51.3118 36.6050 12.9913 9.5489 -0.0494
# 2 51.3118 213.6334 54.5445 39.7335 -10.3769 -38.2977
# 3 36.6050 54.5445 89.4098 -18.4985 -0.7854 4.0713
# 4 12.9913 39.7335 -18.4985 39.1572 0.0136 -9.0193
# 5 9.5489 -10.3769 -0.7854 0.0136 32.7665 -6.0057
# 6 -0.0494 -38.2977 4.0713 -9.0193 -6.0057 42.1058
#
#
#
# Elastic Compliance Matrix: (Units=1/GPa)
#
#
# Indices 1 2 3 4 5 6 
#
# 1 0.045287 -0.003458 -0.021029 -0.023379 -0.016326 -0.008395
# 2 -0.003458 0.012837 -0.009744 -0.014049 0.006783 0.010572
# 3 -0.021029 -0.009744 0.032410 0.031032 0.002897 -0.004961
# 4 -0.023379 -0.014049 0.031032 0.061701 0.002677 -0.002208
# 5 -0.016326 0.006783 0.002897 0.002677 0.039713 0.012108
# 6 -0.008395 0.010572 -0.004961 -0.002208 0.012108 0.035090
#
#
# Mechanical properties :
#
#
# Convention : Reuss Voigt Hill
#
# Bulk Modulus (GPa) = 45.30765 71.23366 58.27065
# Shear Modulus (GPa) = 16.50942 37.05384 26.78163
#
# Velocity S-wave (km/s) = 2.58225 3.86856 3.28890
# Velocity P-wave (km/s) = 5.21441 6.98033 6.16097
#
# Compressibility (1/GPa) = 0.02207133
#
# Stress axis : x y z
#
# Youngs Moduli (GPa) = 22.08139 77.89944 30.85449
#
# Poissons Ratio (x) = 0.26937 0.64885
# Poissons Ratio (y) = 0.07635 0.30065
# Poissons Ratio (z) = 0.46436 0.75906
#
# Static dielectric constant tensor:
#      x y z
#    x 2.026220 -0.040320 0.030110 
#    y -0.040320 1.884770 -0.057730 
#    z 0.030110 -0.057730 2.139720 
# 
# From -- ./inp_files/15373.got.cif
#   From: 2010.05.17/outbox.cif.g08.bks.cpg/sg2_8_cif.got.tgz:15373.got - 2010.06.03 11:33:40.
