data_PCOD9086399
_publ_section_title
;
Structure prediction by ZEFSAII (Michael W. Deem and Ramdas Pophale) SiO2 
 PCOD9086399
Probable space group: P -1
;
_chemical_formula_sum "Si O2"
_cell_formula_units_Z 16
_cell_length_a 8.246983
_cell_length_b 21.347054
_cell_length_c 9.996144
_cell_angle_alpha 154.490109
_cell_angle_beta 105.420702
_cell_angle_gamma 74.251781
_cell_volume 728.510452
_symmetry_space_group_name_H-M "P -1"
_symmetry_group_IT_number 2
_symmetry_cell_setting 'triclinic'
loop_
_space_group_symop_operation_xyz
x,y,z
-x,-y,-z
loop_
_atom_site_type_symbol
_atom_site_label
_atom_site_fract_x
_atom_site_fract_y
_atom_site_fract_z
Si Si1 0.323456 0.233138 0.275664
Si Si2 0.827248 0.018512 0.914397
Si Si3 0.906994 0.711653 0.920768
Si Si4 0.680189 0.102973 0.313003
Si Si5 0.025351 0.048065 0.443434
Si Si6 0.566266 0.461953 0.654323
Si Si7 0.338028 0.278869 0.651624
Si Si8 0.253684 0.592938 0.673303
O O1 0.187656 0.232934 0.127464
O O2 0.463584 0.339512 0.466254
O O3 0.252964 0.301311 0.530305
O O4 0.370926 0.062834 0.990833
O O5 0.745780 0.862965 0.584559
O O6 0.876245 0.055997 0.845106
O O7 0.719688 0.115084 0.186351
O O8 0.000000 0.000000 0.000000
O O9 0.834933 0.558707 0.641476
O O10 0.107151 0.697423 0.908495
O O11 0.868163 0.814537 0.236378
O O12 0.851128 0.104568 0.441026
O O13 0.533853 0.221143 0.554697
O O14 0.000000 0.000000 0.500000
O O15 0.422289 0.566585 0.747634
O O16 0.685708 0.382103 0.415227
O O17 0.662482 0.571441 0.979160
#
# Coordination Sequence:
#
# PCOD9086399 Si02
#       8
#     2   2   2   2   2   2   2   2
#     4  10  20  36  56  84 116 154 188 247 284 342
#     4   9  20  36  57  82 114 155 188 232 294 347
#     4  10  19  36  58  82 115 153 195 236 297 341
#     4  10  21  40  60  87 120 160 190 239 299 349
#     4  11  20  36  59  86 116 150 197 242 286 342
#     4  10  20  37  60  85 114 148 198 241 289 343
#     4  11  21  39  62  83 117 157 202 231 297 352
#     4   9  20  37  58  81 115 153 186 242 301 349
#
# _framework density 21.962620999999999
#
# number of rings (size 3 to 8) (size 9 to 14) (size 15 to 20)
#    0.000    2.000    1.250    3.375    0.000    0.000 
#    4.500    1.250    0.000    0.000    0.000    0.000 
#    0.000    0.000    0.000    0.000    0.000    0.000 
#
# Total GULP energy -89194.632442 kJ/mol
# GULP energy per Si atom -5574.664528 kJ/mol
# Density = 2.191263 g / cm^3
# Si number density = 21.962621 Si / 1000 Ang^3
#
#
#
# Elastic Constant Matrix: (Units=GPa)
#
#
# Indices 1 2 3 4 5 6 
#
# 1 64.9105 17.9740 12.9229 -16.4906 -3.5085 1.5378
# 2 17.9740 78.2726 35.5111 -27.6293 -11.4058 14.7292
# 3 12.9229 35.5111 106.0323 -29.5511 3.4434 -4.1576
# 4 -16.4906 -27.6293 -29.5511 34.7816 -3.0447 -4.6302
# 5 -3.5085 -11.4058 3.4434 -3.0447 29.8014 -9.0239
# 6 1.5378 14.7292 -4.1576 -4.6302 -9.0239 35.0774
#
#
#
# Elastic Compliance Matrix: (Units=1/GPa)
#
#
# Indices 1 2 3 4 5 6 
#
# 1 0.017909 -0.001285 0.000570 0.008435 0.002923 0.001687
# 2 -0.001285 0.021860 -0.003925 0.013393 0.008317 -0.005681
# 3 0.000570 -0.003925 0.013376 0.009006 -0.000791 0.004194
# 4 0.008435 0.013393 0.009006 0.052776 0.012025 0.005134
# 5 0.002923 0.008317 -0.000791 0.012025 0.040948 0.008407
# 6 0.001687 -0.005681 0.004194 0.005134 0.008407 0.034157
#
#
# Mechanical properties :
#
#
# Convention : Reuss Voigt Hill
#
# Bulk Modulus (GPa) = 22.79732 42.44795 32.62264
# Shear Modulus (GPa) = 24.39863 32.11924 28.25894
#
# Velocity S-wave (km/s) = 3.33666 3.82835 3.59093
# Velocity P-wave (km/s) = 5.02464 6.23787 5.66383
#
# Compressibility (1/GPa) = 0.04386480
#
# Stress axis : x y z
#
# Youngs Moduli (GPa) = 55.83733 45.74584 74.75956
#
# Poissons Ratio (x) = 0.05879 -0.04259
# Poissons Ratio (y) = 0.07176 0.29341
# Poissons Ratio (z) = -0.03181 0.17954
#
# Static dielectric constant tensor:
#      x y z
#    x 1.847110 0.023960 0.001060 
#    y 0.023960 1.855150 0.002680 
#    z 0.001060 0.002680 1.816990 
# 
# From -- ./inp_files/222763.got.cif
#   From: 2010.05.17/outbox.cif.g08.bks.cpg/sg2_112_cif.got.tgz:222763.got - 2010.06.03 11:33:40.
