data_PCOD9086038
_publ_section_title
;
Structure prediction by ZEFSAII (Michael W. Deem and Ramdas Pophale) SiO2 
 PCOD9086038
Probable space group: P -1
;
_chemical_formula_sum "Si O2"
_cell_formula_units_Z 11
_cell_length_a 8.862970
_cell_length_b 5.388089
_cell_length_c 11.299179
_cell_angle_alpha 71.115649
_cell_angle_beta 52.827281
_cell_angle_gamma 68.629398
_cell_volume 396.477090
_symmetry_space_group_name_H-M "P -1"
_symmetry_group_IT_number 2
_symmetry_cell_setting 'triclinic'
loop_
_space_group_symop_operation_xyz
x,y,z
-x,-y,-z
loop_
_atom_site_type_symbol
_atom_site_label
_atom_site_fract_x
_atom_site_fract_y
_atom_site_fract_z
Si Si1 0.989902 0.373402 0.895104
Si Si2 0.435600 0.860970 0.170009
Si Si3 0.587474 0.319321 0.101846
Si Si4 0.000000 0.500000 0.500000
Si Si5 0.726941 0.880542 0.398495
Si Si6 0.964934 0.867713 0.673832
O O1 0.180241 0.215677 0.759648
O O2 0.902009 0.632731 0.815315
O O3 0.000000 0.500000 0.000000
O O4 0.818092 0.210577 0.997669
O O5 0.547997 0.556015 0.181327
O O6 0.479714 0.078361 0.208036
O O7 0.207133 0.864262 0.265962
O O8 0.500000 0.000000 0.000000
O O9 0.500000 0.500000 0.000000
O O10 0.183681 0.376668 0.522832
O O11 0.051700 0.229654 0.435563
O O12 0.500000 0.000000 0.500000
O O13 0.840212 0.100379 0.360562
#
# Coordination Sequence:
#
# PCOD9086038 Si02
#       6
#     2   2   2   1   2   2
#     4  11  25  43  68 108 151 193 248 321 389 466
#     4  10  19  35  69  99 136 180 239 309 376 448
#     4  10  19  38  63 103 137 185 240 301 383 452
#     4  10  26  46  76 104 138 202 258 318 378 462
#     4  11  26  51  74 107 152 202 260 318 388 467
#     4  11  23  46  73 102 150 194 259 317 388 465
#
# _framework density 27.744354000000001
#
# number of rings (size 3 to 8) (size 9 to 14) (size 15 to 20)
#    0.000    1.455    3.636    2.727    2.545    5.091 
#    6.545    0.000    0.000    0.000    0.000    0.000 
#    0.000    0.000    0.000    0.000    0.000    0.000 
#
# Total GULP energy -61371.618722 kJ/mol
# GULP energy per Si atom -5579.238066 kJ/mol
# Density = 2.768121 g / cm^3
# Si number density = 27.744354 Si / 1000 Ang^3
#
#
#
# Elastic Constant Matrix: (Units=GPa)
#
#
# Indices 1 2 3 4 5 6 
#
# 1 172.0784 43.8050 97.6511 36.8640 -30.9957 0.1985
# 2 43.8050 117.7052 30.3869 37.3949 -1.1383 15.6270
# 3 97.6511 30.3869 158.2562 44.9654 -17.3540 -9.0082
# 4 36.8640 37.3949 44.9654 51.4701 -7.6519 3.1839
# 5 -30.9957 -1.1383 -17.3540 -7.6519 66.4827 18.1370
# 6 0.1985 15.6270 -9.0082 3.1839 18.1370 66.4420
#
#
#
# Elastic Compliance Matrix: (Units=1/GPa)
#
#
# Indices 1 2 3 4 5 6 
#
# 1 0.010146 -0.002036 -0.005423 -0.000443 0.003567 -0.001239
# 2 -0.002036 0.011791 0.001072 -0.008046 -0.000847 -0.002005
# 3 -0.005423 0.001072 0.011521 -0.007204 -0.000851 0.001904
# 4 -0.000443 -0.008046 -0.007204 0.032220 0.001788 -0.001115
# 5 0.003567 -0.000847 -0.000851 0.001788 0.018019 -0.004931
# 6 -0.001239 -0.002005 0.001904 -0.001115 -0.004931 0.017184
#
#
# Mechanical properties :
#
#
# Convention : Reuss Voigt Hill
#
# Bulk Modulus (GPa) = 48.34858 87.96952 68.15905
# Shear Modulus (GPa) = 41.47619 55.29209 48.38414
#
# Velocity S-wave (km/s) = 3.87064 4.46905 4.18057
# Velocity P-wave (km/s) = 6.11883 7.64237 6.92264
#
# Compressibility (1/GPa) = 0.02068313
#
# Stress axis : x y z
#
# Youngs Moduli (GPa) = 98.56186 84.80811 86.79565
#
# Poissons Ratio (x) = 0.17269 0.47070
# Poissons Ratio (y) = 0.20069 -0.09301
# Poissons Ratio (z) = 0.53451 -0.09088
#
# Static dielectric constant tensor:
#      x y z
#    x 1.906540 -0.089220 0.119700 
#    y -0.089220 2.076560 0.142690 
#    z 0.119700 0.142690 2.163440 
# 
# From -- ./inp_files/88469.got.cif
#   From: 2010.05.17/outbox.cif.g08.bks.cpg/sg2_45_cif.got.tgz:88469.got - 2010.06.03 11:33:40.
