data_PCOD9086538
_publ_section_title
;
Structure prediction by ZEFSAII (Michael W. Deem and Ramdas Pophale) SiO2 
 PCOD9086538
Probable space group: P -1
;
_chemical_formula_sum "Si O2"
_cell_formula_units_Z 10
_cell_length_a 18.102389
_cell_length_b 7.262962
_cell_length_c 7.053014
_cell_angle_alpha 61.908060
_cell_angle_beta 101.660260
_cell_angle_gamma 47.377832
_cell_volume 359.120420
_symmetry_space_group_name_H-M "P -1"
_symmetry_group_IT_number 2
_symmetry_cell_setting 'triclinic'
loop_
_space_group_symop_operation_xyz
x,y,z
-x,-y,-z
loop_
_atom_site_type_symbol
_atom_site_label
_atom_site_fract_x
_atom_site_fract_y
_atom_site_fract_z
Si Si1 0.753225 0.240614 0.971708
Si Si2 0.193712 0.444560 0.096449
Si Si3 0.675325 0.013425 0.223231
Si Si4 0.576849 0.530451 0.400058
Si Si5 0.887439 0.974086 0.767127
O O1 0.761650 0.432051 0.999228
O O2 0.587100 0.597927 0.584840
O O3 0.880095 0.968738 0.995039
O O4 0.769426 0.989775 0.220064
O O5 0.228173 0.348685 0.389314
O O6 0.309396 0.967161 0.307266
O O7 0.993260 0.897300 0.764518
O O8 0.500000 0.500000 0.000000
O O9 0.601734 0.069778 0.979795
O O10 0.694831 0.398154 0.407172
O O11 0.000000 0.500000 0.000000
#
# Coordination Sequence:
#
# PCOD9086538 Si02
#       5
#     2   2   2   2   2
#     4  10  20  35  61  77 108 148 178 214 278 317
#     4  10  19  36  59  80 108 142 180 222 267 318
#     4  10  21  36  55  84 111 137 184 227 258 319
#     4   8  19  35  55  78 113 140 175 221 266 317
#     4   8  17  35  58  77 108 144 175 221 270 317
#
# _framework density 27.845811999999999
#
# number of rings (size 3 to 8) (size 9 to 14) (size 15 to 20)
#    1.200    1.600    0.000    1.200    0.000    4.800 
#    0.000    4.000    0.000    8.400    0.000    0.000 
#    0.000    0.000    0.000    0.000    0.000    0.000 
#
# Total GULP energy -55832.213059 kJ/mol
# GULP energy per Si atom -5583.221306 kJ/mol
# Density = 2.778243 g / cm^3
# Si number density = 27.845812 Si / 1000 Ang^3
#
#
#
# Elastic Constant Matrix: (Units=GPa)
#
#
# Indices 1 2 3 4 5 6 
#
# 1 235.6132 32.2886 74.5766 -4.9073 -7.7808 13.0434
# 2 32.2886 82.9607 23.8383 -1.9779 -9.5785 -0.9644
# 3 74.5766 23.8383 59.2349 13.8659 7.8780 7.0430
# 4 -4.9073 -1.9779 13.8659 39.2787 4.7314 0.0930
# 5 -7.7808 -9.5785 7.8780 4.7314 41.6190 8.7712
# 6 13.0434 -0.9644 7.0430 0.0930 8.7712 32.3258
#
#
#
# Elastic Compliance Matrix: (Units=1/GPa)
#
#
# Indices 1 2 3 4 5 6 
#
# 1 0.008366 0.000841 -0.012349 0.004982 0.003894 -0.001731
# 2 0.000841 0.014785 -0.008475 0.003280 0.004648 0.000678
# 3 -0.012349 -0.008475 0.040895 -0.015202 -0.009970 -0.001431
# 4 0.004982 0.003280 -0.015202 0.031520 0.000747 0.001106
# 5 0.003894 0.004648 -0.009970 0.000747 0.029138 -0.007168
# 6 -0.001731 0.000678 -0.001431 0.001106 -0.007168 0.033907
#
#
# Mechanical properties :
#
#
# Convention : Reuss Voigt Hill
#
# Bulk Modulus (GPa) = 41.53061 71.02398 56.27729
# Shear Modulus (GPa) = 24.20079 39.11839 31.65959
#
# Velocity S-wave (km/s) = 2.95125 3.75216 3.37554
# Velocity P-wave (km/s) = 5.15364 6.65831 5.95370
#
# Compressibility (1/GPa) = 0.02407863
#
# Stress axis : x y z
#
# Youngs Moduli (GPa) = 119.53081 67.63771 24.45289
#
# Poissons Ratio (x) = -0.05686 0.30198
# Poissons Ratio (y) = -0.10048 0.20723
# Poissons Ratio (z) = 1.47613 0.57321
#
# Static dielectric constant tensor:
#      x y z
#    x 2.248660 0.038390 0.044850 
#    y 0.038390 2.277160 0.075320 
#    z 0.044850 0.075320 2.164430 
# 
# From -- ./inp_files/19653.got.cif
#   From: 2010.05.17/outbox.cif.g08.bks.cpg/sg2_10_cif.got.tgz:19653.got - 2010.06.03 11:33:40.
