data_PCOD9086677
_publ_section_title
;
Structure prediction by ZEFSAII (Michael W. Deem and Ramdas Pophale) SiO2 
 PCOD9086677
Probable space group: P -1
;
_chemical_formula_sum "Si O2"
_cell_formula_units_Z 13
_cell_length_a 6.958856
_cell_length_b 11.510797
_cell_length_c 12.859097
_cell_angle_alpha 60.061982
_cell_angle_beta 74.015965
_cell_angle_gamma 121.137207
_cell_volume 530.847897
_symmetry_space_group_name_H-M "P -1"
_symmetry_group_IT_number 2
_symmetry_cell_setting 'triclinic'
loop_
_space_group_symop_operation_xyz
x,y,z
-x,-y,-z
loop_
_atom_site_type_symbol
_atom_site_label
_atom_site_fract_x
_atom_site_fract_y
_atom_site_fract_z
Si Si1 0.345576 0.224205 0.048068
Si Si2 0.656011 0.609288 0.289772
Si Si3 0.636367 0.270659 0.180898
Si Si4 0.694931 0.385273 0.530169
Si Si5 0.743692 0.677908 0.700883
Si Si6 0.000000 0.000000 0.000000
Si Si7 0.256897 0.967788 0.654075
O O1 0.451418 0.174124 0.141825
O O2 0.039463 0.139279 0.181609
O O3 0.618908 0.480574 0.869874
O O4 0.254251 0.102506 0.010741
O O5 0.755018 0.556432 0.384763
O O6 0.593629 0.726914 0.294547
O O7 0.327522 0.391822 0.378174
O O8 0.922868 0.793006 0.086119
O O9 0.481105 0.313468 0.246140
O O10 0.654119 0.137751 0.292152
O O11 0.000000 0.500000 0.000000
O O12 0.000000 0.500000 0.500000
O O13 0.559721 0.214907 0.538623
O O14 0.094240 0.896195 0.596467
#
# Coordination Sequence:
#
# PCOD9086677 Si02
#       7
#     2   2   2   2   2   1   2
#     4  10  19  36  59  94 127 161 202 259 324 369
#     4  10  24  46  66  91 132 163 218 265 315 381
#     4  11  19  33  60  95 130 161 200 261 319 374
#     4  11  26  45  65  91 130 177 212 255 322 388
#     4  10  21  38  64  94 125 163 211 265 314 369
#     4  10  20  40  68  94 122 166 206 270 322 364
#     4  11  21  38  62  90 126 169 207 255 318 376
#
# _framework density 24.489125000000001
#
# number of rings (size 3 to 8) (size 9 to 14) (size 15 to 20)
#    0.000    1.538    4.615    0.923    2.154    3.077 
#    0.000    3.077    0.000    0.000    0.000    0.000 
#    0.000    0.000    0.000    0.000    0.000    0.000 
#
# Total GULP energy -72477.837963 kJ/mol
# GULP energy per Si atom -5575.218305 kJ/mol
# Density = 2.443339 g / cm^3
# Si number density = 24.489125 Si / 1000 Ang^3
#
#
#
# Elastic Constant Matrix: (Units=GPa)
#
#
# Indices 1 2 3 4 5 6 
#
# 1 156.7047 53.7800 32.3284 -12.1080 11.6029 18.4253
# 2 53.7800 165.7764 8.5360 -20.8779 -0.7206 29.6518
# 3 32.3284 8.5360 44.7672 -12.8828 -6.6694 5.5287
# 4 -12.1080 -20.8779 -12.8828 34.4356 3.5245 4.2477
# 5 11.6029 -0.7206 -6.6694 3.5245 19.2652 -2.8982
# 6 18.4253 29.6518 5.5287 4.2477 -2.8982 31.5648
#
#
#
# Elastic Compliance Matrix: (Units=1/GPa)
#
#
# Indices 1 2 3 4 5 6 
#
# 1 0.009766 -0.002141 -0.007389 0.000719 -0.009152 -0.003332
# 2 -0.002141 0.008974 0.002868 0.006813 0.000079 -0.008593
# 3 -0.007389 0.002868 0.032669 0.010533 0.013293 -0.004301
# 4 0.000719 0.006813 0.010533 0.039775 -0.006000 -0.014569
# 5 -0.009152 0.000079 0.013293 -0.006000 0.064578 0.009677
# 6 -0.003332 -0.008593 -0.004301 -0.014569 0.009677 0.045301
#
#
# Mechanical properties :
#
#
# Convention : Reuss Voigt Hill
#
# Bulk Modulus (GPa) = 26.25583 61.83746 44.04664
# Shear Modulus (GPa) = 22.01860 35.22673 28.62266
#
# Velocity S-wave (km/s) = 3.00178 3.79682 3.42247
# Velocity P-wave (km/s) = 4.77063 6.67285 5.80026
#
# Compressibility (1/GPa) = 0.03808678
#
# Stress axis : x y z
#
# Youngs Moduli (GPa) = 102.40090 111.42781 30.60973
#
# Poissons Ratio (x) = 0.23854 0.22617
# Poissons Ratio (y) = 0.21921 -0.08780
# Poissons Ratio (z) = 0.75663 -0.31962
#
# Static dielectric constant tensor:
#      x y z
#    x 1.901290 0.052830 0.057810 
#    y 0.052830 2.024020 -0.164590 
#    z 0.057810 -0.164590 1.273010 
# 
# From -- ./inp_files/35172.got.cif
#   From: 2010.05.17/outbox.cif.g08.bks.cpg/sg2_18_cif.got.tgz:35172.got - 2010.06.03 11:33:40.
