data_PCOD9086055
_publ_section_title
;
Structure prediction by ZEFSAII (Michael W. Deem and Ramdas Pophale) SiO2 
 PCOD9086055
Probable space group: P -1
;
_chemical_formula_sum "Si O2"
_cell_formula_units_Z 14
_cell_length_a 16.932898
_cell_length_b 10.402270
_cell_length_c 9.197840
_cell_angle_alpha 48.474337
_cell_angle_beta 122.874597
_cell_angle_gamma 147.081918
_cell_volume 658.769464
_symmetry_space_group_name_H-M "P -1"
_symmetry_group_IT_number 2
_symmetry_cell_setting 'triclinic'
loop_
_space_group_symop_operation_xyz
x,y,z
-x,-y,-z
loop_
_atom_site_type_symbol
_atom_site_label
_atom_site_fract_x
_atom_site_fract_y
_atom_site_fract_z
Si Si1 0.950714 0.162139 0.932521
Si Si2 0.580932 0.224116 0.242936
Si Si3 0.491723 0.351502 0.815744
Si Si4 0.393645 0.130160 0.564960
Si Si5 0.108765 0.271847 0.709153
Si Si6 0.635797 0.819685 0.909436
Si Si7 0.949406 0.359310 0.394665
O O1 0.043269 0.228700 0.835992
O O2 0.015052 0.436035 0.832178
O O3 0.782341 0.967106 0.870312
O O4 0.940639 0.992639 0.162572
O O5 0.718936 0.465445 0.297876
O O6 0.431000 0.087808 0.264150
O O7 0.577754 0.020865 0.352534
O O8 0.589525 0.354371 0.006023
O O9 0.465248 0.245941 0.708307
O O10 0.549193 0.626381 0.651334
O O11 0.345448 0.150701 0.918606
O O12 0.220685 0.910070 0.570231
O O13 0.040231 0.312686 0.500490
O O14 0.500000 0.500000 0.000000
O O15 0.000000 0.500000 0.500000
#
# Coordination Sequence:
#
# PCOD9086055 Si02
#       7
#     2   2   2   2   2   2   2
#     4  10  19  36  51  83 119 145 184 234 285 331
#     4  10  20  36  60  87 110 150 192 238 279 340
#     4   9  24  37  61  81 119 150 192 239 283 335
#     4  11  20  41  59  86 112 153 199 235 274 339
#     4  10  20  32  59  85 110 153 190 230 283 327
#     4  10  21  36  57  86 121 147 184 236 296 332
#     4  10  21  31  58  85 110 142 197 234 272 334
#
# _framework density 21.251743999999999
#
# number of rings (size 3 to 8) (size 9 to 14) (size 15 to 20)
#    0.857    1.143    4.286    0.429   10.000    0.000 
#    2.571    2.143    0.000    0.857    0.000    0.000 
#    0.000    0.000    0.000    0.000    0.000    0.000 
#
# Total GULP energy -78003.774794 kJ/mol
# GULP energy per Si atom -5571.698200 kJ/mol
# Density = 2.120337 g / cm^3
# Si number density = 21.251744 Si / 1000 Ang^3
#
#
#
# Elastic Constant Matrix: (Units=GPa)
#
#
# Indices 1 2 3 4 5 6 
#
# 1 26.9963 6.4599 32.2912 2.5278 16.8694 5.3622
# 2 6.4599 45.2933 32.6679 -6.3757 9.9188 10.3686
# 3 32.2912 32.6679 152.3647 -11.5715 36.8703 -18.8585
# 4 2.5278 -6.3757 -11.5715 26.9063 -0.7491 7.3883
# 5 16.8694 9.9188 36.8703 -0.7491 40.8839 -0.4739
# 6 5.3622 10.3686 -18.8585 7.3883 -0.4739 28.1071
#
#
#
# Elastic Compliance Matrix: (Units=1/GPa)
#
#
# Indices 1 2 3 4 5 6 
#
# 1 0.072403 0.012577 -0.017831 -0.003814 -0.017260 -0.029705
# 2 0.012577 0.037756 -0.012677 0.009766 -0.003056 -0.027452
# 3 -0.017831 -0.012677 0.016445 0.000430 -0.004170 0.018929
# 4 -0.003814 0.009766 0.000430 0.043889 -0.000543 -0.014133
# 5 -0.017260 -0.003056 -0.004170 -0.000543 0.036101 0.002373
# 6 -0.029705 -0.027452 0.018929 -0.014133 0.002373 0.067828
#
#
# Mechanical properties :
#
#
# Convention : Reuss Voigt Hill
#
# Bulk Modulus (GPa) = 11.02021 40.83246 25.92633
# Shear Modulus (GPa) = 14.68290 29.39515 22.03903
#
# Velocity S-wave (km/s) = 2.63136 3.72316 3.22381
# Velocity P-wave (km/s) = 3.79853 6.14312 5.10719
#
# Compressibility (1/GPa) = 0.09074237
#
# Stress axis : x y z
#
# Youngs Moduli (GPa) = 13.81153 26.48555 60.80913
#
# Poissons Ratio (x) = -0.33311 1.08428
# Poissons Ratio (y) = -0.17371 0.77089
# Poissons Ratio (z) = 0.24627 0.33576
#
# Static dielectric constant tensor:
#      x y z
#    x 1.838910 -0.010220 0.009970 
#    y -0.010220 1.731130 -0.013720 
#    z 0.009970 -0.013720 1.866970 
# 
# From -- ./inp_files/463507.got.cif
#   From: 2010.05.17/outbox.cif.g08.bks.cpg/sg2_232_cif.got.tgz:463507.got - 2010.06.03 11:33:40.
