data_PCOD9086485
_publ_section_title
;
Structure prediction by ZEFSAII (Michael W. Deem and Ramdas Pophale) SiO2 
 PCOD9086485
Probable space group: P -1
;
_chemical_formula_sum "Si O2"
_cell_formula_units_Z 16
_cell_length_a 10.285893
_cell_length_b 14.668010
_cell_length_c 11.017883
_cell_angle_alpha 30.205833
_cell_angle_beta 85.128708
_cell_angle_gamma 75.389209
_cell_volume 778.450121
_symmetry_space_group_name_H-M "P -1"
_symmetry_group_IT_number 2
_symmetry_cell_setting 'triclinic'
loop_
_space_group_symop_operation_xyz
x,y,z
-x,-y,-z
loop_
_atom_site_type_symbol
_atom_site_label
_atom_site_fract_x
_atom_site_fract_y
_atom_site_fract_z
Si Si1 0.637883 0.256349 0.393842
Si Si2 0.767417 0.986182 0.271947
Si Si3 0.046565 0.627772 0.255789
Si Si4 0.419845 0.662939 0.958852
Si Si5 0.258325 0.395877 0.335291
Si Si6 0.078351 0.946788 0.291591
Si Si7 0.490387 0.814181 0.282717
Si Si8 0.767437 0.203025 0.795846
O O1 0.566272 0.485333 0.173199
O O2 0.803997 0.168584 0.489943
O O3 0.587310 0.138374 0.635064
O O4 0.581981 0.242027 0.281121
O O5 0.734267 0.794214 0.518416
O O6 0.924330 0.960833 0.327958
O O7 0.648520 0.173626 0.123252
O O8 0.775202 0.016504 0.090921
O O9 0.105352 0.505584 0.271599
O O10 0.170484 0.680729 0.250848
O O11 0.000000 0.500000 0.500000
O O12 0.933845 0.832998 0.989103
O O13 0.314465 0.543683 0.092612
O O14 0.358390 0.326872 0.525312
O O15 0.132778 0.843221 0.276449
O O16 0.392668 0.721644 0.323088
O O17 0.500000 0.000000 0.000000
#
# Coordination Sequence:
#
# PCOD9086485 Si02
#       8
#     2   2   2   2   2   2   2   2
#     4   9  22  41  65  84 124 161 206 259 316 359
#     4  11  20  37  65  90 123 160 209 254 311 367
#     4  11  21  34  58  92 127 166 204 247 318 375
#     4  10  21  44  64  87 119 168 209 257 310 369
#     4  11  21  37  62  90 122 165 209 252 306 374
#     4  10  20  38  61  91 125 165 199 260 313 363
#     4  10  20  36  62  89 117 158 201 254 310 365
#     4  10  19  36  58  88 127 157 198 261 312 360
#
# _framework density 20.553661999999999
#
# number of rings (size 3 to 8) (size 9 to 14) (size 15 to 20)
#    0.000    1.750    3.750    3.000    1.750    1.000 
#    2.250    6.250   13.750    0.000    0.000    0.000 
#    0.000    0.000    0.000    0.000    0.000    0.000 
#
# Total GULP energy -89157.361340 kJ/mol
# GULP energy per Si atom -5572.335084 kJ/mol
# Density = 2.050688 g / cm^3
# Si number density = 20.553662 Si / 1000 Ang^3
#
#
#
# Elastic Constant Matrix: (Units=GPa)
#
#
# Indices 1 2 3 4 5 6 
#
# 1 68.7959 11.1443 37.6966 -10.2670 18.4804 -3.8683
# 2 11.1443 40.7853 22.9222 -9.2259 6.2081 -7.1293
# 3 37.6966 22.9222 76.7732 -0.8284 2.7829 2.9810
# 4 -10.2670 -9.2259 -0.8284 39.3929 -2.4774 4.3285
# 5 18.4804 6.2081 2.7829 -2.4774 41.7148 -3.8500
# 6 -3.8683 -7.1293 2.9810 4.3285 -3.8500 17.1254
#
#
#
# Elastic Compliance Matrix: (Units=1/GPa)
#
#
# Indices 1 2 3 4 5 6 
#
# 1 0.025154 0.004746 -0.013582 0.006067 -0.010008 0.006239
# 2 0.004746 0.035802 -0.013369 0.007355 -0.004682 0.015392
# 3 -0.013582 -0.013369 0.023853 -0.004697 0.005173 -0.010435
# 4 0.006067 0.007355 -0.004697 0.028736 -0.001989 -0.002460
# 5 -0.010008 -0.004682 0.005173 -0.001989 0.028812 0.001870
# 6 0.006239 0.015392 -0.010435 -0.002460 0.001870 0.069068
#
#
# Mechanical properties :
#
#
# Convention : Reuss Voigt Hill
#
# Bulk Modulus (GPa) = 24.75227 36.65340 30.70284
# Shear Modulus (GPa) = 18.56672 27.28605 22.92638
#
# Velocity S-wave (km/s) = 3.00880 3.64751 3.34344
# Velocity P-wave (km/s) = 4.91319 5.96748 5.46582
#
# Compressibility (1/GPa) = 0.04040033
#
# Stress axis : x y z
#
# Youngs Moduli (GPa) = 39.75573 27.93130 41.92395
#
# Poissons Ratio (x) = -0.13257 0.56941
# Poissons Ratio (y) = -0.18870 0.56046
# Poissons Ratio (z) = 0.53996 0.37340
#
# Static dielectric constant tensor:
#      x y z
#    x 1.799250 -0.003300 0.004220 
#    y -0.003300 1.745220 0.006030 
#    z 0.004220 0.006030 1.754140 
# 
# From -- ./inp_files/432292.got.cif
#   From: 2010.05.17/outbox.cif.g08.bks.cpg/sg2_217_cif.got.tgz:432292.got - 2010.06.03 11:33:40.
