data_PCOD9086315
_publ_section_title
;
Structure prediction by ZEFSAII (Michael W. Deem and Ramdas Pophale) SiO2 
 PCOD9086315
Probable space group: P -1
;
_chemical_formula_sum "Si O2"
_cell_formula_units_Z 16
_cell_length_a 9.401908
_cell_length_b 10.635570
_cell_length_c 11.358791
_cell_angle_alpha 50.511764
_cell_angle_beta 87.538727
_cell_angle_gamma 108.798604
_cell_volume 780.598353
_symmetry_space_group_name_H-M "P -1"
_symmetry_group_IT_number 2
_symmetry_cell_setting 'triclinic'
loop_
_space_group_symop_operation_xyz
x,y,z
-x,-y,-z
loop_
_atom_site_type_symbol
_atom_site_label
_atom_site_fract_x
_atom_site_fract_y
_atom_site_fract_z
Si Si1 0.182200 0.896407 0.259915
Si Si2 0.862092 0.309675 0.863864
Si Si3 0.435042 0.265890 0.727572
Si Si4 0.928271 0.997412 0.132816
Si Si5 0.454713 0.612789 0.603059
Si Si6 0.837113 0.313022 0.373212
Si Si7 0.637199 0.008008 0.403169
Si Si8 0.459399 0.914905 0.898516
O O1 0.142274 0.764531 0.225123
O O2 0.181187 0.789185 0.441230
O O3 0.052086 0.972212 0.227974
O O4 0.361122 0.055801 0.137041
O O5 0.991222 0.516725 0.744078
O O6 0.684244 0.264533 0.936954
O O7 0.909683 0.182312 0.023103
O O8 0.461444 0.422497 0.726931
O O9 0.547136 0.358825 0.555597
O O10 0.461532 0.091330 0.861170
O O11 0.247634 0.172690 0.753575
O O12 0.000000 0.000000 0.000000
O O13 0.297277 0.612958 0.663655
O O14 0.607795 0.798520 0.526474
O O15 0.796264 0.165182 0.358725
O O16 0.595672 0.057938 0.247230
O O17 0.500000 0.000000 0.500000
#
# Coordination Sequence:
#
# PCOD9086315 Si02
#       8
#     2   2   2   2   2   2   2   2
#     4  11  19  35  58  83 117 144 188 235 283 328
#     4  10  22  34  54  85 117 147 184 229 292 331
#     4   9  16  30  51  79 108 138 181 226 275 325
#     4   9  19  33  51  77 115 152 174 219 291 343
#     4   9  16  29  53  79 104 142 185 223 269 328
#     4  11  20  35  57  88 111 149 191 235 269 333
#     4   9  17  33  55  82 110 149 193 226 270 337
#     4  10  19  36  57  86 111 148 187 233 283 332
#
# _framework density 20.497097
#
# number of rings (size 3 to 8) (size 9 to 14) (size 15 to 20)
#    0.000    2.250    3.750    2.250    0.000    0.500 
#    0.000    0.000    0.000    7.500    9.750    0.000 
#    0.000    0.000    0.000    0.000    0.000    0.000 
#
# Total GULP energy -89237.911914 kJ/mol
# GULP energy per Si atom -5577.369495 kJ/mol
# Density = 2.045044 g / cm^3
# Si number density = 20.497097 Si / 1000 Ang^3
#
#
#
# Elastic Constant Matrix: (Units=GPa)
#
#
# Indices 1 2 3 4 5 6 
#
# 1 94.4826 36.8060 23.5820 -11.3633 -3.1149 15.7560
# 2 36.8060 122.8032 41.7730 -20.4767 0.1135 17.1311
# 3 23.5820 41.7730 60.1068 -12.5307 -5.8486 8.3420
# 4 -11.3633 -20.4767 -12.5307 23.4009 9.5662 -6.3459
# 5 -3.1149 0.1135 -5.8486 9.5662 32.5356 -6.5906
# 6 15.7560 17.1311 8.3420 -6.3459 -6.5906 29.3964
#
#
#
# Elastic Compliance Matrix: (Units=1/GPa)
#
#
# Indices 1 2 3 4 5 6 
#
# 1 0.013063 -0.001945 -0.002725 0.002231 -0.000862 -0.004807
# 2 -0.001945 0.012692 -0.006383 0.007468 -0.004366 -0.003909
# 3 -0.002725 -0.006383 0.023327 0.004536 0.002648 0.000134
# 4 0.002231 0.007468 0.004536 0.060063 -0.016148 0.002510
# 5 -0.000862 -0.004366 0.002648 -0.016148 0.037339 0.007140
# 6 -0.004807 -0.003909 0.000134 0.002510 0.007140 0.040977
#
#
# Mechanical properties :
#
#
# Convention : Reuss Voigt Hill
#
# Bulk Modulus (GPa) = 37.06963 53.52385 45.29674
# Shear Modulus (GPa) = 22.87719 28.74869 25.81294
#
# Velocity S-wave (km/s) = 3.34446 3.74916 3.55258
# Velocity P-wave (km/s) = 5.74791 6.70158 6.24298
#
# Compressibility (1/GPa) = 0.02697626
#
# Stress axis : x y z
#
# Youngs Moduli (GPa) = 76.55066 78.79078 42.86884
#
# Poissons Ratio (x) = 0.15324 0.11682
# Poissons Ratio (y) = 0.14888 0.27363
# Poissons Ratio (z) = 0.20861 0.50291
#
# Static dielectric constant tensor:
#      x y z
#    x 1.792760 0.014140 0.038420 
#    y 0.014140 1.776460 0.020990 
#    z 0.038420 0.020990 1.781460 
# 
# From -- ./inp_files/389108.got.cif
#   From: 2010.05.17/outbox.cif.g08.bks.cpg/sg2_195_cif.got.tgz:389108.got - 2010.06.03 11:33:40.
