data_PCOD9086813
_publ_section_title
;
Structure prediction by ZEFSAII (Michael W. Deem and Ramdas Pophale) SiO2 
 PCOD9086813
Probable space group: P -1
;
_chemical_formula_sum "Si O2"
_cell_formula_units_Z 14
_cell_length_a 8.769249
_cell_length_b 9.720638
_cell_length_c 19.337092
_cell_angle_alpha 125.410705
_cell_angle_beta 47.968401
_cell_angle_gamma 88.004375
_cell_volume 714.211976
_symmetry_space_group_name_H-M "P -1"
_symmetry_group_IT_number 2
_symmetry_cell_setting 'triclinic'
loop_
_space_group_symop_operation_xyz
x,y,z
-x,-y,-z
loop_
_atom_site_type_symbol
_atom_site_label
_atom_site_fract_x
_atom_site_fract_y
_atom_site_fract_z
Si Si1 0.102072 0.112728 0.966251
Si Si2 0.258312 0.408502 0.844220
Si Si3 0.794726 0.226782 0.821433
Si Si4 0.721511 0.871215 0.729717
Si Si5 0.163751 0.756111 0.339292
Si Si6 0.110522 0.392456 0.545456
Si Si7 0.712290 0.987612 0.280317
O O1 0.398956 0.996008 0.876904
O O2 0.171718 0.053933 0.845685
O O3 0.875820 0.397551 0.118265
O O4 0.000000 0.000000 0.000000
O O5 0.502768 0.379537 0.797715
O O6 0.378040 0.154982 0.716822
O O7 0.000000 0.500000 0.000000
O O8 0.925698 0.202508 0.700862
O O9 0.728208 0.067178 0.788933
O O10 0.500000 0.500000 0.000000
O O11 0.028655 0.118861 0.778506
O O12 0.803847 0.757002 0.594744
O O13 0.942519 0.655677 0.651352
O O14 0.095592 0.617727 0.354898
O O15 0.000000 0.000000 0.500000
O O16 0.409135 0.258003 0.454490
#
# Coordination Sequence:
#
# PCOD9086813 Si02
#       7
#     2   2   2   2   2   2   2
#     4  10  19  36  60  89 117 163 214 244 296 377
#     4  10  19  36  61  87 124 161 202 252 302 368
#     4  12  24  40  62  92 129 164 198 258 326 361
#     4  10  21  39  63  87 124 167 202 252 313 366
#     4  12  21  40  66  94 119 162 220 251 293 377
#     4  10  21  40  62  91 120 161 212 254 300 369
#     4  10  21  37  57  87 125 160 200 254 315 360
#
# _framework density 19.602022999999999
#
# number of rings (size 3 to 8) (size 9 to 14) (size 15 to 20)
#    0.000    1.429    2.857    5.143    0.000    1.143 
#    0.000    4.286    0.000    0.000    0.000    0.000 
#    0.000    0.000    0.000    0.000    0.000    0.000 
#
# Total GULP energy -78129.576095 kJ/mol
# GULP energy per Si atom -5580.684007 kJ/mol
# Density = 1.955741 g / cm^3
# Si number density = 19.602023 Si / 1000 Ang^3
#
#
#
# Elastic Constant Matrix: (Units=GPa)
#
#
# Indices 1 2 3 4 5 6 
#
# 1 54.6900 23.0021 25.6709 6.8173 -27.4182 -13.2974
# 2 23.0021 150.0454 43.8369 16.5611 -11.2879 9.0039
# 3 25.6709 43.8369 54.4578 17.3785 -14.2525 -13.7268
# 4 6.8173 16.5611 17.3785 38.4411 -1.1196 -8.9315
# 5 -27.4182 -11.2879 -14.2525 -1.1196 35.1886 4.9707
# 6 -13.2974 9.0039 -13.7268 -8.9315 4.9707 33.6554
#
#
#
# Elastic Compliance Matrix: (Units=1/GPa)
#
#
# Indices 1 2 3 4 5 6 
#
# 1 0.036500 -0.002328 -0.007089 0.000465 0.023595 0.008792
# 2 -0.002328 0.010108 -0.008622 -0.001809 -0.001067 -0.007463
# 3 -0.007089 -0.008622 0.035131 -0.008225 0.004118 0.011044
# 4 0.000465 -0.001809 -0.008225 0.031782 -0.003422 0.006253
# 5 0.023595 -0.001067 0.004118 -0.003422 0.047546 0.003358
# 6 0.008792 -0.007463 0.011044 0.006253 0.003358 0.040851
#
#
# Mechanical properties :
#
#
# Convention : Reuss Voigt Hill
#
# Bulk Modulus (GPa) = 21.90054 49.35701 35.62878
# Shear Modulus (GPa) = 19.74588 32.56921 26.15755
#
# Velocity S-wave (km/s) = 3.17730 4.08060 3.65695
# Velocity P-wave (km/s) = 4.96560 6.88738 6.00388
#
# Compressibility (1/GPa) = 0.04566097
#
# Stress axis : x y z
#
# Youngs Moduli (GPa) = 27.39694 98.93289 28.46466
#
# Poissons Ratio (x) = 0.23034 0.20178
# Poissons Ratio (y) = 0.06379 0.24543
# Poissons Ratio (z) = 0.19421 0.85303
#
# Static dielectric constant tensor:
#      x y z
#    x 1.668490 -0.072060 0.016250 
#    y -0.072060 1.545710 0.051580 
#    z 0.016250 0.051580 1.746480 
# 
# From -- ./inp_files/154096.got.cif
#   From: 2010.05.17/outbox.cif.g08.bks.cpg/sg2_78_cif.got.tgz:154096.got - 2010.06.03 11:33:40.
