data_PCOD9086195
_publ_section_title
;
Structure prediction by ZEFSAII (Michael W. Deem and Ramdas Pophale) SiO2 
 PCOD9086195
Probable space group: P -1
;
_chemical_formula_sum "Si O2"
_cell_formula_units_Z 16
_cell_length_a 9.623001
_cell_length_b 9.305817
_cell_length_c 11.058234
_cell_angle_alpha 55.048106
_cell_angle_beta 53.254456
_cell_angle_gamma 69.036007
_cell_volume 650.207237
_symmetry_space_group_name_H-M "P -1"
_symmetry_group_IT_number 2
_symmetry_cell_setting 'triclinic'
loop_
_space_group_symop_operation_xyz
x,y,z
-x,-y,-z
loop_
_atom_site_type_symbol
_atom_site_label
_atom_site_fract_x
_atom_site_fract_y
_atom_site_fract_z
Si Si1 0.157069 0.254824 0.113097
Si Si2 0.565020 0.779555 0.819248
Si Si3 0.973879 0.342715 0.805457
Si Si4 0.330273 0.899322 0.506542
Si Si5 0.204023 0.630684 0.854457
Si Si6 0.994697 0.091459 0.705256
Si Si7 0.363078 0.560380 0.201140
Si Si8 0.218661 0.641993 0.478881
O O1 0.245687 0.218137 0.213997
O O2 0.959197 0.330242 0.170288
O O3 0.140486 0.068914 0.145566
O O4 0.253441 0.424910 0.929769
O O5 0.552347 0.611440 0.820615
O O6 0.534820 0.959472 0.677522
O O7 0.438607 0.735531 0.016953
O O8 0.021824 0.169422 0.786986
O O9 0.832273 0.441995 0.747154
O O10 0.134474 0.471683 0.664099
O O11 0.878235 0.320339 0.994961
O O12 0.351299 0.756308 0.669503
O O13 0.291590 0.779694 0.468606
O O14 0.169202 0.017111 0.586994
O O15 0.917929 0.242506 0.585439
O O16 0.355762 0.572541 0.341917
#
# Coordination Sequence:
#
# PCOD9086195 Si02
#       8
#     2   2   2   2   2   2   2   2
#     4  10  19  36  56  85 114 151 190 238 281 339
#     4  11  21  40  61  84 119 149 203 231 281 354
#     4  11  20  38  57  89 124 144 190 243 292 345
#     4  11  22  35  59  90 114 154 190 241 285 340
#     4  10  22  35  59  86 119 155 187 234 298 335
#     4  10  20  31  57  89 113 148 191 242 294 322
#     4  10  23  37  61  88 113 158 185 245 294 328
#     4  11  20  35  59  90 118 141 194 253 290 323
#
# _framework density 24.607538000000002
#
# number of rings (size 3 to 8) (size 9 to 14) (size 15 to 20)
#    0.000    1.500    2.500    5.625    1.750    2.500 
#    0.000    1.875    0.000    3.000    0.000    0.000 
#    0.000    0.000    0.000    0.000    0.000    0.000 
#
# Total GULP energy -89370.734445 kJ/mol
# GULP energy per Si atom -5585.670903 kJ/mol
# Density = 2.455153 g / cm^3
# Si number density = 24.607538 Si / 1000 Ang^3
#
#
#
# Elastic Constant Matrix: (Units=GPa)
#
#
# Indices 1 2 3 4 5 6 
#
# 1 51.6753 9.2067 2.5350 0.8524 5.3265 10.9720
# 2 9.2067 140.6863 79.4477 0.2555 5.0188 39.3950
# 3 2.5350 79.4477 181.0862 -21.1548 12.1297 27.1238
# 4 0.8524 0.2555 -21.1548 55.6546 -0.1899 6.5515
# 5 5.3265 5.0188 12.1297 -0.1899 14.4228 -1.5667
# 6 10.9720 39.3950 27.1238 6.5515 -1.5667 37.7240
#
#
#
# Elastic Compliance Matrix: (Units=1/GPa)
#
#
# Indices 1 2 3 4 5 6 
#
# 1 0.022132 0.000438 0.001677 0.001292 -0.010672 -0.008768
# 2 0.000438 0.012073 -0.003650 -0.000261 -0.002401 -0.010165
# 3 0.001677 -0.003650 0.008551 0.003659 -0.006899 -0.003746
# 4 0.001292 -0.000261 0.003659 0.020078 -0.003892 -0.006382
# 5 -0.010672 -0.002401 -0.006899 -0.003892 0.081452 0.014631
# 6 -0.008768 -0.010165 -0.003746 -0.006382 0.014631 0.044084
#
#
# Mechanical properties :
#
#
# Convention : Reuss Voigt Hill
#
# Bulk Modulus (GPa) = 25.19784 61.75849 43.47816
# Shear Modulus (GPa) = 24.42988 40.37752 32.40370
#
# Velocity S-wave (km/s) = 3.15426 4.05515 3.63274
# Velocity P-wave (km/s) = 4.85056 6.86130 5.94161
#
# Compressibility (1/GPa) = 0.03968595
#
# Stress axis : x y z
#
# Youngs Moduli (GPa) = 45.18420 82.82796 116.94829
#
# Poissons Ratio (x) = -0.03630 -0.19612
# Poissons Ratio (y) = -0.01980 0.42687
# Poissons Ratio (z) = -0.07577 0.30233
#
# Static dielectric constant tensor:
#      x y z
#    x 2.016610 0.008990 -0.045050 
#    y 0.008990 1.955760 -0.019780 
#    z -0.045050 -0.019780 2.024060 
# 
# From -- ./inp_files/416464.got.cif
#   From: 2010.05.17/outbox.cif.g08.bks.cpg/sg2_209_cif.got.tgz:416464.got - 2010.06.03 11:33:40.
