data_PCOD9086186
_publ_section_title
;
Structure prediction by ZEFSAII (Michael W. Deem and Ramdas Pophale) SiO2 
 PCOD9086186
Probable space group: P -1
;
_chemical_formula_sum "Si O2"
_cell_formula_units_Z 16
_cell_length_a 7.614827
_cell_length_b 21.332737
_cell_length_c 9.295917
_cell_angle_alpha 56.776765
_cell_angle_beta 117.043117
_cell_angle_gamma 152.962592
_cell_volume 572.020685
_symmetry_space_group_name_H-M "P -1"
_symmetry_group_IT_number 2
_symmetry_cell_setting 'triclinic'
loop_
_space_group_symop_operation_xyz
x,y,z
-x,-y,-z
loop_
_atom_site_type_symbol
_atom_site_label
_atom_site_fract_x
_atom_site_fract_y
_atom_site_fract_z
Si Si1 0.052680 0.386286 0.513138
Si Si2 0.007707 0.915771 0.931277
Si Si3 0.552213 0.612110 0.893433
Si Si4 0.258101 0.762961 0.134379
Si Si5 0.475096 0.305733 0.740963
Si Si6 0.756364 0.997041 0.690107
Si Si7 0.718509 0.557752 0.759404
Si Si8 0.882918 0.097937 0.318880
O O1 0.244259 0.533040 0.396969
O O2 0.374179 0.444341 0.653789
O O3 0.959852 0.330265 0.386017
O O4 0.717552 0.255956 0.664930
O O5 0.364080 0.063758 0.971240
O O6 0.756050 0.908907 0.835043
O O7 0.205030 0.953464 0.811051
O O8 0.761868 0.770920 0.100589
O O9 0.600500 0.584141 0.795033
O O10 0.662557 0.731319 0.741872
O O11 0.227771 0.492037 0.044807
O O12 0.910479 0.695619 0.018264
O O13 0.261251 0.681781 0.168287
O O14 0.121044 0.165964 0.677101
O O15 0.814693 0.015901 0.517413
O O16 0.370854 0.915825 0.694821
#
# Coordination Sequence:
#
# PCOD9086186 Si02
#       8
#     2   2   2   2   2   2   2   2
#     4  10  20  36  59  85 110 151 200 238 290 355
#     4  11  23  40  61  88 121 156 196 244 293 348
#     4  10  19  36  56  83 116 154 196 240 296 349
#     4  10  22  38  57  82 120 156 191 244 297 345
#     4  11  21  39  60  83 116 155 196 242 293 350
#     4  10  23  39  57  88 123 152 193 247 297 343
#     4   9  20  35  56  83 117 148 190 252 294 340
#     4  11  22  37  63  88 115 158 200 240 293 355
#
# _framework density 27.971017
#
# number of rings (size 3 to 8) (size 9 to 14) (size 15 to 20)
#    0.000    1.750    0.000    5.250    0.000    7.000 
#    0.000    3.125    0.000    0.000    0.000    0.000 
#    0.000    0.000    0.000    0.000    0.000    0.000 
#
# Total GULP energy -89226.917403 kJ/mol
# GULP energy per Si atom -5576.682338 kJ/mol
# Density = 2.790735 g / cm^3
# Si number density = 27.971017 Si / 1000 Ang^3
#
#
#
# Elastic Constant Matrix: (Units=GPa)
#
#
# Indices 1 2 3 4 5 6 
#
# 1 89.1820 6.5160 38.2960 11.4317 -14.0326 -10.4620
# 2 6.5160 67.8426 38.9015 -16.0630 3.8819 -9.6476
# 3 38.2960 38.9015 219.7445 -4.6125 -49.5226 -18.2257
# 4 11.4317 -16.0630 -4.6125 37.7575 -17.1723 6.2906
# 5 -14.0326 3.8819 -49.5226 -17.1723 43.6788 -6.5685
# 6 -10.4620 -9.6476 -18.2257 6.2906 -6.5685 26.7666
#
#
#
# Elastic Compliance Matrix: (Units=1/GPa)
#
#
# Indices 1 2 3 4 5 6 
#
# 1 0.013419 -0.000911 -0.001436 -0.004757 0.001718 0.005479
# 2 -0.000911 0.018800 -0.003732 0.005898 -0.003636 0.001600
# 3 -0.001436 -0.003732 0.008976 0.004749 0.012853 0.006243
# 4 -0.004757 0.005898 0.004749 0.039760 0.018777 -0.001237
# 5 0.001718 -0.003636 0.012853 0.018777 0.048054 0.015492
# 6 0.005479 0.001600 0.006243 -0.001237 0.015492 0.048422
#
#
# Mechanical properties :
#
#
# Convention : Reuss Voigt Hill
#
# Bulk Modulus (GPa) = 34.43961 60.46624 47.45292
# Shear Modulus (GPa) = 25.09196 41.17764 33.13480
#
# Velocity S-wave (km/s) = 2.99836 3.84103 3.44555
# Velocity P-wave (km/s) = 4.93216 6.42929 5.72983
#
# Compressibility (1/GPa) = 0.02903633
#
# Stress axis : x y z
#
# Youngs Moduli (GPa) = 74.52198 53.19276 111.41138
#
# Poissons Ratio (x) = 0.04847 0.15993
# Poissons Ratio (y) = 0.06791 0.41580
# Poissons Ratio (z) = 0.10698 0.19852
#
# Static dielectric constant tensor:
#      x y z
#    x 2.480540 0.140730 -0.230480 
#    y 0.140730 2.391450 -0.146630 
#    z -0.230480 -0.146630 2.349310 
# 
# From -- ./inp_files/225380.got.cif
#   From: 2010.05.17/outbox.cif.g08.bks.cpg/sg2_113_cif.got.tgz:225380.got - 2010.06.03 11:33:40.
