data_PCOD9086070
_publ_section_title
;
Structure prediction by ZEFSAII (Michael W. Deem and Ramdas Pophale) SiO2 
 PCOD9086070
Probable space group: P -1
;
_chemical_formula_sum "Si O2"
_cell_formula_units_Z 16
_cell_length_a 14.269744
_cell_length_b 10.648109
_cell_length_c 6.541422
_cell_angle_alpha 96.618280
_cell_angle_beta 61.625772
_cell_angle_gamma 51.915632
_cell_volume 555.929690
_symmetry_space_group_name_H-M "P -1"
_symmetry_group_IT_number 2
_symmetry_cell_setting 'triclinic'
loop_
_space_group_symop_operation_xyz
x,y,z
-x,-y,-z
loop_
_atom_site_type_symbol
_atom_site_label
_atom_site_fract_x
_atom_site_fract_y
_atom_site_fract_z
Si Si1 0.756312 0.710497 0.844190
Si Si2 0.412770 0.770331 0.973658
Si Si3 0.098689 0.634274 0.134719
Si Si4 0.833549 0.966254 0.099571
Si Si5 0.065465 0.557012 0.724114
Si Si6 0.394147 0.469541 0.614160
Si Si7 0.869577 0.054515 0.490469
Si Si8 0.559545 0.093280 0.643829
O O1 0.810894 0.516476 0.803813
O O2 0.903338 0.654989 0.785355
O O3 0.787891 0.667785 0.560319
O O4 0.579135 0.889823 0.175747
O O5 0.588883 0.592647 0.648329
O O6 0.282955 0.901298 0.946518
O O7 0.421933 0.879083 0.135944
O O8 0.319169 0.749939 0.201382
O O9 0.929816 0.852898 0.417758
O O10 0.212314 0.643247 0.928515
O O11 0.087394 0.542053 0.945540
O O12 0.852908 0.062688 0.261532
O O13 0.736426 0.941034 0.318957
O O14 0.013793 0.754230 0.800123
O O15 0.500000 0.500000 0.500000
O O16 0.471954 0.288411 0.643155
O O17 0.000000 0.000000 0.500000
#
# Coordination Sequence:
#
# PCOD9086070 Si02
#       8
#     2   2   2   2   2   2   2   2
#     4  10  20  35  56  82 110 143 182 224 274 327
#     4  10  19  36  53  71 108 145 177 224 273 318
#     4  10  20  36  56  81 112 143 179 228 277 322
#     4   9  20  36  54  77 108 143 181 226 271 321
#     4  10  20  35  56  82 110 143 182 224 274 327
#     4  10  20  34  54  80 106 140 184 226 274 327
#     4  10  20  34  54  80 106 140 184 226 274 327
#     4   9  20  36  54  77 108 143 181 226 271 321
#
# _framework density 28.780619000000002
#
# number of rings (size 3 to 8) (size 9 to 14) (size 15 to 20)
#    0.000    2.250    0.000    2.625    0.000    1.500 
#    0.000   11.875    0.000    0.000    0.000    0.000 
#    0.000    0.000    0.000    0.000    0.000    0.000 
#
# Total GULP energy -89140.503822 kJ/mol
# GULP energy per Si atom -5571.281489 kJ/mol
# Density = 2.871511 g / cm^3
# Si number density = 28.780619 Si / 1000 Ang^3
#
#
#
# Elastic Constant Matrix: (Units=GPa)
#
#
# Indices 1 2 3 4 5 6 
#
# 1 143.9108 -14.9102 37.2533 -11.1233 8.1492 -9.2123
# 2 -14.9102 48.7776 8.9951 -8.0351 3.6373 -4.9990
# 3 37.2533 8.9951 170.3547 7.2644 9.4613 3.2069
# 4 -11.1233 -8.0351 7.2644 42.6835 -11.6047 0.3181
# 5 8.1492 3.6373 9.4613 -11.6047 60.1608 -3.0925
# 6 -9.2123 -4.9990 3.2069 0.3181 -3.0925 32.0235
#
#
#
# Elastic Compliance Matrix: (Units=1/GPa)
#
#
# Indices 1 2 3 4 5 6 
#
# 1 0.008386 0.003843 -0.002220 0.003198 -0.000239 0.003180
# 2 0.003843 0.023593 -0.002414 0.005762 -0.000201 0.004954
# 3 -0.002220 -0.002414 0.006687 -0.002477 -0.001174 -0.001774
# 4 0.003198 0.005762 -0.002477 0.027097 0.004952 0.002277
# 5 -0.000239 -0.000201 -0.001174 0.004952 0.017894 0.001696
# 6 0.003180 0.004954 -0.001774 0.002277 0.001696 0.033234
#
#
# Mechanical properties :
#
#
# Convention : Reuss Voigt Hill
#
# Bulk Modulus (GPa) = 26.96508 47.30215 37.13362
# Shear Modulus (GPa) = 38.21650 49.08722 43.65186
#
# Velocity S-wave (km/s) = 3.64793 4.13433 3.89872
# Velocity P-wave (km/s) = 5.20891 6.26589 5.76169
#
# Compressibility (1/GPa) = 0.03708500
#
# Stress axis : x y z
#
# Youngs Moduli (GPa) = 119.24951 42.38539 149.53956
#
# Poissons Ratio (x) = -0.16289 0.33193
# Poissons Ratio (y) = -0.45830 0.36098
# Poissons Ratio (z) = 0.26470 0.10232
#
# Static dielectric constant tensor:
#      x y z
#    x 2.368360 0.042230 -0.060290 
#    y 0.042230 2.274530 0.015420 
#    z -0.060290 0.015420 2.382080 
# 
# From -- ./inp_files/97263.got.cif
#   From: 2010.05.17/outbox.cif.g08.bks.cpg/sg2_49_cif.got.tgz:97263.got - 2010.06.03 11:33:40.
