data_PCOD9086966
_publ_section_title
;
Structure prediction by ZEFSAII (Michael W. Deem and Ramdas Pophale) SiO2 
 PCOD9086966
Probable space group: P -1
;
_chemical_formula_sum "Si O2"
_cell_formula_units_Z 14
_cell_length_a 7.779811
_cell_length_b 14.601631
_cell_length_c 13.088483
_cell_angle_alpha 29.247057
_cell_angle_beta 77.072447
_cell_angle_gamma 96.603697
_cell_volume 537.184518
_symmetry_space_group_name_H-M "P -1"
_symmetry_group_IT_number 2
_symmetry_cell_setting 'triclinic'
loop_
_space_group_symop_operation_xyz
x,y,z
-x,-y,-z
loop_
_atom_site_type_symbol
_atom_site_label
_atom_site_fract_x
_atom_site_fract_y
_atom_site_fract_z
Si Si1 0.253852 0.415426 0.575658
Si Si2 0.684237 0.228304 0.640339
Si Si3 0.115938 0.489530 0.189704
Si Si4 0.758459 0.174944 0.340016
Si Si5 0.953289 0.997809 0.355765
Si Si6 0.799835 0.936636 0.216259
Si Si7 0.391695 0.114068 0.160119
O O1 0.500000 0.500000 0.500000
O O2 0.267077 0.644975 0.379626
O O3 0.215187 0.295864 0.585918
O O4 0.030241 0.179442 0.895872
O O5 0.441062 0.143682 0.714053
O O6 0.912567 0.430021 0.346662
O O7 0.652341 0.986902 0.851398
O O8 0.115755 0.267182 0.383652
O O9 0.122593 0.589266 0.979589
O O10 0.350487 0.686634 0.030288
O O11 0.500000 0.000000 0.500000
O O12 0.872833 0.058684 0.403325
O O13 0.710495 0.116951 0.523562
O O14 0.830856 0.995255 0.274272
O O15 0.232762 0.187111 0.123837
#
# Coordination Sequence:
#
# PCOD9086966 Si02
#       7
#     2   2   2   2   2   2   2
#     4   9  19  35  62  91 117 158 199 240 303 361
#     4  10  19  36  61  86 116 158 200 244 297 353
#     4  10  23  40  61  87 120 164 205 245 301 352
#     4  10  21  40  61  86 122 162 205 250 292 353
#     4  11  23  38  61  91 122 157 197 250 306 353
#     4  10  20  37  60  91 123 152 201 252 295 361
#     4  10  22  38  57  87 123 157 204 252 294 356
#
# _framework density 26.061807999999999
#
# number of rings (size 3 to 8) (size 9 to 14) (size 15 to 20)
#    0.000    2.000    0.000    3.857    0.000    8.000 
#    0.000    4.286    0.000   32.571    0.000    0.000 
#    0.000    0.000    0.000    0.000    0.000    0.000 
#
# Total GULP energy -78213.074304 kJ/mol
# GULP energy per Si atom -5586.648165 kJ/mol
# Density = 2.600249 g / cm^3
# Si number density = 26.061808 Si / 1000 Ang^3
#
#
#
# Elastic Constant Matrix: (Units=GPa)
#
#
# Indices 1 2 3 4 5 6 
#
# 1 118.3899 14.5979 43.2980 -2.8654 -31.2247 -15.5793
# 2 14.5979 133.0722 23.5147 -16.5264 -8.0480 -22.5802
# 3 43.2980 23.5147 119.1126 22.8106 -21.4406 -4.0476
# 4 -2.8654 -16.5264 22.8106 34.2051 -1.4997 -3.8475
# 5 -31.2247 -8.0480 -21.4406 -1.4997 46.7275 -3.3993
# 6 -15.5793 -22.5802 -4.0476 -3.8475 -3.3993 43.0751
#
#
#
# Elastic Compliance Matrix: (Units=1/GPa)
#
#
# Indices 1 2 3 4 5 6 
#
# 1 0.012827 0.001636 -0.004583 0.005941 0.007391 0.006180
# 2 0.001636 0.010234 -0.003642 0.008327 0.001926 0.006510
# 3 -0.004583 -0.003642 0.013126 -0.011180 0.001742 -0.003194
# 4 0.005941 0.008327 -0.011180 0.042375 0.002320 0.009431
# 5 0.007391 0.001926 0.001742 0.002320 0.028000 0.006263
# 6 0.006180 0.006510 -0.003194 0.009431 0.006263 0.029900
#
#
# Mechanical properties :
#
#
# Convention : Reuss Voigt Hill
#
# Bulk Modulus (GPa) = 43.45913 59.26621 51.36267
# Shear Modulus (GPa) = 31.78422 44.07915 37.93168
#
# Velocity S-wave (km/s) = 3.49602 4.11704 3.81918
# Velocity P-wave (km/s) = 5.74525 6.73721 6.26091
#
# Compressibility (1/GPa) = 0.02301012
#
# Stress axis : x y z
#
# Youngs Moduli (GPa) = 77.95795 97.71291 76.18197
#
# Poissons Ratio (x) = -0.15988 0.34915
# Poissons Ratio (y) = -0.12755 0.27745
# Poissons Ratio (z) = 0.35729 0.35587
#
# Static dielectric constant tensor:
#      x y z
#    x 2.026660 0.005630 0.008570 
#    y 0.005630 2.003570 -0.037670 
#    z 0.008570 -0.037670 2.176000 
# 
# From -- ./inp_files/354846.got.cif
#   From: 2010.05.17/outbox.cif.g08.bks.cpg/sg2_178_cif.got.tgz:354846.got - 2010.06.03 11:33:40.
