data_PCOD9086303
_publ_section_title
;
Structure prediction by ZEFSAII (Michael W. Deem and Ramdas Pophale) SiO2 
 PCOD9086303
Probable space group: P -1
;
_chemical_formula_sum "Si O2"
_cell_formula_units_Z 16
_cell_length_a 20.837349
_cell_length_b 12.346617
_cell_length_c 17.958815
_cell_angle_alpha 20.258443
_cell_angle_beta 23.652904
_cell_angle_gamma 27.956058
_cell_volume 632.196788
_symmetry_space_group_name_H-M "P -1"
_symmetry_group_IT_number 2
_symmetry_cell_setting 'triclinic'
loop_
_space_group_symop_operation_xyz
x,y,z
-x,-y,-z
loop_
_atom_site_type_symbol
_atom_site_label
_atom_site_fract_x
_atom_site_fract_y
_atom_site_fract_z
Si Si1 0.525118 0.341965 0.341277
Si Si2 0.875634 0.815762 0.518286
Si Si3 0.981611 0.648649 0.215917
Si Si4 0.264283 0.490739 0.731030
Si Si5 0.382186 0.398144 0.313289
Si Si6 0.231458 0.632627 0.184752
Si Si7 0.819793 0.687962 0.221966
Si Si8 0.561544 0.732749 0.171429
O O1 0.508827 0.481494 0.185457
O O2 0.339322 0.450854 0.496176
O O3 0.634161 0.449763 0.219995
O O4 0.567515 0.967177 0.528115
O O5 0.758035 0.682973 0.670635
O O6 0.888849 0.609845 0.712636
O O7 0.052881 0.714214 0.358655
O O8 0.832467 0.184430 0.341959
O O9 0.800611 0.593238 0.467378
O O10 0.975610 0.588349 0.172439
O O11 0.000000 0.000000 0.000000
O O12 0.171098 0.356836 0.847655
O O13 0.416279 0.615279 0.448374
O O14 0.316577 0.246079 0.902080
O O15 0.361694 0.612573 0.124344
O O16 0.232982 0.944221 0.934965
O O17 0.500000 0.000000 0.000000
#
# Coordination Sequence:
#
# PCOD9086303 Si02
#       8
#     2   2   2   2   2   2   2   2
#     4   9  19  37  55  84 114 147 195 244 294 347
#     4  10  21  38  58  84 118 157 195 241 295 352
#     4  10  19  36  57  84 119 153 193 242 294 347
#     4  10  23  42  60  87 122 155 200 246 295 359
#     4   9  19  33  56  83 115 147 189 246 289 349
#     4  10  20  35  58  85 116 153 191 243 294 347
#     4  10  21  37  58  84 117 153 193 247 291 347
#     4  10  22  41  61  84 119 160 195 245 297 355
#
# _framework density 25.308574
#
# number of rings (size 3 to 8) (size 9 to 14) (size 15 to 20)
#    0.000    2.250    1.250    0.750    1.750    2.500 
#    4.500    0.000    0.000    0.000    0.000    0.000 
#    0.000    0.000    0.000    0.000    0.000    0.000 
#
# Total GULP energy -89241.850953 kJ/mol
# GULP energy per Si atom -5577.615685 kJ/mol
# Density = 2.525097 g / cm^3
# Si number density = 25.308574 Si / 1000 Ang^3
#
#
#
# Elastic Constant Matrix: (Units=GPa)
#
#
# Indices 1 2 3 4 5 6 
#
# 1 212.3182 44.2878 31.4381 -4.5266 7.0975 7.1875
# 2 44.2878 57.8119 8.1469 -4.1458 -1.0758 12.3859
# 3 31.4381 8.1469 53.9107 1.4859 10.6046 -4.0717
# 4 -4.5266 -4.1458 1.4859 38.7333 -5.9238 -2.0027
# 5 7.0975 -1.0758 10.6046 -5.9238 38.3675 -12.2044
# 6 7.1875 12.3859 -4.0717 -2.0027 -12.2044 28.2004
#
#
#
# Elastic Compliance Matrix: (Units=1/GPa)
#
#
# Indices 1 2 3 4 5 6 
#
# 1 0.006025 -0.004138 -0.002819 0.000274 -0.000513 -0.000328
# 2 -0.004138 0.022813 -0.001601 0.001380 -0.000966 -0.009516
# 3 -0.002819 -0.001601 0.021664 -0.002002 -0.005124 0.002190
# 4 0.000274 0.001380 -0.002002 0.027148 0.005844 0.003492
# 5 -0.000513 -0.000966 -0.005124 0.005844 0.033077 0.014545
# 6 -0.000328 -0.009516 0.002190 0.003492 0.014545 0.046583
#
#
# Mechanical properties :
#
#
# Convention : Reuss Voigt Hill
#
# Bulk Modulus (GPa) = 29.95396 54.64294 42.29845
# Shear Modulus (GPa) = 26.94647 37.07145 32.00896
#
# Velocity S-wave (km/s) = 3.26654 3.83139 3.56019
# Velocity P-wave (km/s) = 5.10766 6.41953 5.80080
#
# Compressibility (1/GPa) = 0.03338457
#
# Stress axis : x y z
#
# Youngs Moduli (GPa) = 165.98824 43.83550 46.16017
#
# Poissons Ratio (x) = 0.18137 0.13014
# Poissons Ratio (y) = 0.68678 0.07391
# Poissons Ratio (z) = 0.46797 0.07019
#
# Static dielectric constant tensor:
#      x y z
#    x 2.082830 0.028950 0.024450 
#    y 0.028950 2.020110 0.068710 
#    z 0.024450 0.068710 2.078770 
# 
# From -- ./inp_files/274033.got.cif
#   From: 2010.05.17/outbox.cif.g08.bks.cpg/sg2_138_cif.got.tgz:274033.got - 2010.06.03 11:33:40.
