data_PCOD9086084
_publ_section_title
;
Structure prediction by ZEFSAII (Michael W. Deem and Ramdas Pophale) SiO2 
 PCOD9086084
Probable space group: P -1
;
_chemical_formula_sum "Si O2"
_cell_formula_units_Z 16
_cell_length_a 10.800561
_cell_length_b 11.485990
_cell_length_c 12.664888
_cell_angle_alpha 45.851069
_cell_angle_beta 34.850293
_cell_angle_gamma 65.295702
_cell_volume 597.250889
_symmetry_space_group_name_H-M "P -1"
_symmetry_group_IT_number 2
_symmetry_cell_setting 'triclinic'
loop_
_space_group_symop_operation_xyz
x,y,z
-x,-y,-z
loop_
_atom_site_type_symbol
_atom_site_label
_atom_site_fract_x
_atom_site_fract_y
_atom_site_fract_z
Si Si1 0.539331 0.524610 0.639218
Si Si2 0.288903 0.432857 0.276740
Si Si3 0.156710 0.152919 0.405376
Si Si4 0.312503 0.739661 0.986192
Si Si5 0.763898 0.263968 0.588168
Si Si6 0.322248 0.983434 0.983848
Si Si7 0.923748 0.795705 0.878311
Si Si8 0.610568 0.195957 0.346731
O O1 0.614734 0.509183 0.714441
O O2 0.698425 0.437588 0.518384
O O3 0.531961 0.719391 0.531378
O O4 0.274923 0.388549 0.893452
O O5 0.676065 0.288614 0.127897
O O6 0.500000 0.500000 0.000000
O O7 0.149520 0.553644 0.264953
O O8 0.429519 0.188722 0.179836
O O9 0.174588 0.227470 0.468145
O O10 0.025266 0.272996 0.373906
O O11 0.993494 0.950267 0.643697
O O12 0.234480 0.887307 0.994859
O O13 0.707267 0.160533 0.808387
O O14 0.588236 0.121248 0.723044
O O15 0.187433 0.113141 0.017147
O O16 0.158561 0.783957 0.763574
O O17 0.500000 0.000000 0.500000
#
# Coordination Sequence:
#
# PCOD9086084 Si02
#       8
#     2   2   2   2   2   2   2   2
#     4  11  20  38  65  84 119 155 193 246 295 347
#     4  10  19  36  53  90 123 144 187 242 304 339
#     4  10  20  37  58  93 119 152 193 239 294 351
#     4  11  21  37  61  85 125 156 188 251 291 352
#     4   9  19  35  59  90 124 149 187 240 297 362
#     4   9  19  37  58  89 121 154 189 238 300 348
#     4  10  22  40  62  87 114 163 203 230 286 357
#     4  12  23  42  60  85 117 158 209 242 282 348
#
# _framework density 26.789411000000001
#
# number of rings (size 3 to 8) (size 9 to 14) (size 15 to 20)
#    0.000    1.750    5.000    1.125    0.000    1.500 
#    4.500    0.000    0.000    1.500    0.000    0.000 
#    0.000    0.000    0.000    0.000    0.000    0.000 
#
# Total GULP energy -89157.031498 kJ/mol
# GULP energy per Si atom -5572.314469 kJ/mol
# Density = 2.672844 g / cm^3
# Si number density = 26.789411 Si / 1000 Ang^3
#
#
#
# Elastic Constant Matrix: (Units=GPa)
#
#
# Indices 1 2 3 4 5 6 
#
# 1 43.8614 27.7735 9.2213 13.3899 -6.3616 -14.5633
# 2 27.7735 193.2662 22.0925 -14.3415 -10.0866 11.8172
# 3 9.2213 22.0925 75.1711 5.3958 -14.9000 -8.2919
# 4 13.3899 -14.3415 5.3958 43.0184 -4.5216 -9.5326
# 5 -6.3616 -10.0866 -14.9000 -4.5216 31.0347 4.5167
# 6 -14.5633 11.8172 -8.2919 -9.5326 4.5167 48.3432
#
#
#
# Elastic Compliance Matrix: (Units=1/GPa)
#
#
# Indices 1 2 3 4 5 6 
#
# 1 0.032963 -0.005915 -0.000188 -0.009965 0.001954 0.009196
# 2 -0.005915 0.006738 -0.001627 0.003733 0.001189 -0.003083
# 3 -0.000188 -0.001627 0.015385 -0.001275 0.006322 0.002138
# 4 -0.009965 0.003733 -0.001275 0.028284 0.002503 0.001210
# 5 0.001954 0.001189 0.006322 0.002503 0.036634 -0.001547
# 6 0.009196 -0.003083 0.002138 0.001210 -0.001547 0.024959
#
#
# Mechanical properties :
#
#
# Convention : Reuss Voigt Hill
#
# Bulk Modulus (GPa) = 25.23667 47.83038 36.53352
# Shear Modulus (GPa) = 28.79659 41.36003 35.07831
#
# Velocity S-wave (km/s) = 3.28216 3.93351 3.62250
# Velocity P-wave (km/s) = 4.87896 6.20668 5.58244
#
# Compressibility (1/GPa) = 0.03962488
#
# Stress axis : x y z
#
# Youngs Moduli (GPa) = 30.33675 148.41524 64.99960
#
# Poissons Ratio (x) = 0.87793 0.01223
# Poissons Ratio (y) = 0.17945 0.10575
# Poissons Ratio (z) = 0.00571 0.24147
#
# Static dielectric constant tensor:
#      x y z
#    x 2.188080 -0.101190 0.022760 
#    y -0.101190 2.357310 0.021380 
#    z 0.022760 0.021380 2.214650 
# 
# From -- ./inp_files/405053.got.cif
#   From: 2010.05.17/outbox.cif.g08.bks.cpg/sg2_203_cif.got.tgz:405053.got - 2010.06.03 11:33:40.
