data_PCOD9086356
_publ_section_title
;
Structure prediction by ZEFSAII (Michael W. Deem and Ramdas Pophale) SiO2 
 PCOD9086356
Probable space group: P -1
;
_chemical_formula_sum "Si O2"
_cell_formula_units_Z 16
_cell_length_a 12.443471
_cell_length_b 15.345237
_cell_length_c 15.530540
_cell_angle_alpha 27.968657
_cell_angle_beta 45.032458
_cell_angle_gamma 65.346719
_cell_volume 768.948075
_symmetry_space_group_name_H-M "P -1"
_symmetry_group_IT_number 2
_symmetry_cell_setting 'triclinic'
loop_
_space_group_symop_operation_xyz
x,y,z
-x,-y,-z
loop_
_atom_site_type_symbol
_atom_site_label
_atom_site_fract_x
_atom_site_fract_y
_atom_site_fract_z
Si Si1 0.566763 0.733918 0.504001
Si Si2 0.878904 0.825102 0.946339
Si Si3 0.101113 0.379046 0.060728
Si Si4 0.171603 0.896540 0.392937
Si Si5 0.064851 0.088210 0.785098
Si Si6 0.397804 0.702327 0.395362
Si Si7 0.422117 0.650894 0.228967
Si Si8 0.247935 0.863049 0.075894
O O1 0.702211 0.763906 0.479209
O O2 0.609059 0.591126 0.541716
O O3 0.667430 0.000260 0.182475
O O4 0.334087 0.575209 0.773291
O O5 0.950164 0.774727 0.862786
O O6 0.865003 0.023862 0.744898
O O7 0.680609 0.559443 0.305913
O O8 0.982102 0.903667 0.912670
O O9 0.003912 0.221529 0.338664
O O10 0.000000 0.500000 0.000000
O O11 0.235563 0.732200 0.486462
O O12 0.362981 0.143156 0.108670
O O13 0.000000 0.000000 0.000000
O O14 0.960821 0.207613 0.726538
O O15 0.421742 0.726030 0.259745
O O16 0.593547 0.915389 0.145101
O O17 0.270482 0.662305 0.253819
#
# Coordination Sequence:
#
# PCOD9086356 Si02
#       8
#     2   2   2   2   2   2   2   2
#     4  11  23  41  59  91 128 164 211 257 313 376
#     4  12  22  40  66  92 125 170 208 258 320 364
#     4  12  23  44  69  91 126 166 220 267 305 370
#     4  11  22  38  63  99 125 158 213 268 312 367
#     4  10  23  40  62  92 135 169 204 254 321 387
#     4  11  20  35  62 100 125 151 210 267 315 376
#     4  11  21  34  64  95 124 161 203 264 326 363
#     4  10  19  36  57  92 129 159 199 258 314 379
#
# _framework density 20.807646999999999
#
# number of rings (size 3 to 8) (size 9 to 14) (size 15 to 20)
#    0.000    1.000    3.750    5.625    0.000    2.000 
#    0.000    3.750    0.000    0.000    0.000    0.000 
#    0.000    0.000    0.000    0.000    0.000    0.000 
#
# Total GULP energy -89171.079754 kJ/mol
# GULP energy per Si atom -5573.192485 kJ/mol
# Density = 2.076029 g / cm^3
# Si number density = 20.807647 Si / 1000 Ang^3
#
#
#
# Elastic Constant Matrix: (Units=GPa)
#
#
# Indices 1 2 3 4 5 6 
#
# 1 136.8039 47.6431 41.0227 0.9973 -13.9800 -9.7705
# 2 47.6431 77.1076 33.9797 14.4124 -12.9175 3.4788
# 3 41.0227 33.9797 68.4541 11.4448 -3.8225 2.7794
# 4 0.9973 14.4124 11.4448 27.2420 0.9789 -5.4515
# 5 -13.9800 -12.9175 -3.8225 0.9789 43.4932 -4.4487
# 6 -9.7705 3.4788 2.7794 -5.4515 -4.4487 34.9538
#
#
#
# Elastic Compliance Matrix: (Units=1/GPa)
#
#
# Indices 1 2 3 4 5 6 
#
# 1 0.011362 -0.005815 -0.004992 0.005748 0.001898 0.005290
# 2 -0.005815 0.021551 -0.005136 -0.010058 0.003852 -0.004440
# 3 -0.004992 -0.005136 0.021356 -0.006785 -0.001492 -0.003830
# 4 0.005748 -0.010058 -0.006785 0.046777 -0.001743 0.010221
# 5 0.001898 0.003852 -0.001492 -0.001743 0.024979 0.003173
# 6 0.005290 -0.004440 -0.003830 0.010221 0.003173 0.032832
#
#
# Mechanical properties :
#
#
# Convention : Reuss Voigt Hill
#
# Bulk Modulus (GPa) = 44.67773 58.62851 51.65312
# Shear Modulus (GPa) = 25.22661 31.78580 28.50621
#
# Velocity S-wave (km/s) = 3.48569 3.91270 3.70535
# Velocity P-wave (km/s) = 6.14154 6.97494 6.57146
#
# Compressibility (1/GPa) = 0.02238252
#
# Stress axis : x y z
#
# Youngs Moduli (GPa) = 88.01473 46.40171 46.82600
#
# Poissons Ratio (x) = 0.26985 0.23375
# Poissons Ratio (y) = 0.51185 0.24048
# Poissons Ratio (z) = 0.43936 0.23830
#
# Static dielectric constant tensor:
#      x y z
#    x 1.825370 -0.012940 -0.002670 
#    y -0.012940 1.772430 -0.006260 
#    z -0.002670 -0.006260 1.800330 
# 
# From -- ./inp_files/455564.got.cif
#   From: 2010.05.17/outbox.cif.g08.bks.cpg/sg2_228_cif.got.tgz:455564.got - 2010.06.03 11:33:40.
