data_PCOD9086614
_publ_section_title
;
Structure prediction by ZEFSAII (Michael W. Deem and Ramdas Pophale) SiO2 
 PCOD9086614
Probable space group: P -1
;
_chemical_formula_sum "Si O2"
_cell_formula_units_Z 14
_cell_length_a 8.261178
_cell_length_b 15.165112
_cell_length_c 14.107019
_cell_angle_alpha 29.695664
_cell_angle_beta 118.232975
_cell_angle_gamma 137.363153
_cell_volume 515.401214
_symmetry_space_group_name_H-M "P -1"
_symmetry_group_IT_number 2
_symmetry_cell_setting 'triclinic'
loop_
_space_group_symop_operation_xyz
x,y,z
-x,-y,-z
loop_
_atom_site_type_symbol
_atom_site_label
_atom_site_fract_x
_atom_site_fract_y
_atom_site_fract_z
Si Si1 0.927043 0.131752 0.969819
Si Si2 0.592905 0.699590 0.981121
Si Si3 0.299295 0.152621 0.333733
Si Si4 0.035465 0.408379 0.194875
Si Si5 0.656023 0.428380 0.478402
Si Si6 0.137349 0.866726 0.826982
Si Si7 0.664113 0.437421 0.686129
O O1 0.115494 0.090413 0.080886
O O2 0.106959 0.358692 0.728835
O O3 0.897829 0.176432 0.028537
O O4 0.619536 0.876763 0.087200
O O5 0.519386 0.439339 0.177529
O O6 0.339956 0.573812 0.091352
O O7 0.600138 0.807254 0.783049
O O8 0.036792 0.092732 0.298998
O O9 0.203170 0.908731 0.589900
O O10 0.083684 0.425775 0.305269
O O11 0.016723 0.604908 0.988217
O O12 0.754059 0.464395 0.578298
O O13 0.443810 0.440942 0.430993
O O14 0.459226 0.134844 0.655753
#
# Coordination Sequence:
#
# PCOD9086614 Si02
#       7
#     2   2   2   2   2   2   2
#     4  10  20  38  62  88 121 162 194 243 297 353
#     4  10  22  39  65  88 116 160 204 237 302 356
#     4  10  22  44  61  88 121 154 199 254 290 351
#     4  12  23  39  64  92 118 159 198 245 299 355
#     4  10  19  36  59  86 121 158 191 245 291 346
#     4  10  23  39  60  92 122 153 201 243 299 352
#     4  10  21  34  62  91 118 156 203 238 295 357
#
# _framework density 27.163302999999999
#
# number of rings (size 3 to 8) (size 9 to 14) (size 15 to 20)
#    0.000    1.714    2.857    0.857    2.000    4.000 
#    0.000    7.857    0.000    0.000    0.000    0.000 
#    0.000    0.000    0.000    0.000    0.000    0.000 
#
# Total GULP energy -78425.756548 kJ/mol
# GULP energy per Si atom -5601.839753 kJ/mol
# Density = 2.710148 g / cm^3
# Si number density = 27.163303 Si / 1000 Ang^3
#
#
#
# Elastic Constant Matrix: (Units=GPa)
#
#
# Indices 1 2 3 4 5 6 
#
# 1 39.6480 11.3064 48.2199 -5.4271 -5.3509 -13.1837
# 2 11.3064 46.8393 26.6262 -16.3720 -18.8547 -9.0777
# 3 48.2199 26.6262 180.1764 -8.1522 -24.4446 -17.5320
# 4 -5.4271 -16.3720 -8.1522 45.2420 -4.2036 -4.9015
# 5 -5.3509 -18.8547 -24.4446 -4.2036 44.6113 3.3856
# 6 -13.1837 -9.0777 -17.5320 -4.9015 3.3856 26.9842
#
#
#
# Elastic Compliance Matrix: (Units=1/GPa)
#
#
# Indices 1 2 3 4 5 6 
#
# 1 0.043006 -0.000648 -0.009874 0.004696 -0.001251 0.015388
# 2 -0.000648 0.035912 -0.001254 0.015367 0.014961 0.011864
# 3 -0.009874 -0.001254 0.008829 0.000260 0.003137 0.000144
# 4 0.004696 0.015367 0.000260 0.030427 0.009156 0.012011
# 5 -0.001251 0.014961 0.003137 0.009156 0.030848 0.004253
# 6 0.015388 0.011864 0.000144 0.012011 0.004253 0.050310
#
#
# Mechanical properties :
#
#
# Convention : Reuss Voigt Hill
#
# Bulk Modulus (GPa) = 15.57740 48.77428 32.17584
# Shear Modulus (GPa) = 20.46814 35.40156 27.93485
#
# Velocity S-wave (km/s) = 2.74801 3.61402 3.21035
# Velocity P-wave (km/s) = 3.97693 5.95061 5.06092
#
# Compressibility (1/GPa) = 0.06419558
#
# Stress axis : x y z
#
# Youngs Moduli (GPa) = 23.25254 27.84589 113.25915
#
# Poissons Ratio (x) = 0.01805 1.11828
# Poissons Ratio (y) = 0.01507 0.14204
# Poissons Ratio (z) = 0.22959 0.03492
#
# Static dielectric constant tensor:
#      x y z
#    x 2.134260 -0.046780 0.076910 
#    y -0.046780 2.208890 0.095520 
#    z 0.076910 0.095520 2.196020 
# 
# From -- ./inp_files/221391.got.cif
#   From: 2010.05.17/outbox.cif.g08.bks.cpg/sg2_111_cif.got.tgz:221391.got - 2010.06.03 11:33:40.
