data_PCOD9086706
_publ_section_title
;
Structure prediction by ZEFSAII (Michael W. Deem and Ramdas Pophale) SiO2 
 PCOD9086706
Probable space group: P -1
;
_chemical_formula_sum "Si O2"
_cell_formula_units_Z 12
_cell_length_a 26.382076
_cell_length_b 5.070791
_cell_length_c 13.686019
_cell_angle_alpha 85.406136
_cell_angle_beta 19.110741
_cell_angle_gamma 75.037687
_cell_volume 495.327691
_symmetry_space_group_name_H-M "P -1"
_symmetry_group_IT_number 2
_symmetry_cell_setting 'triclinic'
loop_
_space_group_symop_operation_xyz
x,y,z
-x,-y,-z
loop_
_atom_site_type_symbol
_atom_site_label
_atom_site_fract_x
_atom_site_fract_y
_atom_site_fract_z
Si Si1 0.693988 0.951361 0.671640
Si Si2 0.939810 0.738116 0.745292
Si Si3 0.741712 0.585216 0.265566
Si Si4 0.427433 0.804297 0.689651
Si Si5 0.906799 0.920507 0.466864
Si Si6 0.822670 0.356080 0.337786
O O1 0.746172 0.967777 0.687713
O O2 0.839261 0.584558 0.377693
O O3 0.694006 0.239762 0.613284
O O4 0.500000 0.000000 0.000000
O O5 0.032610 0.370583 0.562445
O O6 0.812703 0.778355 0.071666
O O7 0.100358 0.791345 0.478389
O O8 0.794513 0.985392 0.924079
O O9 0.538844 0.695212 0.591660
O O10 0.748096 0.570031 0.370037
O O11 0.908770 0.232793 0.934818
O O12 0.500000 0.500000 0.500000
O O13 0.500000 0.000000 0.500000
O O14 0.000000 0.000000 0.000000
#
# Coordination Sequence:
#
# PCOD9086706 Si02
#       6
#     2   2   2   2   2   2
#     4  12  27  42  57  83 120 158 194 233 291 350
#     4   9  17  30  48  83 113 141 176 234 288 331
#     4   9  21  29  55  84 114 141 185 235 287 325
#     4  10  16  27  45  76 121 138 167 225 298 327
#     4  10  19  32  55  75 110 142 194 222 278 329
#     4  12  24  39  63  87 113 151 197 246 284 333
#
# _framework density 24.226386000000002
#
# number of rings (size 3 to 8) (size 9 to 14) (size 15 to 20)
#    1.000    0.667    3.333    2.000    2.333    0.000 
#    0.000    0.000    0.000    0.000    0.000    7.000 
#    0.000    0.000    0.000    0.000    0.000    0.000 
#
# Total GULP energy -66921.782002 kJ/mol
# GULP energy per Si atom -5576.815167 kJ/mol
# Density = 2.417125 g / cm^3
# Si number density = 24.226386 Si / 1000 Ang^3
#
#
#
# Elastic Constant Matrix: (Units=GPa)
#
#
# Indices 1 2 3 4 5 6 
#
# 1 92.8076 36.0437 54.5332 3.3159 -24.3148 0.2903
# 2 36.0437 129.8095 28.0890 -14.5650 0.1692 29.6055
# 3 54.5332 28.0890 69.5010 0.6950 -26.3630 0.3535
# 4 3.3159 -14.5650 0.6950 23.1757 6.4034 -10.2614
# 5 -24.3148 0.1692 -26.3630 6.4034 42.2240 2.3809
# 6 0.2903 29.6055 0.3535 -10.2614 2.3809 35.9783
#
#
#
# Elastic Compliance Matrix: (Units=1/GPa)
#
#
# Indices 1 2 3 4 5 6 
#
# 1 0.021852 -0.004127 -0.013519 -0.006139 0.005019 0.001269
# 2 -0.004127 0.012134 -0.003680 0.006340 -0.005247 -0.007759
# 3 -0.013519 -0.003680 0.031201 -0.004383 0.012332 0.000764
# 4 -0.006139 0.006340 -0.004383 0.058031 -0.015801 0.012472
# 5 0.005019 -0.005247 0.012332 -0.015801 0.036847 -0.002789
# 6 0.001269 -0.007759 0.000764 0.012472 -0.002789 0.037904
#
#
# Mechanical properties :
#
#
# Convention : Reuss Voigt Hill
#
# Bulk Modulus (GPa) = 44.37691 58.82776 51.60233
# Shear Modulus (GPa) = 20.15059 31.83907 25.99483
#
# Velocity S-wave (km/s) = 2.88716 3.62917 3.27922
# Velocity P-wave (km/s) = 5.42877 6.47274 5.97361
#
# Compressibility (1/GPa) = 0.02253424
#
# Stress axis : x y z
#
# Youngs Moduli (GPa) = 45.76268 82.41498 32.05042
#
# Poissons Ratio (x) = 0.34013 0.43330
# Poissons Ratio (y) = 0.18886 0.11794
# Poissons Ratio (z) = 0.61868 0.30327
#
# Static dielectric constant tensor:
#      x y z
#    x 1.975650 -0.005960 0.080270 
#    y -0.005960 1.884300 0.026330 
#    z 0.080270 0.026330 2.145480 
# 
# From -- ./inp_files/322750.got.cif
#   From: 2010.05.17/outbox.cif.g08.bks.cpg/sg2_162_cif.got.tgz:322750.got - 2010.06.03 11:33:40.
