data_PCOD9086797
_publ_section_title
;
Structure prediction by ZEFSAII (Michael W. Deem and Ramdas Pophale) SiO2 
 PCOD9086797
Probable space group: P -1
;
_chemical_formula_sum "Si O2"
_cell_formula_units_Z 16
_cell_length_a 10.036421
_cell_length_b 10.367056
_cell_length_c 9.739851
_cell_angle_alpha 82.264646
_cell_angle_beta 90.870577
_cell_angle_gamma 135.565046
_cell_volume 698.235099
_symmetry_space_group_name_H-M "P -1"
_symmetry_group_IT_number 2
_symmetry_cell_setting 'triclinic'
loop_
_space_group_symop_operation_xyz
x,y,z
-x,-y,-z
loop_
_atom_site_type_symbol
_atom_site_label
_atom_site_fract_x
_atom_site_fract_y
_atom_site_fract_z
Si Si1 0.460970 0.822983 0.984424
Si Si2 0.277608 0.217941 0.095749
Si Si3 0.222126 0.425552 0.522670
Si Si4 0.522106 0.266565 0.729488
Si Si5 0.661004 0.602515 0.189000
Si Si6 0.195640 0.147545 0.403042
Si Si7 0.600967 0.090427 0.278410
Si Si8 0.763998 0.115622 0.549364
O O1 0.650318 0.870736 0.946729
O O2 0.343426 0.761021 0.850945
O O3 0.367389 0.683452 0.131626
O O4 0.500000 0.000000 0.000000
O O5 0.471907 0.411470 0.141414
O O6 0.149942 0.121825 0.243310
O O7 0.214210 0.263002 0.960308
O O8 0.336065 0.614959 0.412584
O O9 0.280074 0.336850 0.445657
O O10 0.271905 0.442717 0.680903
O O11 0.992325 0.280916 0.538123
O O12 0.397975 0.306893 0.747784
O O13 0.378154 0.043999 0.748284
O O14 0.295901 0.079431 0.441858
O O15 0.000000 0.000000 0.500000
O O16 0.370517 0.939502 0.318327
O O17 0.701504 0.162610 0.415597
#
# Coordination Sequence:
#
# PCOD9086797 Si02
#       8
#     2   2   2   2   2   2   2   2
#     4   9  19  36  59  86 115 151 200 245 282 344
#     4  10  19  36  60  88 117 153 200 234 295 355
#     4  11  22  37  57  88 126 148 195 246 298 345
#     4  10  20  34  60  86 113 152 194 242 290 351
#     4  10  21  34  60  88 118 154 188 244 296 349
#     4  10  20  36  59  86 124 150 189 247 295 348
#     4  10  20  37  60  79 111 155 205 236 289 342
#     4  10  22  36  57  84 111 157 196 244 286 347
#
# _framework density 22.914919000000001
#
# number of rings (size 3 to 8) (size 9 to 14) (size 15 to 20)
#    0.000    2.000    2.500    1.125    1.750    0.500 
#    0.000    3.125   16.500    0.000    0.000    0.000 
#    0.000    0.000    0.000    0.000    0.000    0.000 
#
# Total GULP energy -89192.862532 kJ/mol
# GULP energy per Si atom -5574.553908 kJ/mol
# Density = 2.286276 g / cm^3
# Si number density = 22.914919 Si / 1000 Ang^3
#
#
#
# Elastic Constant Matrix: (Units=GPa)
#
#
# Indices 1 2 3 4 5 6 
#
# 1 55.7924 10.6252 55.8264 -3.1349 16.1050 0.0057
# 2 10.6252 29.4824 15.2370 2.9945 -6.3138 -8.7870
# 3 55.8264 15.2370 213.9350 -12.0739 39.2108 8.5839
# 4 -3.1349 2.9945 -12.0739 29.4239 -12.5590 -4.0439
# 5 16.1050 -6.3138 39.2108 -12.5590 50.1453 7.0321
# 6 0.0057 -8.7870 8.5839 -4.0439 7.0321 25.8472
#
#
#
# Elastic Compliance Matrix: (Units=1/GPa)
#
#
# Indices 1 2 3 4 5 6 
#
# 1 0.026299 -0.007617 -0.005386 -0.000904 -0.005497 0.000548
# 2 -0.007617 0.044405 -0.003337 -0.001221 0.008416 0.013725
# 3 -0.005386 -0.003337 0.007143 0.000771 -0.003752 -0.002364
# 4 -0.000904 -0.001221 0.000771 0.038474 0.008754 0.002967
# 5 -0.005497 0.008416 -0.003752 0.008754 0.028201 -0.002195
# 6 0.000548 0.013725 -0.002364 0.002967 -0.002195 0.045201
#
#
# Mechanical properties :
#
#
# Convention : Reuss Voigt Hill
#
# Bulk Modulus (GPa) = 22.13939 51.39857 36.76898
# Shear Modulus (GPa) = 21.05615 35.58469 28.32042
#
# Velocity S-wave (km/s) = 3.03460 3.94497 3.51934
# Velocity P-wave (km/s) = 4.68625 6.57489 5.70921
#
# Compressibility (1/GPa) = 0.04516835
#
# Stress axis : x y z
#
# Youngs Moduli (GPa) = 38.02405 22.51974 139.98972
#
# Poissons Ratio (x) = 0.17153 0.75394
# Poissons Ratio (y) = 0.28962 0.46718
# Poissons Ratio (z) = 0.20479 0.07515
#
# Static dielectric constant tensor:
#      x y z
#    x 1.877250 -0.037390 0.052010 
#    y -0.037390 1.979410 0.032050 
#    z 0.052010 0.032050 1.992230 
# 
# From -- ./inp_files/421301.got.cif
#   From: 2010.05.17/outbox.cif.g08.bks.cpg/sg2_211_cif.got.tgz:421301.got - 2010.06.03 11:33:40.
