data_PCOD9086293
_publ_section_title
;
Structure prediction by ZEFSAII (Michael W. Deem and Ramdas Pophale) SiO2 
 PCOD9086293
Probable space group: P -1
;
_chemical_formula_sum "Si O2"
_cell_formula_units_Z 12
_cell_length_a 13.059473
_cell_length_b 8.568712
_cell_length_c 6.014189
_cell_angle_alpha 54.179232
_cell_angle_beta 108.252066
_cell_angle_gamma 91.055668
_cell_volume 506.233177
_symmetry_space_group_name_H-M "P -1"
_symmetry_group_IT_number 2
_symmetry_cell_setting 'triclinic'
loop_
_space_group_symop_operation_xyz
x,y,z
-x,-y,-z
loop_
_atom_site_type_symbol
_atom_site_label
_atom_site_fract_x
_atom_site_fract_y
_atom_site_fract_z
Si Si1 0.107798 0.801115 0.348520
Si Si2 0.594690 0.966089 0.282918
Si Si3 0.713364 0.203013 0.874705
Si Si4 0.046229 0.218140 0.121420
Si Si5 0.515296 0.300665 0.317311
Si Si6 0.831130 0.463036 0.019177
O O1 0.184624 0.870457 0.158564
O O2 0.177246 0.610722 0.674963
O O3 0.075006 0.982654 0.343954
O O4 0.005322 0.747770 0.191948
O O5 0.561943 0.131075 0.312120
O O6 0.588370 0.764465 0.575917
O O7 0.695140 0.026439 0.168809
O O8 0.500000 0.000000 0.000000
O O9 0.606161 0.286317 0.584023
O O10 0.742769 0.383001 0.881801
O O11 0.948652 0.331205 0.119165
O O12 0.149847 0.317081 0.150342
O O13 0.500000 0.500000 0.000000
#
# Coordination Sequence:
#
# PCOD9086293 Si02
#       6
#     2   2   2   2   2   2
#     4  10  19  36  58  83 119 156 196 239 287 344
#     4   9  20  40  61  84 114 149 190 243 298 351
#     4  10  21  37  57  87 123 153 191 247 294 345
#     4   9  20  35  57  84 113 160 199 235 288 340
#     4  10  21  41  65  85 113 155 197 240 296 355
#     4  10  19  36  57  83 120 155 198 241 283 343
#
# _framework density 23.704491999999998
#
# number of rings (size 3 to 8) (size 9 to 14) (size 15 to 20)
#    0.000    2.333    0.000    2.000    0.000    2.667 
#    0.000   21.667    0.000    0.000    0.000    0.000 
#    0.000    0.000    0.000    0.000    0.000    0.000 
#
# Total GULP energy -67010.744586 kJ/mol
# GULP energy per Si atom -5584.228715 kJ/mol
# Density = 2.365054 g / cm^3
# Si number density = 23.704492 Si / 1000 Ang^3
#
#
#
# Elastic Constant Matrix: (Units=GPa)
#
#
# Indices 1 2 3 4 5 6 
#
# 1 73.6869 39.9718 33.7113 -0.2762 -21.1581 19.7456
# 2 39.9718 123.3670 62.7473 -6.8224 -8.7841 43.0587
# 3 33.7113 62.7473 140.8352 -14.6414 -20.9531 20.7354
# 4 -0.2762 -6.8224 -14.6414 34.4246 5.7952 9.7028
# 5 -21.1581 -8.7841 -20.9531 5.7952 32.7761 2.2598
# 6 19.7456 43.0587 20.7354 9.7028 2.2598 35.9057
#
#
#
# Elastic Compliance Matrix: (Units=1/GPa)
#
#
# Indices 1 2 3 4 5 6 
#
# 1 0.021600 -0.002420 -0.000735 -0.000264 0.013515 -0.009331
# 2 -0.002420 0.018616 -0.003611 0.007887 0.001180 -0.021114
# 3 -0.000735 -0.003611 0.010323 0.003580 0.004696 -0.002490
# 4 -0.000264 0.007887 0.003580 0.038428 -0.001067 -0.021698
# 5 0.013515 0.001180 0.004696 -0.001067 0.043708 -0.014021
# 6 -0.009331 -0.021114 -0.002490 -0.021698 -0.014021 0.066486
#
#
# Mechanical properties :
#
#
# Convention : Reuss Voigt Hill
#
# Bulk Modulus (GPa) = 27.02208 67.86110 47.44159
# Shear Modulus (GPa) = 22.21937 34.05184 28.13561
#
# Velocity S-wave (km/s) = 3.06494 3.79425 3.44892
# Velocity P-wave (km/s) = 4.89381 6.91991 5.99311
#
# Compressibility (1/GPa) = 0.03700677
#
# Stress axis : x y z
#
# Youngs Moduli (GPa) = 46.29606 53.71631 96.87549
#
# Poissons Ratio (x) = 0.13002 0.07120
# Poissons Ratio (y) = 0.11206 0.34979
# Poissons Ratio (z) = 0.03402 0.19396
#
# Static dielectric constant tensor:
#      x y z
#    x 1.983120 0.013060 0.007100 
#    y 0.013060 1.864070 0.005310 
#    z 0.007100 0.005310 1.920220 
# 
# From -- ./inp_files/5728.got.cif
#   From: 2010.05.17/outbox.cif.g08.bks.cpg/sg2_3_cif.got.tgz:5728.got - 2010.06.03 11:33:40.
