data_PCOD9086854
_publ_section_title
;
Structure prediction by ZEFSAII (Michael W. Deem and Ramdas Pophale) SiO2 
 PCOD9086854
Probable space group: P -1
;
_chemical_formula_sum "Si O2"
_cell_formula_units_Z 16
_cell_length_a 18.974824
_cell_length_b 11.598137
_cell_length_c 9.495779
_cell_angle_alpha 43.859531
_cell_angle_beta 43.507587
_cell_angle_gamma 32.231730
_cell_volume 733.683611
_symmetry_space_group_name_H-M "P -1"
_symmetry_group_IT_number 2
_symmetry_cell_setting 'triclinic'
loop_
_space_group_symop_operation_xyz
x,y,z
-x,-y,-z
loop_
_atom_site_type_symbol
_atom_site_label
_atom_site_fract_x
_atom_site_fract_y
_atom_site_fract_z
Si Si1 0.627927 0.162543 0.080289
Si Si2 0.862094 0.220243 0.436088
Si Si3 0.438311 0.450014 0.333761
Si Si4 0.440433 0.329209 0.742016
Si Si5 0.826130 0.172422 0.244083
Si Si6 0.944582 0.482609 0.952307
Si Si7 0.338984 0.074935 0.029615
Si Si8 0.112030 0.071568 0.903142
O O1 0.530224 0.230230 0.295409
O O2 0.768200 0.085271 0.014537
O O3 0.547986 0.384301 0.902978
O O4 0.663335 0.976730 0.084883
O O5 0.726983 0.399828 0.567115
O O6 0.820429 0.133959 0.451164
O O7 0.890155 0.364097 0.192410
O O8 0.000000 0.000000 0.500000
O O9 0.475310 0.396790 0.491843
O O10 0.305630 0.556431 0.815777
O O11 0.567950 0.153248 0.814491
O O12 0.401579 0.190172 0.858570
O O13 0.823269 0.035166 0.249816
O O14 0.978048 0.095838 0.080301
O O15 0.818763 0.732195 0.860690
O O16 0.000000 0.500000 0.000000
O O17 0.051534 0.318019 0.818504
#
# Coordination Sequence:
#
# PCOD9086854 Si02
#       8
#     2   2   2   2   2   2   2   2
#     4  11  24  37  64  93 125 162 212 262 320 355
#     4  10  20  40  62  90 121 166 213 253 307 372
#     4  10  22  41  57  95 125 163 212 260 304 373
#     4  10  22  42  63  89 124 165 214 248 318 378
#     4   9  19  36  62  87 119 159 204 261 300 367
#     4  11  20  39  65  90 124 162 208 255 313 376
#     4  11  22  40  63  93 122 171 202 253 321 380
#     4  10  19  36  60  91 118 158 206 259 306 364
#
# _framework density 21.807766000000001
#
# number of rings (size 3 to 8) (size 9 to 14) (size 15 to 20)
#    0.000    1.750    5.000    1.500    3.500    1.000 
#    2.250    0.000    0.000    1.500    0.000    0.000 
#    0.000    0.000    0.000    0.000    0.000    0.000 
#
# Total GULP energy -89191.837354 kJ/mol
# GULP energy per Si atom -5574.489835 kJ/mol
# Density = 2.175813 g / cm^3
# Si number density = 21.807766 Si / 1000 Ang^3
#
#
#
# Elastic Constant Matrix: (Units=GPa)
#
#
# Indices 1 2 3 4 5 6 
#
# 1 139.8306 72.1384 26.4846 4.2033 30.4445 8.8907
# 2 72.1384 172.7869 46.7129 15.9648 32.8149 -3.4216
# 3 26.4846 46.7129 51.2172 7.8988 11.2316 -4.0789
# 4 4.2033 15.9648 7.8988 30.6787 0.8250 16.4864
# 5 30.4445 32.8149 11.2316 0.8250 30.6619 -1.4538
# 6 8.8907 -3.4216 -4.0789 16.4864 -1.4538 51.8775
#
#
#
# Elastic Compliance Matrix: (Units=1/GPa)
#
#
# Indices 1 2 3 4 5 6 
#
# 1 0.010658 -0.002870 -0.001981 0.002417 -0.006999 -0.003136
# 2 -0.002870 0.009989 -0.005597 -0.004234 -0.005586 0.001900
# 3 -0.001981 -0.005597 0.027246 -0.005904 -0.001678 0.003942
# 4 0.002417 -0.004234 -0.005904 0.044030 0.002395 -0.015083
# 5 -0.006999 -0.005586 -0.001678 0.002395 0.046149 0.001231
# 6 -0.003136 0.001900 0.003942 -0.015083 0.001231 0.025077
#
#
# Mechanical properties :
#
#
# Convention : Reuss Voigt Hill
#
# Bulk Modulus (GPa) = 37.04179 72.72294 54.88237
# Shear Modulus (GPa) = 25.90090 37.21020 31.55555
#
# Velocity S-wave (km/s) = 3.45003 4.13520 3.80805
# Velocity P-wave (km/s) = 5.73522 7.49797 6.67504
#
# Compressibility (1/GPa) = 0.02699654
#
# Stress axis : x y z
#
# Youngs Moduli (GPa) = 93.82556 100.11381 36.70264
#
# Poissons Ratio (x) = 0.28737 0.07271
# Poissons Ratio (y) = 0.26932 0.20541
# Poissons Ratio (z) = 0.18588 0.56029
#
# Static dielectric constant tensor:
#      x y z
#    x 1.873850 0.025010 -0.014410 
#    y 0.025010 1.861730 0.028230 
#    z -0.014410 0.028230 1.829230 
# 
# From -- ./inp_files/256334.got.cif
#   From: 2010.05.17/outbox.cif.g08.bks.cpg/sg2_129_cif.got.tgz:256334.got - 2010.06.03 11:33:40.
