data_PCOD9086240
_publ_section_title
;
Structure prediction by ZEFSAII (Michael W. Deem and Ramdas Pophale) SiO2 
 PCOD9086240
Probable space group: P -1
;
_chemical_formula_sum "Si O2"
_cell_formula_units_Z 16
_cell_length_a 16.947665
_cell_length_b 8.954279
_cell_length_c 10.370891
_cell_angle_alpha 96.853719
_cell_angle_beta 47.757544
_cell_angle_gamma 133.812242
_cell_volume 640.484784
_symmetry_space_group_name_H-M "P -1"
_symmetry_group_IT_number 2
_symmetry_cell_setting 'triclinic'
loop_
_space_group_symop_operation_xyz
x,y,z
-x,-y,-z
loop_
_atom_site_type_symbol
_atom_site_label
_atom_site_fract_x
_atom_site_fract_y
_atom_site_fract_z
Si Si1 0.792416 0.321343 0.669933
Si Si2 0.659467 0.630356 0.022073
Si Si3 0.424962 0.654335 0.527895
Si Si4 0.317829 0.221080 0.557820
Si Si5 0.714982 0.217325 0.189643
Si Si6 0.975239 0.833277 0.608042
Si Si7 0.359629 0.143726 0.118356
Si Si8 0.122364 0.688770 0.697668
O O1 0.827335 0.532784 0.690875
O O2 0.776035 0.271898 0.530216
O O3 0.000000 0.500000 0.500000
O O4 0.646646 0.043322 0.879451
O O5 0.498554 0.418903 0.283625
O O6 0.557883 0.437709 0.988007
O O7 0.860097 0.782350 0.844055
O O8 0.681291 0.828922 0.972577
O O9 0.273558 0.347539 0.621627
O O10 0.596026 0.748229 0.402027
O O11 0.345384 0.678575 0.723827
O O12 0.531227 0.893718 0.338481
O O13 0.156051 0.907873 0.673591
O O14 0.794667 0.272994 0.253232
O O15 0.893109 0.396212 0.919498
O O16 0.000000 0.000000 0.500000
O O17 0.186431 0.005953 0.385709
#
# Coordination Sequence:
#
# PCOD9086240 Si02
#       8
#     2   2   2   2   2   2   2   2
#     4  10  20  36  56  83 118 154 194 239 289 349
#     4  10  19  36  57  79 115 156 187 243 290 340
#     4   9  20  38  59  86 114 146 193 243 290 363
#     4  10  20  37  59  85 116 147 193 243 297 345
#     4   9  20  39  60  85 115 151 193 235 301 348
#     4   9  20  36  54  79 115 152 195 237 282 348
#     4   9  19  36  53  79 114 148 196 236 280 347
#     4  10  20  38  60  85 119 150 189 247 288 351
#
# _framework density 24.981079000000001
#
# number of rings (size 3 to 8) (size 9 to 14) (size 15 to 20)
#    0.000    2.500    1.250    0.000    0.000    6.000 
#    6.750    1.250    0.000    0.000    0.000    0.000 
#    0.000    0.000    0.000    0.000    0.000    0.000 
#
# Total GULP energy -89201.080439 kJ/mol
# GULP energy per Si atom -5575.067527 kJ/mol
# Density = 2.492422 g / cm^3
# Si number density = 24.981079 Si / 1000 Ang^3
#
#
#
# Elastic Constant Matrix: (Units=GPa)
#
#
# Indices 1 2 3 4 5 6 
#
# 1 68.1777 43.9792 15.6411 -1.6911 -2.9074 -19.6650
# 2 43.9792 109.4633 20.7078 -16.0929 -2.4140 -42.8340
# 3 15.6411 20.7078 70.8335 -15.1103 1.3814 -15.4632
# 4 -1.6911 -16.0929 -15.1103 35.4143 -8.4777 1.9321
# 5 -2.9074 -2.4140 1.3814 -8.4777 32.4116 1.6906
# 6 -19.6650 -42.8340 -15.4632 1.9321 1.6906 39.8833
#
#
#
# Elastic Compliance Matrix: (Units=1/GPa)
#
#
# Indices 1 2 3 4 5 6 
#
# 1 0.020626 -0.008097 -0.002909 -0.003886 0.000328 0.000520
# 2 -0.008097 0.020626 0.001672 0.009230 0.002200 0.018267
# 3 -0.002909 0.001672 0.017396 0.007878 0.000834 0.006689
# 4 -0.003886 0.009230 0.007878 0.037354 0.009312 0.008847
# 5 0.000328 0.002200 0.000834 0.009312 0.033395 0.000981
# 6 0.000520 0.018267 0.006689 0.008847 0.000981 0.047072
#
#
# Mechanical properties :
#
#
# Convention : Reuss Voigt Hill
#
# Bulk Modulus (GPa) = 25.01321 45.45898 35.23609
# Shear Modulus (GPa) = 23.98513 32.75160 28.36837
#
# Velocity S-wave (km/s) = 3.10196 3.62478 3.37351
# Velocity P-wave (km/s) = 4.78165 5.97960 5.41386
#
# Compressibility (1/GPa) = 0.03997888
#
# Stress axis : x y z
#
# Youngs Moduli (GPa) = 48.48334 48.48261 57.48568
#
# Poissons Ratio (x) = 0.39256 0.16723
# Poissons Ratio (y) = 0.39257 -0.09611
# Poissons Ratio (z) = 0.14104 -0.08106
#
# Static dielectric constant tensor:
#      x y z
#    x 2.072360 0.044800 -0.004010 
#    y 0.044800 2.102860 0.022570 
#    z -0.004010 0.022570 2.001040 
# 
# From -- ./inp_files/221159.got.cif
#   From: 2010.05.17/outbox.cif.g08.bks.cpg/sg2_111_cif.got.tgz:221159.got - 2010.06.03 11:33:40.
