data_PCOD9086963
_publ_section_title
;
Structure prediction by ZEFSAII (Michael W. Deem and Ramdas Pophale) SiO2 
 PCOD9086963
Probable space group: P -1
;
_chemical_formula_sum "Si O2"
_cell_formula_units_Z 16
_cell_length_a 12.441413
_cell_length_b 12.998641
_cell_length_c 11.266094
_cell_angle_alpha 30.215124
_cell_angle_beta 115.734387
_cell_angle_gamma 95.280309
_cell_volume 644.987160
_symmetry_space_group_name_H-M "P -1"
_symmetry_group_IT_number 2
_symmetry_cell_setting 'triclinic'
loop_
_space_group_symop_operation_xyz
x,y,z
-x,-y,-z
loop_
_atom_site_type_symbol
_atom_site_label
_atom_site_fract_x
_atom_site_fract_y
_atom_site_fract_z
Si Si1 0.941826 0.639979 0.187753
Si Si2 0.931738 0.943010 0.686696
Si Si3 0.582038 0.791398 0.610862
Si Si4 0.569803 0.116783 0.083994
Si Si5 0.761470 0.280756 0.047771
Si Si6 0.699927 0.143108 0.691849
Si Si7 0.710438 0.826041 0.211878
Si Si8 0.749057 0.461018 0.246102
O O1 0.857009 0.519986 0.289297
O O2 0.121379 0.422615 0.493426
O O3 0.903006 0.757935 0.918838
O O4 0.869835 0.888181 0.990524
O O5 0.113206 0.790558 0.917749
O O6 0.858163 0.035915 0.429387
O O7 0.848648 0.202115 0.469129
O O8 0.418142 0.861736 0.439430
O O9 0.580436 0.012155 0.325555
O O10 0.698968 0.535944 0.839247
O O11 0.631613 0.696408 0.864208
O O12 0.616618 0.303003 0.916428
O O13 0.691463 0.880419 0.288273
O O14 0.412023 0.207271 0.860541
O O15 0.682784 0.392129 0.388987
O O16 0.676633 0.078308 0.876772
#
# Coordination Sequence:
#
# PCOD9086963 Si02
#       8
#     2   2   2   2   2   2   2   2
#     4  11  21  38  59  80 114 156 188 230 283 325
#     4   9  20  35  57  92 117 137 186 235 280 349
#     4  10  21  38  59  89 117 139 186 239 281 340
#     4  10  21  39  61  84 113 150 187 231 286 335
#     4  10  19  36  61  86 116 148 178 232 296 336
#     4  10  23  39  55  82 116 150 195 234 267 332
#     4  10  22  40  57  82 117 149 194 237 266 330
#     4  10  21  37  61  86 113 149 184 232 289 334
#
# _framework density 24.806694
#
# number of rings (size 3 to 8) (size 9 to 14) (size 15 to 20)
#    0.000    2.000    0.000    3.000    0.000    3.000 
#    0.000   22.500    0.000    0.000    0.000    0.000 
#    0.000    0.000    0.000    0.000    0.000    0.000 
#
# Total GULP energy -89542.733927 kJ/mol
# GULP energy per Si atom -5596.420870 kJ/mol
# Density = 2.475023 g / cm^3
# Si number density = 24.806694 Si / 1000 Ang^3
#
#
#
# Elastic Constant Matrix: (Units=GPa)
#
#
# Indices 1 2 3 4 5 6 
#
# 1 133.0074 23.2806 36.5196 2.5404 -16.2393 -0.5768
# 2 23.2806 51.0576 11.6024 4.9020 -9.1239 -13.8580
# 3 36.5196 11.6024 103.5615 0.4954 -3.3549 -7.3169
# 4 2.5404 4.9020 0.4954 17.0337 -11.7121 -5.7875
# 5 -16.2393 -9.1239 -3.3549 -11.7121 42.2396 -2.6159
# 6 -0.5768 -13.8580 -7.3169 -5.7875 -2.6159 35.3129
#
#
#
# Elastic Compliance Matrix: (Units=1/GPa)
#
#
# Indices 1 2 3 4 5 6 
#
# 1 0.009245 -0.003568 -0.002878 0.001154 0.002785 -0.001450
# 2 -0.003568 0.024868 -0.000684 -0.000146 0.004516 0.009870
# 3 -0.002878 -0.000684 0.010893 0.001051 0.000034 0.002117
# 4 0.001154 -0.000146 0.001051 0.079851 0.023566 0.015012
# 5 0.002785 0.004516 0.000034 0.023566 0.032760 0.008114
# 6 -0.001450 0.009870 0.002117 0.015012 0.008114 0.035668
#
#
# Mechanical properties :
#
#
# Convention : Reuss Voigt Hill
#
# Bulk Modulus (GPa) = 32.52380 47.82574 40.17477
# Shear Modulus (GPa) = 22.95755 33.33216 28.14486
#
# Velocity S-wave (km/s) = 3.04543 3.66960 3.37199
# Velocity P-wave (km/s) = 5.05031 6.10539 5.60274
#
# Compressibility (1/GPa) = 0.03074672
#
# Stress axis : x y z
#
# Youngs Moduli (GPa) = 108.16847 40.21259 91.80032
#
# Poissons Ratio (x) = 0.14348 0.26421
# Poissons Ratio (y) = 0.38594 0.06275
# Poissons Ratio (z) = 0.31132 0.02749
#
# Static dielectric constant tensor:
#      x y z
#    x 1.944510 -0.029370 -0.010590 
#    y -0.029370 1.915840 -0.012760 
#    z -0.010590 -0.012760 2.022880 
# 
# From -- ./inp_files/83302.got.cif
#   From: 2010.05.17/outbox.cif.g08.bks.cpg/sg2_42_cif.got.tgz:83302.got - 2010.06.03 11:33:40.
