data_PCOD9086459
_publ_section_title
;
Structure prediction by ZEFSAII (Michael W. Deem and Ramdas Pophale) SiO2 
 PCOD9086459
Probable space group: P -1
;
_chemical_formula_sum "Si O2"
_cell_formula_units_Z 14
_cell_length_a 8.526229
_cell_length_b 9.394252
_cell_length_c 15.628738
_cell_angle_alpha 103.308047
_cell_angle_beta 141.966235
_cell_angle_gamma 55.704330
_cell_volume 578.353820
_symmetry_space_group_name_H-M "P -1"
_symmetry_group_IT_number 2
_symmetry_cell_setting 'triclinic'
loop_
_space_group_symop_operation_xyz
x,y,z
-x,-y,-z
loop_
_atom_site_type_symbol
_atom_site_label
_atom_site_fract_x
_atom_site_fract_y
_atom_site_fract_z
Si Si1 0.221051 0.691477 0.087326
Si Si2 0.335159 0.611644 0.305565
Si Si3 0.565526 0.063321 0.796058
Si Si4 0.003130 0.071208 0.603379
Si Si5 0.745943 0.587892 0.614364
Si Si6 0.248663 0.958061 0.870256
Si Si7 0.938499 0.260028 0.156091
O O1 0.727850 0.198219 0.087145
O O2 0.331339 0.560026 0.198855
O O3 0.218353 0.619991 0.982705
O O4 0.845389 0.895806 0.957813
O O5 0.674477 0.540365 0.485367
O O6 0.175351 0.556289 0.296105
O O7 0.102970 0.838004 0.232900
O O8 0.215302 0.138554 0.686938
O O9 0.709119 0.938190 0.753236
O O10 0.572843 0.234249 0.818150
O O11 0.208730 0.924513 0.749125
O O12 0.627231 0.228719 0.492339
O O13 0.000000 0.000000 0.500000
O O14 0.979419 0.642482 0.728890
O O15 0.500000 0.000000 0.000000
#
# Coordination Sequence:
#
# PCOD9086459 Si02
#       7
#     2   2   2   2   2   2   2
#     4   9  16  32  58  75 107 142 185 227 276 320
#     4  10  20  38  54  82 116 153 178 225 283 341
#     4   9  17  32  58  83 108 134 186 239 268 317
#     4  11  20  34  54  85 115 140 186 233 268 324
#     4  10  23  35  54  81 121 152 180 221 284 334
#     4  11  22  36  62  86 106 143 190 238 279 320
#     4  10  19  36  58  87 105 144 193 228 276 330
#
# _framework density 24.206634000000001
#
# number of rings (size 3 to 8) (size 9 to 14) (size 15 to 20)
#    0.857    1.143    2.857    1.714    0.000    4.000 
#    0.000    1.429    0.000    1.714    0.000    0.000 
#    0.000    0.000    0.000    0.000    0.000    0.000 
#
# Total GULP energy -78080.673098 kJ/mol
# GULP energy per Si atom -5577.190936 kJ/mol
# Density = 2.415154 g / cm^3
# Si number density = 24.206634 Si / 1000 Ang^3
#
#
#
# Elastic Constant Matrix: (Units=GPa)
#
#
# Indices 1 2 3 4 5 6 
#
# 1 85.1455 13.9492 61.5101 -1.6510 -7.1516 15.4213
# 2 13.9492 47.2308 26.7708 -4.2148 -1.6560 4.2940
# 3 61.5101 26.7708 130.3019 12.0270 -14.3088 16.1623
# 4 -1.6510 -4.2148 12.0270 24.7795 5.9505 5.7781
# 5 -7.1516 -1.6560 -14.3088 5.9505 52.8794 3.4346
# 6 15.4213 4.2940 16.1623 5.7781 3.4346 25.9271
#
#
#
# Elastic Compliance Matrix: (Units=1/GPa)
#
#
# Indices 1 2 3 4 5 6 
#
# 1 0.019929 0.000828 -0.009346 0.007891 -0.000183 -0.007899
# 2 0.000828 0.025380 -0.006243 0.008351 -0.001562 -0.002458
# 3 -0.009346 -0.006243 0.014772 -0.009507 0.003671 -0.000983
# 4 0.007891 0.008351 -0.009507 0.050911 -0.006280 -0.010664
# 5 -0.000183 -0.001562 0.003671 -0.006280 0.020750 -0.003270
# 6 -0.007899 -0.002458 -0.000983 -0.010664 -0.003270 0.047098
#
#
# Mechanical properties :
#
#
# Convention : Reuss Voigt Hill
#
# Bulk Modulus (GPa) = 32.72412 51.90426 42.31419
# Shear Modulus (GPa) = 22.87819 31.41374 27.14596
#
# Velocity S-wave (km/s) = 3.07762 3.60631 3.35240
# Velocity P-wave (km/s) = 5.11634 6.23132 5.70116
#
# Compressibility (1/GPa) = 0.03055850
#
# Stress axis : x y z
#
# Youngs Moduli (GPa) = 50.17742 39.40042 67.69732
#
# Poissons Ratio (x) = -0.03261 0.63273
# Poissons Ratio (y) = -0.04153 0.42260
# Poissons Ratio (z) = 0.46898 0.24596
#
# Static dielectric constant tensor:
#      x y z
#    x 2.009040 -0.057700 -0.045620 
#    y -0.057700 1.938110 0.032740 
#    z -0.045620 0.032740 2.027410 
# 
# From -- ./inp_files/567492.got.cif
#   From: 2010.05.17/outbox.cif.g08.bks.cpg/sg2_284_cif.got.tgz:567492.got - 2010.06.03 11:33:40.
