data_PCOD9086650
_publ_section_title
;
Structure prediction by ZEFSAII (Michael W. Deem and Ramdas Pophale) SiO2 
 PCOD9086650
Probable space group: P -1
;
_chemical_formula_sum "Si O2"
_cell_formula_units_Z 16
_cell_length_a 11.756025
_cell_length_b 9.663720
_cell_length_c 11.846418
_cell_angle_alpha 120.938427
_cell_angle_beta 130.753805
_cell_angle_gamma 72.861167
_cell_volume 872.708283
_symmetry_space_group_name_H-M "P -1"
_symmetry_group_IT_number 2
_symmetry_cell_setting 'triclinic'
loop_
_space_group_symop_operation_xyz
x,y,z
-x,-y,-z
loop_
_atom_site_type_symbol
_atom_site_label
_atom_site_fract_x
_atom_site_fract_y
_atom_site_fract_z
Si Si1 0.402010 0.521149 0.335341
Si Si2 0.358513 0.898184 0.413695
Si Si3 0.700719 0.074778 0.043163
Si Si4 0.918665 0.639768 0.947199
Si Si5 0.766434 0.054622 0.414187
Si Si6 0.873832 0.125448 0.947371
Si Si7 0.464052 0.769661 0.807434
Si Si8 0.904156 0.898867 0.245640
O O1 0.500000 0.500000 0.500000
O O2 0.386183 0.707664 0.369404
O O3 0.240968 0.435630 0.225918
O O4 0.475934 0.406602 0.242803
O O5 0.325043 0.977794 0.545313
O O6 0.220369 0.910254 0.242831
O O7 0.500000 0.000000 0.500000
O O8 0.597177 0.195447 0.092688
O O9 0.853448 0.053932 0.206556
O O10 0.757316 0.119819 0.973747
O O11 0.597389 0.904931 0.914603
O O12 0.896169 0.766340 0.087078
O O13 0.000000 0.500000 0.000000
O O14 0.024580 0.712501 0.947120
O O15 0.676395 0.190662 0.348175
O O16 0.933829 0.103402 0.590517
O O17 0.786740 0.908380 0.277908
O O18 0.000000 0.000000 0.000000
#
# Coordination Sequence:
#
# PCOD9086650 Si02
#       8
#     2   2   2   2   2   2   2   2
#     4  12  24  42  63  90 122 166 208 257 315 368
#     4  12  25  40  59  93 127 160 206 259 314 368
#     4  10  20  37  61  94 119 165 204 253 305 369
#     4  12  23  41  62  93 124 163 212 258 309 368
#     4  10  19  36  59  90 119 159 203 249 297 365
#     4  12  22  38  64  91 124 159 206 257 307 366
#     4  10  20  37  63  88 125 160 210 247 307 374
#     4  10  19  36  62  86 120 158 207 249 297 361
#
# _framework density 18.333732000000001
#
# number of rings (size 3 to 8) (size 9 to 14) (size 15 to 20)
#    0.000    1.000    6.250    0.750    1.750    0.000 
#    0.000    1.875    0.000    0.750    0.000    0.000 
#    0.000    0.000    0.000    0.000    0.000    0.000 
#
# Total GULP energy -89122.361179 kJ/mol
# GULP energy per Si atom -5570.147574 kJ/mol
# Density = 1.829200 g / cm^3
# Si number density = 18.333732 Si / 1000 Ang^3
#
#
#
# Elastic Constant Matrix: (Units=GPa)
#
#
# Indices 1 2 3 4 5 6 
#
# 1 146.8698 43.2092 29.3994 14.3089 -20.7428 11.0084
# 2 43.2092 61.2444 10.1821 -5.1453 1.3507 5.0606
# 3 29.3994 10.1821 69.5795 -11.9011 8.9618 7.7301
# 4 14.3089 -5.1453 -11.9011 31.6228 -5.2403 1.9484
# 5 -20.7428 1.3507 8.9618 -5.2403 42.9693 -3.7591
# 6 11.0084 5.0606 7.7301 1.9484 -3.7591 27.4527
#
#
#
# Elastic Compliance Matrix: (Units=1/GPa)
#
#
# Indices 1 2 3 4 5 6 
#
# 1 0.012229 -0.008419 -0.006138 -0.008136 0.006442 -0.000164
# 2 -0.008419 0.022846 0.002448 0.007857 -0.004572 -0.002708
# 3 -0.006138 0.002448 0.019680 0.009838 -0.006391 -0.005105
# 4 -0.008136 0.007857 0.009838 0.040257 -0.001670 -0.004042
# 5 0.006442 -0.004572 -0.006391 -0.001670 0.028006 0.004013
# 6 -0.000164 -0.002708 -0.005105 -0.004042 0.004013 0.039265
#
#
# Mechanical properties :
#
#
# Convention : Reuss Voigt Hill
#
# Bulk Modulus (GPa) = 32.74820 49.25278 41.00049
# Shear Modulus (GPa) = 25.42174 33.40251 29.41213
#
# Velocity S-wave (km/s) = 3.72776 4.27302 4.00967
# Velocity P-wave (km/s) = 6.03567 7.16016 6.62183
#
# Compressibility (1/GPa) = 0.03053603
#
# Stress axis : x y z
#
# Youngs Moduli (GPa) = 81.77163 43.77158 50.81193
#
# Poissons Ratio (x) = 0.36853 0.31189
# Poissons Ratio (y) = 0.68847 -0.12438
# Poissons Ratio (z) = 0.50193 -0.10715
#
# Static dielectric constant tensor:
#      x y z
#    x 1.660830 -0.046660 -0.004610 
#    y -0.046660 1.639960 -0.001960 
#    z -0.004610 -0.001960 1.676610 
# 
# From -- ./inp_files/252129.got.cif
#   From: 2010.05.17/outbox.cif.g08.bks.cpg/sg2_127_cif.got.tgz:252129.got - 2010.06.03 11:33:40.
