data_PCOD9086537
_publ_section_title
;
Structure prediction by ZEFSAII (Michael W. Deem and Ramdas Pophale) SiO2 
 PCOD9086537
Probable space group: P -1
;
_chemical_formula_sum "Si O2"
_cell_formula_units_Z 8
_cell_length_a 8.904743
_cell_length_b 5.559485
_cell_length_c 9.171526
_cell_angle_alpha 55.209593
_cell_angle_beta 54.186517
_cell_angle_gamma 49.132441
_cell_volume 265.074393
_symmetry_space_group_name_H-M "P -1"
_symmetry_group_IT_number 2
_symmetry_cell_setting 'triclinic'
loop_
_space_group_symop_operation_xyz
x,y,z
-x,-y,-z
loop_
_atom_site_type_symbol
_atom_site_label
_atom_site_fract_x
_atom_site_fract_y
_atom_site_fract_z
Si Si1 0.830974 0.606391 0.918699
Si Si2 0.388122 0.895148 0.397132
Si Si3 0.497986 0.408723 0.201815
Si Si4 0.035176 0.873374 0.260225
O O1 0.960972 0.310152 0.829975
O O2 0.682711 0.912940 0.784631
O O3 0.931542 0.798796 0.887207
O O4 0.672980 0.501127 0.127141
O O5 0.500000 0.500000 0.500000
O O6 0.546180 0.030316 0.316421
O O7 0.165073 0.038773 0.558043
O O8 0.250606 0.610049 0.312095
O O9 0.500000 0.500000 0.000000
#
# Coordination Sequence:
#
# PCOD9086537 Si02
#       4
#     2   2   2   2
#     4  10  20  38  59  79 105 145 184 216 262 327
#     4  10  20  35  55  84 112 139 178 228 269 309
#     4   8  17  35  56  79 105 143 181 216 262 325
#     4  10  19  36  59  80 105 145 183 216 262 325
#
# _framework density 30.180205000000001
#
# number of rings (size 3 to 8) (size 9 to 14) (size 15 to 20)
#    0.000    3.000    0.000    4.500    0.000    0.000 
#    0.000   23.750    0.000    0.000    0.000    1.750 
#    0.000    0.000    0.000    0.000    0.000    0.000 
#
# Total GULP energy -44779.030795 kJ/mol
# GULP energy per Si atom -5597.378849 kJ/mol
# Density = 3.011151 g / cm^3
# Si number density = 30.180205 Si / 1000 Ang^3
#
#
#
# Elastic Constant Matrix: (Units=GPa)
#
#
# Indices 1 2 3 4 5 6 
#
# 1 163.7927 64.2776 54.5743 5.1836 -51.7286 17.2608
# 2 64.2776 222.0205 96.6294 -24.8078 -71.7446 10.6752
# 3 54.5743 96.6294 210.4579 -27.5209 -53.1625 14.5203
# 4 5.1836 -24.8078 -27.5209 71.0999 11.7750 -25.1965
# 5 -51.7286 -71.7446 -53.1625 11.7750 69.9093 -2.4998
# 6 17.2608 10.6752 14.5203 -25.1965 -2.4998 64.6392
#
#
#
# Elastic Compliance Matrix: (Units=1/GPa)
#
#
# Indices 1 2 3 4 5 6 
#
# 1 0.008849 -0.000552 -0.000775 -0.003209 0.005821 -0.003123
# 2 -0.000552 0.007338 -0.001652 0.000986 0.005697 -0.000089
# 3 -0.000775 -0.001652 0.006546 0.001498 0.002446 -0.000312
# 4 -0.003209 0.000986 0.001498 0.018347 -0.003048 0.007391
# 5 0.005821 0.005697 0.002446 -0.003048 0.026717 -0.003200
# 6 -0.003123 -0.000089 -0.000312 0.007391 -0.003200 0.019147
#
#
# Mechanical properties :
#
#
# Convention : Reuss Voigt Hill
#
# Bulk Modulus (GPa) = 59.61030 114.13706 86.87368
# Shear Modulus (GPa) = 50.76472 66.51566 58.64019
#
# Velocity S-wave (km/s) = 4.10573 4.69972 4.41273
# Velocity P-wave (km/s) = 6.50157 8.20673 7.40341
#
# Compressibility (1/GPa) = 0.01677562
#
# Stress axis : x y z
#
# Youngs Moduli (GPa) = 113.00600 136.27140 152.75853
#
# Poissons Ratio (x) = 0.07523 0.11838
# Poissons Ratio (y) = 0.06239 0.25235
# Poissons Ratio (z) = 0.08758 0.22512
#
# Static dielectric constant tensor:
#      x y z
#    x 2.644610 0.201440 0.114530 
#    y 0.201440 2.819190 -0.051210 
#    z 0.114530 -0.051210 2.248670 
# 
# From -- ./inp_files/16042.got.cif
#   From: 2010.05.17/outbox.cif.g08.bks.cpg/sg2_9_cif.got.tgz:16042.got - 2010.06.03 11:33:40.
