data_PCOD9086558
_publ_section_title
;
Structure prediction by ZEFSAII (Michael W. Deem and Ramdas Pophale) SiO2 
 PCOD9086558
Probable space group: P -1
;
_chemical_formula_sum "Si O2"
_cell_formula_units_Z 16
_cell_length_a 9.206738
_cell_length_b 15.675537
_cell_length_c 21.906666
_cell_angle_alpha 152.029977
_cell_angle_beta 144.014206
_cell_angle_gamma 38.551782
_cell_volume 844.819236
_symmetry_space_group_name_H-M "P -1"
_symmetry_group_IT_number 2
_symmetry_cell_setting 'triclinic'
loop_
_space_group_symop_operation_xyz
x,y,z
-x,-y,-z
loop_
_atom_site_type_symbol
_atom_site_label
_atom_site_fract_x
_atom_site_fract_y
_atom_site_fract_z
Si Si1 0.023721 0.736460 0.106550
Si Si2 0.920362 0.161944 0.623731
Si Si3 0.193561 0.045672 0.423750
Si Si4 0.199001 0.807167 0.928379
Si Si5 0.289055 0.340701 0.929127
Si Si6 0.978884 0.529133 0.403878
Si Si7 0.519034 0.801732 0.909486
Si Si8 0.607229 0.548600 0.405927
O O1 0.878672 0.699828 0.095804
O O2 0.100568 0.931369 0.264525
O O3 0.260848 0.563152 0.064589
O O4 0.814437 0.726109 0.978764
O O5 0.661460 0.305447 0.604251
O O6 0.143598 0.269753 0.779502
O O7 0.876075 0.054692 0.602763
O O8 0.000000 0.000000 0.500000
O O9 0.062394 0.267184 0.513269
O O10 0.500000 0.000000 0.500000
O O11 0.080572 0.629073 0.761316
O O12 0.349427 0.823479 0.926827
O O13 0.418742 0.761520 0.025630
O O14 0.000000 0.000000 0.000000
O O15 0.779818 0.568414 0.418120
O O16 0.245971 0.444509 0.476367
O O17 0.431369 0.659998 0.745256
O O18 0.500000 0.000000 0.000000
#
# Coordination Sequence:
#
# PCOD9086558 Si02
#       8
#     2   2   2   2   2   2   2   2
#     4   9  17  31  59  83 104 140 192 238 262 325
#     4  11  23  38  59  86 120 153 186 238 296 339
#     4  11  20  36  61  87 112 149 200 234 277 344
#     4  10  22  38  58  82 115 151 186 232 288 338
#     4   9  18  35  58  80 107 148 193 226 277 335
#     4  10  21  37  60  88 115 150 194 238 281 342
#     4  10  19  36  59  83 110 145 191 233 278 335
#     4  10  20  38  60  85 117 152 190 237 288 337
#
# _framework density 18.938962
#
# number of rings (size 3 to 8) (size 9 to 14) (size 15 to 20)
#    0.000    2.000    2.500    1.500    5.250    0.000 
#    2.250    0.625    0.000    2.250    0.000    0.000 
#    0.000    0.000    0.000    0.000    0.000    0.000 
#
# Total GULP energy -89179.341185 kJ/mol
# GULP energy per Si atom -5573.708824 kJ/mol
# Density = 1.889586 g / cm^3
# Si number density = 18.938962 Si / 1000 Ang^3
#
#
#
# Elastic Constant Matrix: (Units=GPa)
#
#
# Indices 1 2 3 4 5 6 
#
# 1 12.2488 22.8635 23.2990 2.4107 2.2879 -7.6260
# 2 22.8635 143.2978 65.7579 6.4366 -0.6530 -23.7988
# 3 23.2990 65.7579 138.1549 2.2105 5.1317 -13.5438
# 4 2.4107 6.4366 2.2105 41.0854 3.4460 4.7731
# 5 2.2879 -0.6530 5.1317 3.4460 19.2495 8.5977
# 6 -7.6260 -23.7988 -13.5438 4.7731 8.5977 27.7694
#
#
#
# Elastic Compliance Matrix: (Units=1/GPa)
#
#
# Indices 1 2 3 4 5 6 
#
# 1 0.170225 -0.012311 -0.017712 -0.008969 -0.031704 0.038916
# 2 -0.012311 0.011059 -0.002717 -0.001480 0.000676 0.004817
# 3 -0.017712 -0.002717 0.011350 0.001090 -0.000446 -0.001706
# 4 -0.008969 -0.001480 0.001090 0.025957 -0.000580 -0.007482
# 5 -0.031704 0.000676 -0.000446 -0.000580 0.069218 -0.029676
# 6 0.038916 0.004817 -0.001706 -0.007482 -0.029676 0.060468
#
#
# Mechanical properties :
#
#
# Convention : Reuss Voigt Hill
#
# Bulk Modulus (GPa) = 7.86435 57.50472 32.68454
# Shear Modulus (GPa) = 10.96152 29.73960 20.35056
#
# Velocity S-wave (km/s) = 2.40840 3.96698 3.28157
# Velocity P-wave (km/s) = 3.44896 7.17020 5.62615
#
# Compressibility (1/GPa) = 0.12715605
#
# Stress axis : x y z
#
# Youngs Moduli (GPa) = 5.87457 90.42430 88.10331
#
# Poissons Ratio (x) = 1.11317 1.56047
# Poissons Ratio (y) = 0.07232 0.23936
# Poissons Ratio (z) = 0.10405 0.24567
#
# Static dielectric constant tensor:
#      x y z
#    x 1.647210 -0.033930 0.026420 
#    y -0.033930 1.570030 0.019800 
#    z 0.026420 0.019800 1.643150 
# 
# From -- ./inp_files/256780.got.cif
#   From: 2010.05.17/outbox.cif.g08.bks.cpg/sg2_129_cif.got.tgz:256780.got - 2010.06.03 11:33:40.
