data_PCOD9086767
_publ_section_title
;
Structure prediction by ZEFSAII (Michael W. Deem and Ramdas Pophale) SiO2 
 PCOD9086767
Probable space group: P -1
;
_chemical_formula_sum "Si O2"
_cell_formula_units_Z 14
_cell_length_a 12.801130
_cell_length_b 20.274465
_cell_length_c 8.830347
_cell_angle_alpha 152.054020
_cell_angle_beta 49.553610
_cell_angle_gamma 140.141463
_cell_volume 685.034511
_symmetry_space_group_name_H-M "P -1"
_symmetry_group_IT_number 2
_symmetry_cell_setting 'triclinic'
loop_
_space_group_symop_operation_xyz
x,y,z
-x,-y,-z
loop_
_atom_site_type_symbol
_atom_site_label
_atom_site_fract_x
_atom_site_fract_y
_atom_site_fract_z
Si Si1 0.062029 0.841516 0.160195
Si Si2 0.517812 0.303241 0.287070
Si Si3 0.206186 0.141105 0.417355
Si Si4 0.402538 0.943474 0.134238
Si Si5 0.347586 0.147395 0.816724
Si Si6 0.835457 0.669987 0.734815
Si Si7 0.911622 0.095100 0.229109
O O1 0.207579 0.822926 0.038376
O O2 0.935926 0.821083 0.367542
O O3 0.168210 0.035774 0.393587
O O4 0.946552 0.728367 0.900251
O O5 0.383510 0.294833 0.513273
O O6 0.687698 0.479741 0.493713
O O7 0.543019 0.158596 0.025720
O O8 0.449990 0.264365 0.099778
O O9 0.177327 0.004702 0.042729
O O10 0.438665 0.108176 0.525127
O O11 0.500000 0.000000 0.000000
O O12 0.223931 0.962303 0.632691
O O13 0.246679 0.221431 0.991949
O O14 0.954481 0.719618 0.576981
O O15 0.000000 0.000000 0.000000
#
# Coordination Sequence:
#
# PCOD9086767 Si02
#       7
#     2   2   2   2   2   2   2
#     4  10  19  36  60  86 123 165 207 238 306 366
#     4  11  23  39  63  98 127 155 202 262 315 355
#     4   9  17  33  58  86 114 160 207 246 280 368
#     4  12  24  41  64  89 126 168 206 251 303 376
#     4  10  21  41  66  89 118 167 211 249 301 371
#     4  10  21  37  66  96 125 153 205 266 307 357
#     4   8  15  31  58  84 112 151 202 242 292 350
#
# _framework density 20.436924999999999
#
# number of rings (size 3 to 8) (size 9 to 14) (size 15 to 20)
#    0.000    2.000    1.429    4.286    0.000    1.143 
#    0.000    0.714    0.000    0.000    0.000    0.000 
#    0.000    0.000    0.000    0.000    0.000    0.000 
#
# Total GULP energy -77994.800443 kJ/mol
# GULP energy per Si atom -5571.057175 kJ/mol
# Density = 2.039041 g / cm^3
# Si number density = 20.436925 Si / 1000 Ang^3
#
#
#
# Elastic Constant Matrix: (Units=GPa)
#
#
# Indices 1 2 3 4 5 6 
#
# 1 111.9089 2.8631 22.4765 -2.6794 14.9425 20.0623
# 2 2.8631 82.3073 25.2814 3.6328 12.1224 22.3748
# 3 22.4765 25.2814 45.6765 -10.2114 13.1249 3.8089
# 4 -2.6794 3.6328 -10.2114 35.5683 7.8344 1.6131
# 5 14.9425 12.1224 13.1249 7.8344 28.0934 0.5298
# 6 20.0623 22.3748 3.8089 1.6131 0.5298 27.1805
#
#
#
# Elastic Compliance Matrix: (Units=1/GPa)
#
#
# Indices 1 2 3 4 5 6 
#
# 1 0.013697 0.006622 -0.007212 0.000396 -0.006611 -0.014445
# 2 0.006622 0.022823 -0.013148 -0.003333 -0.005892 -0.021520
# 3 -0.007212 -0.013148 0.038730 0.014269 -0.012755 0.010121
# 4 0.000396 -0.003333 0.014269 0.036051 -0.015466 -0.001386
# 5 -0.006611 -0.005892 -0.012755 -0.015466 0.051711 0.011427
# 6 -0.014445 -0.021520 0.010121 -0.001386 0.011427 0.063609
#
#
# Mechanical properties :
#
#
# Convention : Reuss Voigt Hill
#
# Bulk Modulus (GPa) = 20.93230 37.90386 29.41808
# Shear Modulus (GPa) = 18.51692 30.78655 24.65174
#
# Velocity S-wave (km/s) = 3.01334 3.88547 3.47686
# Velocity P-wave (km/s) = 4.72986 6.22223 5.52665
#
# Compressibility (1/GPa) = 0.04777306
#
# Stress axis : x y z
#
# Youngs Moduli (GPa) = 73.01005 43.81570 25.81945
#
# Poissons Ratio (x) = -0.29014 0.18621
# Poissons Ratio (y) = -0.48346 0.33948
# Poissons Ratio (z) = 0.52656 0.57609
#
# Static dielectric constant tensor:
#      x y z
#    x 1.879910 0.041390 0.050210 
#    y 0.041390 1.811800 -0.013290 
#    z 0.050210 -0.013290 1.749030 
# 
# From -- ./inp_files/283471.got.cif
#   From: 2010.05.17/outbox.cif.g08.bks.cpg/sg2_142_cif.got.tgz:283471.got - 2010.06.03 11:33:40.
