data_PCOD9086273
_publ_section_title
;
Structure prediction by ZEFSAII (Michael W. Deem and Ramdas Pophale) SiO2 
 PCOD9086273
Probable space group: P -1
;
_chemical_formula_sum "Si O2"
_cell_formula_units_Z 16
_cell_length_a 16.669706
_cell_length_b 14.199711
_cell_length_c 25.996783
_cell_angle_alpha 159.055358
_cell_angle_beta 18.758027
_cell_angle_gamma 151.796696
_cell_volume 707.110899
_symmetry_space_group_name_H-M "P -1"
_symmetry_group_IT_number 2
_symmetry_cell_setting 'triclinic'
loop_
_space_group_symop_operation_xyz
x,y,z
-x,-y,-z
loop_
_atom_site_type_symbol
_atom_site_label
_atom_site_fract_x
_atom_site_fract_y
_atom_site_fract_z
Si Si1 0.222529 0.907351 0.605142
Si Si2 0.175496 0.656967 0.221240
Si Si3 0.888822 0.328503 0.084004
Si Si4 0.257983 0.566748 0.498949
Si Si5 0.264269 0.165722 0.610648
Si Si6 0.059302 0.993985 0.021231
Si Si7 0.476994 0.831937 0.219170
Si Si8 0.306348 0.191977 0.363133
O O1 0.188364 0.940805 0.582002
O O2 0.500000 0.000000 0.500000
O O3 0.196677 0.629932 0.509111
O O4 0.026838 0.114389 0.855045
O O5 0.245697 0.738217 0.278991
O O6 0.875945 0.643336 0.402393
O O7 0.246148 0.890686 0.259084
O O8 0.360726 0.405475 0.974834
O O9 0.928654 0.617900 0.184835
O O10 0.987725 0.265863 0.049488
O O11 0.593665 0.270552 0.235539
O O12 0.536614 0.664223 0.391714
O O13 0.244799 0.283078 0.388406
O O14 0.082055 0.768725 0.742181
O O15 0.401663 0.035416 0.412288
O O16 0.351058 0.047653 0.868100
O O17 0.000000 0.000000 0.000000
#
# Coordination Sequence:
#
# PCOD9086273 Si02
#       8
#     2   2   2   2   2   2   2   2
#     4   9  19  36  57  84 114 147 180 221 286 344
#     4  10  22  36  55  78 118 151 192 231 264 338
#     4  10  21  35  59  85 113 146 181 231 281 342
#     4   9  18  32  57  82 110 144 179 224 280 339
#     4  10  20  35  55  85 115 143 182 231 278 331
#     4  11  19  32  51  83 117 143 174 225 286 341
#     4  11  21  35  54  80 114 154 187 223 279 332
#     4  10  19  36  57  83 106 150 190 229 278 320
#
# _framework density 22.627285000000001
#
# number of rings (size 3 to 8) (size 9 to 14) (size 15 to 20)
#    0.000    2.000    3.750    0.375    0.000    1.500 
#    0.000    0.000    0.000    4.500    0.000    0.000 
#    0.000    0.000    0.000    0.000    0.000    0.000 
#
# Total GULP energy -89219.940813 kJ/mol
# GULP energy per Si atom -5576.246301 kJ/mol
# Density = 2.257578 g / cm^3
# Si number density = 22.627285 Si / 1000 Ang^3
#
#
#
# Elastic Constant Matrix: (Units=GPa)
#
#
# Indices 1 2 3 4 5 6 
#
# 1 79.1747 39.6417 11.3072 10.2298 -29.9638 -46.4791
# 2 39.6417 68.5565 9.9402 7.8285 -19.0505 -34.3426
# 3 11.3072 9.9402 49.3279 7.9593 -31.0059 -13.1859
# 4 10.2298 7.8285 7.9593 36.9952 -6.8796 -22.3512
# 5 -29.9638 -19.0505 -31.0059 -6.8796 14.6586 11.0379
# 6 -46.4791 -34.3426 -13.1859 -22.3512 11.0379 53.1824
#
#
#
# Elastic Compliance Matrix: (Units=1/GPa)
#
#
# Indices 1 2 3 4 5 6 
#
# 1 0.012560 -0.009674 -0.018271 0.001063 -0.030261 0.006928
# 2 -0.009674 0.021752 -0.006210 0.001774 -0.008795 0.006623
# 3 -0.018271 -0.006210 0.002221 -0.010504 -0.032826 -0.017029
# 4 0.001063 0.001774 -0.010504 0.036805 -0.013885 0.017820
# 5 -0.030261 -0.008795 -0.032826 -0.013885 -0.054883 -0.034710
# 6 0.006928 0.006623 -0.017029 0.017820 -0.034710 0.039606
#
#
# Mechanical properties :
#
#
# Convention : Reuss Voigt Hill
#
# Bulk Modulus (GPa) = -31.47109 35.42636 1.97764
# Shear Modulus (GPa) = 43.18578 30.04526 36.61552
#
# Velocity S-wave (km/s) = 4.37346 3.64790 4.02705
# Velocity P-wave (km/s) = 3.40062 5.78216 4.74329
#
# Compressibility (1/GPa) = -0.03177520
#
# Stress axis : x y z
#
# Youngs Moduli (GPa) = 79.61660 45.97339 450.17134
#
# Poissons Ratio (x) = 0.44473 8.22486
# Poissons Ratio (y) = 0.77018 2.79562
# Poissons Ratio (z) = 1.45464 0.28550
#
# Static dielectric constant tensor:
#      x y z
#    x 1.983870 -0.008710 0.010810 
#    y -0.008710 1.952960 -0.009070 
#    z 0.010810 -0.009070 1.885750 
# 
# From -- ./inp_files/357271.got.cif
#   From: 2010.05.17/outbox.cif.g08.bks.cpg/sg2_179_cif.got.tgz:357271.got - 2010.06.03 11:33:40.
