data_PCOD9086331
_publ_section_title
;
Structure prediction by ZEFSAII (Michael W. Deem and Ramdas Pophale) SiO2 
 PCOD9086331
Probable space group: P -1
;
_chemical_formula_sum "Si O2"
_cell_formula_units_Z 16
_cell_length_a 8.653047
_cell_length_b 21.018838
_cell_length_c 7.141184
_cell_angle_alpha 101.765735
_cell_angle_beta 53.599233
_cell_angle_gamma 61.023772
_cell_volume 655.009031
_symmetry_space_group_name_H-M "P -1"
_symmetry_group_IT_number 2
_symmetry_cell_setting 'triclinic'
loop_
_space_group_symop_operation_xyz
x,y,z
-x,-y,-z
loop_
_atom_site_type_symbol
_atom_site_label
_atom_site_fract_x
_atom_site_fract_y
_atom_site_fract_z
Si Si1 0.530993 0.362006 0.221156
Si Si2 0.767778 0.501206 0.170465
Si Si3 0.123937 0.167808 0.875839
Si Si4 0.685702 0.386832 0.748287
Si Si5 0.441615 0.845244 0.614312
Si Si6 0.335587 0.991177 0.365747
Si Si7 0.985460 0.952883 0.739560
Si Si8 0.186906 0.325669 0.484873
O O1 0.367032 0.465681 0.503643
O O2 0.283248 0.370696 0.371530
O O3 0.668762 0.344254 0.912585
O O4 0.777872 0.269440 0.131442
O O5 0.491214 0.591610 0.289451
O O6 0.000000 0.500000 0.000000
O O7 0.959448 0.395118 0.867708
O O8 0.275949 0.195243 0.710560
O O9 0.306937 0.108388 0.904609
O O10 0.219973 0.081061 0.627750
O O11 0.023116 0.324262 0.449046
O O12 0.500000 0.500000 0.000000
O O13 0.532211 0.783871 0.697545
O O14 0.241699 0.853297 0.623688
O O15 0.251403 0.956037 0.890198
O O16 0.174175 0.965749 0.531086
O O17 0.202070 0.033576 0.278394
#
# Coordination Sequence:
#
# PCOD9086331 Si02
#       8
#     2   2   2   2   2   2   2   2
#     4  11  22  42  65  89 128 168 200 263 313 353
#     4   9  22  41  64  92 122 164 206 255 305 375
#     4  10  20  36  58  85 125 159 204 256 302 368
#     4  10  22  41  64  92 122 159 209 257 306 378
#     4  10  19  36  57  87 122 159 201 257 305 362
#     4   9  19  37  57  87 117 160 208 243 311 371
#     4   9  19  35  60  83 121 159 200 254 308 365
#     4  10  21  39  62  89 126 160 211 254 307 374
#
# _framework density 24.427144999999999
#
# number of rings (size 3 to 8) (size 9 to 14) (size 15 to 20)
#    0.000    2.250    1.250    0.750    0.000    9.000 
#    4.500    2.500    5.500    0.000    0.000    0.000 
#    0.000    0.000    0.000    0.000    0.000    0.000 
#
# Total GULP energy -89286.489978 kJ/mol
# GULP energy per Si atom -5580.405624 kJ/mol
# Density = 2.437155 g / cm^3
# Si number density = 24.427145 Si / 1000 Ang^3
#
#
#
# Elastic Constant Matrix: (Units=GPa)
#
#
# Indices 1 2 3 4 5 6 
#
# 1 180.9830 35.3941 27.3039 -3.8402 -29.9564 -30.7717
# 2 35.3941 62.7270 -2.7407 6.8874 -12.2144 -12.0494
# 3 27.3039 -2.7407 37.7614 -3.3646 -13.2810 2.1447
# 4 -3.8402 6.8874 -3.3646 23.1943 4.0919 -4.8120
# 5 -29.9564 -12.2144 -13.2810 4.0919 32.9980 2.9123
# 6 -30.7717 -12.0494 2.1447 -4.8120 2.9123 31.3713
#
#
#
# Elastic Compliance Matrix: (Units=1/GPa)
#
#
# Indices 1 2 3 4 5 6 
#
# 1 0.009097 -0.003428 -0.005771 0.002726 0.003616 0.008084
# 2 -0.003428 0.020831 0.005921 -0.006716 0.007594 0.002499
# 3 -0.005771 0.005921 0.035629 -0.001150 0.012063 -0.007119
# 4 0.002726 -0.006716 -0.001150 0.048377 -0.007202 0.008262
# 5 0.003616 0.007594 0.012063 -0.007202 0.042091 0.000626
# 6 0.008084 0.002499 -0.007119 0.008262 0.000626 0.042461
#
#
# Mechanical properties :
#
#
# Convention : Reuss Voigt Hill
#
# Bulk Modulus (GPa) = 16.94865 44.59846 30.77355
# Shear Modulus (GPa) = 22.25084 32.28032 27.26558
#
# Velocity S-wave (km/s) = 3.02140 3.63918 3.34458
# Velocity P-wave (km/s) = 4.37325 5.99629 5.24790
#
# Compressibility (1/GPa) = 0.05900177
#
# Stress axis : x y z
#
# Youngs Moduli (GPa) = 109.92466 48.00517 28.06670
#
# Poissons Ratio (x) = 0.16455 0.16198
# Poissons Ratio (y) = 0.37679 -0.16618
# Poissons Ratio (z) = 0.63440 -0.28424
#
# Static dielectric constant tensor:
#      x y z
#    x 2.018380 -0.027300 -0.021070 
#    y -0.027300 1.968730 -0.007150 
#    z -0.021070 -0.007150 2.038970 
# 
# From -- ./inp_files/226348.got.cif
#   From: 2010.05.17/outbox.cif.g08.bks.cpg/sg2_114_cif.got.tgz:226348.got - 2010.06.03 11:33:40.
