data_PCOD9086804
_publ_section_title
;
Structure prediction by ZEFSAII (Michael W. Deem and Ramdas Pophale) SiO2 
 PCOD9086804
Probable space group: P -1
;
_chemical_formula_sum "Si O2"
_cell_formula_units_Z 16
_cell_length_a 9.279484
_cell_length_b 12.480566
_cell_length_c 9.031427
_cell_angle_alpha 107.868687
_cell_angle_beta 63.313504
_cell_angle_gamma 125.477040
_cell_volume 759.506403
_symmetry_space_group_name_H-M "P -1"
_symmetry_group_IT_number 2
_symmetry_cell_setting 'triclinic'
loop_
_space_group_symop_operation_xyz
x,y,z
-x,-y,-z
loop_
_atom_site_type_symbol
_atom_site_label
_atom_site_fract_x
_atom_site_fract_y
_atom_site_fract_z
Si Si1 0.722322 0.461378 0.457405
Si Si2 0.951063 0.390305 0.100093
Si Si3 0.191592 0.922017 0.774183
Si Si4 0.404747 0.874389 0.883844
Si Si5 0.733609 0.821070 0.736273
Si Si6 0.710561 0.689157 0.393493
Si Si7 0.055861 0.094872 0.837341
Si Si8 0.868618 0.656061 0.743058
O O1 0.832862 0.405194 0.295801
O O2 0.711985 0.560295 0.386418
O O3 0.506265 0.354937 0.551581
O O4 0.821251 0.546319 0.594710
O O5 0.805160 0.247541 0.035701
O O6 0.118708 0.393223 0.119781
O O7 0.000000 0.500000 0.000000
O O8 0.369869 0.926686 0.766918
O O9 0.072958 0.790323 0.676667
O O10 0.216255 0.054936 0.754141
O O11 0.038766 0.898462 0.964257
O O12 0.538134 0.814733 0.802829
O O13 0.500000 0.000000 0.000000
O O14 0.785281 0.786206 0.540833
O O15 0.729274 0.712639 0.804343
O O16 0.885860 0.968515 0.779092
O O17 0.847907 0.767792 0.231146
#
# Coordination Sequence:
#
# PCOD9086804 Si02
#       8
#     2   2   2   2   2   2   2   2
#     4  10  21  40  62  88 125 164 205 253 305 364
#     4  11  24  42  65  95 123 162 209 256 311 371
#     4   9  20  36  58  89 122 159 203 257 311 358
#     4  11  21  39  61  87 126 159 196 260 316 355
#     4  10  19  38  63  88 118 160 205 249 308 372
#     4  10  21  36  62  90 120 164 208 251 304 363
#     4  10  19  36  60  88 123 160 205 253 305 373
#     4   9  21  40  62  87 121 165 200 251 309 364
#
# _framework density 21.066313999999998
#
# number of rings (size 3 to 8) (size 9 to 14) (size 15 to 20)
#    0.000    2.000    2.500    0.750    3.500    0.000 
#    2.250    1.875    5.500    0.000    0.000    0.000 
#    0.000    0.000    0.000    0.000    0.000    0.000 
#
# Total GULP energy -89195.451204 kJ/mol
# GULP energy per Si atom -5574.715700 kJ/mol
# Density = 2.101837 g / cm^3
# Si number density = 21.066314 Si / 1000 Ang^3
#
#
#
# Elastic Constant Matrix: (Units=GPa)
#
#
# Indices 1 2 3 4 5 6 
#
# 1 133.0515 18.4105 24.6533 -1.3625 16.8694 -18.7694
# 2 18.4105 83.3664 33.1787 3.0017 8.3020 8.1375
# 3 24.6533 33.1787 58.6109 11.4674 6.0385 10.4963
# 4 -1.3625 3.0017 11.4674 37.5603 1.4875 12.2172
# 5 16.8694 8.3020 6.0385 1.4875 26.7303 7.0504
# 6 -18.7694 8.1375 10.4963 12.2172 7.0504 31.9596
#
#
#
# Elastic Compliance Matrix: (Units=1/GPa)
#
#
# Indices 1 2 3 4 5 6 
#
# 1 0.011110 -0.000551 -0.005186 -0.001099 -0.008416 0.010645
# 2 -0.000551 0.015864 -0.008583 0.002012 -0.002274 -0.001811
# 3 -0.005186 -0.008583 0.026281 -0.004980 0.002421 -0.008122
# 4 -0.001099 0.002012 -0.004980 0.031832 0.002661 -0.012277
# 5 -0.008416 -0.002274 0.002421 0.002661 0.047103 -0.016567
# 6 0.010645 -0.001811 -0.008122 -0.012277 -0.016567 0.049018
#
#
# Mechanical properties :
#
#
# Convention : Reuss Voigt Hill
#
# Bulk Modulus (GPa) = 40.62546 47.50153 44.06349
# Shear Modulus (GPa) = 22.93014 32.50246 27.71630
#
# Velocity S-wave (km/s) = 3.30278 3.93219 3.63115
# Velocity P-wave (km/s) = 5.81987 6.57371 6.20825
#
# Compressibility (1/GPa) = 0.02461511
#
# Stress axis : x y z
#
# Youngs Moduli (GPa) = 90.00527 63.03621 38.05000
#
# Poissons Ratio (x) = 0.03475 0.19731
# Poissons Ratio (y) = 0.04962 0.32660
# Poissons Ratio (z) = 0.46673 0.54106
#
# Static dielectric constant tensor:
#      x y z
#    x 1.845140 -0.061880 0.015680 
#    y -0.061880 1.780520 0.016110 
#    z 0.015680 0.016110 1.769530 
# 
# From -- ./inp_files/180202.got.cif
#   From: 2010.05.17/outbox.cif.g08.bks.cpg/sg2_91_cif.got.tgz:180202.got - 2010.06.03 11:33:40.
