data_PCOD9086083
_publ_section_title
;
Structure prediction by ZEFSAII (Michael W. Deem and Ramdas Pophale) SiO2 
 PCOD9086083
Probable space group: P -1
;
_chemical_formula_sum "Si O2"
_cell_formula_units_Z 14
_cell_length_a 8.490480
_cell_length_b 12.379899
_cell_length_c 7.063943
_cell_angle_alpha 69.982441
_cell_angle_beta 54.267502
_cell_angle_gamma 83.283392
_cell_volume 562.955090
_symmetry_space_group_name_H-M "P -1"
_symmetry_group_IT_number 2
_symmetry_cell_setting 'triclinic'
loop_
_space_group_symop_operation_xyz
x,y,z
-x,-y,-z
loop_
_atom_site_type_symbol
_atom_site_label
_atom_site_fract_x
_atom_site_fract_y
_atom_site_fract_z
Si Si1 0.145719 0.121511 0.958321
Si Si2 0.751699 0.110849 0.018240
Si Si3 0.228773 0.641951 0.337426
Si Si4 0.218109 0.408833 0.355853
Si Si5 0.584087 0.797720 0.627455
Si Si6 0.720783 0.385014 0.259715
Si Si7 0.175255 0.368238 0.867360
O O1 0.265178 0.141004 0.665477
O O2 0.208480 0.236525 0.963560
O O3 0.917765 0.116253 0.063039
O O4 0.202087 0.000204 0.067840
O O5 0.775119 0.232550 0.821255
O O6 0.529972 0.107528 0.246589
O O7 0.300983 0.543714 0.208368
O O8 0.326460 0.644117 0.470537
O O9 0.001417 0.598237 0.560088
O O10 0.308863 0.298083 0.276868
O O11 0.211588 0.386555 0.603842
O O12 0.415620 0.710256 0.699123
O O13 0.708534 0.523365 0.172095
O O14 0.945303 0.373706 0.059301
#
# Coordination Sequence:
#
# PCOD9086083 Si02
#       7
#     2   2   2   2   2   2   2
#     4  10  21  37  62  82 109 157 201 227 266 345
#     4  11  21  38  61  81 117 153 194 232 279 332
#     4  10  19  36  53  87 119 149 178 242 290 332
#     4   9  19  34  59  81 118 147 192 231 281 336
#     4  11  20  38  61  90 104 152 198 234 270 353
#     4  10  20  32  63  86 118 142 188 238 294 329
#     4   9  17  37  55  84 110 155 184 222 282 350
#
# _framework density 24.868765
#
# number of rings (size 3 to 8) (size 9 to 14) (size 15 to 20)
#    0.000    2.000    4.286    0.429    0.000    5.714 
#    0.000    4.286    0.000    0.000    0.000    0.000 
#    0.000    0.000    0.000    0.000    0.000    0.000 
#
# Total GULP energy -78254.504913 kJ/mol
# GULP energy per Si atom -5589.607494 kJ/mol
# Density = 2.481216 g / cm^3
# Si number density = 24.868765 Si / 1000 Ang^3
#
#
#
# Elastic Constant Matrix: (Units=GPa)
#
#
# Indices 1 2 3 4 5 6 
#
# 1 40.9850 25.8461 5.0055 7.9650 -3.5432 -3.5335
# 2 25.8461 195.7093 18.2082 -9.2212 10.5689 -32.8691
# 3 5.0055 18.2082 58.5062 -3.0776 -8.2711 -15.1485
# 4 7.9650 -9.2212 -3.0776 40.2331 -7.9605 -6.5884
# 5 -3.5432 10.5689 -8.2711 -7.9605 29.0460 7.3059
# 6 -3.5335 -32.8691 -15.1485 -6.5884 7.3059 42.6694
#
#
#
# Elastic Compliance Matrix: (Units=1/GPa)
#
#
# Indices 1 2 3 4 5 6 
#
# 1 0.028981 -0.004802 -0.001739 -0.006806 0.003833 -0.003624
# 2 -0.004802 0.007171 -0.000714 0.002698 -0.004169 0.006003
# 3 -0.001739 -0.000714 0.019973 0.003739 0.005231 0.006079
# 4 -0.006806 0.002698 0.003739 0.029275 0.005669 0.006392
# 5 0.003833 -0.004169 0.005231 0.005669 0.041274 -0.007228
# 6 -0.003624 0.006003 0.006079 0.006392 -0.007228 0.032143
#
#
# Mechanical properties :
#
#
# Convention : Reuss Voigt Hill
#
# Bulk Modulus (GPa) = 24.02995 43.70225 33.86610
# Shear Modulus (GPa) = 26.70956 38.79908 32.75432
#
# Velocity S-wave (km/s) = 3.28078 3.95416 3.63311
# Velocity P-wave (km/s) = 4.90255 6.20149 5.58988
#
# Compressibility (1/GPa) = 0.04161473
#
# Stress axis : x y z
#
# Youngs Moduli (GPa) = 34.50490 139.45845 50.06682
#
# Poissons Ratio (x) = 0.66966 0.08709
# Poissons Ratio (y) = 0.16569 0.03575
# Poissons Ratio (z) = 0.06002 0.09957
#
# Static dielectric constant tensor:
#      x y z
#    x 1.962090 -0.030680 0.010470 
#    y -0.030680 2.024140 0.025010 
#    z 0.010470 0.025010 2.049470 
# 
# From -- ./inp_files/175808.got.cif
#   From: 2010.05.17/outbox.cif.g08.bks.cpg/sg2_88_cif.got.tgz:175808.got - 2010.06.03 11:33:40.
