data_PCOD9086244
_publ_section_title
;
Structure prediction by ZEFSAII (Michael W. Deem and Ramdas Pophale) SiO2 
 PCOD9086244
Probable space group: P -1
;
_chemical_formula_sum "Si O2"
_cell_formula_units_Z 16
_cell_length_a 10.247658
_cell_length_b 9.004254
_cell_length_c 9.320241
_cell_angle_alpha 101.163132
_cell_angle_beta 124.184274
_cell_angle_gamma 84.345848
_cell_volume 697.907778
_symmetry_space_group_name_H-M "P -1"
_symmetry_group_IT_number 2
_symmetry_cell_setting 'triclinic'
loop_
_space_group_symop_operation_xyz
x,y,z
-x,-y,-z
loop_
_atom_site_type_symbol
_atom_site_label
_atom_site_fract_x
_atom_site_fract_y
_atom_site_fract_z
Si Si1 0.217836 0.508576 0.583442
Si Si2 0.236111 0.175615 0.084539
Si Si3 0.113266 0.203249 0.292785
Si Si4 0.537694 0.338964 0.429156
Si Si5 0.540112 0.070169 0.882855
Si Si6 0.281978 0.932405 0.482558
Si Si7 0.974809 0.203338 0.487748
Si Si8 0.291401 0.293337 0.825938
O O1 0.187342 0.361436 0.433444
O O2 0.361025 0.616180 0.639417
O O3 0.072925 0.621437 0.498442
O O4 0.261907 0.451334 0.758385
O O5 0.089966 0.201559 0.106747
O O6 0.377433 0.255694 0.274770
O O7 0.289957 0.001886 0.060114
O O8 0.242779 0.265244 0.954921
O O9 0.969547 0.170143 0.308577
O O10 0.226593 0.060240 0.364290
O O11 0.500000 0.500000 0.500000
O O12 0.646183 0.223515 0.564753
O O13 0.468325 0.237948 0.888285
O O14 0.423289 0.998742 0.678700
O O15 0.500000 0.000000 0.000000
O O16 0.137452 0.884129 0.488666
O O17 0.156566 0.190246 0.644306
#
# Coordination Sequence:
#
# PCOD9086244 Si02
#       8
#     2   2   2   2   2   2   2   2
#     4  10  20  36  59  81 106 150 188 224 271 330
#     4  10  22  34  54  86 114 142 180 228 286 320
#     4  11  19  34  58  84 105 146 188 227 268 331
#     4  10  20  36  55  83 119 136 180 238 273 325
#     4   9  18  33  54  83 111 140 175 225 276 327
#     4  10  20  34  60  83 105 150 189 224 267 328
#     4  10  21  37  58  81 109 144 196 225 266 327
#     4  10  19  36  57  80 113 149 178 227 276 329
#
# _framework density 22.925664999999999
#
# number of rings (size 3 to 8) (size 9 to 14) (size 15 to 20)
#    0.000    2.000    3.750    1.875    0.000    3.500 
#    0.000    3.125    0.000    0.000    0.000    0.000 
#    0.000    0.000    0.000    0.000    0.000    0.000 
#
# Total GULP energy -89106.314988 kJ/mol
# GULP energy per Si atom -5569.144687 kJ/mol
# Density = 2.287349 g / cm^3
# Si number density = 22.925665 Si / 1000 Ang^3
#
#
#
# Elastic Constant Matrix: (Units=GPa)
#
#
# Indices 1 2 3 4 5 6 
#
# 1 60.4665 17.8190 17.2477 3.4072 -21.9360 -7.1113
# 2 17.8190 132.1209 30.1685 -23.9542 -4.6083 -17.3583
# 3 17.2477 30.1685 42.4407 -6.6777 -24.3834 -9.1066
# 4 3.4072 -23.9542 -6.6777 27.0439 3.1599 -1.4176
# 5 -21.9360 -4.6083 -24.3834 3.1599 33.5513 5.1408
# 6 -7.1113 -17.3583 -9.1066 -1.4176 5.1408 35.8866
#
#
#
# Elastic Compliance Matrix: (Units=1/GPa)
#
#
# Indices 1 2 3 4 5 6 
#
# 1 0.024185 -0.004735 0.002365 -0.008709 0.017666 0.000228
# 2 -0.004735 0.012847 -0.010787 0.010821 -0.010883 0.004525
# 3 0.002365 -0.010787 0.052502 -0.001149 0.037853 0.003106
# 4 -0.008709 0.010821 -0.001149 0.048973 -0.010679 0.006681
# 5 0.017666 -0.010883 0.037853 -0.010679 0.068748 -0.002428
# 6 0.000228 0.004525 0.003106 0.006681 -0.002428 0.031499
#
#
# Mechanical properties :
#
#
# Convention : Reuss Voigt Hill
#
# Bulk Modulus (GPa) = 15.81745 40.61096 28.21420
# Shear Modulus (GPa) = 17.47375 30.61591 24.04483
#
# Velocity S-wave (km/s) = 2.76378 3.65834 3.24206
# Velocity P-wave (km/s) = 4.13510 5.96634 5.13304
#
# Compressibility (1/GPa) = 0.06322132
#
# Stress axis : x y z
#
# Youngs Moduli (GPa) = 41.34761 77.83627 19.04673
#
# Poissons Ratio (x) = 0.36854 -0.04505
# Poissons Ratio (y) = 0.19577 0.20546
# Poissons Ratio (z) = -0.09780 0.83965
#
# Static dielectric constant tensor:
#      x y z
#    x 2.087900 0.011120 -0.055740 
#    y 0.011120 1.995650 0.014740 
#    z -0.055740 0.014740 1.854510 
# 
# From -- ./inp_files/239299.got.cif
#   From: 2010.05.17/outbox.cif.g08.bks.cpg/sg2_120_cif.got.tgz:239299.got - 2010.06.03 11:33:40.
