data_PCOD9086337
_publ_section_title
;
Structure prediction by ZEFSAII (Michael W. Deem and Ramdas Pophale) SiO2 
 PCOD9086337
Probable space group: P -1
;
_chemical_formula_sum "Si O2"
_cell_formula_units_Z 16
_cell_length_a 13.179590
_cell_length_b 7.522047
_cell_length_c 15.686171
_cell_angle_alpha 123.123997
_cell_angle_beta 33.574203
_cell_angle_gamma 112.698638
_cell_volume 712.099488
_symmetry_space_group_name_H-M "P -1"
_symmetry_group_IT_number 2
_symmetry_cell_setting 'triclinic'
loop_
_space_group_symop_operation_xyz
x,y,z
-x,-y,-z
loop_
_atom_site_type_symbol
_atom_site_label
_atom_site_fract_x
_atom_site_fract_y
_atom_site_fract_z
Si Si1 0.875435 0.041762 0.514356
Si Si2 0.729958 0.402442 0.009135
Si Si3 0.332305 0.128429 0.759887
Si Si4 0.073485 0.278792 0.842073
Si Si5 0.713983 0.427893 0.834063
Si Si6 0.406588 0.558635 0.392027
Si Si7 0.378177 0.249922 0.475472
Si Si8 0.993872 0.337541 0.382741
O O1 0.745144 0.256887 0.691337
O O2 0.986285 0.111914 0.374176
O O3 0.749184 0.867050 0.531377
O O4 0.000000 0.000000 0.500000
O O5 0.743954 0.661381 0.073243
O O6 0.531269 0.405175 0.195567
O O7 0.755492 0.337582 0.876279
O O8 0.887033 0.259132 0.916562
O O9 0.168092 0.111008 0.802789
O O10 0.500360 0.225297 0.619846
O O11 0.435840 0.915518 0.676044
O O12 0.238985 0.301729 0.666070
O O13 0.000000 0.500000 0.000000
O O14 0.834648 0.616858 0.781953
O O15 0.500000 0.500000 0.000000
O O16 0.423953 0.453712 0.445084
O O17 0.195753 0.603104 0.521150
O O18 0.000000 0.500000 0.500000
#
# Coordination Sequence:
#
# PCOD9086337 Si02
#       8
#     2   2   2   2   2   2   2   2
#     4  11  22  37  59  93 123 161 211 247 294 369
#     4   9  19  40  60  88 128 160 201 254 311 353
#     4   9  21  40  63  87 122 158 214 248 302 364
#     4  10  21  40  65  87 123 165 196 266 317 352
#     4  11  21  37  63  88 126 169 195 250 312 353
#     4  10  21  38  65  89 122 164 204 248 308 365
#     4  12  21  39  65  90 121 161 213 250 300 371
#     4  10  19  36  57  88 120 164 206 238 299 369
#
# _framework density 22.468772000000001
#
# number of rings (size 3 to 8) (size 9 to 14) (size 15 to 20)
#    0.750    1.000    1.250    5.625    0.000    0.500 
#    0.000    6.875    2.750    0.000    0.000    0.000 
#    0.000    0.000    0.000    0.000    0.000    0.000 
#
# Total GULP energy -89267.145995 kJ/mol
# GULP energy per Si atom -5579.196625 kJ/mol
# Density = 2.241763 g / cm^3
# Si number density = 22.468772 Si / 1000 Ang^3
#
#
#
# Elastic Constant Matrix: (Units=GPa)
#
#
# Indices 1 2 3 4 5 6 
#
# 1 126.7621 23.0037 32.7321 3.0411 -26.6603 -23.0224
# 2 23.0037 55.6573 16.9427 3.9429 -12.3146 -17.4604
# 3 32.7321 16.9427 98.9198 2.4366 -4.9347 1.2288
# 4 3.0411 3.9429 2.4366 31.5210 3.3466 0.6077
# 5 -26.6603 -12.3146 -4.9347 3.3466 50.5549 5.5469
# 6 -23.0224 -17.4604 1.2288 0.6077 5.5469 35.7392
#
#
#
# Elastic Compliance Matrix: (Units=1/GPa)
#
#
# Indices 1 2 3 4 5 6 
#
# 1 0.011018 -0.000389 -0.003385 -0.001382 0.004785 0.006305
# 2 -0.000389 0.023901 -0.003807 -0.003322 0.004264 0.010952
# 3 -0.003385 -0.003807 0.011878 0.000083 -0.001089 -0.004281
# 4 -0.001382 -0.003322 0.000083 0.032679 -0.003414 -0.002542
# 5 0.004785 0.004264 -0.001089 -0.003414 0.023281 0.001647
# 6 0.006305 0.010952 -0.004281 -0.002542 0.001647 0.037327
#
#
# Mechanical properties :
#
#
# Convention : Reuss Voigt Hill
#
# Bulk Modulus (GPa) = 31.60899 47.41067 39.50983
# Shear Modulus (GPa) = 30.15856 37.47373 33.81615
#
# Velocity S-wave (km/s) = 3.66764 4.08832 3.88368
# Velocity P-wave (km/s) = 5.65985 6.59032 6.14273
#
# Compressibility (1/GPa) = 0.03163657
#
# Stress axis : x y z
#
# Youngs Moduli (GPa) = 90.76087 41.83916 84.18922
#
# Poissons Ratio (x) = 0.01627 0.28496
# Poissons Ratio (y) = 0.03530 0.32047
# Poissons Ratio (z) = 0.30720 0.15926
#
# Static dielectric constant tensor:
#      x y z
#    x 2.016220 -0.023840 -0.105810 
#    y -0.023840 1.856370 0.085150 
#    z -0.105810 0.085150 1.785720 
# 
# From -- ./inp_files/514483.got.cif
#   From: 2010.05.17/outbox.cif.g08.bks.cpg/sg2_258_cif.got.tgz:514483.got - 2010.06.03 11:33:40.
