data_PCOD9086012
_publ_section_title
;
Structure prediction by ZEFSAII (Michael W. Deem and Ramdas Pophale) SiO2 
 PCOD9086012
Probable space group: P -1
;
_chemical_formula_sum "Si O2"
_cell_formula_units_Z 16
_cell_length_a 7.539318
_cell_length_b 17.427694
_cell_length_c 7.143164
_cell_angle_alpha 80.998564
_cell_angle_beta 65.062248
_cell_angle_gamma 54.407347
_cell_volume 687.004868
_symmetry_space_group_name_H-M "P -1"
_symmetry_group_IT_number 2
_symmetry_cell_setting 'triclinic'
loop_
_space_group_symop_operation_xyz
x,y,z
-x,-y,-z
loop_
_atom_site_type_symbol
_atom_site_label
_atom_site_fract_x
_atom_site_fract_y
_atom_site_fract_z
Si Si1 0.768607 0.381422 0.083486
Si Si2 0.298222 0.996613 0.985265
Si Si3 0.515834 0.589322 0.173769
Si Si4 0.812067 0.102235 0.637699
Si Si5 0.577485 0.822090 0.725671
Si Si6 0.832029 0.205681 0.103350
Si Si7 0.689965 0.725307 0.116987
Si Si8 0.059670 0.761129 0.380459
O O1 0.566370 0.408310 0.005913
O O2 0.800819 0.291111 0.203116
O O3 0.039213 0.334211 0.904956
O O4 0.683757 0.478166 0.189414
O O5 0.214904 0.933562 0.135564
O O6 0.069639 0.102411 0.060526
O O7 0.500000 0.000000 0.000000
O O8 0.423048 0.937263 0.763931
O O9 0.629163 0.648744 0.130590
O O10 0.266753 0.651758 0.372595
O O11 0.526584 0.185926 0.699671
O O12 0.927711 0.160291 0.546292
O O13 0.000000 0.000000 0.500000
O O14 0.801580 0.784415 0.509033
O O15 0.396306 0.795499 0.764840
O O16 0.680412 0.774153 0.904132
O O17 0.867184 0.225797 0.864833
#
# Coordination Sequence:
#
# PCOD9086012 Si02
#       8
#     2   2   2   2   2   2   2   2
#     4  10  19  35  67  86 114 164 197 246 308 351
#     4  11  22  38  58  84 119 161 199 243 299 355
#     4   9  19  39  60  89 121 151 202 252 298 355
#     4  10  20  37  56  88 125 153 196 248 286 361
#     4  11  21  38  60  85 120 159 193 246 300 353
#     4  11  21  41  58  86 120 155 202 246 298 356
#     4  10  19  38  63  87 122 159 200 244 304 355
#     4  10  21  38  61  84 119 158 194 247 302 352
#
# _framework density 23.289501000000001
#
# number of rings (size 3 to 8) (size 9 to 14) (size 15 to 20)
#    0.000    1.750    5.000    3.000    0.000    0.500 
#    6.750    1.250    0.000    0.000    0.000    0.000 
#    0.000    0.000    0.000    0.000    0.000    0.000 
#
# Total GULP energy -89179.784177 kJ/mol
# GULP energy per Si atom -5573.736511 kJ/mol
# Density = 2.323649 g / cm^3
# Si number density = 23.289501 Si / 1000 Ang^3
#
#
#
# Elastic Constant Matrix: (Units=GPa)
#
#
# Indices 1 2 3 4 5 6 
#
# 1 99.6178 41.1552 27.3419 6.0586 -43.3809 7.0328
# 2 41.1552 205.8801 48.3430 32.7074 -22.7602 19.1119
# 3 27.3419 48.3430 78.0201 16.9669 -20.8664 2.3308
# 4 6.0586 32.7074 16.9669 33.3389 -5.9870 1.4200
# 5 -43.3809 -22.7602 -20.8664 -5.9870 40.0481 2.7545
# 6 7.0328 19.1119 2.3308 1.4200 2.7545 31.3627
#
#
#
# Elastic Compliance Matrix: (Units=1/GPa)
#
#
# Indices 1 2 3 4 5 6 
#
# 1 0.020606 -0.001306 -0.000863 0.002145 0.021847 -0.005777
# 2 -0.001306 0.006896 -0.002421 -0.005011 0.000739 -0.003567
# 3 -0.000863 -0.002421 0.017342 -0.005232 0.005936 0.000096
# 4 0.002145 -0.005011 -0.005232 0.037550 0.002290 0.001060
# 5 0.021847 0.000739 0.005936 0.002290 0.053217 -0.010568
# 6 -0.005777 -0.003567 0.000096 0.001060 -0.010568 0.036227
#
#
# Mechanical properties :
#
#
# Convention : Reuss Voigt Hill
#
# Bulk Modulus (GPa) = 28.03963 68.57758 48.30861
# Shear Modulus (GPa) = 25.91933 38.72846 32.32389
#
# Velocity S-wave (km/s) = 3.33966 4.08231 3.72952
# Velocity P-wave (km/s) = 5.19007 7.19235 6.27164
#
# Compressibility (1/GPa) = 0.03566381
#
# Stress axis : x y z
#
# Youngs Moduli (GPa) = 48.53024 145.01831 57.66205
#
# Poissons Ratio (x) = 0.18936 0.04977
# Poissons Ratio (y) = 0.06337 0.13961
# Poissons Ratio (z) = 0.04189 0.35110
#
# Static dielectric constant tensor:
#      x y z
#    x 1.974490 -0.035390 0.105210 
#    y -0.035390 1.965990 -0.004660 
#    z 0.105210 -0.004660 1.933470 
# 
# From -- ./inp_files/214899.got.cif
#   From: 2010.05.17/outbox.cif.g08.bks.cpg/sg2_108_cif.got.tgz:214899.got - 2010.06.03 11:33:40.
