data_PCOD9086747
_publ_section_title
;
Structure prediction by ZEFSAII (Michael W. Deem and Ramdas Pophale) SiO2 
 PCOD9086747
Probable space group: P -1
;
_chemical_formula_sum "Si O2"
_cell_formula_units_Z 16
_cell_length_a 11.205012
_cell_length_b 9.458922
_cell_length_c 19.864581
_cell_angle_alpha 74.611009
_cell_angle_beta 34.315964
_cell_angle_gamma 98.142370
_cell_volume 855.869896
_symmetry_space_group_name_H-M "P -1"
_symmetry_group_IT_number 2
_symmetry_cell_setting 'triclinic'
loop_
_space_group_symop_operation_xyz
x,y,z
-x,-y,-z
loop_
_atom_site_type_symbol
_atom_site_label
_atom_site_fract_x
_atom_site_fract_y
_atom_site_fract_z
Si Si1 0.090766 0.005325 0.565262
Si Si2 0.225922 0.342835 0.551380
Si Si3 0.516411 0.038077 0.566550
Si Si4 0.176356 0.119099 0.969865
Si Si5 0.187575 0.704703 0.350460
Si Si6 0.105135 0.713151 0.912182
Si Si7 0.285613 0.246465 0.682069
Si Si8 0.352460 0.072045 0.293658
O O1 0.208623 0.180677 0.539925
O O2 0.181415 0.886596 0.561194
O O3 0.250460 0.097231 0.407665
O O4 0.758702 0.875081 0.720973
O O5 0.208865 0.300675 0.643872
O O6 0.523913 0.567768 0.379578
O O7 0.969762 0.318739 0.641903
O O8 0.287724 0.840643 0.743641
O O9 0.500000 0.000000 0.500000
O O10 0.470176 0.187379 0.584543
O O11 0.496246 0.211933 0.812370
O O12 0.139785 0.277876 0.973819
O O13 0.000000 0.000000 0.000000
O O14 0.997426 0.950859 0.130567
O O15 0.000000 0.500000 0.500000
O O16 0.192886 0.849150 0.377982
O O17 0.327387 0.829633 0.855728
O O18 0.000000 0.500000 0.000000
#
# Coordination Sequence:
#
# PCOD9086747 Si02
#       8
#     2   2   2   2   2   2   2   2
#     4   9  18  33  60  82 116 151 192 245 293 338
#     4  10  21  38  59  90 115 160 202 246 294 364
#     4  10  19  36  60  86 114 155 197 244 297 351
#     4  11  22  39  60  83 119 161 192 256 306 346
#     4  11  23  37  60  89 119 155 206 245 302 360
#     4  10  22  38  59  86 121 153 197 247 306 361
#     4  10  22  39  59  86 124 153 209 248 298 363
#     4   9  19  36  54  89 113 151 196 246 291 354
#
# _framework density 18.694430000000001
#
# number of rings (size 3 to 8) (size 9 to 14) (size 15 to 20)
#    0.000    2.000    2.500    0.750    3.500    7.500 
#    0.000    0.000    0.000    0.750    0.000    0.000 
#    0.000    0.000    0.000    0.000    0.000    0.000 
#
# Total GULP energy -89087.754354 kJ/mol
# GULP energy per Si atom -5567.984647 kJ/mol
# Density = 1.865188 g / cm^3
# Si number density = 18.694430 Si / 1000 Ang^3
#
#
#
# Elastic Constant Matrix: (Units=GPa)
#
#
# Indices 1 2 3 4 5 6 
#
# 1 129.5779 41.2086 47.1283 0.2845 -25.8661 -12.6006
# 2 41.2086 53.1155 32.9384 -1.5009 -3.9058 -3.6284
# 3 47.1283 32.9384 69.0332 3.8304 -21.0648 -14.1321
# 4 0.2845 -1.5009 3.8304 27.1427 -7.1160 -3.4719
# 5 -25.8661 -3.9058 -21.0648 -7.1160 29.5868 0.9333
# 6 -12.6006 -3.6284 -14.1321 -3.4719 0.9333 35.3407
#
#
#
# Elastic Compliance Matrix: (Units=1/GPa)
#
#
# Indices 1 2 3 4 5 6 
#
# 1 0.013178 -0.008255 -0.001528 0.002623 0.009872 0.003237
# 2 -0.008255 0.033582 -0.015713 -0.000162 -0.013838 -0.005429
# 3 -0.001528 -0.015713 0.030511 0.000850 0.018213 0.009645
# 4 0.002623 -0.000162 0.000850 0.040588 0.012484 0.004916
# 5 0.009872 -0.013838 0.018213 0.012484 0.056284 0.009122
# 6 0.003237 -0.005429 0.009645 0.004916 0.009122 0.032992
#
#
# Mechanical properties :
#
#
# Convention : Reuss Voigt Hill
#
# Bulk Modulus (GPa) = 38.05324 54.91971 46.48647
# Shear Modulus (GPa) = 18.73451 27.11079 22.92265
#
# Velocity S-wave (km/s) = 3.16910 3.81229 3.50548
# Velocity P-wave (km/s) = 5.81296 6.98709 6.42689
#
# Compressibility (1/GPa) = 0.02627897
#
# Stress axis : x y z
#
# Youngs Moduli (GPa) = 75.88331 29.77751 32.77485
#
# Poissons Ratio (x) = 0.24581 0.05010
# Poissons Ratio (y) = 0.62642 0.51499
# Poissons Ratio (z) = 0.11598 0.46789
#
# Static dielectric constant tensor:
#      x y z
#    x 1.712030 -0.032460 -0.029340 
#    y -0.032460 1.727180 0.038790 
#    z -0.029340 0.038790 1.675490 
# 
# From -- ./inp_files/500479.got.cif
#   From: 2010.05.17/outbox.cif.g08.bks.cpg/sg2_251_cif.got.tgz:500479.got - 2010.06.03 11:33:40.
