data_PCOD9086403
_publ_section_title
;
Structure prediction by ZEFSAII (Michael W. Deem and Ramdas Pophale) SiO2 
 PCOD9086403
Probable space group: P -1
;
_chemical_formula_sum "Si O2"
_cell_formula_units_Z 16
_cell_length_a 7.952203
_cell_length_b 7.593022
_cell_length_c 17.248657
_cell_angle_alpha 62.581146
_cell_angle_beta 137.452873
_cell_angle_gamma 111.254773
_cell_volume 624.672588
_symmetry_space_group_name_H-M "P -1"
_symmetry_group_IT_number 2
_symmetry_cell_setting 'triclinic'
loop_
_space_group_symop_operation_xyz
x,y,z
-x,-y,-z
loop_
_atom_site_type_symbol
_atom_site_label
_atom_site_fract_x
_atom_site_fract_y
_atom_site_fract_z
Si Si1 0.256055 0.606939 0.926115
Si Si2 0.381033 0.355773 0.153694
Si Si3 0.157360 0.761563 0.275626
Si Si4 0.289813 0.071384 0.832955
Si Si5 0.060115 0.608048 0.688182
Si Si6 0.889339 0.995817 0.580524
Si Si7 0.276305 0.934122 0.125798
Si Si8 0.409469 0.154384 0.352200
O O1 0.088000 0.597238 0.794068
O O2 0.302907 0.840771 0.908381
O O3 0.500000 0.500000 0.000000
O O4 0.213181 0.487434 0.015388
O O5 0.665192 0.441191 0.237945
O O6 0.299177 0.307772 0.223150
O O7 0.400425 0.138772 0.162487
O O8 0.245557 0.768448 0.215587
O O9 0.867873 0.825501 0.174252
O O10 0.152893 0.559855 0.363847
O O11 0.320991 0.938960 0.332648
O O12 0.558729 0.132248 0.876903
O O13 0.107149 0.078592 0.693938
O O14 0.998208 0.828812 0.596487
O O15 0.705099 0.855346 0.600179
O O16 0.707094 0.159184 0.455125
O O17 0.000000 0.000000 0.000000
#
# Coordination Sequence:
#
# PCOD9086403 Si02
#       8
#     2   2   2   2   2   2   2   2
#     4   9  16  33  60  76 113 157 188 228 285 350
#     4  10  19  36  58  85 114 148 201 233 283 358
#     4  10  23  37  56  90 121 150 199 241 290 350
#     4  10  20  40  61  83 118 164 189 237 302 345
#     4  10  19  36  58  82 119 159 183 237 301 343
#     4   9  18  39  65  79 116 158 192 240 302 338
#     4  11  21  37  57  86 117 154 199 239 285 352
#     4   9  20  37  61  90 111 147 206 246 277 356
#
# _framework density 25.613416000000001
#
# number of rings (size 3 to 8) (size 9 to 14) (size 15 to 20)
#    0.000    2.250    3.750    0.750    1.750    1.500 
#    2.250   10.000    0.000    2.250    0.000    0.000 
#    0.000    0.000    0.000    0.000    0.000    0.000 
#
# Total GULP energy -89356.184674 kJ/mol
# GULP energy per Si atom -5584.761542 kJ/mol
# Density = 2.555512 g / cm^3
# Si number density = 25.613416 Si / 1000 Ang^3
#
#
#
# Elastic Constant Matrix: (Units=GPa)
#
#
# Indices 1 2 3 4 5 6 
#
# 1 120.6186 1.1120 18.4094 5.6719 -8.2527 6.7314
# 2 1.1120 56.2577 0.3800 -2.9060 -6.1538 11.6409
# 3 18.4094 0.3800 101.2331 -7.7256 15.3216 7.0916
# 4 5.6719 -2.9060 -7.7256 25.3277 10.9026 8.2822
# 5 -8.2527 -6.1538 15.3216 10.9026 31.9961 -8.4479
# 6 6.7314 11.6409 7.0916 8.2822 -8.4479 28.1547
#
#
#
# Elastic Compliance Matrix: (Units=1/GPa)
#
#
# Indices 1 2 3 4 5 6 
#
# 1 0.009572 -0.000435 -0.003751 -0.007807 0.007755 0.003459
# 2 -0.000435 0.020401 0.002018 0.008515 -0.003314 -0.012339
# 3 -0.003751 0.002018 0.015845 0.018796 -0.018537 -0.015020
# 4 -0.007807 0.008515 0.018796 0.084961 -0.050623 -0.046571
# 5 0.007755 -0.003314 -0.018537 -0.050623 0.069267 0.039861
# 6 0.003459 -0.012339 -0.015020 -0.046571 0.039861 0.069236
#
#
# Mechanical properties :
#
#
# Convention : Reuss Voigt Hill
#
# Bulk Modulus (GPa) = 24.10642 35.32360 29.71501
# Shear Modulus (GPa) = 17.39476 34.30956 25.85216
#
# Velocity S-wave (km/s) = 2.60883 3.66391 3.18043
# Velocity P-wave (km/s) = 4.30195 5.63205 5.01132
#
# Compressibility (1/GPa) = 0.04148272
#
# Stress axis : x y z
#
# Youngs Moduli (GPa) = 104.47451 49.01782 63.11197
#
# Poissons Ratio (x) = 0.02131 0.23672
# Poissons Ratio (y) = 0.04541 -0.12737
# Poissons Ratio (z) = 0.39187 -0.09893
#
# Static dielectric constant tensor:
#      x y z
#    x 2.073050 0.011100 -0.002790 
#    y 0.011100 2.137240 -0.014490 
#    z -0.002790 -0.014490 2.037950 
# 
# From -- ./inp_files/206087.got.cif
#   From: 2010.05.17/outbox.cif.g08.bks.cpg/sg2_104_cif.got.tgz:206087.got - 2010.06.03 11:33:40.
