data_PCOD9086054
_publ_section_title
;
Structure prediction by ZEFSAII (Michael W. Deem and Ramdas Pophale) SiO2 
 PCOD9086054
Probable space group: P -1
;
_chemical_formula_sum "Si O2"
_cell_formula_units_Z 16
_cell_length_a 19.181682
_cell_length_b 5.507283
_cell_length_c 13.734928
_cell_angle_alpha 63.428283
_cell_angle_beta 140.944355
_cell_angle_gamma 101.355987
_cell_volume 787.960200
_symmetry_space_group_name_H-M "P -1"
_symmetry_group_IT_number 2
_symmetry_cell_setting 'triclinic'
loop_
_space_group_symop_operation_xyz
x,y,z
-x,-y,-z
loop_
_atom_site_type_symbol
_atom_site_label
_atom_site_fract_x
_atom_site_fract_y
_atom_site_fract_z
Si Si1 0.479648 0.393771 0.605073
Si Si2 0.354862 0.992003 0.444644
Si Si3 0.903612 0.811946 0.537086
Si Si4 0.112178 0.779298 0.057826
Si Si5 0.083146 0.186159 0.657860
Si Si6 0.702500 0.508190 0.848422
Si Si7 0.883059 0.690824 0.120017
Si Si8 0.864696 0.759286 0.713557
O O1 0.500000 0.500000 0.500000
O O2 0.398050 0.662600 0.524314
O O3 0.604953 0.355433 0.794642
O O4 0.430325 0.126211 0.578482
O O5 0.646619 0.826218 0.689320
O O6 0.229496 0.070648 0.343761
O O7 0.848189 0.863283 0.360819
O O8 0.833251 0.861072 0.551338
O O9 0.987393 0.498140 0.695273
O O10 0.995718 0.994341 0.604489
O O11 0.219154 0.637142 0.130386
O O12 0.125928 0.572513 0.200842
O O13 0.991755 0.785408 0.873622
O O14 0.117195 0.099457 0.007855
O O15 0.146753 0.163243 0.833661
O O16 0.000000 0.500000 0.500000
O O17 0.790632 0.522753 0.026291
#
# Coordination Sequence:
#
# PCOD9086054 Si02
#       8
#     2   2   2   2   2   2   2   2
#     4  10  21  39  56  76 109 157 205 244 276 322
#     4  10  23  36  54  81 112 160 198 232 280 347
#     4  10  19  36  51  79 113 150 188 235 279 347
#     4  10  21  33  48  84 117 152 184 222 293 347
#     4   9  19  34  54  74 110 145 196 233 281 340
#     4  10  20  32  53  76 110 146 194 244 280 331
#     4  11  19  31  54  83 111 148 187 239 287 338
#     4  10  20  37  50  80 123 153 188 223 286 364
#
# _framework density 20.305595
#
# number of rings (size 3 to 8) (size 9 to 14) (size 15 to 20)
#    0.000    2.000    2.500    1.500    7.000    1.500 
#    0.000    0.000    0.000    0.000    0.000    1.750 
#    0.000    0.000    0.000    0.000    0.000    0.000 
#
# Total GULP energy -89235.636283 kJ/mol
# GULP energy per Si atom -5577.227268 kJ/mol
# Density = 2.025938 g / cm^3
# Si number density = 20.305595 Si / 1000 Ang^3
#
#
#
# Elastic Constant Matrix: (Units=GPa)
#
#
# Indices 1 2 3 4 5 6 
#
# 1 89.9558 18.7586 24.4109 -6.7541 -10.3542 -11.6962
# 2 18.7586 72.6748 14.2812 -0.1325 2.6782 -3.3598
# 3 24.4109 14.2812 34.1872 4.7678 10.1571 0.4478
# 4 -6.7541 -0.1325 4.7678 28.6003 0.1092 -0.2811
# 5 -10.3542 2.6782 10.1571 0.1092 32.6218 -0.3405
# 6 -11.6962 -3.3598 0.4478 -0.2811 -0.3405 24.7139
#
#
#
# Elastic Compliance Matrix: (Units=1/GPa)
#
#
# Indices 1 2 3 4 5 6 
#
# 1 0.019560 -0.001470 -0.018130 0.007684 0.012049 0.009639
# 2 -0.001470 0.015278 -0.005437 0.000645 -0.000015 0.001487
# 3 -0.018130 -0.005437 0.052937 -0.013154 -0.021858 -0.010729
# 4 0.007684 0.000645 -0.013154 0.038995 0.006398 0.004494
# 5 0.012049 -0.000015 -0.021858 0.006398 0.041335 0.006739
# 6 0.009639 0.001487 -0.010729 0.004494 0.006739 0.045565
#
#
# Mechanical properties :
#
#
# Convention : Reuss Voigt Hill
#
# Bulk Modulus (GPa) = 26.52548 34.63547 30.58047
# Shear Modulus (GPa) = 18.09549 26.47835 22.28692
#
# Velocity S-wave (km/s) = 2.98847 3.61500 3.31656
# Velocity P-wave (km/s) = 4.99994 5.87524 5.45517
#
# Compressibility (1/GPa) = 0.03769961
#
# Stress axis : x y z
#
# Youngs Moduli (GPa) = 51.12444 65.45171 18.89049
#
# Poissons Ratio (x) = 0.09625 0.34248
# Poissons Ratio (y) = 0.07518 0.10271
# Poissons Ratio (z) = 0.92688 0.35588
#
# Static dielectric constant tensor:
#      x y z
#    x 1.755050 -0.030940 0.007280 
#    y -0.030940 1.839210 -0.004130 
#    z 0.007280 -0.004130 1.793120 
# 
# From -- ./inp_files/536158.got.cif
#   From: 2010.05.17/outbox.cif.g08.bks.cpg/sg2_269_cif.got.tgz:536158.got - 2010.06.03 11:33:40.
