data_PCOD9086267
_publ_section_title
;
Structure prediction by ZEFSAII (Michael W. Deem and Ramdas Pophale) SiO2 
 PCOD9086267
Probable space group: P -1
;
_chemical_formula_sum "Si O2"
_cell_formula_units_Z 14
_cell_length_a 9.239801
_cell_length_b 9.074708
_cell_length_c 11.672837
_cell_angle_alpha 125.368586
_cell_angle_beta 52.289515
_cell_angle_gamma 134.905216
_cell_volume 529.200034
_symmetry_space_group_name_H-M "P -1"
_symmetry_group_IT_number 2
_symmetry_cell_setting 'triclinic'
loop_
_space_group_symop_operation_xyz
x,y,z
-x,-y,-z
loop_
_atom_site_type_symbol
_atom_site_label
_atom_site_fract_x
_atom_site_fract_y
_atom_site_fract_z
Si Si1 0.692929 0.795197 0.851998
Si Si2 0.752241 0.440448 0.092504
Si Si3 0.707164 0.215057 0.670186
Si Si4 0.931344 0.994588 0.400402
Si Si5 0.869552 0.666886 0.916004
Si Si6 0.328622 0.772162 0.729632
Si Si7 0.460733 0.656621 0.393338
O O1 0.462862 0.774611 0.954432
O O2 0.769478 0.760847 0.921995
O O3 0.628254 0.581231 0.713551
O O4 0.890481 0.978953 0.764571
O O5 0.695442 0.385800 0.229209
O O6 0.774827 0.615431 0.066895
O O7 0.000000 0.500000 0.000000
O O8 0.881134 0.182693 0.505017
O O9 0.808404 0.435734 0.789785
O O10 0.548776 0.214313 0.651236
O O11 0.559273 0.999185 0.718456
O O12 0.701693 0.779436 0.384741
O O13 0.000000 0.000000 0.500000
O O14 0.130957 0.806758 0.853988
O O15 0.314477 0.662992 0.566764
#
# Coordination Sequence:
#
# PCOD9086267 Si02
#       7
#     2   2   2   2   2   2   2
#     4  11  21  38  60  81 111 146 184 232 274 320
#     4  10  23  39  56  79 110 151 189 227 274 322
#     4  10  20  36  58  85 114 145 181 222 276 334
#     4  11  22  34  56  90 117 141 178 225 280 336
#     4  10  21  37  59  81 107 151 193 221 263 326
#     4  10  19  36  57  82 118 145 173 227 280 324
#     4  10  21  36  59  87 113 143 179 225 281 334
#
# _framework density 26.455024999999999
#
# number of rings (size 3 to 8) (size 9 to 14) (size 15 to 20)
#    0.000    1.714    0.000    6.429    0.000    7.429 
#    0.000    2.857    0.000   10.286    0.000    0.000 
#    0.000    0.000    0.000    0.000    0.000    0.000 
#
# Total GULP energy -78353.804941 kJ/mol
# GULP energy per Si atom -5596.700353 kJ/mol
# Density = 2.639481 g / cm^3
# Si number density = 26.455025 Si / 1000 Ang^3
#
#
#
# Elastic Constant Matrix: (Units=GPa)
#
#
# Indices 1 2 3 4 5 6 
#
# 1 168.4374 39.2843 27.0220 -17.7281 2.9632 -0.3264
# 2 39.2843 93.6154 55.1290 -7.7935 0.0612 4.3955
# 3 27.0220 55.1290 112.5252 -16.4628 15.4848 -4.8054
# 4 -17.7281 -7.7935 -16.4628 62.1858 4.1772 -5.7467
# 5 2.9632 0.0612 15.4848 4.1772 45.7531 -16.9461
# 6 -0.3264 4.3955 -4.8054 -5.7467 -16.9461 35.2887
#
#
#
# Elastic Compliance Matrix: (Units=1/GPa)
#
#
# Indices 1 2 3 4 5 6 
#
# 1 0.006753 -0.002744 0.000045 0.001666 -0.000424 0.000478
# 2 -0.002744 0.016569 -0.008023 -0.001190 0.002103 -0.002365
# 3 0.000045 -0.008023 0.013940 0.003116 -0.004541 0.001225
# 4 0.001666 -0.001190 0.003116 0.017592 -0.001810 0.002583
# 5 -0.000424 0.002103 -0.004541 -0.001810 0.028154 0.012341
# 6 0.000478 -0.002365 0.001225 0.002583 0.012341 0.035151
#
#
# Mechanical properties :
#
#
# Convention : Reuss Voigt Hill
#
# Bulk Modulus (GPa) = 63.21870 68.60541 65.91205
# Shear Modulus (GPa) = 34.51247 45.52169 40.01708
#
# Velocity S-wave (km/s) = 3.61580 4.15266 3.89349
# Velocity P-wave (km/s) = 6.43278 6.99871 6.72170
#
# Compressibility (1/GPa) = 0.01581810
#
# Stress axis : x y z
#
# Youngs Moduli (GPa) = 148.07361 60.35431 71.73684
#
# Poissons Ratio (x) = 0.16561 -0.00323
# Poissons Ratio (y) = 0.40631 0.57555
# Poissons Ratio (z) = -0.00668 0.48423
#
# Static dielectric constant tensor:
#      x y z
#    x 2.079930 0.003100 -0.104660 
#    y 0.003100 2.084220 0.061580 
#    z -0.104660 0.061580 2.174950 
# 
# From -- ./inp_files/175797.got.cif
#   From: 2010.05.17/outbox.cif.g08.bks.cpg/sg2_88_cif.got.tgz:175797.got - 2010.06.03 11:33:40.
