data_PCOD9086226
_publ_section_title
;
Structure prediction by ZEFSAII (Michael W. Deem and Ramdas Pophale) SiO2 
 PCOD9086226
Probable space group: P -1
;
_chemical_formula_sum "Si O2"
_cell_formula_units_Z 8
_cell_length_a 20.930715
_cell_length_b 7.529143
_cell_length_c 11.606491
_cell_angle_alpha 142.235705
_cell_angle_beta 17.937698
_cell_angle_gamma 140.792757
_cell_volume 342.467000
_symmetry_space_group_name_H-M "P -1"
_symmetry_group_IT_number 2
_symmetry_cell_setting 'triclinic'
loop_
_space_group_symop_operation_xyz
x,y,z
-x,-y,-z
loop_
_atom_site_type_symbol
_atom_site_label
_atom_site_fract_x
_atom_site_fract_y
_atom_site_fract_z
Si Si1 0.693473 0.163575 0.599236
Si Si2 0.257138 0.444993 0.860580
Si Si3 0.787917 0.044615 0.640771
Si Si4 0.008500 0.290472 0.713113
O O1 0.756081 0.119676 0.601940
O O2 0.798279 0.473811 0.534795
O O3 0.787803 0.902490 0.236174
O O4 0.441599 0.103526 0.996986
O O5 0.500000 0.500000 0.500000
O O6 0.159502 0.650783 0.224199
O O7 0.193335 0.557486 0.901769
O O8 0.951372 0.826516 0.288421
O O9 0.000000 0.000000 0.500000
#
# Coordination Sequence:
#
# PCOD9086226 Si02
#       4
#     2   2   2   2
#     4  10  19  36  57  77 106 139 171 214 264 307
#     4   9  19  35  53  77 107 137 174 216 257 306
#     4   9  20  36  56  79 104 137 174 215 261 308
#     4  10  20  34  55  80 106 138 175 214 257 311
#
# _framework density 23.359915999999998
#
# number of rings (size 3 to 8) (size 9 to 14) (size 15 to 20)
#    0.000    2.500    0.000    1.500    0.000    5.000 
#    0.000    5.000    0.000   27.000    0.000    0.000 
#    0.000    0.000    0.000    0.000    0.000    0.000 
#
# Total GULP energy -44671.902265 kJ/mol
# GULP energy per Si atom -5583.987783 kJ/mol
# Density = 2.330675 g / cm^3
# Si number density = 23.359916 Si / 1000 Ang^3
#
#
#
# Elastic Constant Matrix: (Units=GPa)
#
#
# Indices 1 2 3 4 5 6 
#
# 1 120.2081 58.7029 24.0572 9.0403 -22.7096 -16.3871
# 2 58.7029 169.7509 31.6508 15.2317 14.1239 5.7924
# 3 24.0572 31.6508 69.1952 2.6323 -26.0022 -13.8992
# 4 9.0403 15.2317 2.6323 30.9222 -2.6103 -4.1125
# 5 -22.7096 14.1239 -26.0022 -2.6103 29.1410 12.2133
# 6 -16.3871 5.7924 -13.8992 -4.1125 12.2133 48.6148
#
#
#
# Elastic Compliance Matrix: (Units=1/GPa)
#
#
# Indices 1 2 3 4 5 6 
#
# 1 0.015584 -0.008815 0.007385 0.001407 0.021857 0.003043
# 2 -0.008815 0.013968 -0.012847 -0.005628 -0.024505 -0.002628
# 3 0.007385 -0.012847 0.033708 0.005263 0.040930 0.003820
# 4 0.001407 -0.005628 0.005263 0.035536 0.010431 0.003035
# 5 0.021857 -0.024505 0.040930 0.010431 0.101816 -0.002707
# 6 0.003043 -0.002628 0.003820 0.003035 -0.002707 0.023938
#
#
# Mechanical properties :
#
#
# Convention : Reuss Voigt Hill
#
# Bulk Modulus (GPa) = 28.81263 65.33067 47.07165
# Shear Modulus (GPa) = 18.89120 38.05182 28.47151
#
# Velocity S-wave (km/s) = 2.84685 4.04039 3.49495
# Velocity P-wave (km/s) = 4.81322 7.05649 6.03991
#
# Compressibility (1/GPa) = 0.03470700
#
# Stress axis : x y z
#
# Youngs Moduli (GPa) = 64.16930 71.59059 29.66612
#
# Poissons Ratio (x) = 0.63106 -0.21909
# Poissons Ratio (y) = 0.56564 0.38112
# Poissons Ratio (z) = -0.47390 0.91973
#
# Static dielectric constant tensor:
#      x y z
#    x 1.910960 0.027720 0.001230 
#    y 0.027720 1.868140 0.012680 
#    z 0.001230 0.012680 1.929700 
# 
# From -- ./inp_files/15253.got.cif
#   From: 2010.05.17/outbox.cif.g08.bks.cpg/sg2_8_cif.got.tgz:15253.got - 2010.06.03 11:33:40.
