data_PCOD9086175
_publ_section_title
;
Structure prediction by ZEFSAII (Michael W. Deem and Ramdas Pophale) SiO2 
 PCOD9086175
Probable space group: P -1
;
_chemical_formula_sum "Si O2"
_cell_formula_units_Z 16
_cell_length_a 17.256146
_cell_length_b 8.745313
_cell_length_c 20.687195
_cell_angle_alpha 55.007852
_cell_angle_beta 161.244707
_cell_angle_gamma 115.745521
_cell_volume 749.127016
_symmetry_space_group_name_H-M "P -1"
_symmetry_group_IT_number 2
_symmetry_cell_setting 'triclinic'
loop_
_space_group_symop_operation_xyz
x,y,z
-x,-y,-z
loop_
_atom_site_type_symbol
_atom_site_label
_atom_site_fract_x
_atom_site_fract_y
_atom_site_fract_z
Si Si1 0.585467 0.187890 0.510514
Si Si2 0.764221 0.660629 0.924828
Si Si3 0.792485 0.463685 0.796669
Si Si4 0.694634 0.507490 0.038985
Si Si5 0.842898 0.118307 0.443562
Si Si6 0.860285 0.020881 0.954507
Si Si7 0.142527 0.257536 0.537027
Si Si8 0.375873 0.861658 0.970897
O O1 0.444321 0.303806 0.306039
O O2 0.473084 0.338684 0.446602
O O3 0.500000 0.000000 0.500000
O O4 0.899338 0.097604 0.778215
O O5 0.769252 0.513361 0.021966
O O6 0.696518 0.884870 0.848550
O O7 0.052555 0.572869 0.139711
O O8 0.747742 0.259270 0.825545
O O9 0.000000 0.500000 0.000000
O O10 0.437215 0.710857 0.799423
O O11 0.621867 0.312408 0.034574
O O12 0.945667 0.459357 0.295099
O O13 0.978800 0.222350 0.476360
O O14 0.802025 0.935912 0.418824
O O15 0.066469 0.008191 0.701633
O O16 0.000000 0.000000 0.000000
O O17 0.422291 0.245664 0.785751
O O18 0.500000 0.000000 0.000000
#
# Coordination Sequence:
#
# PCOD9086175 Si02
#       8
#     2   2   2   2   2   2   2   2
#     4  11  19  38  61  82 109 150 197 237 281 344
#     4  10  23  38  53  86 120 145 190 242 288 346
#     4   9  18  36  60  80 104 147 189 232 282 331
#     4  11  22  38  56  88 124 152 189 245 298 342
#     4   9  19  37  60  85 112 153 194 239 284 347
#     4  10  19  36  56  82 110 143 197 234 275 351
#     4   9  19  37  60  83 114 150 199 235 283 354
#     4   9  20  38  60  86 114 150 202 240 282 353
#
# _framework density 21.358193
#
# number of rings (size 3 to 8) (size 9 to 14) (size 15 to 20)
#    0.000    2.250    3.750    1.125    0.000    6.000 
#    4.500    2.500    0.000    0.000    0.000    0.000 
#    0.000    0.000    0.000    0.000    0.000    0.000 
#
# Total GULP energy -89227.064176 kJ/mol
# GULP energy per Si atom -5576.691511 kJ/mol
# Density = 2.130958 g / cm^3
# Si number density = 21.358193 Si / 1000 Ang^3
#
#
#
# Elastic Constant Matrix: (Units=GPa)
#
#
# Indices 1 2 3 4 5 6 
#
# 1 44.8275 12.8129 44.3201 -5.3086 1.3930 -7.2358
# 2 12.8129 63.7437 14.8354 -7.7708 13.2857 -17.1147
# 3 44.3201 14.8354 183.4937 -2.0556 -10.7138 -20.2570
# 4 -5.3086 -7.7708 -2.0556 31.6117 -20.1265 2.1008
# 5 1.3930 13.2857 -10.7138 -20.1265 25.4785 -7.3112
# 6 -7.2358 -17.1147 -20.2570 2.1008 -7.3112 16.7161
#
#
#
# Elastic Compliance Matrix: (Units=1/GPa)
#
#
# Indices 1 2 3 4 5 6 
#
# 1 0.030960 -0.004124 -0.006921 0.004567 0.001393 0.000828
# 2 -0.004124 0.022937 0.001193 0.000630 -0.004708 0.021006
# 3 -0.006921 0.001193 0.009641 0.007957 0.014468 0.015236
# 4 0.004567 0.000630 0.007957 0.078288 0.074679 0.035088
# 5 0.001393 -0.004708 0.014468 0.074679 0.123308 0.057861
# 6 0.000828 0.021006 0.015236 0.035088 0.057861 0.121049
#
#
# Mechanical properties :
#
#
# Convention : Reuss Voigt Hill
#
# Bulk Modulus (GPa) = 22.81293 48.44464 35.62879
# Shear Modulus (GPa) = 11.89068 29.43436 20.66252
#
# Velocity S-wave (km/s) = 2.36207 3.71634 3.11373
# Velocity P-wave (km/s) = 4.25951 6.41453 5.44471
#
# Compressibility (1/GPa) = 0.04383478
#
# Stress axis : x y z
#
# Youngs Moduli (GPa) = 32.29991 43.59735 103.72538
#
# Poissons Ratio (x) = 0.17978 0.71784
# Poissons Ratio (y) = 0.13319 -0.12371
# Poissons Ratio (z) = 0.22353 -0.05200
#
# Static dielectric constant tensor:
#      x y z
#    x 1.778100 0.002580 -0.025900 
#    y 0.002580 1.820180 0.010120 
#    z -0.025900 0.010120 1.844090 
# 
# From -- ./inp_files/599455.got.cif
#   From: 2010.05.17/outbox.cif.g08.bks.cpg/sg2_300_cif.got.tgz:599455.got - 2010.06.03 11:33:40.
