data_PCOD9086577
_publ_section_title
;
Structure prediction by ZEFSAII (Michael W. Deem and Ramdas Pophale) SiO2 
 PCOD9086577
Probable space group: P -1
;
_chemical_formula_sum "Si O2"
_cell_formula_units_Z 16
_cell_length_a 18.287874
_cell_length_b 11.486231
_cell_length_c 9.726926
_cell_angle_alpha 111.270252
_cell_angle_beta 129.983790
_cell_angle_gamma 30.206973
_cell_volume 682.389374
_symmetry_space_group_name_H-M "P -1"
_symmetry_group_IT_number 2
_symmetry_cell_setting 'triclinic'
loop_
_space_group_symop_operation_xyz
x,y,z
-x,-y,-z
loop_
_atom_site_type_symbol
_atom_site_label
_atom_site_fract_x
_atom_site_fract_y
_atom_site_fract_z
Si Si1 0.348032 0.400325 0.620642
Si Si2 0.263993 0.236384 0.787391
Si Si3 0.213030 0.120344 0.109909
Si Si4 0.173706 0.606959 0.799569
Si Si5 0.142102 0.871933 0.489484
Si Si6 0.624095 0.156989 0.232874
Si Si7 0.353674 0.992472 0.535584
Si Si8 0.235774 0.382001 0.238359
O O1 0.223914 0.529715 0.665154
O O2 0.267459 0.600158 0.504768
O O3 0.328773 0.295537 0.465721
O O4 0.580863 0.169135 0.833496
O O5 0.140353 0.506883 0.780877
O O6 0.252654 0.110192 0.785264
O O7 0.244533 0.224264 0.596960
O O8 0.500000 0.000000 0.000000
O O9 0.209098 0.268510 0.117904
O O10 0.259275 0.075737 0.309793
O O11 0.998499 0.301103 0.906149
O O12 0.385407 0.416244 0.029142
O O13 0.991682 0.917229 0.706306
O O14 0.285370 0.817868 0.692412
O O15 0.000000 0.000000 0.500000
O O16 0.651251 0.117883 0.414023
O O17 0.590986 0.758356 0.706863
#
# Coordination Sequence:
#
# PCOD9086577 Si02
#       8
#     2   2   2   2   2   2   2   2
#     4  10  21  36  57  81 117 147 192 237 275 330
#     4   8  16  33  56  85 113 143 176 226 286 334
#     4  10  20  35  60  83 111 149 187 233 287 328
#     4  10  19  36  59  84 117 150 186 237 282 339
#     4  10  23  38  55  82 114 156 198 228 275 340
#     4   9  21  36  57  84 117 152 182 231 293 332
#     4   9  18  36  55  82 120 140 178 235 284 334
#     4  10  20  35  58  86 108 149 191 231 281 338
#
# _framework density 23.447025
#
# number of rings (size 3 to 8) (size 9 to 14) (size 15 to 20)
#    0.750    1.750    0.000    3.000    0.000    6.500 
#    0.000    6.250    0.000    4.500    0.000    0.000 
#    0.000    0.000    0.000    0.000    0.000    0.000 
#
# Total GULP energy -89202.050461 kJ/mol
# GULP energy per Si atom -5575.128154 kJ/mol
# Density = 2.339366 g / cm^3
# Si number density = 23.447025 Si / 1000 Ang^3
#
#
#
# Elastic Constant Matrix: (Units=GPa)
#
#
# Indices 1 2 3 4 5 6 
#
# 1 68.0354 7.0981 20.3579 6.9921 21.4263 15.1948
# 2 7.0981 51.8322 3.3913 -20.9824 6.6851 22.4403
# 3 20.3579 3.3913 92.2440 -15.1758 21.6658 8.4877
# 4 6.9921 -20.9824 -15.1758 37.7849 -1.6717 -5.1523
# 5 21.4263 6.6851 21.6658 -1.6717 39.8934 2.2909
# 6 15.1948 22.4403 8.4877 -5.1523 2.2909 32.5724
#
#
#
# Elastic Compliance Matrix: (Units=1/GPa)
#
#
# Indices 1 2 3 4 5 6 
#
# 1 0.021443 -0.000099 -0.002670 -0.006842 -0.009784 -0.009633
# 2 -0.000099 0.038580 0.005892 0.020161 -0.007368 -0.024361
# 3 -0.002670 0.005892 0.014708 0.008716 -0.006902 -0.004783
# 4 -0.006842 0.020161 0.008716 0.041473 -0.002341 -0.006244
# 5 -0.009784 -0.007368 -0.006902 -0.002341 0.034711 0.008627
# 6 -0.009633 -0.024361 -0.004783 -0.006244 0.008627 0.051630
#
#
# Mechanical properties :
#
#
# Convention : Reuss Voigt Hill
#
# Bulk Modulus (GPa) = 12.34901 30.42291 21.38596
# Shear Modulus (GPa) = 22.39231 34.13442 28.26337
#
# Velocity S-wave (km/s) = 3.09369 3.81965 3.47567
# Velocity P-wave (km/s) = 4.24728 5.69704 5.02472
#
# Compressibility (1/GPa) = 0.08097813
#
# Stress axis : x y z
#
# Youngs Moduli (GPa) = 46.63452 25.92043 67.98793
#
# Poissons Ratio (x) = 0.00257 0.18153
# Poissons Ratio (y) = 0.00462 -0.40062
# Poissons Ratio (z) = 0.12452 -0.15273
#
# Static dielectric constant tensor:
#      x y z
#    x 1.884250 0.007780 -0.013490 
#    y 0.007780 2.001200 -0.053950 
#    z -0.013490 -0.053950 1.905550 
# 
# From -- ./inp_files/471212.got.cif
#   From: 2010.05.17/outbox.cif.g08.bks.cpg/sg2_236_cif.got.tgz:471212.got - 2010.06.03 11:33:40.
