data_PCOD9086221
_publ_section_title
;
Structure prediction by ZEFSAII (Michael W. Deem and Ramdas Pophale) SiO2 
 PCOD9086221
Probable space group: P -1
;
_chemical_formula_sum "Si O2"
_cell_formula_units_Z 16
_cell_length_a 7.947842
_cell_length_b 21.790136
_cell_length_c 21.147786
_cell_angle_alpha 160.706011
_cell_angle_beta 145.802800
_cell_angle_gamma 35.886169
_cell_volume 671.495227
_symmetry_space_group_name_H-M "P -1"
_symmetry_group_IT_number 2
_symmetry_cell_setting 'triclinic'
loop_
_space_group_symop_operation_xyz
x,y,z
-x,-y,-z
loop_
_atom_site_type_symbol
_atom_site_label
_atom_site_fract_x
_atom_site_fract_y
_atom_site_fract_z
Si Si1 0.284869 0.504343 0.000788
Si Si2 0.519631 0.093645 0.667214
Si Si3 0.422506 0.267572 0.583605
Si Si4 0.890939 0.732523 0.015079
Si Si5 0.783103 0.437246 0.603115
Si Si6 0.876418 0.584104 0.476267
Si Si7 0.745367 0.730841 0.771685
Si Si8 0.758521 0.097745 0.071393
O O1 0.275732 0.282332 0.786749
O O2 0.500000 0.500000 0.000000
O O3 0.430103 0.580117 0.182110
O O4 0.006144 0.670595 0.060465
O O5 0.851890 0.164619 0.838772
O O6 0.500000 0.000000 0.500000
O O7 0.481683 0.939116 0.558250
O O8 0.420410 0.303669 0.542213
O O9 0.067684 0.315099 0.540099
O O10 0.878217 0.522812 0.780091
O O11 0.559147 0.845086 0.008174
O O12 0.687155 0.628272 0.718233
O O13 0.507261 0.323200 0.407764
O O14 0.000000 0.500000 0.500000
O O15 0.936064 0.389511 0.266410
O O16 0.104764 0.734665 0.691002
O O17 0.739293 0.947438 0.974186
O O18 0.000000 0.000000 0.000000
#
# Coordination Sequence:
#
# PCOD9086221 Si02
#       8
#     2   2   2   2   2   2   2   2
#     4  10  19  36  56  93 133 159 200 253 330 389
#     4  11  19  35  62  99 136 163 200 256 331 396
#     4  11  21  36  62  93 129 165 202 255 322 392
#     4  11  21  36  60  92 134 163 203 255 325 386
#     4  10  19  36  58  94 133 159 189 268 338 392
#     4  11  24  43  61  86 123 174 223 266 311 367
#     4  10  22  38  58  89 127 161 212 259 326 387
#     4  12  25  41  63  88 120 178 229 257 309 377
#
# _framework density 23.827423
#
# number of rings (size 3 to 8) (size 9 to 14) (size 15 to 20)
#    0.000    1.250    7.500    0.750    1.750    0.500 
#    0.000    0.000    0.000    1.500    0.000    0.000 
#    0.000    0.000    0.000    0.000    0.000    0.000 
#
# Total GULP energy -89126.593120 kJ/mol
# GULP energy per Si atom -5570.412070 kJ/mol
# Density = 2.377319 g / cm^3
# Si number density = 23.827423 Si / 1000 Ang^3
#
#
#
# Elastic Constant Matrix: (Units=GPa)
#
#
# Indices 1 2 3 4 5 6 
#
# 1 18.4167 5.6112 -3.6339 6.6245 -10.2452 7.5999
# 2 5.6112 142.3911 44.7473 17.0730 -0.4235 24.0174
# 3 -3.6339 44.7473 104.9351 26.3055 23.5475 20.6543
# 4 6.6245 17.0730 26.3055 53.6299 5.9755 2.4435
# 5 -10.2452 -0.4235 23.5475 5.9755 17.9499 2.9481
# 6 7.5999 24.0174 20.6543 2.4435 2.9481 43.0042
#
#
#
# Elastic Compliance Matrix: (Units=1/GPa)
#
#
# Indices 1 2 3 4 5 6 
#
# 1 0.118849 0.004743 -0.007716 -0.021214 0.089214 -0.024857
# 2 0.004743 0.009387 -0.004832 -0.002199 0.010718 -0.004370
# 3 -0.007716 -0.004832 0.019063 -0.003622 -0.027830 -0.002979
# 4 -0.021214 -0.002199 -0.003622 0.025333 -0.016899 0.006436
# 5 0.089214 0.010718 -0.027830 -0.016899 0.151949 -0.017842
# 6 -0.024857 -0.004370 -0.002979 0.006436 -0.017842 0.032375
#
#
# Mechanical properties :
#
#
# Convention : Reuss Voigt Hill
#
# Bulk Modulus (GPa) = 7.59368 39.91025 23.75197
# Shear Modulus (GPa) = 12.00583 37.51802 24.76192
#
# Velocity S-wave (km/s) = 2.24713 3.97239 3.22719
# Velocity P-wave (km/s) = 3.15066 6.15028 4.88634
#
# Compressibility (1/GPa) = 0.13168846
#
# Stress axis : x y z
#
# Youngs Moduli (GPa) = 8.41401 106.52765 52.45829
#
# Poissons Ratio (x) = -0.50525 0.40477
# Poissons Ratio (y) = -0.03991 0.25350
# Poissons Ratio (z) = 0.06492 0.51479
#
# Static dielectric constant tensor:
#      x y z
#    x 2.002550 -0.124600 0.082960 
#    y -0.124600 1.583360 0.295060 
#    z 0.082960 0.295060 1.667340 
# 
# From -- ./inp_files/591811.got.cif
#   From: 2010.05.17/outbox.cif.g08.bks.cpg/sg2_296_cif.got.tgz:591811.got - 2010.06.03 11:33:40.
