data_PCOD9086176
_publ_section_title
;
Structure prediction by ZEFSAII (Michael W. Deem and Ramdas Pophale) SiO2 
 PCOD9086176
Probable space group: P -1
;
_chemical_formula_sum "Si O2"
_cell_formula_units_Z 16
_cell_length_a 9.048032
_cell_length_b 13.349965
_cell_length_c 13.024246
_cell_angle_alpha 56.322316
_cell_angle_beta 133.623944
_cell_angle_gamma 87.310905
_cell_volume 664.512288
_symmetry_space_group_name_H-M "P -1"
_symmetry_group_IT_number 2
_symmetry_cell_setting 'triclinic'
loop_
_space_group_symop_operation_xyz
x,y,z
-x,-y,-z
loop_
_atom_site_type_symbol
_atom_site_label
_atom_site_fract_x
_atom_site_fract_y
_atom_site_fract_z
Si Si1 0.874060 0.833612 0.193740
Si Si2 0.185129 0.510082 0.008539
Si Si3 0.569915 0.189317 0.268819
Si Si4 0.754307 0.824086 0.353693
Si Si5 0.907981 0.010873 0.831972
Si Si6 0.674111 0.661467 0.550120
Si Si7 0.031413 0.699178 0.120588
Si Si8 0.916075 0.196200 0.280687
O O1 0.922728 0.742802 0.373748
O O2 0.037326 0.723392 0.231672
O O3 0.956437 0.937980 0.195489
O O4 0.533067 0.975567 0.919512
O O5 0.000244 0.565894 0.785351
O O6 0.178697 0.656775 0.924854
O O7 0.493668 0.321755 0.241881
O O8 0.000000 0.500000 0.000000
O O9 0.660044 0.221511 0.189808
O O10 0.836172 0.992768 0.540642
O O11 0.282784 0.228973 0.094421
O O12 0.631167 0.745378 0.374045
O O13 0.928333 0.816033 0.533708
O O14 0.557734 0.178629 0.575829
O O15 0.018428 0.828769 0.977259
O O16 0.000000 0.000000 0.000000
O O17 0.708675 0.503805 0.663723
#
# Coordination Sequence:
#
# PCOD9086176 Si02
#       8
#     2   2   2   2   2   2   2   2
#     4  10  20  34  59  80 116 145 187 233 279 328
#     4  10  22  38  58  84 119 151 190 240 284 342
#     4  10  20  37  62  86 110 155 190 235 289 339
#     4  10  19  37  56  84 111 150 184 231 281 333
#     4  10  19  36  56  82 110 151 186 233 279 333
#     4  10  20  36  60  79 112 153 187 225 292 333
#     4  10  19  36  59  83 116 146 190 232 280 340
#     4  10  20  38  63  83 114 153 194 232 290 343
#
# _framework density 24.077808999999998
#
# number of rings (size 3 to 8) (size 9 to 14) (size 15 to 20)
#    0.000    2.000    3.750    1.125    0.000    4.000 
#    0.000    5.000    0.000    0.000    0.000    0.000 
#    0.000    0.000    0.000    0.000    0.000    0.000 
#
# Total GULP energy -89213.751165 kJ/mol
# GULP energy per Si atom -5575.859448 kJ/mol
# Density = 2.402301 g / cm^3
# Si number density = 24.077809 Si / 1000 Ang^3
#
#
#
# Elastic Constant Matrix: (Units=GPa)
#
#
# Indices 1 2 3 4 5 6 
#
# 1 104.7580 19.2152 25.2492 -24.2045 -15.8892 18.4693
# 2 19.2152 69.0416 30.5169 -25.8855 -12.1892 8.6061
# 3 25.2492 30.5169 58.7953 -16.5743 -9.9553 -4.8420
# 4 -24.2045 -25.8855 -16.5743 48.0025 13.2869 2.5053
# 5 -15.8892 -12.1892 -9.9553 13.2869 30.8993 -4.2080
# 6 18.4693 8.6061 -4.8420 2.5053 -4.2080 37.3863
#
#
#
# Elastic Compliance Matrix: (Units=1/GPa)
#
#
# Indices 1 2 3 4 5 6 
#
# 1 0.013668 0.002400 -0.005689 0.005966 0.002465 -0.008164
# 2 0.002400 0.023879 -0.010968 0.010335 0.001502 -0.008626
# 3 -0.005689 -0.010968 0.026081 -0.001038 0.002837 0.009102
# 4 0.005966 0.010335 -0.001038 0.031706 -0.007979 -0.008483
# 5 0.002465 0.001502 0.002837 -0.007979 0.039077 0.003737
# 6 -0.008164 -0.008626 0.009102 -0.008483 0.003737 0.034934
#
#
# Mechanical properties :
#
#
# Convention : Reuss Voigt Hill
#
# Bulk Modulus (GPa) = 28.47710 42.50640 35.49175
# Shear Modulus (GPa) = 23.85906 33.76518 28.81212
#
# Velocity S-wave (km/s) = 3.15130 3.74884 3.46298
# Velocity P-wave (km/s) = 5.00936 6.03577 5.54636
#
# Compressibility (1/GPa) = 0.03511594
#
# Stress axis : x y z
#
# Youngs Moduli (GPa) = 73.16190 41.87789 38.34212
#
# Poissons Ratio (x) = -0.10050 0.21811
# Poissons Ratio (y) = -0.17558 0.42052
# Poissons Ratio (z) = 0.41618 0.45930
#
# Static dielectric constant tensor:
#      x y z
#    x 1.961860 0.001050 -0.032400 
#    y 0.001050 2.049330 -0.035500 
#    z -0.032400 -0.035500 2.004330 
# 
# From -- ./inp_files/504018.got.cif
#   From: 2010.05.17/outbox.cif.g08.bks.cpg/sg2_253_cif.got.tgz:504018.got - 2010.06.03 11:33:40.
