data_PCOD9086562
_publ_section_title
;
Structure prediction by ZEFSAII (Michael W. Deem and Ramdas Pophale) SiO2 
 PCOD9086562
Probable space group: P -1
;
_chemical_formula_sum "Si O2"
_cell_formula_units_Z 16
_cell_length_a 10.572474
_cell_length_b 14.711706
_cell_length_c 8.948525
_cell_angle_alpha 58.402656
_cell_angle_beta 52.288751
_cell_angle_gamma 43.746774
_cell_volume 752.759484
_symmetry_space_group_name_H-M "P -1"
_symmetry_group_IT_number 2
_symmetry_cell_setting 'triclinic'
loop_
_space_group_symop_operation_xyz
x,y,z
-x,-y,-z
loop_
_atom_site_type_symbol
_atom_site_label
_atom_site_fract_x
_atom_site_fract_y
_atom_site_fract_z
Si Si1 0.465534 0.314098 0.881217
Si Si2 0.819911 0.413791 0.038210
Si Si3 0.677640 0.344992 0.475480
Si Si4 0.920397 0.070011 0.157858
Si Si5 0.741757 0.319020 0.909385
Si Si6 0.206659 0.140804 0.990880
Si Si7 0.415962 0.094098 0.195246
Si Si8 0.943186 0.826138 0.438053
O O1 0.246704 0.450973 0.948641
O O2 0.566766 0.282899 0.671180
O O3 0.593442 0.346389 0.861369
O O4 0.481974 0.189472 0.038366
O O5 0.743564 0.349129 0.258387
O O6 0.054994 0.299741 0.947669
O O7 0.725601 0.429393 0.929186
O O8 0.500000 0.500000 0.500000
O O9 0.883045 0.271786 0.484087
O O10 0.078352 0.084790 0.108672
O O11 0.896010 0.971671 0.351988
O O12 0.741406 0.218094 0.109132
O O13 0.000000 0.000000 0.000000
O O14 0.955900 0.239413 0.738168
O O15 0.295262 0.109671 0.119651
O O16 0.389385 0.057829 0.814738
O O17 0.262705 0.148094 0.395223
#
# Coordination Sequence:
#
# PCOD9086562 Si02
#       8
#     2   2   2   2   2   2   2   2
#     4  10  21  38  63  83 119 156 188 234 300 345
#     4  10  19  38  62  87 113 149 201 245 276 336
#     4   9  18  35  58  84 108 147 198 237 276 335
#     4   9  18  36  60  80 110 148 195 236 282 330
#     4   9  19  37  60  87 108 147 202 246 277 335
#     4  10  21  37  54  86 120 145 196 235 282 337
#     4  11  22  37  55  86 124 155 185 233 296 351
#     4  10  19  36  59  83 115 157 187 235 293 343
#
# _framework density 21.255130000000001
#
# number of rings (size 3 to 8) (size 9 to 14) (size 15 to 20)
#    0.000    2.250    1.250    2.625    0.000    1.000 
#    9.000   10.625    0.000    0.000    0.000    0.000 
#    0.000    0.000    0.000    0.000    0.000    0.000 
#
# Total GULP energy -89077.651734 kJ/mol
# GULP energy per Si atom -5567.353233 kJ/mol
# Density = 2.120675 g / cm^3
# Si number density = 21.255130 Si / 1000 Ang^3
#
#
#
# Elastic Constant Matrix: (Units=GPa)
#
#
# Indices 1 2 3 4 5 6 
#
# 1 33.8619 -4.6984 0.7561 3.2786 7.7216 -1.5821
# 2 -4.6984 89.7766 23.1708 21.9451 -5.0731 -14.0498
# 3 0.7561 23.1708 73.5704 16.2878 -2.0452 -6.1603
# 4 3.2786 21.9451 16.2878 31.8350 -5.3789 3.8734
# 5 7.7216 -5.0731 -2.0452 -5.3789 23.9109 7.4575
# 6 -1.5821 -14.0498 -6.1603 3.8734 7.4575 23.8419
#
#
#
# Elastic Compliance Matrix: (Units=1/GPa)
#
#
# Indices 1 2 3 4 5 6 
#
# 1 0.036289 0.005967 0.001352 -0.013223 -0.017661 0.013946
# 2 0.005967 0.017308 -0.001189 -0.014774 -0.006247 0.014642
# 3 0.001352 -0.001189 0.016358 -0.008969 -0.003202 0.006074
# 4 -0.013223 -0.014774 -0.008969 0.054450 0.021151 -0.027363
# 5 -0.017661 -0.006247 -0.003202 0.021151 0.059314 -0.027669
# 6 0.013946 0.014642 0.006074 -0.027363 -0.027669 0.066167
#
#
# Mechanical properties :
#
#
# Convention : Reuss Voigt Hill
#
# Bulk Modulus (GPa) = 12.16324 26.18508 19.17416
# Shear Modulus (GPa) = 18.86578 27.78292 23.32435
#
# Velocity S-wave (km/s) = 2.98247 3.61933 3.31622
# Velocity P-wave (km/s) = 4.19465 5.46006 4.86864
#
# Compressibility (1/GPa) = 0.08221491
#
# Stress axis : x y z
#
# Youngs Moduli (GPa) = 27.55673 57.77746 61.13100
#
# Poissons Ratio (x) = -0.34476 -0.08265
# Poissons Ratio (y) = -0.16443 0.07269
# Poissons Ratio (z) = -0.03726 0.06871
#
# Static dielectric constant tensor:
#      x y z
#    x 1.788680 -0.038260 0.009580 
#    y -0.038260 1.852330 0.023810 
#    z 0.009580 0.023810 1.797040 
# 
# From -- ./inp_files/277539.got.cif
#   From: 2010.05.17/outbox.cif.g08.bks.cpg/sg2_139_cif.got.tgz:277539.got - 2010.06.03 11:33:40.
