data_PCOD9086962
_publ_section_title
;
Structure prediction by ZEFSAII (Michael W. Deem and Ramdas Pophale) SiO2 
 PCOD9086962
Probable space group: P -1
;
_chemical_formula_sum "Si O2"
_cell_formula_units_Z 16
_cell_length_a 17.990501
_cell_length_b 8.264458
_cell_length_c 12.384017
_cell_angle_alpha 142.081879
_cell_angle_beta 146.121083
_cell_angle_gamma 39.158403
_cell_volume 590.480513
_symmetry_space_group_name_H-M "P -1"
_symmetry_group_IT_number 2
_symmetry_cell_setting 'triclinic'
loop_
_space_group_symop_operation_xyz
x,y,z
-x,-y,-z
loop_
_atom_site_type_symbol
_atom_site_label
_atom_site_fract_x
_atom_site_fract_y
_atom_site_fract_z
Si Si1 0.673168 0.836899 0.744784
Si Si2 0.176289 0.547955 0.962318
Si Si3 0.919252 0.281198 0.764092
Si Si4 0.654068 0.816887 0.218851
Si Si5 0.827022 0.993902 0.199006
Si Si6 0.078192 0.242676 0.375494
Si Si7 0.387714 0.846202 0.374610
Si Si8 0.398013 0.700530 0.766852
O O1 0.760780 0.503462 0.682535
O O2 0.510028 0.906043 0.622686
O O3 0.683327 0.919137 0.676189
O O4 0.748435 0.009889 0.997956
O O5 0.253312 0.432820 0.880863
O O6 0.191869 0.278676 0.911434
O O7 0.010055 0.689930 0.806360
O O8 0.270670 0.724196 0.213023
O O9 0.006620 0.088831 0.669647
O O10 0.934110 0.045192 0.746234
O O11 0.000000 0.500000 0.000000
O O12 0.755196 0.793217 0.431682
O O13 0.637164 0.092216 0.270326
O O14 0.498615 0.799459 0.021752
O O15 0.742790 0.254587 0.309527
O O16 0.000000 0.500000 0.500000
O O17 0.499876 0.599151 0.306765
#
# Coordination Sequence:
#
# PCOD9086962 Si02
#       8
#     2   2   2   2   2   2   2   2
#     4  10  22  39  57  82 117 163 200 233 298 367
#     4   9  18  34  57  84 114 149 194 246 291 343
#     4  10  21  39  59  80 119 164 192 231 301 366
#     4   8  16  31  55  85 115 147 185 237 299 348
#     4  10  21  37  59  88 119 150 194 251 302 346
#     4  10  19  36  61  86 113 156 204 240 286 355
#     4  10  20  38  61  82 115 159 202 240 291 365
#     4   9  17  34  60  88 115 147 193 250 297 336
#
# _framework density 27.096578000000001
#
# number of rings (size 3 to 8) (size 9 to 14) (size 15 to 20)
#    0.000    2.500    0.000    3.000    0.000    1.000 
#    0.000   19.375    0.000    0.000    0.000    0.000 
#    0.000    0.000    0.000    0.000    0.000    0.000 
#
# Total GULP energy -89494.236743 kJ/mol
# GULP energy per Si atom -5593.389796 kJ/mol
# Density = 2.703490 g / cm^3
# Si number density = 27.096578 Si / 1000 Ang^3
#
#
#
# Elastic Constant Matrix: (Units=GPa)
#
#
# Indices 1 2 3 4 5 6 
#
# 1 78.7904 19.7647 11.4802 -4.9876 11.4235 -23.0155
# 2 19.7647 114.8098 20.4025 -10.9150 2.8113 2.8869
# 3 11.4802 20.4025 108.4751 -29.6950 3.2000 2.3225
# 4 -4.9876 -10.9150 -29.6950 52.4994 -11.3881 3.5670
# 5 11.4235 2.8113 3.2000 -11.3881 38.6802 -0.2107
# 6 -23.0155 2.8869 2.3225 3.5670 -0.2107 37.0208
#
#
#
# Elastic Compliance Matrix: (Units=1/GPa)
#
#
# Indices 1 2 3 4 5 6 
#
# 1 0.017781 -0.003065 -0.001942 -0.002004 -0.005395 0.011578
# 2 -0.003065 0.009613 -0.001049 0.001453 0.000706 -0.002726
# 3 -0.001942 -0.001049 0.011428 0.006583 0.001629 -0.002468
# 4 -0.002004 0.001453 0.006583 0.024724 0.007198 -0.004113
# 5 -0.005395 0.000706 0.001629 0.007198 0.029357 -0.004038
# 6 0.011578 -0.002726 -0.002468 -0.004113 -0.004038 0.034950
#
#
# Mechanical properties :
#
#
# Convention : Reuss Voigt Hill
#
# Bulk Modulus (GPa) = 37.43897 45.04111 41.24004
# Shear Modulus (GPa) = 33.58627 42.33527 37.96077
#
# Velocity S-wave (km/s) = 3.52448 3.95699 3.74698
# Velocity P-wave (km/s) = 5.51447 6.12662 5.82859
#
# Compressibility (1/GPa) = 0.02671014
#
# Stress axis : x y z
#
# Youngs Moduli (GPa) = 56.23937 104.02087 87.50231
#
# Poissons Ratio (x) = 0.31886 0.16997
# Poissons Ratio (y) = 0.17239 0.09175
# Poissons Ratio (z) = 0.10924 0.10907
#
# Static dielectric constant tensor:
#      x y z
#    x 2.124870 -0.056910 -0.059070 
#    y -0.056910 2.086220 -0.035480 
#    z -0.059070 -0.035480 2.280140 
# 
# From -- ./inp_files/540590.got.cif
#   From: 2010.05.17/outbox.cif.g08.bks.cpg/sg2_271_cif.got.tgz:540590.got - 2010.06.03 11:33:40.
