data_PCOD9086789
_publ_section_title
;
Structure prediction by ZEFSAII (Michael W. Deem and Ramdas Pophale) SiO2 
 PCOD9086789
Probable space group: P -1
;
_chemical_formula_sum "Si O2"
_cell_formula_units_Z 16
_cell_length_a 6.967803
_cell_length_b 17.272090
_cell_length_c 11.227713
_cell_angle_alpha 134.443061
_cell_angle_beta 48.914530
_cell_angle_gamma 101.579238
_cell_volume 637.046520
_symmetry_space_group_name_H-M "P -1"
_symmetry_group_IT_number 2
_symmetry_cell_setting 'triclinic'
loop_
_space_group_symop_operation_xyz
x,y,z
-x,-y,-z
loop_
_atom_site_type_symbol
_atom_site_label
_atom_site_fract_x
_atom_site_fract_y
_atom_site_fract_z
Si Si1 0.128801 0.709215 0.865231
Si Si2 0.695886 0.542011 0.350114
Si Si3 0.609088 0.843952 0.364726
Si Si4 0.324952 0.978652 0.850733
Si Si5 0.614538 0.259001 0.853206
Si Si6 0.767135 0.766791 0.828928
Si Si7 0.806990 0.725457 0.384222
Si Si8 0.774312 0.478088 0.651918
O O1 0.468747 0.656382 0.648538
O O2 0.144708 0.583226 0.775773
O O3 0.915767 0.817868 0.156084
O O4 0.968945 0.746167 0.842980
O O5 0.880030 0.595334 0.268146
O O6 0.482002 0.523922 0.324611
O O7 0.449992 0.959351 0.642445
O O8 0.422968 0.830661 0.321001
O O9 0.683575 0.733263 0.309396
O O10 0.539473 0.847648 0.682373
O O11 0.326365 0.097358 0.032577
O O12 0.000000 0.000000 0.000000
O O13 0.502243 0.241838 0.010488
O O14 0.929139 0.246193 0.706066
O O15 0.393768 0.403029 0.069509
O O16 0.003122 0.656490 0.532220
O O17 0.000000 0.500000 0.500000
#
# Coordination Sequence:
#
# PCOD9086789 Si02
#       8
#     2   2   2   2   2   2   2   2
#     4   9  18  34  59  90 118 157 207 259 299 368
#     4  10  19  36  60  87 135 162 207 255 316 387
#     4   9  22  39  62  94 122 160 216 256 309 374
#     4  10  21  41  67  87 126 176 210 252 320 376
#     4  10  20  39  62  96 129 154 218 264 313 375
#     4   9  19  37  63  91 127 170 211 253 313 383
#     4  10  23  40  64  93 126 174 198 261 328 362
#     4   9  18  33  59  87 123 166 198 258 317 370
#
# _framework density 25.115907
#
# number of rings (size 3 to 8) (size 9 to 14) (size 15 to 20)
#    0.750    1.750    0.000    3.000    0.000    4.500 
#    0.000   10.000    8.250    0.000    0.000    0.000 
#    0.000    0.000    0.000    0.000    0.000    0.000 
#
# Total GULP energy -89304.228653 kJ/mol
# GULP energy per Si atom -5581.514291 kJ/mol
# Density = 2.505874 g / cm^3
# Si number density = 25.115907 Si / 1000 Ang^3
#
#
#
# Elastic Constant Matrix: (Units=GPa)
#
#
# Indices 1 2 3 4 5 6 
#
# 1 94.1462 9.6751 4.8618 -7.5791 -9.4201 12.1554
# 2 9.6751 76.4631 6.0194 25.1960 -2.2788 4.2988
# 3 4.8618 6.0194 115.4692 9.1163 -7.2168 8.9960
# 4 -7.5791 25.1960 9.1163 30.9287 3.5728 -7.0777
# 5 -9.4201 -2.2788 -7.2168 3.5728 30.2777 -5.9138
# 6 12.1554 4.2988 8.9960 -7.0777 -5.9138 24.2154
#
#
#
# Elastic Compliance Matrix: (Units=1/GPa)
#
#
# Indices 1 2 3 4 5 6 
#
# 1 0.011917 -0.002497 -0.000246 0.003907 0.002267 -0.003752
# 2 -0.002497 0.020245 0.001339 -0.019564 0.001789 -0.008119
# 3 -0.000246 0.001339 0.009506 -0.005258 0.001993 -0.004696
# 4 0.003907 -0.019564 -0.005258 0.055550 -0.004428 0.018620
# 5 0.002267 0.001789 0.001993 -0.004428 0.035896 0.005276
# 6 -0.003752 -0.008119 -0.004696 0.018620 0.005276 0.053096
#
#
# Mechanical properties :
#
#
# Convention : Reuss Voigt Hill
#
# Bulk Modulus (GPa) = 25.73408 36.35458 31.04433
# Shear Modulus (GPa) = 24.75586 34.78583 29.77084
#
# Velocity S-wave (km/s) = 3.14294 3.72561 3.44661
# Velocity P-wave (km/s) = 4.84139 5.74570 5.31282
#
# Compressibility (1/GPa) = 0.03885898
#
# Stress axis : x y z
#
# Youngs Moduli (GPa) = 83.91463 49.39423 105.19224
#
# Poissons Ratio (x) = 0.12336 0.02588
# Poissons Ratio (y) = 0.20957 -0.14082
# Poissons Ratio (z) = 0.02065 -0.06612
#
# Static dielectric constant tensor:
#      x y z
#    x 2.017920 -0.003580 0.034800 
#    y -0.003580 1.974180 0.000640 
#    z 0.034800 0.000640 2.026680 
# 
# From -- ./inp_files/507923.got.cif
#   From: 2010.05.17/outbox.cif.g08.bks.cpg/sg2_254_cif.got.tgz:507923.got - 2010.06.03 11:33:40.
