data_PCOD9086468
_publ_section_title
;
Structure prediction by ZEFSAII (Michael W. Deem and Ramdas Pophale) SiO2 
 PCOD9086468
Probable space group: P -1
;
_chemical_formula_sum "Si O2"
_cell_formula_units_Z 14
_cell_length_a 15.226437
_cell_length_b 9.539836
_cell_length_c 8.885690
_cell_angle_alpha 137.590851
_cell_angle_beta 131.825662
_cell_angle_gamma 63.912820
_cell_volume 645.097054
_symmetry_space_group_name_H-M "P -1"
_symmetry_group_IT_number 2
_symmetry_cell_setting 'triclinic'
loop_
_space_group_symop_operation_xyz
x,y,z
-x,-y,-z
loop_
_atom_site_type_symbol
_atom_site_label
_atom_site_fract_x
_atom_site_fract_y
_atom_site_fract_z
Si Si1 0.517040 0.359569 0.261834
Si Si2 0.890642 0.436270 0.134367
Si Si3 0.110560 0.947506 0.362907
Si Si4 0.912103 0.674251 0.067554
Si Si5 0.859596 0.692449 0.561327
Si Si6 0.330007 0.025626 0.875830
Si Si7 0.310507 0.291038 0.347875
O O1 0.500000 0.500000 0.500000
O O2 0.578212 0.536154 0.360692
O O3 0.606646 0.182453 0.239975
O O4 0.393217 0.213325 0.992319
O O5 0.901264 0.645180 0.210482
O O6 0.823359 0.493705 0.253328
O O7 0.021027 0.372197 0.274614
O O8 0.838041 0.247979 0.820432
O O9 0.980507 0.874999 0.224215
O O10 0.107429 0.113376 0.357178
O O11 0.196617 0.989387 0.637467
O O12 0.786446 0.616864 0.799508
O O13 0.000000 0.500000 0.000000
O O14 0.762001 0.749422 0.613576
O O15 0.341857 0.101620 0.124455
#
# Coordination Sequence:
#
# PCOD9086468 Si02
#       7
#     2   2   2   2   2   2   2
#     4   9  20  41  63  88 112 145 202 254 293 349
#     4  10  22  38  55  82 127 169 199 234 285 350
#     4  11  22  39  57  90 125 154 198 246 292 355
#     4  10  19  36  58  87 119 161 203 237 285 343
#     4  11  23  37  55  87 127 165 194 235 299 347
#     4  10  22  37  65  89 112 153 200 248 299 345
#     4  11  21  37  60  89 120 156 201 243 290 352
#
# _framework density 21.702161
#
# number of rings (size 3 to 8) (size 9 to 14) (size 15 to 20)
#    0.000    1.714    2.857    3.000    0.000    4.571 
#    0.000    0.714    0.000    8.571    0.000    0.000 
#    0.000    0.000    0.000    0.000    0.000    0.000 
#
# Total GULP energy -77996.180759 kJ/mol
# GULP energy per Si atom -5571.155769 kJ/mol
# Density = 2.165277 g / cm^3
# Si number density = 21.702161 Si / 1000 Ang^3
#
#
#
# Elastic Constant Matrix: (Units=GPa)
#
#
# Indices 1 2 3 4 5 6 
#
# 1 112.4710 31.8271 31.5413 6.6104 -21.3617 7.2625
# 2 31.8271 59.9992 3.4200 13.9807 -17.2969 9.1431
# 3 31.5413 3.4200 72.6472 14.5447 -13.1653 10.8631
# 4 6.6104 13.9807 14.5447 19.6165 -3.0096 -5.3763
# 5 -21.3617 -17.2969 -13.1653 -3.0096 31.5318 2.5913
# 6 7.2625 9.1431 10.8631 -5.3763 2.5913 42.6882
#
#
#
# Elastic Compliance Matrix: (Units=1/GPa)
#
#
# Indices 1 2 3 4 5 6 
#
# 1 0.012743 -0.007529 -0.006338 0.006610 0.002344 0.001748
# 2 -0.007529 0.035570 0.014170 -0.034745 0.018279 -0.015429
# 3 -0.006338 0.014170 0.025804 -0.028703 0.012574 -0.012902
# 4 0.006610 -0.034745 -0.028703 0.099312 -0.019330 0.027302
# 5 0.002344 0.018279 0.012574 -0.019330 0.047790 -0.012849
# 6 0.001748 -0.015429 -0.012902 0.027302 -0.012849 0.033935
#
#
# Mechanical properties :
#
#
# Convention : Reuss Voigt Hill
#
# Bulk Modulus (GPa) = 13.38275 42.07714 27.72994
# Shear Modulus (GPa) = 17.89192 30.65591 24.27391
#
# Velocity S-wave (km/s) = 2.87440 3.76250 3.34803
# Velocity P-wave (km/s) = 4.14683 6.18916 5.26792
#
# Compressibility (1/GPa) = 0.07472307
#
# Stress axis : x y z
#
# Youngs Moduli (GPa) = 78.47365 28.11354 38.75296
#
# Poissons Ratio (x) = 0.21168 0.24563
# Poissons Ratio (y) = 0.59086 -0.54915
# Poissons Ratio (z) = 0.49739 -0.39838
#
# Static dielectric constant tensor:
#      x y z
#    x 1.871370 0.000400 -0.047330 
#    y 0.000400 1.790250 0.077370 
#    z -0.047330 0.077370 1.893790 
# 
# From -- ./inp_files/297028.got.cif
#   From: 2010.05.17/outbox.cif.g08.bks.cpg/sg2_149_cif.got.tgz:297028.got - 2010.06.03 11:33:40.
