data_PCOD9086419
_publ_section_title
;
Structure prediction by ZEFSAII (Michael W. Deem and Ramdas Pophale) SiO2 
 PCOD9086419
Probable space group: P -1
;
_chemical_formula_sum "Si O2"
_cell_formula_units_Z 14
_cell_length_a 12.603866
_cell_length_b 25.856935
_cell_length_c 5.259988
_cell_angle_alpha 119.443812
_cell_angle_beta 55.913326
_cell_angle_gamma 147.374484
_cell_volume 764.689914
_symmetry_space_group_name_H-M "P -1"
_symmetry_group_IT_number 2
_symmetry_cell_setting 'triclinic'
loop_
_space_group_symop_operation_xyz
x,y,z
-x,-y,-z
loop_
_atom_site_type_symbol
_atom_site_label
_atom_site_fract_x
_atom_site_fract_y
_atom_site_fract_z
Si Si1 0.645825 0.993788 0.316186
Si Si2 0.919805 0.263146 0.075603
Si Si3 0.747136 0.374325 0.265884
Si Si4 0.745142 0.072120 0.872150
Si Si5 0.301456 0.773222 0.223994
Si Si6 0.374770 0.472732 0.852487
Si Si7 0.750968 0.441760 0.923922
O O1 0.502962 0.885046 0.294679
O O2 0.500000 0.000000 0.500000
O O3 0.796741 0.061843 0.510080
O O4 0.759651 0.032551 0.989289
O O5 0.849615 0.276383 0.447278
O O6 0.872027 0.177900 0.007337
O O7 0.788000 0.228391 0.914529
O O8 0.152725 0.360871 0.917206
O O9 0.688372 0.370264 0.622492
O O10 0.998532 0.462396 0.158942
O O11 0.668874 0.283450 0.040480
O O12 0.686214 0.400751 0.197951
O O13 0.500000 0.000000 0.000000
O O14 0.500000 0.500000 0.500000
O O15 0.500000 0.500000 0.000000
O O16 0.330740 0.526307 0.999441
#
# Coordination Sequence:
#
# PCOD9086419 Si02
#       7
#     2   2   2   2   2   2   2
#     4  10  16  27  43  72 110 146 154 201 262 341
#     4  12  21  32  52  75 111 148 176 219 267 324
#     4  10  21  33  55  81 104 141 176 219 285 334
#     4  10  16  29  44  73 106 145 160 203 275 335
#     4  12  19  30  51  80 112 143 172 204 272 344
#     4  12  26  41  56  77 107 151 198 231 260 305
#     4  10  21  38  54  74 106 138 184 233 271 317
#
# _framework density 18.308073
#
# number of rings (size 3 to 8) (size 9 to 14) (size 15 to 20)
#    0.000    1.143    7.143    2.571    4.000    0.000 
#    0.000    0.000    0.000    0.000    0.000    0.000 
#    0.000   22.857    0.000    0.000    0.000    0.000 
#
# Total GULP energy -78034.565595 kJ/mol
# GULP energy per Si atom -5573.897543 kJ/mol
# Density = 1.826640 g / cm^3
# Si number density = 18.308073 Si / 1000 Ang^3
#
#
#
# Elastic Constant Matrix: (Units=GPa)
#
#
# Indices 1 2 3 4 5 6 
#
# 1 83.3458 7.2655 33.0411 -2.1500 18.8906 -8.6961
# 2 7.2655 67.6038 30.4954 15.1208 -14.6444 -18.6230
# 3 33.0411 30.4954 96.3663 6.9346 26.0973 -3.6204
# 4 -2.1500 15.1208 6.9346 29.7120 -9.1056 6.7628
# 5 18.8906 -14.6444 26.0973 -9.1056 29.8893 -1.4601
# 6 -8.6961 -18.6230 -3.6204 6.7628 -1.4601 13.2646
#
#
#
# Elastic Compliance Matrix: (Units=1/GPa)
#
#
# Indices 1 2 3 4 5 6 
#
# 1 0.017799 0.022406 -0.012436 -0.015794 0.008153 0.048682
# 2 0.022406 0.264294 -0.115874 -0.149464 0.193030 0.451573
# 3 -0.012436 -0.115874 0.067245 0.055322 -0.100138 -0.191709
# 4 -0.015794 -0.149464 0.055322 0.134134 -0.084502 -0.282786
# 5 0.008153 0.193030 -0.100138 -0.084502 0.199915 0.314109
# 6 0.048682 0.451573 -0.191709 -0.282786 0.314109 0.867722
#
#
# Mechanical properties :
#
#
# Convention : Reuss Voigt Hill
#
# Bulk Modulus (GPa) = 7.27103 43.21331 25.24217
# Shear Modulus (GPa) = 2.76433 26.34077 14.55255
#
# Velocity S-wave (km/s) = 1.23011 3.79720 2.82240
# Velocity P-wave (km/s) = 2.44901 6.54826 4.94355
#
# Compressibility (1/GPa) = 0.13753207
#
# Stress axis : x y z
#
# Youngs Moduli (GPa) = 56.18319 3.78367 14.87100
#
# Poissons Ratio (x) = -0.08478 0.18493
# Poissons Ratio (y) = -1.25886 1.72315
# Poissons Ratio (z) = 0.69868 0.43843
#
# Static dielectric constant tensor:
#      x y z
#    x 1.568250 0.062490 -0.351110 
#    y 0.062490 1.568360 0.365040 
#    z -0.351110 0.365040 -0.048820 
# 
# From -- ./inp_files/84564.got.cif
#   From: 2010.05.17/outbox.cif.g08.bks.cpg/sg2_43_cif.got.tgz:84564.got - 2010.06.03 11:33:40.
