data_PCOD9086934
_publ_section_title
;
Structure prediction by ZEFSAII (Michael W. Deem and Ramdas Pophale) SiO2 
 PCOD9086934
Probable space group: P -1
;
_chemical_formula_sum "Si O2"
_cell_formula_units_Z 16
_cell_length_a 9.509967
_cell_length_b 11.254164
_cell_length_c 11.664930
_cell_angle_alpha 130.213765
_cell_angle_beta 57.091173
_cell_angle_gamma 128.953648
_cell_volume 721.280438
_symmetry_space_group_name_H-M "P -1"
_symmetry_group_IT_number 2
_symmetry_cell_setting 'triclinic'
loop_
_space_group_symop_operation_xyz
x,y,z
-x,-y,-z
loop_
_atom_site_type_symbol
_atom_site_label
_atom_site_fract_x
_atom_site_fract_y
_atom_site_fract_z
Si Si1 0.311703 0.836952 0.120890
Si Si2 0.995286 0.316645 0.428463
Si Si3 0.914511 0.636213 0.159519
Si Si4 0.360957 0.331248 0.885126
Si Si5 0.047833 0.247238 0.117254
Si Si6 0.710287 0.530875 0.427801
Si Si7 0.279289 0.667806 0.273811
Si Si8 0.669669 0.183783 0.158170
O O1 0.309768 0.732245 0.169904
O O2 0.101332 0.815569 0.192550
O O3 0.480256 0.023684 0.174029
O O4 0.348725 0.773222 0.940386
O O5 0.995534 0.211440 0.250581
O O6 0.826295 0.247874 0.550107
O O7 0.000000 0.500000 0.500000
O O8 0.178866 0.355755 0.444433
O O9 0.822159 0.601256 0.303807
O O10 0.763733 0.635347 0.134835
O O11 0.000000 0.500000 0.000000
O O12 0.145482 0.460152 0.198393
O O13 0.211043 0.208090 0.966966
O O14 0.500000 0.500000 0.000000
O O15 0.859628 0.163767 0.075668
O O16 0.483392 0.718634 0.266802
O O17 0.500000 0.500000 0.500000
O O18 0.703697 0.342306 0.323926
#
# Coordination Sequence:
#
# PCOD9086934 Si02
#       8
#     2   2   2   2   2   2   2   2
#     4  11  22  38  66  87 121 167 205 247 303 372
#     4  10  20  36  60  82 121 153 196 246 299 355
#     4  12  21  40  66  89 120 162 215 247 300 366
#     4  10  21  31  58  94 117 143 200 266 292 339
#     4  10  19  36  61  84 121 155 197 252 300 351
#     4  12  25  37  65  96 118 158 205 261 303 356
#     4  10  20  37  60  88 115 157 201 246 300 362
#     4  11  22  39  61  93 123 160 203 255 309 356
#
# _framework density 22.182773000000001
#
# number of rings (size 3 to 8) (size 9 to 14) (size 15 to 20)
#    0.000    1.250    6.250    1.500    5.250    0.000 
#    0.000    1.875    2.750    0.000    0.000    0.000 
#    0.000    0.000    0.000    0.000    0.000    0.000 
#
# Total GULP energy -89267.809046 kJ/mol
# GULP energy per Si atom -5579.238065 kJ/mol
# Density = 2.213228 g / cm^3
# Si number density = 22.182773 Si / 1000 Ang^3
#
#
#
# Elastic Constant Matrix: (Units=GPa)
#
#
# Indices 1 2 3 4 5 6 
#
# 1 167.8441 40.2010 39.0066 -23.2888 1.8937 36.9251
# 2 40.2010 95.2723 40.5192 -26.1857 0.5418 28.0992
# 3 39.0066 40.5192 61.8033 -27.9512 13.1821 7.4951
# 4 -23.2888 -26.1857 -27.9512 23.9755 5.5583 -3.6030
# 5 1.8937 0.5418 13.1821 5.5583 36.0680 -14.9746
# 6 36.9251 28.0992 7.4951 -3.6030 -14.9746 36.1420
#
#
#
# Elastic Compliance Matrix: (Units=1/GPa)
#
#
# Indices 1 2 3 4 5 6 
#
# 1 0.011673 0.006119 0.006812 0.026443 -0.016532 -0.022309
# 2 0.006119 0.028108 0.010593 0.049858 -0.027556 -0.036748
# 3 0.006812 0.010593 0.078247 0.117805 -0.066957 -0.047420
# 4 0.026443 0.049858 0.117805 0.272949 -0.136974 -0.119752
# 5 -0.016532 -0.027556 -0.066957 -0.136974 0.109411 0.083876
# 6 -0.022309 -0.036748 -0.047420 -0.119752 0.083876 0.111680
#
#
# Mechanical properties :
#
#
# Convention : Reuss Voigt Hill
#
# Bulk Modulus (GPa) = 6.05783 62.70814 34.38299
# Shear Modulus (GPa) = 8.06395 32.91661 20.49028
#
# Velocity S-wave (km/s) = 1.90870 3.85630 3.04254
# Velocity P-wave (km/s) = 2.75578 6.93961 5.27980
#
# Compressibility (1/GPa) = 0.16507549
#
# Stress axis : x y z
#
# Youngs Moduli (GPa) = 85.66929 35.57753 12.78006
#
# Poissons Ratio (x) = -0.21771 -0.08706
# Poissons Ratio (y) = -0.52424 -0.13538
# Poissons Ratio (z) = -0.58357 -0.37687
#
# Static dielectric constant tensor:
#      x y z
#    x 1.890730 -0.027820 -0.064690 
#    y -0.027820 1.867750 0.012190 
#    z -0.064690 0.012190 1.885170 
# 
# From -- ./inp_files/390944.got.cif
#   From: 2010.05.17/outbox.cif.g08.bks.cpg/sg2_196_cif.got.tgz:390944.got - 2010.06.03 11:33:40.
