data_PCOD9086118
_publ_section_title
;
Structure prediction by ZEFSAII (Michael W. Deem and Ramdas Pophale) SiO2 
 PCOD9086118
Probable space group: P -1
;
_chemical_formula_sum "Si O2"
_cell_formula_units_Z 16
_cell_length_a 5.584694
_cell_length_b 19.415196
_cell_length_c 9.429517
_cell_angle_alpha 128.006112
_cell_angle_beta 97.854625
_cell_angle_gamma 66.896420
_cell_volume 733.189402
_symmetry_space_group_name_H-M "P -1"
_symmetry_group_IT_number 2
_symmetry_cell_setting 'triclinic'
loop_
_space_group_symop_operation_xyz
x,y,z
-x,-y,-z
loop_
_atom_site_type_symbol
_atom_site_label
_atom_site_fract_x
_atom_site_fract_y
_atom_site_fract_z
Si Si1 0.413103 0.780295 0.901236
Si Si2 0.842732 0.180130 0.350195
Si Si3 0.602685 0.423706 0.036219
Si Si4 0.902223 0.123512 0.751993
Si Si5 0.013736 0.249526 0.713778
Si Si6 0.345855 0.926027 0.579464
Si Si7 0.665950 0.003042 0.879245
Si Si8 0.819235 0.629547 0.928248
O O1 0.204406 0.798820 0.035663
O O2 0.683273 0.701449 0.879913
O O3 0.404479 0.886419 0.014764
O O4 0.312032 0.758124 0.715998
O O5 0.993651 0.228454 0.521569
O O6 0.658650 0.152193 0.407803
O O7 0.043811 0.077968 0.177299
O O8 0.727288 0.321555 0.837720
O O9 0.364233 0.426764 0.120803
O O10 0.865495 0.427557 0.135920
O O11 0.500000 0.500000 0.000000
O O12 0.067194 0.155828 0.692750
O O13 0.673164 0.111115 0.625200
O O14 0.078540 0.020576 0.696616
O O15 0.188650 0.304818 0.851170
O O16 0.567383 0.962308 0.683848
O O17 0.500000 0.000000 0.000000
#
# Coordination Sequence:
#
# PCOD9086118 Si02
#       8
#     2   2   2   2   2   2   2   2
#     4  12  21  37  57  82 123 160 210 257 305 357
#     4  11  23  38  54  83 121 166 209 257 303 353
#     4  10  21  41  71  98 121 151 197 254 314 387
#     4  10  19  36  55  78 118 152 212 265 306 348
#     4   9  22  38  62  90 118 157 207 254 314 367
#     4  10  21  35  51  77 110 163 212 260 299 348
#     4  12  23  33  53  77 118 173 217 251 296 346
#     4  10  22  39  66  95 123 155 202 250 308 373
#
# _framework density 21.822465000000001
#
# number of rings (size 3 to 8) (size 9 to 14) (size 15 to 20)
#    0.750    0.750    3.750    2.250    1.750    1.500 
#    0.000    0.000    0.000    1.500    0.000    0.000 
#    0.000    0.000    0.000    0.000    0.000    0.000 
#
# Total GULP energy -89269.764504 kJ/mol
# GULP energy per Si atom -5579.360282 kJ/mol
# Density = 2.177280 g / cm^3
# Si number density = 21.822465 Si / 1000 Ang^3
#
#
#
# Elastic Constant Matrix: (Units=GPa)
#
#
# Indices 1 2 3 4 5 6 
#
# 1 100.3948 39.7503 4.8857 -18.5881 8.6591 -2.1044
# 2 39.7503 93.5121 9.1037 -34.7232 8.3636 -5.9382
# 3 4.8857 9.1037 59.3730 -34.1233 6.6492 -2.7450
# 4 -18.5881 -34.7232 -34.1233 30.7437 -9.4588 9.2721
# 5 8.6591 8.3636 6.6492 -9.4588 20.0256 -3.4584
# 6 -2.1044 -5.9382 -2.7450 9.2721 -3.4584 23.4431
#
#
#
# Elastic Compliance Matrix: (Units=1/GPa)
#
#
# Indices 1 2 3 4 5 6 
#
# 1 0.008469 -0.036677 -0.056687 -0.112913 -0.018227 0.026802
# 2 -0.036677 -0.258062 -0.486607 -0.965113 -0.129732 0.236937
# 3 -0.056687 -0.486607 -0.850540 -1.726301 -0.232625 0.420517
# 4 -0.112913 -0.965113 -1.726301 -3.432547 -0.452170 0.834171
# 5 -0.018227 -0.129732 -0.232625 -0.452170 -0.004222 0.116480
# 6 0.026802 0.236937 0.420517 0.834171 0.116480 -0.158423
#
#
# Mechanical properties :
#
#
# Convention : Reuss Voigt Hill
#
# Bulk Modulus (GPa) = -0.44246 40.08437 19.82095
# Shear Modulus (GPa) = -1.16584 28.14518 13.48967
#
# Velocity S-wave (km/s) = -0.73171 3.59518 2.48897
# Velocity P-wave (km/s) = 0.95763 5.97010 4.16683
#
# Compressibility (1/GPa) = -2.26007424
#
# Stress axis : x y z
#
# Youngs Moduli (GPa) = 118.07713 -3.87503 -1.17572
#
# Poissons Ratio (x) = -0.14212 -0.06665
# Poissons Ratio (y) = 4.33066 -0.57211
# Poissons Ratio (z) = 6.69348 -1.88562
#
# Static dielectric constant tensor:
#      x y z
#    x 1.896560 -0.002640 0.005690 
#    y -0.002640 1.811350 -0.015400 
#    z 0.005690 -0.015400 1.821530 
# 
# From -- ./inp_files/137963.got.cif
#   From: 2010.05.17/outbox.cif.g08.bks.cpg/sg2_69_cif.got.tgz:137963.got - 2010.06.03 11:33:40.
