data_PCOD9086905
_publ_section_title
;
Structure prediction by ZEFSAII (Michael W. Deem and Ramdas Pophale) SiO2 
 PCOD9086905
Probable space group: P -1
;
_chemical_formula_sum "Si O2"
_cell_formula_units_Z 16
_cell_length_a 12.489476
_cell_length_b 13.721509
_cell_length_c 7.562896
_cell_angle_alpha 125.591387
_cell_angle_beta 124.923703
_cell_angle_gamma 55.396341
_cell_volume 808.846451
_symmetry_space_group_name_H-M "P -1"
_symmetry_group_IT_number 2
_symmetry_cell_setting 'triclinic'
loop_
_space_group_symop_operation_xyz
x,y,z
-x,-y,-z
loop_
_atom_site_type_symbol
_atom_site_label
_atom_site_fract_x
_atom_site_fract_y
_atom_site_fract_z
Si Si1 0.131995 0.523869 0.861997
Si Si2 0.169272 0.382120 0.294124
Si Si3 0.837901 0.353259 0.604820
Si Si4 0.543540 0.938427 0.169198
Si Si5 0.470324 0.217068 0.496221
Si Si6 0.434423 0.723036 0.741501
Si Si7 0.853970 0.739367 0.233541
Si Si8 0.432341 0.414131 0.946374
O O1 0.137920 0.383181 0.773790
O O2 0.268580 0.490305 0.839997
O O3 0.976401 0.595115 0.721394
O O4 0.153222 0.599725 0.135871
O O5 0.184639 0.517159 0.394450
O O6 0.304038 0.283249 0.403835
O O7 0.156838 0.311725 0.026520
O O8 0.713563 0.297379 0.411561
O O9 0.992427 0.251415 0.597131
O O10 0.708193 0.853577 0.250434
O O11 0.513128 0.065240 0.390245
O O12 0.453525 0.845327 0.986234
O O13 0.500000 0.000000 0.000000
O O14 0.523592 0.262576 0.409531
O O15 0.502405 0.280560 0.768840
O O16 0.538726 0.607497 0.838477
O O17 0.500000 0.500000 0.000000
#
# Coordination Sequence:
#
# PCOD9086905 Si02
#       8
#     2   2   2   2   2   2   2   2
#     4   9  18  33  54  86 117 148 186 242 288 343
#     4   9  16  32  56  84 116 144 191 237 288 346
#     4   9  18  30  61  86 113 153 184 235 309 329
#     4  10  19  36  61  81 116 155 201 233 271 346
#     4  11  23  37  60  87 114 159 194 232 285 345
#     4  11  21  40  57  86 121 149 192 244 283 336
#     4   9  15  34  57  86 113 152 195 232 279 350
#     4  12  24  36  59  90 119 146 193 241 297 342
#
# _framework density 19.781255999999999
#
# number of rings (size 3 to 8) (size 9 to 14) (size 15 to 20)
#    0.000    2.000    3.750    3.750    0.000    2.500 
#    0.000    2.500    2.750    0.750    0.000    0.000 
#    0.000    0.000    0.000    0.000    0.000    0.000 
#
# Total GULP energy -89091.239964 kJ/mol
# GULP energy per Si atom -5568.202498 kJ/mol
# Density = 1.973623 g / cm^3
# Si number density = 19.781256 Si / 1000 Ang^3
#
#
#
# Elastic Constant Matrix: (Units=GPa)
#
#
# Indices 1 2 3 4 5 6 
#
# 1 104.2536 41.7327 61.7948 7.3223 29.0827 -19.0153
# 2 41.7327 110.2442 47.4850 4.8380 23.2941 -27.0597
# 3 61.7948 47.4850 78.7062 6.6843 15.1347 -13.4489
# 4 7.3223 4.8380 6.6843 22.0067 1.9831 -5.3781
# 5 29.0827 23.2941 15.1347 1.9831 40.7602 -12.2402
# 6 -19.0153 -27.0597 -13.4489 -5.3781 -12.2402 35.5682
#
#
#
# Elastic Compliance Matrix: (Units=1/GPa)
#
#
# Indices 1 2 3 4 5 6 
#
# 1 0.021237 0.001216 -0.014973 -0.001156 -0.009253 0.003258
# 2 0.001216 0.014655 -0.007790 0.000964 -0.004120 0.007582
# 3 -0.014973 -0.007790 0.028221 -0.002802 0.004112 -0.002270
# 4 -0.001156 0.000964 -0.002802 0.048002 0.000976 0.006650
# 5 -0.009253 -0.004120 0.004112 0.000976 0.033459 0.005135
# 6 0.003258 0.007582 -0.002270 0.006650 0.005135 0.037539
#
#
# Mechanical properties :
#
#
# Convention : Reuss Voigt Hill
#
# Bulk Modulus (GPa) = 47.57904 66.13657 56.85781
# Shear Modulus (GPa) = 21.43944 29.14644 25.29294
#
# Velocity S-wave (km/s) = 3.29572 3.84270 3.57968
# Velocity P-wave (km/s) = 6.21186 7.29349 6.77430
#
# Compressibility (1/GPa) = 0.02101766
#
# Stress axis : x y z
#
# Youngs Moduli (GPa) = 47.08687 68.23469 35.43447
#
# Poissons Ratio (x) = -0.08295 0.53057
# Poissons Ratio (y) = -0.05724 0.27605
# Poissons Ratio (z) = 0.70505 0.53157
#
# Static dielectric constant tensor:
#      x y z
#    x 1.002340 -0.131660 0.538230 
#    y -0.131660 1.741280 0.101300 
#    z 0.538230 0.101300 1.346670 
# 
# From -- ./inp_files/274485.got.cif
#   From: 2010.05.17/outbox.cif.g08.bks.cpg/sg2_138_cif.got.tgz:274485.got - 2010.06.03 11:33:40.
