data_PCOD9086836
_publ_section_title
;
Structure prediction by ZEFSAII (Michael W. Deem and Ramdas Pophale) SiO2 
 PCOD9086836
Probable space group: P -1
;
_chemical_formula_sum "Si O2"
_cell_formula_units_Z 14
_cell_length_a 13.104871
_cell_length_b 11.842387
_cell_length_c 14.356647
_cell_angle_alpha 53.706529
_cell_angle_beta 149.087608
_cell_angle_gamma 143.453139
_cell_volume 646.171840
_symmetry_space_group_name_H-M "P -1"
_symmetry_group_IT_number 2
_symmetry_cell_setting 'triclinic'
loop_
_space_group_symop_operation_xyz
x,y,z
-x,-y,-z
loop_
_atom_site_type_symbol
_atom_site_label
_atom_site_fract_x
_atom_site_fract_y
_atom_site_fract_z
Si Si1 0.566692 0.310429 0.037164
Si Si2 0.907985 0.281985 0.101309
Si Si3 0.944940 0.810589 0.369035
Si Si4 0.744938 0.078770 0.259528
Si Si5 0.692548 0.415137 0.292149
Si Si6 0.005403 0.374041 0.933635
Si Si7 0.497168 0.024339 0.376764
O O1 0.675016 0.204265 0.176366
O O2 0.635132 0.414437 0.139032
O O3 0.731998 0.469501 0.005453
O O4 0.233981 0.153270 0.831938
O O5 0.895843 0.170376 0.233181
O O6 0.064482 0.501558 0.150635
O O7 0.034555 0.308066 0.087068
O O8 0.569266 0.144926 0.887490
O O9 0.725675 0.569449 0.304533
O O10 0.056898 0.887644 0.523362
O O11 0.218110 0.900392 0.480218
O O12 0.486427 0.186263 0.272618
O O13 0.000000 0.500000 0.500000
O O14 0.761112 0.179232 0.778130
O O15 0.500000 0.000000 0.500000
#
# Coordination Sequence:
#
# PCOD9086836 Si02
#       7
#     2   2   2   2   2   2   2
#     4  11  21  37  64  87 122 156 199 245 293 358
#     4   9  19  35  64  82 116 167 196 243 296 348
#     4  11  22  38  61  90 119 158 202 240 294 362
#     4  10  19  39  62  84 116 162 203 237 300 352
#     4  10  19  37  59  85 119 159 194 233 298 359
#     4  10  19  36  60  90 117 153 203 246 298 343
#     4  11  22  37  64  88 119 156 198 247 301 353
#
# _framework density 21.666063000000001
#
# number of rings (size 3 to 8) (size 9 to 14) (size 15 to 20)
#    0.000    1.714    4.286    2.143    2.000    0.000 
#    0.000   11.429    0.000    0.000    0.000    0.000 
#    0.000    0.000    0.000    0.000    0.000    0.000 
#
# Total GULP energy -78155.726872 kJ/mol
# GULP energy per Si atom -5582.551919 kJ/mol
# Density = 2.161675 g / cm^3
# Si number density = 21.666063 Si / 1000 Ang^3
#
#
#
# Elastic Constant Matrix: (Units=GPa)
#
#
# Indices 1 2 3 4 5 6 
#
# 1 79.5941 38.6844 34.3208 -3.9174 -40.5496 12.6982
# 2 38.6844 73.2395 -9.5578 14.8074 -13.7445 1.2820
# 3 34.3208 -9.5578 79.0514 -7.6044 -26.8711 -1.1123
# 4 -3.9174 14.8074 -7.6044 28.0323 -0.8971 -18.9037
# 5 -40.5496 -13.7445 -26.8711 -0.8971 46.3151 -4.9778
# 6 12.6982 1.2820 -1.1123 -18.9037 -4.9778 44.0703
#
#
#
# Elastic Compliance Matrix: (Units=1/GPa)
#
#
# Indices 1 2 3 4 5 6 
#
# 1 0.039863 -0.020674 -0.011227 0.011683 0.022085 -0.003662
# 2 -0.020674 0.028348 0.008949 -0.017414 -0.005122 -0.002690
# 3 -0.011227 0.008949 0.020912 0.003302 0.005620 0.005553
# 4 0.011683 -0.017414 0.003302 0.065749 0.011118 0.026682
# 5 0.022085 -0.005122 0.005620 0.011118 0.043268 0.003584
# 6 -0.003662 -0.002690 0.005553 0.026682 0.003584 0.035814
#
#
# Mechanical properties :
#
#
# Convention : Reuss Voigt Hill
#
# Bulk Modulus (GPa) = 23.13772 39.86443 31.50108
# Shear Modulus (GPa) = 16.99147 34.91272 25.95210
#
# Velocity S-wave (km/s) = 2.80347 4.01858 3.46471
# Velocity P-wave (km/s) = 4.60236 6.32230 5.52961
#
# Compressibility (1/GPa) = 0.04321946
#
# Stress axis : x y z
#
# Youngs Moduli (GPa) = 25.08578 35.27588 47.81832
#
# Poissons Ratio (x) = 0.72929 0.53687
# Poissons Ratio (y) = 0.51862 -0.42793
# Poissons Ratio (z) = 0.28165 -0.31569
#
# Static dielectric constant tensor:
#      x y z
#    x 1.823120 -0.043260 0.002750 
#    y -0.043260 1.874320 -0.016680 
#    z 0.002750 -0.016680 1.788340 
# 
# From -- ./inp_files/379219.got.cif
#   From: 2010.05.17/outbox.cif.g08.bks.cpg/sg2_190_cif.got.tgz:379219.got - 2010.06.03 11:33:40.
