data_PCOD9086745
_publ_section_title
;
Structure prediction by ZEFSAII (Michael W. Deem and Ramdas Pophale) SiO2 
 PCOD9086745
Probable space group: P -1
;
_chemical_formula_sum "Si O2"
_cell_formula_units_Z 14
_cell_length_a 16.608610
_cell_length_b 8.512466
_cell_length_c 10.936743
_cell_angle_alpha 111.634096
_cell_angle_beta 39.965434
_cell_angle_gamma 136.524253
_cell_volume 618.815407
_symmetry_space_group_name_H-M "P -1"
_symmetry_group_IT_number 2
_symmetry_cell_setting 'triclinic'
loop_
_space_group_symop_operation_xyz
x,y,z
-x,-y,-z
loop_
_atom_site_type_symbol
_atom_site_label
_atom_site_fract_x
_atom_site_fract_y
_atom_site_fract_z
Si Si1 0.606953 0.535467 0.505725
Si Si2 0.315940 0.123231 0.909688
Si Si3 0.364183 0.040627 0.088618
Si Si4 0.698791 0.281864 0.216304
Si Si5 0.994829 0.962081 0.849204
Si Si6 0.050256 0.456836 0.215505
Si Si7 0.365596 0.957360 0.321023
O O1 0.500000 0.500000 0.500000
O O2 0.683648 0.419001 0.367091
O O3 0.793039 0.830664 0.381956
O O4 0.467183 0.385909 0.738163
O O5 0.332554 0.947557 0.787173
O O6 0.337621 0.141004 0.035846
O O7 0.117517 0.001203 0.071620
O O8 0.189656 0.733549 0.190244
O O9 0.365311 0.082966 0.241696
O O10 0.556952 0.138367 0.857618
O O11 0.529301 0.159442 0.284761
O O12 0.896474 0.483110 0.972641
O O13 0.903579 0.690421 0.846981
O O14 0.000000 0.000000 0.000000
O O15 0.834847 0.267989 0.447404
#
# Coordination Sequence:
#
# PCOD9086745 Si02
#       7
#     2   2   2   2   2   2   2
#     4  12  22  38  60  83 120 161 191 234 294 352
#     4  10  23  38  56  86 121 147 199 244 286 338
#     4   9  21  40  61  91 114 144 198 250 283 346
#     4  10  22  37  59  92 115 148 200 242 282 349
#     4  12  23  38  56  83 120 160 192 231 293 352
#     4  10  19  36  60  86 114 152 193 233 289 350
#     4   9  18  36  66  86 113 151 190 240 301 335
#
# _framework density 22.623871000000001
#
# number of rings (size 3 to 8) (size 9 to 14) (size 15 to 20)
#    0.000    2.000    2.857    1.714    0.000    6.286 
#    0.000    0.714    0.000   24.000    0.000    0.000 
#    0.000    0.000    0.000    0.000    0.000    0.000 
#
# Total GULP energy -78162.117821 kJ/mol
# GULP energy per Si atom -5583.008416 kJ/mol
# Density = 2.257238 g / cm^3
# Si number density = 22.623871 Si / 1000 Ang^3
#
#
#
# Elastic Constant Matrix: (Units=GPa)
#
#
# Indices 1 2 3 4 5 6 
#
# 1 127.6569 11.7924 49.5349 -11.1935 7.4885 -13.8302
# 2 11.7924 66.8016 27.7802 -11.7689 2.5194 -16.8250
# 3 49.5349 27.7802 173.8140 -20.9907 -7.0115 1.8193
# 4 -11.1935 -11.7689 -20.9907 34.4671 -10.4902 2.7528
# 5 7.4885 2.5194 -7.0115 -10.4902 23.9571 -2.7526
# 6 -13.8302 -16.8250 1.8193 2.7528 -2.7526 19.8211
#
#
#
# Elastic Compliance Matrix: (Units=1/GPa)
#
#
# Indices 1 2 3 4 5 6 
#
# 1 0.010101 0.001926 -0.003384 0.000197 -0.003286 0.008510
# 2 0.001926 0.021893 -0.003728 0.004304 0.000151 0.019693
# 3 -0.003384 -0.003728 0.008149 0.004657 0.005161 -0.006204
# 4 0.000197 0.004304 0.004657 0.038790 0.017887 0.000460
# 5 -0.003286 0.000151 0.005161 0.017887 0.052342 0.002146
# 6 0.008510 0.019693 -0.006204 0.000460 0.002146 0.073909
#
#
# Mechanical properties :
#
#
# Convention : Reuss Voigt Hill
#
# Bulk Modulus (GPa) = 33.59077 60.72084 47.15581
# Shear Modulus (GPa) = 22.17497 34.26007 28.21752
#
# Velocity S-wave (km/s) = 3.13414 3.89566 3.53547
# Velocity P-wave (km/s) = 5.28932 6.86531 6.12819
#
# Compressibility (1/GPa) = 0.02977008
#
# Stress axis : x y z
#
# Youngs Moduli (GPa) = 99.00218 45.67753 122.71093
#
# Poissons Ratio (x) = -0.08799 0.41529
# Poissons Ratio (y) = -0.19071 0.45751
# Poissons Ratio (z) = 0.33505 0.17030
#
# Static dielectric constant tensor:
#      x y z
#    x 1.852830 -0.000580 0.033460 
#    y -0.000580 1.910980 0.011070 
#    z 0.033460 0.011070 1.832750 
# 
# From -- ./inp_files/462189.got.cif
#   From: 2010.05.17/outbox.cif.g08.bks.cpg/sg2_232_cif.got.tgz:462189.got - 2010.06.03 11:33:40.
