data_PCOD9086256
_publ_section_title
;
Structure prediction by ZEFSAII (Michael W. Deem and Ramdas Pophale) SiO2 
 PCOD9086256
Probable space group: P -1
;
_chemical_formula_sum "Si O2"
_cell_formula_units_Z 14
_cell_length_a 7.582445
_cell_length_b 16.593422
_cell_length_c 11.463931
_cell_angle_alpha 26.028133
_cell_angle_beta 81.079597
_cell_angle_gamma 82.331901
_cell_volume 625.219493
_symmetry_space_group_name_H-M "P -1"
_symmetry_group_IT_number 2
_symmetry_cell_setting 'triclinic'
loop_
_space_group_symop_operation_xyz
x,y,z
-x,-y,-z
loop_
_atom_site_type_symbol
_atom_site_label
_atom_site_fract_x
_atom_site_fract_y
_atom_site_fract_z
Si Si1 0.906067 0.298331 0.627396
Si Si2 0.770984 0.796184 0.431476
Si Si3 0.103960 0.687954 0.119028
Si Si4 0.745024 0.123983 0.458695
Si Si5 0.600989 0.242535 0.554584
Si Si6 0.865957 0.935053 0.483115
Si Si7 0.396705 0.572302 0.079600
O O1 0.974851 0.511833 0.341463
O O2 0.903294 0.252746 0.823201
O O3 0.718895 0.261115 0.632245
O O4 0.049455 0.187556 0.680784
O O5 0.744652 0.582816 0.746984
O O6 0.602840 0.828493 0.322076
O O7 0.305849 0.636028 0.127058
O O8 0.059011 0.858677 0.820148
O O9 0.684267 0.118226 0.605870
O O10 0.955473 0.182905 0.369867
O O11 0.616068 0.266559 0.221136
O O12 0.237371 0.105323 0.572461
O O13 0.572828 0.453121 0.235371
O O14 0.750681 0.953931 0.587766
#
# Coordination Sequence:
#
# PCOD9086256 Si02
#       7
#     2   2   2   2   2   2   2
#     4  10  19  40  62  78 112 148 190 231 269 331
#     4   9  20  36  56  86 113 143 188 225 274 336
#     4   9  20  38  59  84 109 149 186 231 280 321
#     4  10  19  36  57  81 117 149 183 227 280 325
#     4  10  20  36  59  87 108 147 191 226 275 328
#     4  10  20  37  56  85 116 145 186 228 280 339
#     4   8  19  36  55  85 109 144 194 220 268 336
#
# _framework density 22.392135
#
# number of rings (size 3 to 8) (size 9 to 14) (size 15 to 20)
#    0.857    1.714    1.429    0.429    0.000    2.286 
#    5.143    3.571    0.000    0.000    0.000    0.000 
#    0.000    0.000    0.000    0.000    0.000    0.000 
#
# Total GULP energy -77943.063058 kJ/mol
# GULP energy per Si atom -5567.361647 kJ/mol
# Density = 2.234117 g / cm^3
# Si number density = 22.392135 Si / 1000 Ang^3
#
#
#
# Elastic Constant Matrix: (Units=GPa)
#
#
# Indices 1 2 3 4 5 6 
#
# 1 88.3939 27.2971 7.1787 0.8750 20.5911 22.2485
# 2 27.2971 110.9464 13.9198 -10.2728 0.6245 18.4749
# 3 7.1787 13.9198 32.4502 -2.3897 6.2054 -2.1060
# 4 0.8750 -10.2728 -2.3897 18.9490 -1.4339 5.8378
# 5 20.5911 0.6245 6.2054 -1.4339 9.9954 -0.5618
# 6 22.2485 18.4749 -2.1060 5.8378 -0.5618 28.1353
#
#
#
# Elastic Compliance Matrix: (Units=1/GPa)
#
#
# Indices 1 2 3 4 5 6 
#
# 1 0.041552 -0.006094 0.009104 -0.001972 -0.092819 -0.029620
# 2 -0.006094 0.013253 -0.007330 0.009734 0.017329 -0.006106
# 3 0.009104 -0.007330 0.040097 -0.002730 -0.043564 0.000312
# 4 -0.001972 0.009734 -0.002730 0.064395 0.013369 -0.018131
# 5 -0.092819 0.017329 -0.043564 0.013369 0.322650 0.062428
# 6 -0.029620 -0.006106 0.000312 -0.018131 0.062428 0.068006
#
#
# Mechanical properties :
#
#
# Convention : Reuss Voigt Hill
#
# Bulk Modulus (GPa) = 11.59259 36.50909 24.05084
# Shear Modulus (GPa) = 8.51286 23.64226 16.07756
#
# Velocity S-wave (km/s) = 1.95191 3.25288 2.68246
# Velocity P-wave (km/s) = 3.20442 5.51798 4.51200
#
# Compressibility (1/GPa) = 0.08626199
#
# Stress axis : x y z
#
# Youngs Moduli (GPa) = 24.06613 75.45544 24.93966
#
# Poissons Ratio (x) = 0.45979 -0.22705
# Poissons Ratio (y) = 0.14665 0.18281
# Poissons Ratio (z) = -0.21909 0.55310
#
# Static dielectric constant tensor:
#      x y z
#    x 1.857110 -0.022200 -0.019620 
#    y -0.022200 1.841480 -0.043370 
#    z -0.019620 -0.043370 1.897360 
# 
# From -- ./inp_files/398109.got.cif
#   From: 2010.05.17/outbox.cif.g08.bks.cpg/sg2_200_cif.got.tgz:398109.got - 2010.06.03 11:33:40.
