data_PCOD9086503
_publ_section_title
;
Structure prediction by ZEFSAII (Michael W. Deem and Ramdas Pophale) SiO2 
 PCOD9086503
Probable space group: P -1
;
_chemical_formula_sum "Si O2"
_cell_formula_units_Z 14
_cell_length_a 28.972928
_cell_length_b 29.531217
_cell_length_c 8.670623
_cell_angle_alpha 148.375615
_cell_angle_beta 151.622892
_cell_angle_gamma 9.672819
_cell_volume 580.672763
_symmetry_space_group_name_H-M "P -1"
_symmetry_group_IT_number 2
_symmetry_cell_setting 'triclinic'
loop_
_space_group_symop_operation_xyz
x,y,z
-x,-y,-z
loop_
_atom_site_type_symbol
_atom_site_label
_atom_site_fract_x
_atom_site_fract_y
_atom_site_fract_z
Si Si1 0.639598 0.284017 0.943293
Si Si2 0.075235 0.203753 0.262399
Si Si3 0.137910 0.269817 0.385522
Si Si4 0.240845 0.371799 0.283760
Si Si5 0.246022 0.869733 0.837687
Si Si6 0.189135 0.277360 0.219426
Si Si7 0.368071 0.704004 0.387395
O O1 0.588506 0.274153 0.924017
O O2 0.504356 0.493030 0.180694
O O3 0.540049 0.335462 0.627114
O O4 0.002807 0.995112 0.157314
O O5 0.405974 0.947715 0.572789
O O6 0.086144 0.220627 0.163983
O O7 0.057659 0.117865 0.991807
O O8 0.835769 0.475977 0.409753
O O9 0.196197 0.220085 0.232635
O O10 0.877277 0.563435 0.493449
O O11 0.467782 0.022623 0.711200
O O12 0.000000 0.500000 0.000000
O O13 0.114428 0.497209 0.106753
O O14 0.423075 0.706321 0.719506
O O15 0.000000 0.000000 0.500000
#
# Coordination Sequence:
#
# PCOD9086503 Si02
#       7
#     2   2   2   2   2   2   2
#     4   9  18  35  61  87 111 153 208 250 308 369
#     4  12  24  38  63  93 123 160 217 246 308 383
#     4  10  19  36  58  91 116 161 201 246 299 390
#     4  12  22  40  63  91 123 162 198 261 313 374
#     4  10  23  42  64  90 128 171 210 264 313 362
#     4  10  20  35  62  84 123 157 196 246 321 358
#     4   9  18  35  61  85 113 155 202 258 311 355
#
# _framework density 24.109964999999999
#
# number of rings (size 3 to 8) (size 9 to 14) (size 15 to 20)
#    0.000    1.714    2.857    1.714    0.000    4.571 
#    2.571    0.000    6.286    0.000    0.000    0.000 
#    0.000    0.000    0.000    0.000    0.000    0.000 
#
# Total GULP energy -78104.993551 kJ/mol
# GULP energy per Si atom -5578.928111 kJ/mol
# Density = 2.405509 g / cm^3
# Si number density = 24.109965 Si / 1000 Ang^3
#
#
#
# Elastic Constant Matrix: (Units=GPa)
#
#
# Indices 1 2 3 4 5 6 
#
# 1 178.1165 12.2687 53.4410 6.1246 -15.0865 38.2903
# 2 12.2687 99.3615 -6.9822 10.2041 1.4202 7.9997
# 3 53.4410 -6.9822 82.9259 6.1496 1.0364 5.4312
# 4 6.1246 10.2041 6.1496 36.7898 5.2592 -0.8022
# 5 -15.0865 1.4202 1.0364 5.2592 46.1274 2.4735
# 6 38.2903 7.9997 5.4312 -0.8022 2.4735 37.3953
#
#
#
# Elastic Compliance Matrix: (Units=1/GPa)
#
#
# Indices 1 2 3 4 5 6 
#
# 1 0.009754 -0.000789 -0.005704 -0.001223 0.003980 -0.009280
# 2 -0.000789 0.010759 0.001770 -0.003163 -0.000172 -0.001807
# 3 -0.005704 0.001770 0.015830 -0.001795 -0.002246 0.003272
# 4 -0.001223 -0.003163 -0.001795 0.029166 -0.003752 0.003063
# 5 0.003980 -0.000172 -0.002246 -0.003752 0.023752 -0.005363
# 6 -0.009280 -0.001807 0.003272 0.003063 -0.005363 0.036575
#
#
# Mechanical properties :
#
#
# Convention : Reuss Voigt Hill
#
# Bulk Modulus (GPa) = 37.17936 53.09540 45.13738
# Shear Modulus (GPa) = 34.66265 44.17427 39.41846
#
# Velocity S-wave (km/s) = 3.79580 4.28506 4.04783
# Velocity P-wave (km/s) = 5.88770 6.82293 6.37249
#
# Compressibility (1/GPa) = 0.02689664
#
# Stress axis : x y z
#
# Youngs Moduli (GPa) = 102.52277 92.94651 63.16930
#
# Poissons Ratio (x) = 0.07337 0.36029
# Poissons Ratio (y) = 0.08093 -0.11179
# Poissons Ratio (z) = 0.58475 -0.16448
#
# Static dielectric constant tensor:
#      x y z
#    x 2.061310 -0.055060 -0.103170 
#    y -0.055060 1.932990 -0.061640 
#    z -0.103170 -0.061640 1.969670 
# 
# From -- ./inp_files/359113.got.cif
#   From: 2010.05.17/outbox.cif.g08.bks.cpg/sg2_180_cif.got.tgz:359113.got - 2010.06.03 11:33:40.
