data_PCOD9086536
_publ_section_title
;
Structure prediction by ZEFSAII (Michael W. Deem and Ramdas Pophale) SiO2 
 PCOD9086536
Probable space group: P -1
;
_chemical_formula_sum "Si O2"
_cell_formula_units_Z 14
_cell_length_a 5.669730
_cell_length_b 6.306345
_cell_length_c 18.392917
_cell_angle_alpha 101.694537
_cell_angle_beta 72.622853
_cell_angle_gamma 107.884598
_cell_volume 592.824210
_symmetry_space_group_name_H-M "P -1"
_symmetry_group_IT_number 2
_symmetry_cell_setting 'triclinic'
loop_
_space_group_symop_operation_xyz
x,y,z
-x,-y,-z
loop_
_atom_site_type_symbol
_atom_site_label
_atom_site_fract_x
_atom_site_fract_y
_atom_site_fract_z
Si Si1 0.319953 0.828538 0.175584
Si Si2 0.305273 0.352416 0.951751
Si Si3 0.005525 0.287971 0.435529
Si Si4 0.323322 0.600134 0.314093
Si Si5 0.472193 0.066072 0.402183
Si Si6 0.049849 0.589107 0.893459
Si Si7 0.395774 0.746851 0.755557
O O1 0.586994 0.829562 0.110981
O O2 0.272624 0.700024 0.248475
O O3 0.120308 0.662778 0.129257
O O4 0.366803 0.088572 0.210400
O O5 0.291920 0.530285 0.902992
O O6 0.500000 0.500000 0.000000
O O7 0.059464 0.290567 0.022481
O O8 0.110951 0.396467 0.355255
O O9 0.222187 0.168362 0.437574
O O10 0.000000 0.500000 0.500000
O O11 0.713238 0.138702 0.440094
O O12 0.565869 0.500112 0.274078
O O13 0.376959 0.800204 0.381366
O O14 0.591932 0.150407 0.317935
O O15 0.135608 0.725574 0.822221
#
# Coordination Sequence:
#
# PCOD9086536 Si02
#       7
#     2   2   2   2   2   2   2
#     4  10  20  38  58  86 115 154 209 254 310 369
#     4   9  19  36  56  82 116 153 199 254 312 369
#     4  11  24  43  68  99 130 167 211 252 310 379
#     4  10  22  41  63  90 129 162 206 263 309 367
#     4  10  24  42  66  98 130 167 211 255 312 372
#     4  10  19  36  59  79 119 156 196 263 309 362
#     4  10  21  38  62  90 115 164 208 252 308 370
#
# _framework density 23.615770000000001
#
# number of rings (size 3 to 8) (size 9 to 14) (size 15 to 20)
#    0.000    2.000    1.429    1.286    0.000    7.429 
#    2.571    6.429    0.000    0.000    0.000    0.000 
#    0.000    0.000    0.000    0.000    0.000    0.000 
#
# Total GULP energy -78013.352267 kJ/mol
# GULP energy per Si atom -5572.382305 kJ/mol
# Density = 2.356202 g / cm^3
# Si number density = 23.615770 Si / 1000 Ang^3
#
#
#
# Elastic Constant Matrix: (Units=GPa)
#
#
# Indices 1 2 3 4 5 6 
#
# 1 92.4983 36.6897 24.2854 17.0644 6.4095 11.5361
# 2 36.6897 76.4305 19.8218 22.1140 -9.5746 5.0906
# 3 24.2854 19.8218 114.4229 8.2946 -11.8158 -1.2178
# 4 17.0644 22.1140 8.2946 47.8875 8.4340 -1.7868
# 5 6.4095 -9.5746 -11.8158 8.4340 32.7022 3.2446
# 6 11.5361 5.0906 -1.2178 -1.7868 3.2446 22.0942
#
#
#
# Elastic Compliance Matrix: (Units=1/GPa)
#
#
# Indices 1 2 3 4 5 6 
#
# 1 0.015454 -0.006550 -0.002619 -0.001388 -0.004930 -0.006092
# 2 -0.006550 0.020352 -0.000537 -0.008800 0.009658 -0.003429
# 3 -0.002619 -0.000537 0.009916 -0.001212 0.004119 0.001335
# 4 -0.001388 -0.008800 -0.001212 0.027749 -0.010542 0.006478
# 5 -0.004930 0.009658 0.004119 -0.010542 0.039178 -0.006030
# 6 -0.006092 -0.003429 0.001335 0.006478 -0.006030 0.050715
#
#
# Mechanical properties :
#
#
# Convention : Reuss Voigt Hill
#
# Bulk Modulus (GPa) = 38.00680 49.43836 43.72258
# Shear Modulus (GPa) = 26.10370 34.04045 30.07208
#
# Velocity S-wave (km/s) = 3.32829 3.80073 3.57233
# Velocity P-wave (km/s) = 5.55867 6.34355 5.96404
#
# Compressibility (1/GPa) = 0.02631108
#
# Stress axis : x y z
#
# Youngs Moduli (GPa) = 64.70820 49.13632 100.85010
#
# Poissons Ratio (x) = 0.32183 0.26410
# Poissons Ratio (y) = 0.42382 0.05412
# Poissons Ratio (z) = 0.16945 0.02637
#
# Static dielectric constant tensor:
#      x y z
#    x 2.003610 0.050320 -0.079230 
#    y 0.050320 1.902660 -0.040450 
#    z -0.079230 -0.040450 2.019080 
# 
# From -- ./inp_files/7389.got.cif
#   From: 2010.05.17/outbox.cif.g08.bks.cpg/sg2_4_cif.got.tgz:7389.got - 2010.06.03 11:33:40.
