data_PCOD9086718
_publ_section_title
;
Structure prediction by ZEFSAII (Michael W. Deem and Ramdas Pophale) SiO2 
 PCOD9086718
Probable space group: P -1
;
_chemical_formula_sum "Si O2"
_cell_formula_units_Z 14
_cell_length_a 12.429963
_cell_length_b 17.511487
_cell_length_c 11.350414
_cell_angle_alpha 143.179761
_cell_angle_beta 44.802418
_cell_angle_gamma 150.745823
_cell_volume 723.051331
_symmetry_space_group_name_H-M "P -1"
_symmetry_group_IT_number 2
_symmetry_cell_setting 'triclinic'
loop_
_space_group_symop_operation_xyz
x,y,z
-x,-y,-z
loop_
_atom_site_type_symbol
_atom_site_label
_atom_site_fract_x
_atom_site_fract_y
_atom_site_fract_z
Si Si1 0.120255 0.464499 0.018857
Si Si2 0.746246 0.183377 0.383430
Si Si3 0.985682 0.312536 0.677091
Si Si4 0.763348 0.508444 0.528069
Si Si5 0.662205 0.931902 0.341591
Si Si6 0.446877 0.399447 0.039064
Si Si7 0.680014 0.176549 0.159666
O O1 0.067640 0.371107 0.818039
O O2 0.337277 0.534544 0.990709
O O3 0.136570 0.626642 0.182618
O O4 0.912419 0.316830 0.083429
O O5 0.581218 0.194011 0.570558
O O6 0.704364 0.131853 0.215351
O O7 0.999478 0.371509 0.444353
O O8 0.688695 0.028868 0.320651
O O9 0.179042 0.422383 0.566004
O O10 0.824671 0.098843 0.512737
O O11 0.650822 0.556072 0.741484
O O12 0.630721 0.296680 0.368797
O O13 0.709889 0.814395 0.132960
O O14 0.500000 0.500000 0.000000
O O15 0.500000 0.000000 0.000000
#
# Coordination Sequence:
#
# PCOD9086718 Si02
#       7
#     2   2   2   2   2   2   2
#     4  10  21  39  61  84 116 152 186 238 287 329
#     4  10  19  36  60  84 111 148 196 238 273 325
#     4   9  20  40  63  86 109 146 201 239 276 326
#     4  10  22  37  56  84 117 151 185 231 286 340
#     4  10  20  36  60  84 109 149 195 237 275 331
#     4  12  24  38  56  84 122 155 183 225 291 348
#     4  11  21  36  60  86 111 146 196 240 277 331
#
# _framework density 19.362387999999999
#
# number of rings (size 3 to 8) (size 9 to 14) (size 15 to 20)
#    0.000    1.714    0.000    6.429    0.000    5.143 
#    0.000    4.286    0.000    0.000    0.000    0.000 
#    0.000    0.000    0.000    0.000    0.000    0.000 
#
# Total GULP energy -78231.874329 kJ/mol
# GULP energy per Si atom -5587.991023 kJ/mol
# Density = 1.931832 g / cm^3
# Si number density = 19.362388 Si / 1000 Ang^3
#
#
#
# Elastic Constant Matrix: (Units=GPa)
#
#
# Indices 1 2 3 4 5 6 
#
# 1 94.8733 24.5958 56.8998 1.1266 29.6568 -7.6334
# 2 24.5958 51.4769 55.5980 8.7371 3.4127 5.1668
# 3 56.8998 55.5980 181.5332 10.1951 14.1744 -5.6344
# 4 1.1266 8.7371 10.1951 34.1859 -2.1567 10.8821
# 5 29.6568 3.4127 14.1744 -2.1567 35.1899 -3.2360
# 6 -7.6334 5.1668 -5.6344 10.8821 -3.2360 21.8569
#
#
#
# Elastic Compliance Matrix: (Units=1/GPa)
#
#
# Indices 1 2 3 4 5 6 
#
# 1 0.018153 -0.005038 -0.002896 -0.000972 -0.013215 0.005312
# 2 -0.005038 0.032545 -0.008872 -0.002034 0.003601 -0.010194
# 3 -0.002896 -0.008872 0.009389 -0.001849 -0.000190 0.004399
# 4 -0.000972 -0.002034 -0.001849 0.036243 0.002324 -0.018036
# 5 -0.013215 0.003601 -0.000190 0.002324 0.039346 -0.000847
# 6 0.005312 -0.010194 0.004399 -0.018036 -0.000847 0.060005
#
#
# Mechanical properties :
#
#
# Convention : Reuss Voigt Hill
#
# Bulk Modulus (GPa) = 37.77091 66.89674 52.33382
# Shear Modulus (GPa) = 20.99808 30.96586 25.98197
#
# Velocity S-wave (km/s) = 3.29671 4.00344 3.66714
# Velocity P-wave (km/s) = 5.83445 7.48297 6.70953
#
# Compressibility (1/GPa) = 0.02647540
#
# Stress axis : x y z
#
# Youngs Moduli (GPa) = 55.08770 30.72660 106.51258
#
# Poissons Ratio (x) = 0.15481 0.30841
# Poissons Ratio (y) = 0.27755 0.94495
# Poissons Ratio (z) = 0.15951 0.27260
#
# Static dielectric constant tensor:
#      x y z
#    x 1.667020 -0.006510 0.000380 
#    y -0.006510 1.696020 0.012130 
#    z 0.000380 0.012130 1.681480 
# 
# From -- ./inp_files/175045.got.cif
#   From: 2010.05.17/outbox.cif.g08.bks.cpg/sg2_88_cif.got.tgz:175045.got - 2010.06.03 11:33:40.
