data_PCOD9086004
_publ_section_title
;
Structure prediction by ZEFSAII (Michael W. Deem and Ramdas Pophale) SiO2 
 PCOD9086004
Probable space group: P -1
;
_chemical_formula_sum "Si O2"
_cell_formula_units_Z 14
_cell_length_a 11.671872
_cell_length_b 10.813841
_cell_length_c 14.719211
_cell_angle_alpha 152.498242
_cell_angle_beta 64.362812
_cell_angle_gamma 127.394139
_cell_volume 652.513051
_symmetry_space_group_name_H-M "P -1"
_symmetry_group_IT_number 2
_symmetry_cell_setting 'triclinic'
loop_
_space_group_symop_operation_xyz
x,y,z
-x,-y,-z
loop_
_atom_site_type_symbol
_atom_site_label
_atom_site_fract_x
_atom_site_fract_y
_atom_site_fract_z
Si Si1 0.817319 0.983137 0.470600
Si Si2 0.650316 0.336562 0.763433
Si Si3 0.158501 0.492811 0.716719
Si Si4 0.916587 0.196150 0.897781
Si Si5 0.653026 0.541780 0.508495
Si Si6 0.677402 0.265318 0.503856
Si Si7 0.185065 0.106491 0.788713
O O1 0.725759 0.137552 0.634408
O O2 0.991666 0.269506 0.586148
O O3 0.812969 0.738326 0.382885
O O4 0.757650 0.814913 0.284298
O O5 0.695590 0.424158 0.699218
O O6 0.472113 0.088993 0.668524
O O7 0.712823 0.630443 0.000637
O O8 0.288169 0.635579 0.690066
O O9 0.149486 0.725051 0.941399
O O10 0.029399 0.094432 0.828974
O O11 0.784648 0.910511 0.700235
O O12 0.000000 0.500000 0.000000
O O13 0.500000 0.500000 0.500000
O O14 0.648994 0.436906 0.544607
O O15 0.812014 0.208991 0.400437
#
# Coordination Sequence:
#
# PCOD9086004 Si02
#       7
#     2   2   2   2   2   2   2
#     4  10  19  35  66  98 125 169 223 275 322 391
#     4  10  21  42  68  97 129 181 224 279 327 400
#     4  11  21  38  63  96 135 171 218 274 333 386
#     4  12  24  43  71 104 132 179 232 271 330 404
#     4  12  28  46  66  99 142 177 217 285 342 398
#     4  10  25  43  63  99 138 175 225 270 346 396
#     4  11  21  39  71  98 127 172 227 276 323 398
#
# _framework density 21.455507999999998
#
# number of rings (size 3 to 8) (size 9 to 14) (size 15 to 20)
#    0.000    1.143    4.286    2.143    2.000    2.286 
#    0.000    1.429    0.000    0.000    0.000    0.000 
#    0.000    0.000    0.000    0.000    0.000    0.000 
#
# Total GULP energy -78259.476412 kJ/mol
# GULP energy per Si atom -5589.962601 kJ/mol
# Density = 2.140667 g / cm^3
# Si number density = 21.455508 Si / 1000 Ang^3
#
#
#
# Elastic Constant Matrix: (Units=GPa)
#
#
# Indices 1 2 3 4 5 6 
#
# 1 138.4482 32.9295 30.5993 -0.6417 -3.5261 -3.7724
# 2 32.9295 41.7655 33.1082 -7.1111 -2.5133 1.1809
# 3 30.5993 33.1082 122.7065 -32.6974 13.4718 -2.6803
# 4 -0.6417 -7.1111 -32.6974 22.5663 3.1639 -0.2535
# 5 -3.5261 -2.5133 13.4718 3.1639 38.8469 -4.3823
# 6 -3.7724 1.1809 -2.6803 -0.2535 -4.3823 30.4861
#
#
#
# Elastic Compliance Matrix: (Units=1/GPa)
#
#
# Indices 1 2 3 4 5 6 
#
# 1 0.009273 -0.006475 -0.002041 -0.004955 0.001694 0.001421
# 2 -0.006475 0.036640 -0.009896 -0.003740 0.005252 -0.002367
# 3 -0.002041 -0.009896 0.019408 0.026302 -0.009622 0.000673
# 4 -0.004955 -0.003740 0.026302 0.083432 -0.016591 0.000153
# 5 0.001694 0.005252 -0.009622 -0.016591 0.031322 0.003525
# 6 0.001421 -0.002367 0.000673 0.000153 0.003525 0.033637
#
#
# Mechanical properties :
#
#
# Convention : Reuss Voigt Hill
#
# Bulk Modulus (GPa) = 35.09211 55.13269 45.11240
# Shear Modulus (GPa) = 19.22820 32.13206 25.68013
#
# Velocity S-wave (km/s) = 2.99689 3.87410 3.46338
# Velocity P-wave (km/s) = 5.32601 6.76488 6.08810
#
# Compressibility (1/GPa) = 0.02849643
#
# Stress axis : x y z
#
# Youngs Moduli (GPa) = 107.83993 27.29274 51.52441
#
# Poissons Ratio (x) = 0.17673 0.10514
# Poissons Ratio (y) = 0.69831 0.50990
# Poissons Ratio (z) = 0.22006 0.27010
#
# Static dielectric constant tensor:
#      x y z
#    x 1.808510 0.006650 -0.002570 
#    y 0.006650 1.803590 -0.022560 
#    z -0.002570 -0.022560 1.780100 
# 
# From -- ./inp_files/519361.got.cif
#   From: 2010.05.17/outbox.cif.g08.bks.cpg/sg2_260_cif.got.tgz:519361.got - 2010.06.03 11:33:40.
