data_PCOD9086956
_publ_section_title
;
Structure prediction by ZEFSAII (Michael W. Deem and Ramdas Pophale) SiO2 
 PCOD9086956
Probable space group: P -1
;
_chemical_formula_sum "Si O2"
_cell_formula_units_Z 14
_cell_length_a 18.808102
_cell_length_b 12.378553
_cell_length_c 5.212469
_cell_angle_alpha 55.027543
_cell_angle_beta 60.994777
_cell_angle_gamma 37.785844
_cell_volume 608.060613
_symmetry_space_group_name_H-M "P -1"
_symmetry_group_IT_number 2
_symmetry_cell_setting 'triclinic'
loop_
_space_group_symop_operation_xyz
x,y,z
-x,-y,-z
loop_
_atom_site_type_symbol
_atom_site_label
_atom_site_fract_x
_atom_site_fract_y
_atom_site_fract_z
Si Si1 0.190693 0.779295 0.430204
Si Si2 0.871933 0.804564 0.490339
Si Si3 0.707834 0.571027 0.551688
Si Si4 0.752137 0.692602 0.814905
Si Si5 0.452364 0.918883 0.580656
Si Si6 0.019483 0.855448 0.975560
Si Si7 0.270246 0.952288 0.092000
O O1 0.231186 0.640059 0.316579
O O2 0.285450 0.777909 0.346669
O O3 0.141681 0.736934 0.786412
O O4 0.079595 0.000639 0.260232
O O5 0.865513 0.655319 0.659356
O O6 0.815687 0.896179 0.742119
O O7 0.988742 0.754643 0.308702
O O8 0.786976 0.962115 0.205646
O O9 0.735655 0.616469 0.702998
O O10 0.569113 0.711683 0.569268
O O11 0.747106 0.621489 0.185044
O O12 0.641903 0.921345 0.678817
O O13 0.500000 0.000000 0.500000
O O14 0.385037 0.907975 0.921919
O O15 0.000000 0.000000 0.000000
#
# Coordination Sequence:
#
# PCOD9086956 Si02
#       7
#     2   2   2   2   2   2   2
#     4  10  23  38  57  91 114 151 192 240 297 335
#     4  10  19  36  61  86 109 148 199 237 279 340
#     4  11  23  37  59  85 125 151 189 240 281 342
#     4  10  21  38  59  85 118 158 191 230 283 341
#     4   9  19  37  60  86 115 159 193 225 281 343
#     4  10  20  39  65  80 111 153 196 240 290 350
#     4  10  20  34  59  86 116 146 193 239 277 343
#
# _framework density 23.02402
#
# number of rings (size 3 to 8) (size 9 to 14) (size 15 to 20)
#    0.000    2.000    1.429    3.000    2.000    4.000 
#    0.000    1.429    0.000    9.429    0.000    0.000 
#    0.000    0.000    0.000    0.000    0.000    0.000 
#
# Total GULP energy -78099.580119 kJ/mol
# GULP energy per Si atom -5578.541437 kJ/mol
# Density = 2.297162 g / cm^3
# Si number density = 23.024020 Si / 1000 Ang^3
#
#
#
# Elastic Constant Matrix: (Units=GPa)
#
#
# Indices 1 2 3 4 5 6 
#
# 1 79.9389 19.1054 42.5471 0.1082 -28.5194 17.4993
# 2 19.1054 87.0586 30.5114 -3.7685 -9.5230 12.3472
# 3 42.5471 30.5114 127.6859 5.6803 -37.8157 -9.9352
# 4 0.1082 -3.7685 5.6803 17.0954 -3.8045 3.0867
# 5 -28.5194 -9.5230 -37.8157 -3.8045 56.1987 2.6849
# 6 17.4993 12.3472 -9.9352 3.0867 2.6849 24.8219
#
#
#
# Elastic Compliance Matrix: (Units=1/GPa)
#
#
# Indices 1 2 3 4 5 6 
#
# 1 0.025151 0.002393 -0.008558 0.009701 0.009240 -0.024553
# 2 0.002393 0.015049 -0.005311 0.007591 0.001296 -0.012383
# 3 -0.008558 -0.005311 0.014429 -0.007921 0.003210 0.015088
# 4 0.009701 0.007591 -0.007921 0.068363 0.006606 -0.023002
# 5 0.009240 0.001296 0.003210 0.006606 0.025763 -0.009483
# 6 -0.024553 -0.012383 0.015088 -0.023002 -0.009483 0.073681
#
#
# Mechanical properties :
#
#
# Convention : Reuss Voigt Hill
#
# Bulk Modulus (GPa) = 31.56808 53.22346 42.39577
# Shear Modulus (GPa) = 19.53532 33.12449 26.32990
#
# Velocity S-wave (km/s) = 2.91602 3.79713 3.38536
# Velocity P-wave (km/s) = 5.00782 6.51083 5.80815
#
# Compressibility (1/GPa) = 0.03167756
#
# Stress axis : x y z
#
# Youngs Moduli (GPa) = 39.76031 66.44850 69.30351
#
# Poissons Ratio (x) = -0.15899 0.59309
# Poissons Ratio (y) = -0.09513 0.36805
# Poissons Ratio (z) = 0.34026 0.35289
#
# Static dielectric constant tensor:
#      x y z
#    x 1.998380 -0.039490 -0.033820 
#    y -0.039490 1.914030 -0.023590 
#    z -0.033820 -0.023590 1.903330 
# 
# From -- ./inp_files/37379.got.cif
#   From: 2010.05.17/outbox.cif.g08.bks.cpg/sg2_19_cif.got.tgz:37379.got - 2010.06.03 11:33:40.
