data_PCOD9086316
_publ_section_title
;
Structure prediction by ZEFSAII (Michael W. Deem and Ramdas Pophale) SiO2 
 PCOD9086316
Probable space group: P -1
;
_chemical_formula_sum "Si O2"
_cell_formula_units_Z 16
_cell_length_a 12.494858
_cell_length_b 12.292676
_cell_length_c 21.562328
_cell_angle_alpha 148.036445
_cell_angle_beta 152.538398
_cell_angle_gamma 47.728681
_cell_volume 763.699018
_symmetry_space_group_name_H-M "P -1"
_symmetry_group_IT_number 2
_symmetry_cell_setting 'triclinic'
loop_
_space_group_symop_operation_xyz
x,y,z
-x,-y,-z
loop_
_atom_site_type_symbol
_atom_site_label
_atom_site_fract_x
_atom_site_fract_y
_atom_site_fract_z
Si Si1 0.749100 0.061931 0.744319
Si Si2 0.191633 0.685077 0.728834
Si Si3 0.036233 0.805868 0.835918
Si Si4 0.466219 0.819260 0.743064
Si Si5 0.774460 0.522459 0.792552
Si Si6 0.242119 0.545863 0.387694
Si Si7 0.759344 0.089902 0.621410
Si Si8 0.719508 0.919257 0.122785
O O1 0.745777 0.996616 0.638666
O O2 0.820621 0.895432 0.745465
O O3 0.470644 0.056764 0.608006
O O4 0.971306 0.286294 0.972267
O O5 0.220868 0.924620 0.831665
O O6 0.000000 0.500000 0.500000
O O7 0.093122 0.674298 0.742961
O O8 0.480298 0.705714 0.886648
O O9 0.961131 0.664023 0.789829
O O10 0.280927 0.009745 0.069144
O O11 0.556912 0.628921 0.727596
O O12 0.282683 0.732636 0.549828
O O13 0.353727 0.937350 0.793083
O O14 0.799167 0.421325 0.689132
O O15 0.730290 0.328461 0.724106
O O16 0.500000 0.500000 0.500000
O O17 0.030609 0.121763 0.752080
#
# Coordination Sequence:
#
# PCOD9086316 Si02
#       8
#     2   2   2   2   2   2   2   2
#     4  10  21  37  56  83 119 154 190 233 289 341
#     4  10  20  34  58  84 116 150 184 240 287 337
#     4  10  19  36  57  86 114 145 195 242 281 334
#     4   9  20  37  61  83 115 147 194 245 283 333
#     4  10  22  37  58  85 113 155 191 237 285 342
#     4  10  20  35  58  87 112 148 196 240 288 328
#     4  11  22  38  57  83 123 152 190 228 291 351
#     4  10  21  38  57  88 116 149 193 232 289 347
#
# _framework density 20.950662999999999
#
# number of rings (size 3 to 8) (size 9 to 14) (size 15 to 20)
#    0.000    2.000    1.250    2.625    1.750    6.500 
#    0.000    0.625    0.000    3.750    0.000    0.000 
#    0.000    0.000    0.000    0.000    0.000    0.000 
#
# Total GULP energy -89317.933782 kJ/mol
# GULP energy per Si atom -5582.370861 kJ/mol
# Density = 2.090298 g / cm^3
# Si number density = 20.950663 Si / 1000 Ang^3
#
#
#
# Elastic Constant Matrix: (Units=GPa)
#
#
# Indices 1 2 3 4 5 6 
#
# 1 59.2680 13.6582 16.6056 -2.6515 8.3853 -1.1778
# 2 13.6582 43.1979 31.8206 -8.2753 8.8041 -2.3637
# 3 16.6056 31.8206 104.8659 -15.4535 9.2923 -12.4289
# 4 -2.6515 -8.2753 -15.4535 32.0895 -0.2530 6.1876
# 5 8.3853 8.8041 9.2923 -0.2530 34.1990 -1.3885
# 6 -1.1778 -2.3637 -12.4289 6.1876 -1.3885 21.4887
#
#
#
# Elastic Compliance Matrix: (Units=1/GPa)
#
#
# Indices 1 2 3 4 5 6 
#
# 1 0.018687 -0.004251 -0.001476 -0.000203 -0.003106 -0.000439
# 2 -0.004251 0.032435 -0.008425 0.004527 -0.005114 -0.003172
# 3 -0.001476 -0.008425 0.013559 0.003093 -0.000891 0.005886
# 4 -0.000203 0.004527 0.003093 0.035335 -0.002021 -0.008030
# 5 -0.003106 -0.005114 -0.000891 -0.002021 0.031602 0.001375
# 6 -0.000439 -0.003172 0.005886 -0.008030 0.001375 0.051969
#
#
# Mechanical properties :
#
#
# Convention : Reuss Voigt Hill
#
# Bulk Modulus (GPa) = 27.48946 36.83338 32.16142
# Shear Modulus (GPa) = 22.31983 27.23862 24.77923
#
# Velocity S-wave (km/s) = 3.26751 3.60965 3.44283
# Velocity P-wave (km/s) = 5.23307 5.91539 5.58466
#
# Compressibility (1/GPa) = 0.03637758
#
# Stress axis : x y z
#
# Youngs Moduli (GPa) = 53.51225 30.83078 73.75445
#
# Poissons Ratio (x) = 0.13107 0.10885
# Poissons Ratio (y) = 0.22749 0.62135
# Poissons Ratio (z) = 0.07898 0.25974
#
# Static dielectric constant tensor:
#      x y z
#    x 1.782700 -0.011840 -0.001540 
#    y -0.011840 1.755570 -0.010760 
#    z -0.001540 -0.010760 1.826090 
# 
# From -- ./inp_files/425548.got.cif
#   From: 2010.05.17/outbox.cif.g08.bks.cpg/sg2_213_cif.got.tgz:425548.got - 2010.06.03 11:33:40.
