data_PCOD9086626
_publ_section_title
;
Structure prediction by ZEFSAII (Michael W. Deem and Ramdas Pophale) SiO2 
 PCOD9086626
Probable space group: P -1
;
_chemical_formula_sum "Si O2"
_cell_formula_units_Z 14
_cell_length_a 11.946776
_cell_length_b 8.415495
_cell_length_c 14.291578
_cell_angle_alpha 116.719345
_cell_angle_beta 129.615126
_cell_angle_gamma 102.867390
_cell_volume 664.672245
_symmetry_space_group_name_H-M "P -1"
_symmetry_group_IT_number 2
_symmetry_cell_setting 'triclinic'
loop_
_space_group_symop_operation_xyz
x,y,z
-x,-y,-z
loop_
_atom_site_type_symbol
_atom_site_label
_atom_site_fract_x
_atom_site_fract_y
_atom_site_fract_z
Si Si1 0.852382 0.941949 0.582905
Si Si2 0.446347 0.274097 0.351938
Si Si3 0.155643 0.461821 0.455071
Si Si4 0.621148 0.592118 0.841275
Si Si5 0.288928 0.215242 0.851202
Si Si6 0.273401 0.810994 0.779207
Si Si7 0.044413 0.744882 0.104936
O O1 0.865380 0.770318 0.606026
O O2 0.611835 0.716255 0.353715
O O3 0.887503 0.138655 0.722519
O O4 0.065806 0.112478 0.678468
O O5 0.500000 0.500000 0.500000
O O6 0.662302 0.349413 0.476542
O O7 0.396224 0.290638 0.224050
O O8 0.241248 0.992167 0.211773
O O9 0.233931 0.611023 0.636144
O O10 0.921869 0.340909 0.290861
O O11 0.677801 0.738334 0.006837
O O12 0.819554 0.641944 0.938451
O O13 0.271203 0.989459 0.763006
O O14 0.500000 0.500000 0.000000
O O15 0.500000 0.000000 0.000000
O O16 0.000000 0.500000 0.000000
#
# Coordination Sequence:
#
# PCOD9086626 Si02
#       7
#     2   2   2   2   2   2   2
#     4   9  19  40  57  84 121 161 206 248 309 373
#     4  11  20  41  66  91 121 170 213 249 305 381
#     4   9  19  34  59  84 119 153 200 258 290 357
#     4  10  21  40  65  84 121 172 210 248 315 377
#     4  10  22  38  61  87 125 162 204 261 315 370
#     4  10  19  36  59  87 116 152 206 258 302 352
#     4  11  23  38  61  93 130 157 205 265 308 369
#
# _framework density 21.063013999999999
#
# number of rings (size 3 to 8) (size 9 to 14) (size 15 to 20)
#    0.000    2.000    2.857    2.143    0.000    3.429 
#    2.571    1.429    0.000    0.000    0.000    0.000 
#    0.000    0.000    0.000    0.000    0.000    0.000 
#
# Total GULP energy -78135.954422 kJ/mol
# GULP energy per Si atom -5581.139602 kJ/mol
# Density = 2.101507 g / cm^3
# Si number density = 21.063014 Si / 1000 Ang^3
#
#
#
# Elastic Constant Matrix: (Units=GPa)
#
#
# Indices 1 2 3 4 5 6 
#
# 1 120.2419 29.4326 53.6292 15.9067 23.5062 -1.6636
# 2 29.4326 45.7585 19.3406 26.3326 -2.5662 1.7188
# 3 53.6292 19.3406 145.8131 23.7560 28.8567 0.2363
# 4 15.9067 26.3326 23.7560 33.9689 2.5137 -0.8920
# 5 23.5062 -2.5662 28.8567 2.5137 58.8082 14.4283
# 6 -1.6636 1.7188 0.2363 -0.8920 14.4283 27.1988
#
#
#
# Elastic Compliance Matrix: (Units=1/GPa)
#
#
# Indices 1 2 3 4 5 6 
#
# 1 0.012540 -0.009688 -0.002994 0.004230 -0.005203 0.004304
# 2 -0.009688 0.048570 0.000928 -0.034719 0.009428 -0.009810
# 3 -0.002994 0.000928 0.009440 -0.005626 -0.003483 0.001340
# 4 0.004230 -0.034719 -0.005626 0.058832 -0.004652 0.006899
# 5 -0.005203 0.009428 -0.003483 -0.004652 0.024898 -0.014244
# 6 0.004304 -0.009810 0.001340 0.006899 -0.014244 0.045420
#
#
# Mechanical properties :
#
#
# Convention : Reuss Voigt Hill
#
# Bulk Modulus (GPa) = 21.25784 57.40203 39.32994
# Shear Modulus (GPa) = 20.93011 37.95591 29.44301
#
# Velocity S-wave (km/s) = 3.15570 4.24962 3.74284
# Velocity P-wave (km/s) = 4.83657 7.16873 6.11486
#
# Compressibility (1/GPa) = 0.04704147
#
# Stress axis : x y z
#
# Youngs Moduli (GPa) = 79.74199 20.58875 105.93399
#
# Poissons Ratio (x) = 0.19947 0.31712
# Poissons Ratio (y) = 0.77258 -0.09826
# Poissons Ratio (z) = 0.23872 -0.01910
#
# Static dielectric constant tensor:
#      x y z
#    x 1.804910 0.006440 0.063360 
#    y 0.006440 1.764500 0.003490 
#    z 0.063360 0.003490 1.799190 
# 
# From -- ./inp_files/318004.got.cif
#   From: 2010.05.17/outbox.cif.g08.bks.cpg/sg2_160_cif.got.tgz:318004.got - 2010.06.03 11:33:40.
