data_PCOD9086173
_publ_section_title
;
Structure prediction by ZEFSAII (Michael W. Deem and Ramdas Pophale) SiO2 
 PCOD9086173
Probable space group: P -1
;
_chemical_formula_sum "Si O2"
_cell_formula_units_Z 12
_cell_length_a 18.890913
_cell_length_b 15.037449
_cell_length_c 8.556025
_cell_angle_alpha 44.234861
_cell_angle_beta 133.596066
_cell_angle_gamma 166.255527
_cell_volume 402.545082
_symmetry_space_group_name_H-M "P -1"
_symmetry_group_IT_number 2
_symmetry_cell_setting 'triclinic'
loop_
_space_group_symop_operation_xyz
x,y,z
-x,-y,-z
loop_
_atom_site_type_symbol
_atom_site_label
_atom_site_fract_x
_atom_site_fract_y
_atom_site_fract_z
Si Si1 0.124183 0.483148 0.976966
Si Si2 0.897955 0.534720 0.702695
Si Si3 0.401704 0.548915 0.361752
Si Si4 0.480884 0.409863 0.829733
Si Si5 0.404444 0.611838 0.723506
Si Si6 0.895707 0.533536 0.369592
O O1 0.188420 0.630788 0.053576
O O2 0.264286 0.516440 0.166883
O O3 0.217003 0.653594 0.735187
O O4 0.776784 0.015122 0.028929
O O5 0.749058 0.491701 0.513728
O O6 0.838414 0.390977 0.627139
O O7 0.246251 0.993692 0.659517
O O8 0.334923 0.368228 0.629646
O O9 0.336398 0.391543 0.299628
O O10 0.654731 0.596802 0.019100
O O11 0.274358 0.544940 0.750451
O O12 0.748546 0.023010 0.671348
#
# Coordination Sequence:
#
# PCOD9086173 Si02
#       6
#     2   2   2   2   2   2
#     4  10  17  29  40  48  59  72  78  90  99 108
#     4   9  19  27  41  50  60  68  82  87 100 109
#     4  10  16  27  37  50  58  67  82  87  98 109
#     4   9  18  26  38  47  59  71  77  90  97 108
#     4   9  17  32  38  50  61  71  77  92  97 108
#     4   9  18  31  42  49  63  68  81  89  98 108
#
# _framework density 29.810326
#
# number of rings (size 3 to 8) (size 9 to 14) (size 15 to 20)
#    1.000    1.667    1.667    1.500    0.000    0.667 
#    0.000    4.167    0.000    0.000    0.000    0.000 
#    0.000    0.000    0.000    0.000    0.000    0.000 
#
# Total GULP energy -67018.216081 kJ/mol
# GULP energy per Si atom -5584.851340 kJ/mol
# Density = 2.974248 g / cm^3
# Si number density = 29.810326 Si / 1000 Ang^3
#
#
#
# Elastic Constant Matrix: (Units=GPa)
#
#
# Indices 1 2 3 4 5 6 
#
# 1 138.6433 29.1385 50.8358 -9.2357 -10.5942 24.8094
# 2 29.1385 168.0628 36.0709 4.6026 17.0616 29.0217
# 3 50.8358 36.0709 186.5665 -8.2672 -70.5156 -14.6741
# 4 -9.2357 4.6026 -8.2672 42.5690 6.6946 10.2807
# 5 -10.5942 17.0616 -70.5156 6.6946 66.9757 -7.5670
# 6 24.8094 29.0217 -14.6741 10.2807 -7.5670 41.9695
#
#
#
# Elastic Compliance Matrix: (Units=1/GPa)
#
#
# Indices 1 2 3 4 5 6 
#
# 1 0.012571 0.003916 -0.009734 0.006445 -0.011851 -0.017258
# 2 0.003916 0.012611 -0.011267 0.004619 -0.017085 -0.019186
# 3 -0.009734 -0.011267 0.023566 -0.008135 0.030258 0.029233
# 4 0.006445 0.004619 -0.008135 0.029742 -0.013915 -0.019642
# 5 -0.011851 -0.017085 0.030258 -0.013915 0.055494 0.042813
# 6 -0.017258 -0.019186 0.029233 -0.019642 0.042813 0.070047
#
#
# Mechanical properties :
#
#
# Convention : Reuss Voigt Hill
#
# Bulk Modulus (GPa) = 68.59647 80.59590 74.59619
# Shear Modulus (GPa) = 20.57116 55.45134 38.01125
#
# Velocity S-wave (km/s) = 2.62977 4.31761 3.57473
# Velocity P-wave (km/s) = 5.68171 7.20768 6.48970
#
# Compressibility (1/GPa) = 0.01457801
#
# Stress axis : x y z
#
# Youngs Moduli (GPa) = 79.55082 79.29851 42.43416
#
# Poissons Ratio (x) = -0.31057 0.41304
# Poissons Ratio (y) = -0.31156 0.47812
# Poissons Ratio (z) = 0.77432 0.89348
#
# Static dielectric constant tensor:
#      x y z
#    x 2.342490 -0.011420 -0.144700 
#    y -0.011420 2.374320 0.114030 
#    z -0.144700 0.114030 2.368000 
# 
# From -- ./inp_files/124426.got.cif
#   From: 2010.05.17/outbox.cif.g08.bks.cpg/sg2_63_cif.got.tgz:124426.got - 2010.06.03 11:33:40.
