data_PCOD9086088
_publ_section_title
;
Structure prediction by ZEFSAII (Michael W. Deem and Ramdas Pophale) SiO2 
 PCOD9086088
Probable space group: P -1
;
_chemical_formula_sum "Si O2"
_cell_formula_units_Z 16
_cell_length_a 20.144039
_cell_length_b 18.286153
_cell_length_c 8.417272
_cell_angle_alpha 39.914631
_cell_angle_beta 38.167746
_cell_angle_gamma 19.042617
_cell_volume 620.771059
_symmetry_space_group_name_H-M "P -1"
_symmetry_group_IT_number 2
_symmetry_cell_setting 'triclinic'
loop_
_space_group_symop_operation_xyz
x,y,z
-x,-y,-z
loop_
_atom_site_type_symbol
_atom_site_label
_atom_site_fract_x
_atom_site_fract_y
_atom_site_fract_z
Si Si1 0.417659 0.977210 0.042042
Si Si2 0.775814 0.613167 0.185938
Si Si3 0.211034 0.489223 0.328295
Si Si4 0.238863 0.790102 0.830337
Si Si5 0.280472 0.205991 0.477409
Si Si6 0.086762 0.198191 0.063660
Si Si7 0.960300 0.140841 0.167215
Si Si8 0.576033 0.283318 0.108751
O O1 0.248239 0.231882 0.978275
O O2 0.292570 0.005656 0.113906
O O3 0.623522 0.849771 0.781372
O O4 0.533202 0.818192 0.240536
O O5 0.850216 0.479002 0.427839
O O6 0.919368 0.431123 0.080691
O O7 0.170073 0.414824 0.423919
O O8 0.463111 0.283372 0.227293
O O9 0.102715 0.696196 0.103666
O O10 0.348026 0.789524 0.729036
O O11 0.391398 0.546324 0.000528
O O12 0.196766 0.813450 0.681236
O O13 0.000000 0.000000 0.000000
O O14 0.165541 0.196478 0.764079
O O15 0.500000 0.000000 0.500000
O O16 0.965137 0.195644 0.239366
O O17 0.206031 0.882478 0.111792
#
# Coordination Sequence:
#
# PCOD9086088 Si02
#       8
#     2   2   2   2   2   2   2   2
#     4  10  22  38  54  73 106 154 198 237 279 321
#     4  11  23  37  52  76 113 150 194 237 276 330
#     4  11  21  34  52  83 111 145 191 233 275 329
#     4   8  16  33  56  87 113 135 172 230 276 328
#     4  10  19  36  54  76 108 146 197 235 272 325
#     4  11  22  38  53  79 112 153 187 231 285 322
#     4  10  21  32  56  84 110 144 187 226 272 337
#     4   9  17  33  56  83 113 139 175 228 281 321
#
# _framework density 25.774398000000001
#
# number of rings (size 3 to 8) (size 9 to 14) (size 15 to 20)
#    0.000    2.000    2.500    2.625    0.000    4.000 
#    0.000    0.000    0.000    0.750    0.000   30.625 
#    0.000    0.000    0.000    0.000    0.000    0.000 
#
# Total GULP energy -89136.318556 kJ/mol
# GULP energy per Si atom -5571.019910 kJ/mol
# Density = 2.571573 g / cm^3
# Si number density = 25.774398 Si / 1000 Ang^3
#
#
#
# Elastic Constant Matrix: (Units=GPa)
#
#
# Indices 1 2 3 4 5 6 
#
# 1 194.8927 17.0770 14.0489 -2.6587 13.5092 -16.0605
# 2 17.0770 102.3373 18.0619 -1.9774 16.5067 11.3549
# 3 14.0489 18.0619 59.7338 -5.2635 4.5436 3.0483
# 4 -2.6587 -1.9774 -5.2635 14.2739 -5.0140 16.5215
# 5 13.5092 16.5067 4.5436 -5.0140 22.0028 -5.0341
# 6 -16.0605 11.3549 3.0483 16.5215 -5.0341 46.8266
#
#
#
# Elastic Compliance Matrix: (Units=1/GPa)
#
#
# Indices 1 2 3 4 5 6 
#
# 1 0.005740 -0.000709 -0.001521 -0.004819 -0.002947 0.003623
# 2 -0.000709 0.012379 -0.002287 0.003965 -0.008719 -0.005432
# 3 -0.001521 -0.002287 0.019256 0.013527 0.000394 -0.005951
# 4 -0.004819 0.003965 0.013527 0.139763 0.017386 -0.050937
# 5 -0.002947 -0.008719 0.000394 0.017386 0.057948 0.001173
# 6 0.003623 -0.005432 -0.005951 -0.050937 0.001173 0.042401
#
#
# Mechanical properties :
#
#
# Convention : Reuss Voigt Hill
#
# Bulk Modulus (GPa) = 35.28367 50.59327 42.93847
# Shear Modulus (GPa) = 16.89379 37.13907 27.01643
#
# Velocity S-wave (km/s) = 2.56295 3.80007 3.24109
# Velocity P-wave (km/s) = 4.74104 6.23907 5.54091
#
# Compressibility (1/GPa) = 0.02834172
#
# Stress axis : x y z
#
# Youngs Moduli (GPa) = 174.21904 80.78085 51.93263
#
# Poissons Ratio (x) = 0.05728 0.07898
# Poissons Ratio (y) = 0.12354 0.11875
# Poissons Ratio (z) = 0.26496 0.18471
#
# Static dielectric constant tensor:
#      x y z
#    x 2.455400 0.374090 0.298850 
#    y 0.374090 2.397300 0.379680 
#    z 0.298850 0.379680 2.458400 
# 
# From -- ./inp_files/348861.got.cif
#   From: 2010.05.17/outbox.cif.g08.bks.cpg/sg2_175_cif.got.tgz:348861.got - 2010.06.03 11:33:40.
