data_PCOD9086067
_publ_section_title
;
Structure prediction by ZEFSAII (Michael W. Deem and Ramdas Pophale) SiO2 
 PCOD9086067
Probable space group: P -1
;
_chemical_formula_sum "Si O2"
_cell_formula_units_Z 16
_cell_length_a 12.284663
_cell_length_b 11.245200
_cell_length_c 14.936891
_cell_angle_alpha 63.748546
_cell_angle_beta 27.940665
_cell_angle_gamma 72.203172
_cell_volume 849.147977
_symmetry_space_group_name_H-M "P -1"
_symmetry_group_IT_number 2
_symmetry_cell_setting 'triclinic'
loop_
_space_group_symop_operation_xyz
x,y,z
-x,-y,-z
loop_
_atom_site_type_symbol
_atom_site_label
_atom_site_fract_x
_atom_site_fract_y
_atom_site_fract_z
Si Si1 0.977204 0.797676 0.964701
Si Si2 0.400325 0.470320 0.682083
Si Si3 0.822592 0.894269 0.867348
Si Si4 0.893567 0.838319 0.636768
Si Si5 0.431655 0.096072 0.683537
Si Si6 0.255772 0.131172 0.451105
Si Si7 0.631963 0.248635 0.654280
Si Si8 0.473655 0.760761 0.618383
O O1 0.836409 0.643138 0.123546
O O2 0.825246 0.895858 0.090495
O O3 0.978568 0.831041 0.847140
O O4 0.238554 0.809178 0.806702
O O5 0.500000 0.500000 0.500000
O O6 0.557021 0.392895 0.658736
O O7 0.389557 0.610891 0.689777
O O8 0.792924 0.824008 0.815274
O O9 0.563034 0.862194 0.112941
O O10 0.984933 0.044673 0.688536
O O11 0.731209 0.805279 0.678500
O O12 0.109140 0.760307 0.500243
O O13 0.000000 0.000000 0.500000
O O14 0.600259 0.206949 0.586848
O O15 0.428890 0.142627 0.567899
O O16 0.559550 0.970565 0.646036
O O17 0.336176 0.227885 0.444466
#
# Coordination Sequence:
#
# PCOD9086067 Si02
#       8
#     2   2   2   2   2   2   2   2
#     4  10  21  35  60  83 105 147 185 227 276 326
#     4  10  20  37  60  81 109 142 188 229 268 326
#     4   9  19  35  55  84 105 145 180 225 275 314
#     4  10  19  36  56  80 111 145 187 227 268 316
#     4  10  19  36  52  86 112 139 177 228 282 320
#     4  11  22  35  55  83 117 151 175 226 279 334
#     4  10  19  37  59  84 105 140 192 232 264 320
#     4  12  21  38  53  82 122 142 180 223 282 333
#
# _framework density 18.842417999999999
#
# number of rings (size 3 to 8) (size 9 to 14) (size 15 to 20)
#    0.000    2.000    6.250    0.750    0.000    2.500 
#    2.250    0.625    0.000    3.000    0.000    0.000 
#    0.000    0.000    0.000    0.000    0.000    0.000 
#
# Total GULP energy -89088.717386 kJ/mol
# GULP energy per Si atom -5568.044837 kJ/mol
# Density = 1.879953 g / cm^3
# Si number density = 18.842418 Si / 1000 Ang^3
#
#
#
# Elastic Constant Matrix: (Units=GPa)
#
#
# Indices 1 2 3 4 5 6 
#
# 1 114.9535 1.4513 28.2658 -0.0537 -1.9233 9.3502
# 2 1.4513 40.0532 15.2000 10.7619 -5.8112 -6.2540
# 3 28.2658 15.2000 59.5241 8.1763 10.7777 5.3983
# 4 -0.0537 10.7619 8.1763 20.5551 -4.0387 -1.3713
# 5 -1.9233 -5.8112 10.7777 -4.0387 15.5711 1.7777
# 6 9.3502 -6.2540 5.3983 -1.3713 1.7777 20.7648
#
#
#
# Elastic Compliance Matrix: (Units=1/GPa)
#
#
# Indices 1 2 3 4 5 6 
#
# 1 0.010896 0.002419 -0.007561 0.003286 0.008647 -0.002736
# 2 0.002419 0.037510 -0.014210 -0.009196 0.020430 0.011546
# 3 -0.007561 -0.014210 0.031802 -0.011700 -0.030450 -0.007309
# 4 0.003286 -0.009196 -0.011700 0.062350 0.021118 0.001102
# 5 0.008647 0.020430 -0.030450 0.021118 0.099115 0.003085
# 6 -0.002736 0.011546 -0.007309 0.001102 0.003085 0.054577
#
#
# Mechanical properties :
#
#
# Convention : Reuss Voigt Hill
#
# Bulk Modulus (GPa) = 24.09402 33.81836 28.95619
# Shear Modulus (GPa) = 14.33532 22.68578 18.51055
#
# Velocity S-wave (km/s) = 2.76125 3.47360 3.13771
# Velocity P-wave (km/s) = 4.79384 5.83736 5.34115
#
# Compressibility (1/GPa) = 0.04150408
#
# Stress axis : x y z
#
# Youngs Moduli (GPa) = 91.77271 26.65988 31.44422
#
# Poissons Ratio (x) = -0.06449 0.23775
# Poissons Ratio (y) = -0.22200 0.44683
# Poissons Ratio (z) = 0.69388 0.37884
#
# Static dielectric constant tensor:
#      x y z
#    x 1.664270 -0.003650 0.014200 
#    y -0.003650 1.702820 0.027490 
#    z 0.014200 0.027490 1.718040 
# 
# From -- ./inp_files/433505.got.cif
#   From: 2010.05.17/outbox.cif.g08.bks.cpg/sg2_217_cif.got.tgz:433505.got - 2010.06.03 11:33:40.
