data_PCOD9086388
_publ_section_title
;
Structure prediction by ZEFSAII (Michael W. Deem and Ramdas Pophale) SiO2 
 PCOD9086388
Probable space group: P -1
;
_chemical_formula_sum "Si O2"
_cell_formula_units_Z 16
_cell_length_a 9.552389
_cell_length_b 15.937305
_cell_length_c 20.086554
_cell_angle_alpha 21.987180
_cell_angle_beta 142.802306
_cell_angle_gamma 132.212214
_cell_volume 661.395529
_symmetry_space_group_name_H-M "P -1"
_symmetry_group_IT_number 2
_symmetry_cell_setting 'triclinic'
loop_
_space_group_symop_operation_xyz
x,y,z
-x,-y,-z
loop_
_atom_site_type_symbol
_atom_site_label
_atom_site_fract_x
_atom_site_fract_y
_atom_site_fract_z
Si Si1 0.614284 0.369808 0.206260
Si Si2 0.115615 0.991909 0.637646
Si Si3 0.368800 0.151425 0.097762
Si Si4 0.337176 0.754706 0.035040
Si Si5 0.869877 0.630868 0.788607
Si Si6 0.128682 0.303493 0.766586
Si Si7 0.949469 0.823967 0.311010
Si Si8 0.368334 0.014179 0.346579
O O1 0.439211 0.209245 0.274074
O O2 0.500000 0.500000 0.000000
O O3 0.612129 0.582153 0.097445
O O4 0.882137 0.205765 0.410014
O O5 0.359534 0.025757 0.674318
O O6 0.217108 0.872272 0.834391
O O7 0.032601 0.797135 0.706591
O O8 0.285457 0.125022 0.160332
O O9 0.206006 0.140652 0.980384
O O10 0.201124 0.560260 0.143269
O O11 0.622682 0.660734 0.197012
O O12 0.279285 0.961554 0.914294
O O13 0.615549 0.810611 0.580353
O O14 0.000000 0.500000 0.000000
O O15 0.957328 0.562962 0.528325
O O16 0.019637 0.198295 0.740769
O O17 0.164894 0.897219 0.375767
#
# Coordination Sequence:
#
# PCOD9086388 Si02
#       8
#     2   2   2   2   2   2   2   2
#     4   9  19  34  52  83 114 145 182 218 278 339
#     4   9  19  34  54  81 112 151 181 221 277 338
#     4  10  21  38  59  79 118 150 184 230 279 338
#     4  10  19  36  58  81 110 145 189 230 282 328
#     4   9  18  34  54  84 115 144 186 225 274 336
#     4  10  22  40  59  83 108 150 193 234 283 327
#     4  11  22  37  61  83 112 145 192 241 275 330
#     4  10  21  37  55  88 116 146 187 229 282 335
#
# _framework density 24.191272999999999
#
# number of rings (size 3 to 8) (size 9 to 14) (size 15 to 20)
#    0.000    2.250    1.250    1.125    1.750    5.000 
#    2.250    2.500    0.000    0.750    0.000    0.000 
#    0.000    0.000    0.000    0.000    0.000    0.000 
#
# Total GULP energy -89430.519180 kJ/mol
# GULP energy per Si atom -5589.407449 kJ/mol
# Density = 2.413621 g / cm^3
# Si number density = 24.191273 Si / 1000 Ang^3
#
#
#
# Elastic Constant Matrix: (Units=GPa)
#
#
# Indices 1 2 3 4 5 6 
#
# 1 56.2294 10.7438 10.8513 -9.4534 0.2967 -10.8261
# 2 10.7438 108.9882 31.2082 -7.1532 13.8428 -0.7323
# 3 10.8513 31.2082 104.2056 -0.5453 4.4256 -7.6369
# 4 -9.4534 -7.1532 -0.5453 37.7447 -9.2346 0.7944
# 5 0.2967 13.8428 4.4256 -9.2346 27.8710 0.7249
# 6 -10.8261 -0.7323 -7.6369 0.7944 0.7249 29.1989
#
#
#
# Elastic Compliance Matrix: (Units=1/GPa)
#
#
# Indices 1 2 3 4 5 6 
#
# 1 0.020551 -0.001578 -0.001221 0.005248 0.002314 0.007061
# 2 -0.001578 0.010793 -0.002938 0.000480 -0.004693 -0.000980
# 3 -0.001221 -0.002938 0.010796 -0.000903 -0.000602 0.002337
# 4 0.005248 0.000480 -0.000903 0.030286 0.009867 0.000653
# 5 0.002314 -0.004693 -0.000602 0.009867 0.041569 -0.000718
# 6 0.007061 -0.000980 0.002337 0.000653 -0.000718 0.037452
#
#
# Mechanical properties :
#
#
# Convention : Reuss Voigt Hill
#
# Bulk Modulus (GPa) = 32.61002 41.66998 37.14000
# Shear Modulus (GPa) = 28.87775 33.40424 31.14100
#
# Velocity S-wave (km/s) = 3.45878 3.72000 3.59176
# Velocity P-wave (km/s) = 5.42773 5.97610 5.70850
#
# Compressibility (1/GPa) = 0.03066542
#
# Stress axis : x y z
#
# Youngs Moduli (GPa) = 48.65955 92.65132 92.63101
#
# Poissons Ratio (x) = 0.14624 0.11308
# Poissons Ratio (y) = 0.07680 0.27215
# Poissons Ratio (z) = 0.05940 0.27221
#
# Static dielectric constant tensor:
#      x y z
#    x 1.952150 0.036490 -0.035210 
#    y 0.036490 1.967520 -0.010000 
#    z -0.035210 -0.010000 1.950130 
# 
# From -- ./inp_files/272048.got.cif
#   From: 2010.05.17/outbox.cif.g08.bks.cpg/sg2_137_cif.got.tgz:272048.got - 2010.06.03 11:33:40.
