data_PCOD9086223
_publ_section_title
;
Structure prediction by ZEFSAII (Michael W. Deem and Ramdas Pophale) SiO2 
 PCOD9086223
Probable space group: P -1
;
_chemical_formula_sum "Si O2"
_cell_formula_units_Z 16
_cell_length_a 9.089967
_cell_length_b 19.901424
_cell_length_c 9.353019
_cell_angle_alpha 27.457851
_cell_angle_beta 75.105360
_cell_angle_gamma 75.434975
_cell_volume 752.917437
_symmetry_space_group_name_H-M "P -1"
_symmetry_group_IT_number 2
_symmetry_cell_setting 'triclinic'
loop_
_space_group_symop_operation_xyz
x,y,z
-x,-y,-z
loop_
_atom_site_type_symbol
_atom_site_label
_atom_site_fract_x
_atom_site_fract_y
_atom_site_fract_z
Si Si1 0.326174 0.477065 0.116539
Si Si2 0.512696 0.114486 0.414818
Si Si3 0.341596 0.015313 0.096792
Si Si4 0.648503 0.689814 0.302188
Si Si5 0.119936 0.455824 0.675604
Si Si6 0.778220 0.829158 0.420021
Si Si7 0.609979 0.355695 0.724360
Si Si8 0.960302 0.360008 0.180661
O O1 0.315412 0.447007 0.345177
O O2 0.278449 0.326462 0.336698
O O3 0.500000 0.500000 0.000000
O O4 0.221415 0.617630 0.829913
O O5 0.344456 0.135220 0.489873
O O6 0.500000 0.000000 0.500000
O O7 0.625327 0.082108 0.584892
O O8 0.578425 0.253677 0.057870
O O9 0.309991 0.169534 0.890149
O O10 0.227813 0.040093 0.942242
O O11 0.500000 0.000000 0.000000
O O12 0.755665 0.664770 0.186515
O O13 0.470225 0.711272 0.267081
O O14 0.220246 0.593203 0.432003
O O15 0.000000 0.500000 0.500000
O O16 0.031837 0.393152 0.947372
O O17 0.949511 0.783505 0.513198
O O18 0.500000 0.500000 0.500000
O O19 0.000000 0.500000 0.000000
#
# Coordination Sequence:
#
# PCOD9086223 Si02
#       8
#     2   2   2   2   2   2   2   2
#     4  10  21  33  58  92 128 158 207 265 323 378
#     4  11  20  36  61  95 128 171 215 258 312 375
#     4   9  19  36  58  88 125 170 218 255 304 369
#     4  10  19  36  56  94 124 163 209 263 308 373
#     4  11  22  37  60  91 130 165 204 263 325 375
#     4   9  20  35  56  88 123 168 215 250 307 379
#     4  10  22  34  60  93 125 157 210 262 311 372
#     4  10  21  37  56  89 124 168 202 258 328 378
#
# _framework density 21.25067
#
# number of rings (size 3 to 8) (size 9 to 14) (size 15 to 20)
#    0.000    2.000    2.500    1.500    7.000    0.000 
#    0.000    0.000    0.000    0.750    9.750   21.875 
#    0.000    0.000    0.000    0.000    0.000    0.000 
#
# Total GULP energy -89076.182456 kJ/mol
# GULP energy per Si atom -5567.261403 kJ/mol
# Density = 2.120230 g / cm^3
# Si number density = 21.250670 Si / 1000 Ang^3
#
#
#
# Elastic Constant Matrix: (Units=GPa)
#
#
# Indices 1 2 3 4 5 6 
#
# 1 116.2771 17.6473 37.2643 7.8904 28.1893 -27.1896
# 2 17.6473 89.8171 10.9304 13.5294 5.4717 -7.2943
# 3 37.2643 10.9304 95.8068 3.2067 39.7882 -7.5138
# 4 7.8904 13.5294 3.2067 17.6979 1.9203 8.3699
# 5 28.1893 5.4717 39.7882 1.9203 44.4024 -3.4712
# 6 -27.1896 -7.2943 -7.5138 8.3699 -3.4712 26.4535
#
#
#
# Elastic Compliance Matrix: (Units=1/GPa)
#
#
# Indices 1 2 3 4 5 6 
#
# 1 0.017105 0.001930 -0.001482 -0.018786 -0.007183 0.022693
# 2 0.001930 0.014294 -0.000602 -0.016760 -0.000867 0.010943
# 3 -0.001482 -0.000602 0.017137 -0.001263 -0.014153 0.001721
# 4 -0.018786 -0.016760 -0.001263 0.103891 0.006225 -0.056343
# 5 -0.007183 -0.000867 -0.014153 0.006225 0.038936 -0.008502
# 6 0.022693 0.010943 0.001721 -0.056343 -0.008502 0.081345
#
#
# Mechanical properties :
#
#
# Convention : Reuss Voigt Hill
#
# Bulk Modulus (GPa) = 20.73478 48.17609 34.45544
# Shear Modulus (GPa) = 17.29553 33.44804 25.37179
#
# Velocity S-wave (km/s) = 2.85596 3.97164 3.45908
# Velocity P-wave (km/s) = 4.54464 6.61449 5.67474
#
# Compressibility (1/GPa) = 0.04822814
#
# Stress axis : x y z
#
# Youngs Moduli (GPa) = 58.46359 69.95971 58.35190
#
# Poissons Ratio (x) = -0.13502 0.08645
# Poissons Ratio (y) = -0.11283 0.03515
# Poissons Ratio (z) = 0.08662 0.04214
#
# Static dielectric constant tensor:
#      x y z
#    x 1.850870 0.055500 0.065950 
#    y 0.055500 1.761630 -0.001440 
#    z 0.065950 -0.001440 1.813290 
# 
# From -- ./inp_files/222840.got.cif
#   From: 2010.05.17/outbox.cif.g08.bks.cpg/sg2_112_cif.got.tgz:222840.got - 2010.06.03 11:33:40.
