data_PCOD9086363
_publ_section_title
;
Structure prediction by ZEFSAII (Michael W. Deem and Ramdas Pophale) SiO2 
 PCOD9086363
Probable space group: P -1
;
_chemical_formula_sum "Si O2"
_cell_formula_units_Z 12
_cell_length_a 12.120579
_cell_length_b 8.980896
_cell_length_c 7.082418
_cell_angle_alpha 71.751181
_cell_angle_beta 127.607243
_cell_angle_gamma 127.298547
_cell_volume 483.881325
_symmetry_space_group_name_H-M "P -1"
_symmetry_group_IT_number 2
_symmetry_cell_setting 'triclinic'
loop_
_space_group_symop_operation_xyz
x,y,z
-x,-y,-z
loop_
_atom_site_type_symbol
_atom_site_label
_atom_site_fract_x
_atom_site_fract_y
_atom_site_fract_z
Si Si1 0.618193 0.708140 0.632406
Si Si2 0.130864 0.349680 0.210709
Si Si3 0.198459 0.876993 0.528108
Si Si4 0.750086 0.046281 0.017074
Si Si5 0.671340 0.256522 0.600021
Si Si6 0.130345 0.196598 0.662750
O O1 0.500000 0.500000 0.500000
O O2 0.778483 0.696520 0.836162
O O3 0.481594 0.721051 0.600368
O O4 0.707897 0.907679 0.533338
O O5 0.195757 0.566228 0.200047
O O6 0.193135 0.330748 0.493815
O O7 0.934214 0.195037 0.062520
O O8 0.252141 0.894869 0.794531
O O9 0.246793 0.760455 0.496367
O O10 0.998097 0.779764 0.359575
O O11 0.743290 0.850849 0.094286
O O12 0.627884 0.078233 0.755001
O O13 0.000000 0.000000 0.500000
#
# Coordination Sequence:
#
# PCOD9086363 Si02
#       6
#     2   2   2   2   2   2
#     4  10  19  36  58  76 110 154 172 213 284 328
#     4   9  17  38  56  77 113 148 175 215 277 325
#     4  10  19  38  56  79 113 140 182 224 268 321
#     4  10  19  36  60  80 106 146 181 225 265 313
#     4  11  23  30  59  89 106 137 185 227 265 314
#     4   8  15  32  59  71 105 148 172 210 272 312
#
# _framework density 24.799471
#
# number of rings (size 3 to 8) (size 9 to 14) (size 15 to 20)
#    0.000    2.667    5.000    1.000    0.000    4.000 
#    0.000    0.000    3.667    6.000    0.000    0.000 
#    0.000    0.000    0.000    0.000    0.000    0.000 
#
# Total GULP energy -66857.658133 kJ/mol
# GULP energy per Si atom -5571.471511 kJ/mol
# Density = 2.474303 g / cm^3
# Si number density = 24.799471 Si / 1000 Ang^3
#
#
#
# Elastic Constant Matrix: (Units=GPa)
#
#
# Indices 1 2 3 4 5 6 
#
# 1 183.2947 6.8135 54.9853 -2.7206 8.2311 -53.9418
# 2 6.8135 71.5643 13.2064 -11.8844 1.7088 -17.9171
# 3 54.9853 13.2064 108.2847 -5.9762 22.1114 -13.5745
# 4 -2.7206 -11.8844 -5.9762 23.4123 -6.3900 4.8417
# 5 8.2311 1.7088 22.1114 -6.3900 29.2300 -1.3339
# 6 -53.9418 -17.9171 -13.5745 4.8417 -1.3339 54.0676
#
#
#
# Elastic Compliance Matrix: (Units=1/GPa)
#
#
# Indices 1 2 3 4 5 6 
#
# 1 0.009122 0.001947 -0.003906 -0.000629 0.000538 0.008834
# 2 0.001947 0.017008 -0.002280 0.007536 0.002121 0.006384
# 3 -0.003906 -0.002280 0.013081 -0.000355 -0.008811 -0.001554
# 4 -0.000629 0.007536 -0.000355 0.049817 0.010786 -0.002414
# 5 0.000538 0.002121 -0.008811 0.010786 0.042919 -0.000879
# 6 0.008834 0.006384 -0.001554 -0.002414 -0.000879 0.029229
#
#
# Mechanical properties :
#
#
# Convention : Reuss Voigt Hill
#
# Bulk Modulus (GPa) = 32.53912 57.01711 44.77812
# Shear Modulus (GPa) = 27.79349 40.55122 34.17235
#
# Velocity S-wave (km/s) = 3.35136 4.04810 3.71610
# Velocity P-wave (km/s) = 5.30329 6.70005 6.04217
#
# Compressibility (1/GPa) = 0.03073223
#
# Stress axis : x y z
#
# Youngs Moduli (GPa) = 109.63088 58.79609 76.44515
#
# Poissons Ratio (x) = -0.11447 0.29862
# Poissons Ratio (y) = -0.21344 0.17428
# Poissons Ratio (z) = 0.42826 0.13404
#
# Static dielectric constant tensor:
#      x y z
#    x 2.010060 -0.017510 0.002990 
#    y -0.017510 1.984000 0.009600 
#    z 0.002990 0.009600 2.089810 
# 
# From -- ./inp_files/170116.got.cif
#   From: 2010.05.17/outbox.cif.g08.bks.cpg/sg2_86_cif.got.tgz:170116.got - 2010.06.03 11:33:40.
