data_PCOD9086172
_publ_section_title
;
Structure prediction by ZEFSAII (Michael W. Deem and Ramdas Pophale) SiO2 
 PCOD9086172
Probable space group: P -1
;
_chemical_formula_sum "Si O2"
_cell_formula_units_Z 16
_cell_length_a 8.739479
_cell_length_b 14.248861
_cell_length_c 8.168041
_cell_angle_alpha 123.528689
_cell_angle_beta 61.174825
_cell_angle_gamma 84.551374
_cell_volume 645.592971
_symmetry_space_group_name_H-M "P -1"
_symmetry_group_IT_number 2
_symmetry_cell_setting 'triclinic'
loop_
_space_group_symop_operation_xyz
x,y,z
-x,-y,-z
loop_
_atom_site_type_symbol
_atom_site_label
_atom_site_fract_x
_atom_site_fract_y
_atom_site_fract_z
Si Si1 0.374530 0.222732 0.436275
Si Si2 0.832604 0.131689 0.628296
Si Si3 0.910662 0.361819 0.913842
Si Si4 0.750592 0.688932 0.766883
Si Si5 0.269535 0.759170 0.560816
Si Si6 0.629085 0.988629 0.578305
Si Si7 0.036883 0.224838 0.013384
Si Si8 0.213513 0.528091 0.244841
O O1 0.378783 0.252938 0.273436
O O2 0.530628 0.242329 0.484512
O O3 0.417825 0.077420 0.310407
O O4 0.143201 0.310126 0.696835
O O5 0.837595 0.257497 0.810387
O O6 0.840719 0.142869 0.438086
O O7 0.636615 0.116926 0.740398
O O8 0.000000 0.000000 0.500000
O O9 0.787254 0.475111 0.955803
O O10 0.916364 0.362344 0.109116
O O11 0.689994 0.604244 0.832385
O O12 0.979011 0.599602 0.489434
O O13 0.801431 0.776833 0.945207
O O14 0.298693 0.621321 0.350557
O O15 0.120586 0.798208 0.828702
O O16 0.843658 0.881589 0.287503
O O17 0.500000 0.000000 0.500000
#
# Coordination Sequence:
#
# PCOD9086172 Si02
#       8
#     2   2   2   2   2   2   2   2
#     4  10  19  36  56  81 113 145 187 222 276 328
#     4  11  19  36  60  77 106 152 187 217 275 336
#     4   9  19  36  59  80 109 150 188 222 268 343
#     4   9  18  35  57  82 113 145 184 233 270 326
#     4  10  21  35  57  86 113 140 187 236 267 328
#     4  11  22  40  58  80 109 152 185 222 277 335
#     4  10  21  36  55  83 116 139 185 234 270 322
#     4   8  17  35  59  80 108 154 185 214 285 334
#
# _framework density 24.783418000000001
#
# number of rings (size 3 to 8) (size 9 to 14) (size 15 to 20)
#    0.000    2.250    3.750    0.750    0.000    1.500 
#    2.250    1.875    0.000    3.750    0.000    0.000 
#    0.000    0.000    0.000    0.000    0.000    0.000 
#
# Total GULP energy -89366.245660 kJ/mol
# GULP energy per Si atom -5585.390354 kJ/mol
# Density = 2.472701 g / cm^3
# Si number density = 24.783418 Si / 1000 Ang^3
#
#
#
# Elastic Constant Matrix: (Units=GPa)
#
#
# Indices 1 2 3 4 5 6 
#
# 1 145.6700 68.7973 17.8486 -13.2397 10.3000 1.1964
# 2 68.7973 181.3063 35.3927 -30.9801 9.4989 -12.2880
# 3 17.8486 35.3927 47.9910 -4.8214 1.9914 -11.1669
# 4 -13.2397 -30.9801 -4.8214 32.7210 1.1830 15.7931
# 5 10.3000 9.4989 1.9914 1.1830 24.0149 -11.5750
# 6 1.1964 -12.2880 -11.1669 15.7931 -11.5750 53.1467
#
#
#
# Elastic Compliance Matrix: (Units=1/GPa)
#
#
# Indices 1 2 3 4 5 6 
#
# 1 0.008808 -0.002612 -0.001578 0.002305 -0.004027 -0.002696
# 2 -0.002612 0.008845 -0.005102 0.007622 -0.003268 -0.001945
# 3 -0.001578 -0.005102 0.026076 -0.005003 0.004006 0.006694
# 4 0.002305 0.007622 -0.005003 0.046202 -0.013591 -0.016030
# 5 -0.004027 -0.003268 0.004006 -0.013591 0.052546 0.015660
# 6 -0.002696 -0.001945 0.006694 -0.016030 0.015660 0.028007
#
#
# Mechanical properties :
#
#
# Convention : Reuss Voigt Hill
#
# Bulk Modulus (GPa) = 39.77216 68.78273 54.27744
# Shear Modulus (GPa) = 25.32285 38.83845 32.08065
#
# Velocity S-wave (km/s) = 3.19997 3.96297 3.60174
# Velocity P-wave (km/s) = 5.45306 6.98241 6.26458
#
# Compressibility (1/GPa) = 0.02514321
#
# Stress axis : x y z
#
# Youngs Moduli (GPa) = 113.53043 113.06397 38.34966
#
# Poissons Ratio (x) = 0.29534 0.06052
# Poissons Ratio (y) = 0.29655 0.19568
# Poissons Ratio (z) = 0.17916 0.57691
#
# Static dielectric constant tensor:
#      x y z
#    x 2.056080 -0.111900 -0.173720 
#    y -0.111900 2.123940 0.187120 
#    z -0.173720 0.187120 2.184570 
# 
# From -- ./inp_files/202940.got.cif
#   From: 2010.05.17/outbox.cif.g08.bks.cpg/sg2_102_cif.got.tgz:202940.got - 2010.06.03 11:33:40.
