data_PCOD9086608
_publ_section_title
;
Structure prediction by ZEFSAII (Michael W. Deem and Ramdas Pophale) SiO2 
 PCOD9086608
Probable space group: P -1
;
_chemical_formula_sum "Si O2"
_cell_formula_units_Z 16
_cell_length_a 12.921623
_cell_length_b 10.083090
_cell_length_c 8.686013
_cell_angle_alpha 110.735834
_cell_angle_beta 133.873967
_cell_angle_gamma 89.146633
_cell_volume 716.980797
_symmetry_space_group_name_H-M "P -1"
_symmetry_group_IT_number 2
_symmetry_cell_setting 'triclinic'
loop_
_space_group_symop_operation_xyz
x,y,z
-x,-y,-z
loop_
_atom_site_type_symbol
_atom_site_label
_atom_site_fract_x
_atom_site_fract_y
_atom_site_fract_z
Si Si1 0.544337 0.845160 0.402714
Si Si2 0.963798 0.832002 0.959846
Si Si3 0.285064 0.129683 0.102878
Si Si4 0.835756 0.456988 0.235463
Si Si5 0.587090 0.315160 0.334432
Si Si6 0.298163 0.382739 0.613956
Si Si7 0.635751 0.130921 0.035310
Si Si8 0.772628 0.305321 0.806855
O O1 0.669410 0.906194 0.690675
O O2 0.591124 0.714264 0.315021
O O3 0.388156 0.787335 0.315181
O O4 0.508259 0.933674 0.257313
O O5 0.864830 0.828157 0.009675
O O6 0.853225 0.713617 0.676559
O O7 0.112827 0.787875 0.121999
O O8 0.000000 0.000000 0.000000
O O9 0.427483 0.266384 0.240691
O O10 0.273414 0.985378 0.928251
O O11 0.753162 0.570787 0.257082
O O12 0.740945 0.290545 0.136185
O O13 0.000000 0.500000 0.500000
O O14 0.843741 0.443006 0.054983
O O15 0.616583 0.463165 0.324751
O O16 0.587020 0.177234 0.167300
O O17 0.725447 0.348179 0.610957
#
# Coordination Sequence:
#
# PCOD9086608 Si02
#       8
#     2   2   2   2   2   2   2   2
#     4   9  20  37  63  90 115 153 205 249 284 344
#     4  11  22  38  61  89 119 154 199 248 291 346
#     4  10  21  38  63  89 118 156 195 247 296 351
#     4  10  19  36  59  86 117 152 196 246 284 346
#     4  10  23  40  60  87 125 158 191 241 301 362
#     4  10  22  39  61  90 119 153 201 243 297 345
#     4  10  20  37  63  87 120 154 201 243 296 343
#     4  10  21  38  62  87 121 156 197 238 305 347
#
# _framework density 22.315799999999999
#
# number of rings (size 3 to 8) (size 9 to 14) (size 15 to 20)
#    0.000    2.000    1.250    2.250    0.000   12.500 
#    0.000    0.625    0.000    0.000    0.000    0.000 
#    0.000    0.000    0.000    0.000    0.000    0.000 
#
# Total GULP energy -89404.197701 kJ/mol
# GULP energy per Si atom -5587.762356 kJ/mol
# Density = 2.226501 g / cm^3
# Si number density = 22.315800 Si / 1000 Ang^3
#
#
#
# Elastic Constant Matrix: (Units=GPa)
#
#
# Indices 1 2 3 4 5 6 
#
# 1 118.8452 40.2143 39.0955 -4.9450 -1.5452 -43.8264
# 2 40.2143 67.2654 6.0637 8.8605 -3.1018 -34.7325
# 3 39.0955 6.0637 61.0374 3.6501 -3.5742 -7.8418
# 4 -4.9450 8.8605 3.6501 31.8055 -4.3161 1.1348
# 5 -1.5452 -3.1018 -3.5742 -4.3161 40.9927 -0.8631
# 6 -43.8264 -34.7325 -7.8418 1.1348 -0.8631 46.6973
#
#
#
# Elastic Compliance Matrix: (Units=1/GPa)
#
#
# Indices 1 2 3 4 5 6 
#
# 1 0.017399 -0.004199 -0.009510 0.004588 0.000234 0.011502
# 2 -0.004199 0.027123 0.002797 -0.008924 0.001555 0.016948
# 3 -0.009510 0.002797 0.022156 -0.004525 0.001246 -0.002991
# 4 0.004588 -0.008924 -0.004525 0.035676 0.002777 -0.003907
# 5 0.000234 0.001555 0.001246 0.002777 0.024964 0.001980
# 6 0.011502 0.016948 -0.002991 -0.003907 0.001980 0.044444
#
#
# Mechanical properties :
#
#
# Convention : Reuss Voigt Hill
#
# Bulk Modulus (GPa) = 22.29455 46.43275 34.36365
# Shear Modulus (GPa) = 23.97645 34.68406 29.33025
#
# Velocity S-wave (km/s) = 3.28138 3.94666 3.62930
# Velocity P-wave (km/s) = 4.93648 6.45139 5.74410
#
# Compressibility (1/GPa) = 0.04485401
#
# Stress axis : x y z
#
# Youngs Moduli (GPa) = 57.47363 36.86915 45.13407
#
# Poissons Ratio (x) = 0.15482 0.42924
# Poissons Ratio (y) = 0.24134 -0.12625
# Poissons Ratio (z) = 0.54659 -0.10313
#
# Static dielectric constant tensor:
#      x y z
#    x 1.841520 0.004390 -0.001950 
#    y 0.004390 1.826910 0.029520 
#    z -0.001950 0.029520 1.880830 
# 
# From -- ./inp_files/263187.got.cif
#   From: 2010.05.17/outbox.cif.g08.bks.cpg/sg2_132_cif.got.tgz:263187.got - 2010.06.03 11:33:40.
