data_PCOD9086328
_publ_section_title
;
Structure prediction by ZEFSAII (Michael W. Deem and Ramdas Pophale) SiO2 
 PCOD9086328
Probable space group: P -1
;
_chemical_formula_sum "Si O2"
_cell_formula_units_Z 16
_cell_length_a 5.142714
_cell_length_b 14.769073
_cell_length_c 10.653156
_cell_angle_alpha 110.061889
_cell_angle_beta 82.067837
_cell_angle_gamma 124.829042
_cell_volume 622.126985
_symmetry_space_group_name_H-M "P -1"
_symmetry_group_IT_number 2
_symmetry_cell_setting 'triclinic'
loop_
_space_group_symop_operation_xyz
x,y,z
-x,-y,-z
loop_
_atom_site_type_symbol
_atom_site_label
_atom_site_fract_x
_atom_site_fract_y
_atom_site_fract_z
Si Si1 0.355206 0.018972 0.392720
Si Si2 0.281507 0.203608 0.575871
Si Si3 0.815975 0.140321 0.878282
Si Si4 0.897430 0.680208 0.561895
Si Si5 0.407910 0.550351 0.917632
Si Si6 0.446712 0.731128 0.156624
Si Si7 0.793960 0.478448 0.339052
Si Si8 0.087011 0.722215 0.829932
O O1 0.400788 0.985195 0.233899
O O2 0.986796 0.913372 0.388311
O O3 0.500000 0.000000 0.500000
O O4 0.428380 0.147251 0.457826
O O5 0.137648 0.254139 0.519765
O O6 0.502560 0.288857 0.712417
O O7 0.756822 0.214895 0.818172
O O8 0.186908 0.184434 0.879261
O O9 0.723516 0.173050 0.032103
O O10 0.998044 0.593305 0.467647
O O11 0.075887 0.759578 0.707993
O O12 0.542814 0.594715 0.602633
O O13 0.222041 0.473043 0.773409
O O14 0.738441 0.649508 0.878767
O O15 0.500000 0.500000 0.000000
O O16 0.276441 0.618152 0.026434
O O17 0.854995 0.380274 0.248176
#
# Coordination Sequence:
#
# PCOD9086328 Si02
#       8
#     2   2   2   2   2   2   2   2
#     4  10  20  37  61  87 117 152 193 259 312 360
#     4  10  21  37  59  89 120 153 201 249 309 362
#     4  10  20  37  62  85 117 155 198 244 306 362
#     4  10  22  38  58  85 119 160 205 244 295 365
#     4  10  20  34  54  84 119 154 201 250 300 356
#     4  10  19  36  57  87 119 155 193 248 304 357
#     4  10  20  38  58  82 119 161 201 245 297 356
#     4  10  21  38  56  82 118 163 198 246 299 362
#
# _framework density 25.718222999999998
#
# number of rings (size 3 to 8) (size 9 to 14) (size 15 to 20)
#    0.000    2.000    2.500    1.125    0.000    1.500 
#    4.500    0.625    0.000    1.500    0.000    0.000 
#    0.000    0.000    0.000    0.000    0.000    0.000 
#
# Total GULP energy -89293.301919 kJ/mol
# GULP energy per Si atom -5580.831370 kJ/mol
# Density = 2.565969 g / cm^3
# Si number density = 25.718223 Si / 1000 Ang^3
#
#
#
# Elastic Constant Matrix: (Units=GPa)
#
#
# Indices 1 2 3 4 5 6 
#
# 1 56.0286 12.3924 14.9626 7.7393 -3.6001 -1.5825
# 2 12.3924 69.9439 47.2896 13.4407 -3.3649 -1.9044
# 3 14.9626 47.2896 232.9569 32.9754 4.3085 -2.6539
# 4 7.7393 13.4407 32.9754 49.1233 -6.6559 -10.0290
# 5 -3.6001 -3.3649 4.3085 -6.6559 41.5820 -3.1542
# 6 -1.5825 -1.9044 -2.6539 -10.0290 -3.1542 34.4482
#
#
#
# Elastic Compliance Matrix: (Units=1/GPa)
#
#
# Indices 1 2 3 4 5 6 
#
# 1 0.018877 -0.002642 -0.000451 -0.001723 0.001214 0.000296
# 2 -0.002642 0.017298 -0.003068 -0.002079 0.001164 0.000100
# 3 -0.000451 -0.003068 0.005395 -0.003062 -0.001397 -0.000794
# 4 -0.001723 -0.002079 -0.003062 0.025387 0.004624 0.007384
# 5 0.001214 0.001164 -0.001397 0.004624 0.025412 0.003685
# 6 0.000296 0.000100 -0.000794 0.007384 0.003685 0.031474
#
#
# Mechanical properties :
#
#
# Convention : Reuss Voigt Hill
#
# Bulk Modulus (GPa) = 34.19069 56.46873 45.32971
# Shear Modulus (GPa) = 34.26667 43.98301 39.12484
#
# Velocity S-wave (km/s) = 3.65415 4.13993 3.90460
# Velocity P-wave (km/s) = 5.57915 6.69749 6.16374
#
# Compressibility (1/GPa) = 0.02924773
#
# Stress axis : x y z
#
# Youngs Moduli (GPa) = 52.97375 57.81137 185.37017
#
# Poissons Ratio (x) = 0.15273 0.08366
# Poissons Ratio (y) = 0.13995 0.56867
# Poissons Ratio (z) = 0.02391 0.17735
#
# Static dielectric constant tensor:
#      x y z
#    x 2.093940 0.010430 -0.019890 
#    y 0.010430 2.083600 0.051130 
#    z -0.019890 0.051130 2.148730 
# 
# From -- ./inp_files/367014.got.cif
#   From: 2010.05.17/outbox.cif.g08.bks.cpg/sg2_184_cif.got.tgz:367014.got - 2010.06.03 11:33:40.
