data_PCOD9086339
_publ_section_title
;
Structure prediction by ZEFSAII (Michael W. Deem and Ramdas Pophale) SiO2 
 PCOD9086339
Probable space group: P -1
;
_chemical_formula_sum "Si O2"
_cell_formula_units_Z 14
_cell_length_a 15.773441
_cell_length_b 7.678359
_cell_length_c 17.825983
_cell_angle_alpha 42.860410
_cell_angle_beta 155.567220
_cell_angle_gamma 127.975146
_cell_volume 596.952167
_symmetry_space_group_name_H-M "P -1"
_symmetry_group_IT_number 2
_symmetry_cell_setting 'triclinic'
loop_
_space_group_symop_operation_xyz
x,y,z
-x,-y,-z
loop_
_atom_site_type_symbol
_atom_site_label
_atom_site_fract_x
_atom_site_fract_y
_atom_site_fract_z
Si Si1 0.778416 0.006410 0.277765
Si Si2 0.244326 0.744247 0.463226
Si Si3 0.101565 0.312274 0.207441
Si Si4 0.078435 0.704586 0.180914
Si Si5 0.010318 0.129315 0.652010
Si Si6 0.572743 0.206387 0.183989
Si Si7 0.345832 0.417016 0.066947
O O1 0.615693 0.993471 0.218923
O O2 0.704183 0.298677 0.097971
O O3 0.819840 0.847699 0.282478
O O4 0.000000 0.000000 0.500000
O O5 0.202460 0.678047 0.366356
O O6 0.246521 0.054978 0.372055
O O7 0.051901 0.697559 0.377870
O O8 0.457481 0.601391 0.714779
O O9 0.957992 0.156110 0.193398
O O10 0.194809 0.503867 0.277066
O O11 0.000000 0.500000 0.000000
O O12 0.857571 0.626196 0.042609
O O13 0.000000 0.000000 0.000000
O O14 0.792037 0.176865 0.414924
O O15 0.500000 0.500000 0.000000
O O16 0.406777 0.200996 0.118028
#
# Coordination Sequence:
#
# PCOD9086339 Si02
#       7
#     2   2   2   2   2   2   2
#     4   9  15  29  61  89 110 162 196 229 311 351
#     4   9  21  37  58  85 117 156 196 244 291 344
#     4  10  19  38  58  82 122 152 198 246 284 353
#     4  12  22  38  63  85 114 165 197 235 308 348
#     4   8  15  31  53  82 116 148 185 244 282 339
#     4   8  15  27  54  86 110 151 196 232 298 351
#     4  10  19  36  57  88 122 150 196 254 283 352
#
# _framework density 23.452466000000001
#
# number of rings (size 3 to 8) (size 9 to 14) (size 15 to 20)
#    0.857    1.714    2.857    0.000    0.000    0.571 
#    0.000    3.571    0.000   32.571    0.000    0.000 
#    0.000    0.000    0.000    0.000    0.000    0.000 
#
# Total GULP energy -77942.556958 kJ/mol
# GULP energy per Si atom -5567.325497 kJ/mol
# Density = 2.339909 g / cm^3
# Si number density = 23.452466 Si / 1000 Ang^3
#
#
#
# Elastic Constant Matrix: (Units=GPa)
#
#
# Indices 1 2 3 4 5 6 
#
# 1 75.2254 36.0507 32.5748 0.0966 -22.0582 -34.1356
# 2 36.0507 80.6519 39.4600 -12.0823 -16.6211 -14.8604
# 3 32.5748 39.4600 165.2110 -11.1982 -42.8194 2.8025
# 4 0.0966 -12.0823 -11.1982 28.5362 -0.5663 -13.7848
# 5 -22.0582 -16.6211 -42.8194 -0.5663 45.8890 -6.8109
# 6 -34.1356 -14.8604 2.8025 -13.7848 -6.8109 42.4970
#
#
#
# Elastic Compliance Matrix: (Units=1/GPa)
#
#
# Indices 1 2 3 4 5 6 
#
# 1 0.041678 -0.002096 -0.000458 0.020288 0.025547 0.043450
# 2 -0.002096 0.019209 -0.002033 0.012324 0.005701 0.010079
# 3 -0.000458 -0.002033 0.008703 0.002923 0.007269 0.000461
# 4 0.020288 0.012324 0.002923 0.063528 0.024396 0.044930
# 5 0.025547 0.005701 0.007269 0.024396 0.048827 0.037774
# 6 0.043450 0.010079 0.000461 0.044930 0.037774 0.082554
#
#
# Mechanical properties :
#
#
# Convention : Reuss Voigt Hill
#
# Bulk Modulus (GPa) = 16.55156 59.69547 38.12352
# Shear Modulus (GPa) = 17.01785 37.58461 27.30123
#
# Velocity S-wave (km/s) = 2.69668 4.00757 3.41561
# Velocity P-wave (km/s) = 4.09499 6.85006 5.64323
#
# Compressibility (1/GPa) = 0.06041727
#
# Stress axis : x y z
#
# Youngs Moduli (GPa) = 23.99369 52.06023 114.90470
#
# Poissons Ratio (x) = 0.10909 0.05260
# Poissons Ratio (y) = 0.05028 0.23355
# Poissons Ratio (z) = 0.01098 0.10582
#
# Static dielectric constant tensor:
#      x y z
#    x 1.961920 -0.064630 0.003660 
#    y -0.064630 1.917380 -0.056410 
#    z 0.003660 -0.056410 1.792180 
# 
# From -- ./inp_files/575052.got.cif
#   From: 2010.05.17/outbox.cif.g08.bks.cpg/sg2_288_cif.got.tgz:575052.got - 2010.06.03 11:33:40.
