data_PCOD9086741
_publ_section_title
;
Structure prediction by ZEFSAII (Michael W. Deem and Ramdas Pophale) SiO2 
 PCOD9086741
Probable space group: P -1
;
_chemical_formula_sum "Si O2"
_cell_formula_units_Z 16
_cell_length_a 8.349973
_cell_length_b 9.439491
_cell_length_c 16.177101
_cell_angle_alpha 34.627950
_cell_angle_beta 70.624857
_cell_angle_gamma 76.648586
_cell_volume 681.411740
_symmetry_space_group_name_H-M "P -1"
_symmetry_group_IT_number 2
_symmetry_cell_setting 'triclinic'
loop_
_space_group_symop_operation_xyz
x,y,z
-x,-y,-z
loop_
_atom_site_type_symbol
_atom_site_label
_atom_site_fract_x
_atom_site_fract_y
_atom_site_fract_z
Si Si1 0.820163 0.194620 0.220865
Si Si2 0.805682 0.442102 0.810148
Si Si3 0.516030 0.100561 0.543311
Si Si4 0.859858 0.320608 0.348998
Si Si5 0.157092 0.987509 0.197108
Si Si6 0.247462 0.125916 0.928502
Si Si7 0.305081 0.406663 0.067017
Si Si8 0.602724 0.373528 0.721682
O O1 0.857739 0.242028 0.289533
O O2 0.802631 0.448574 0.051388
O O3 0.965086 0.033386 0.234139
O O4 0.628178 0.066971 0.304376
O O5 0.647277 0.443538 0.775428
O O6 0.958027 0.637122 0.658861
O O7 0.774364 0.542339 0.856763
O O8 0.832272 0.145177 0.958172
O O9 0.718128 0.137073 0.506393
O O10 0.458015 0.380032 0.426242
O O11 0.500000 0.000000 0.500000
O O12 0.811502 0.609993 0.218394
O O13 0.223785 0.714536 0.304062
O O14 0.206228 0.110553 0.040454
O O15 0.278816 0.122989 0.179418
O O16 0.448449 0.157747 0.855562
O O17 0.500000 0.500000 0.000000
#
# Coordination Sequence:
#
# PCOD9086741 Si02
#       8
#     2   2   2   2   2   2   2   2
#     4  11  22  40  59  88 121 167 200 236 312 356
#     4  11  21  33  59  98 118 148 200 250 303 342
#     4   9  22  41  65  80 117 172 203 239 289 368
#     4  10  19  37  59  86 120 158 202 244 289 361
#     4  11  20  37  62  86 128 155 192 252 300 362
#     4  10  19  36  60  85 127 159 193 241 300 361
#     4  12  23  35  61  93 126 150 194 259 306 352
#     4  10  22  40  62  92 120 163 202 237 297 358
#
# _framework density 23.480664000000001
#
# number of rings (size 3 to 8) (size 9 to 14) (size 15 to 20)
#    0.000    1.500    2.500    4.500    3.500    1.500 
#    0.000    3.750    0.000   15.750    0.000    0.000 
#    0.000    0.000    0.000    0.000    0.000    0.000 
#
# Total GULP energy -89313.640592 kJ/mol
# GULP energy per Si atom -5582.102537 kJ/mol
# Density = 2.342722 g / cm^3
# Si number density = 23.480664 Si / 1000 Ang^3
#
#
#
# Elastic Constant Matrix: (Units=GPa)
#
#
# Indices 1 2 3 4 5 6 
#
# 1 90.8974 14.7789 26.9462 -0.0456 -37.9798 -3.6875
# 2 14.7789 72.8282 19.3642 1.3095 -4.2434 -3.1830
# 3 26.9462 19.3642 40.5235 -5.4127 -18.2793 -2.2041
# 4 -0.0456 1.3095 -5.4127 18.4116 0.4107 -5.9082
# 5 -37.9798 -4.2434 -18.2793 0.4107 44.3798 -8.8252
# 6 -3.6875 -3.1830 -2.2041 -5.9082 -8.8252 39.1777
#
#
#
# Elastic Compliance Matrix: (Units=1/GPa)
#
#
# Indices 1 2 3 4 5 6 
#
# 1 0.019306 -0.001490 -0.004975 -0.000095 0.015295 0.004847
# 2 -0.001490 0.016238 -0.008907 -0.003924 -0.003494 -0.000701
# 3 -0.004975 -0.008907 0.040058 0.014040 0.012450 0.005983
# 4 -0.000095 -0.003924 0.014040 0.062231 0.007023 0.011429
# 5 0.015295 -0.003494 0.012450 0.007023 0.042850 0.012568
# 6 0.004847 -0.000701 0.005983 0.011429 0.012568 0.030815
#
#
# Mechanical properties :
#
#
# Convention : Reuss Voigt Hill
#
# Bulk Modulus (GPa) = 22.29291 36.26974 29.28133
# Shear Modulus (GPa) = 19.44053 29.93780 24.68916
#
# Velocity S-wave (km/s) = 2.88051 3.57459 3.24615
# Velocity P-wave (km/s) = 4.53629 5.70237 5.15242
#
# Compressibility (1/GPa) = 0.04485731
#
# Stress axis : x y z
#
# Youngs Moduli (GPa) = 51.79785 61.58432 24.96372
#
# Poissons Ratio (x) = 0.09177 0.12420
# Poissons Ratio (y) = 0.07718 0.22235
# Poissons Ratio (z) = 0.25771 0.54853
#
# Static dielectric constant tensor:
#      x y z
#    x 2.168820 -0.147900 -0.252410 
#    y -0.147900 1.894630 0.116600 
#    z -0.252410 0.116600 2.257270 
# 
# From -- ./inp_files/186658.got.cif
#   From: 2010.05.17/outbox.cif.g08.bks.cpg/sg2_94_cif.got.tgz:186658.got - 2010.06.03 11:33:40.
