data_PCOD9086413
_publ_section_title
;
Structure prediction by ZEFSAII (Michael W. Deem and Ramdas Pophale) SiO2 
 PCOD9086413
Probable space group: P -1
;
_chemical_formula_sum "Si O2"
_cell_formula_units_Z 14
_cell_length_a 14.553100
_cell_length_b 11.937374
_cell_length_c 7.032448
_cell_angle_alpha 69.490733
_cell_angle_beta 105.317110
_cell_angle_gamma 45.975982
_cell_volume 540.683810
_symmetry_space_group_name_H-M "P -1"
_symmetry_group_IT_number 2
_symmetry_cell_setting 'triclinic'
loop_
_space_group_symop_operation_xyz
x,y,z
-x,-y,-z
loop_
_atom_site_type_symbol
_atom_site_label
_atom_site_fract_x
_atom_site_fract_y
_atom_site_fract_z
Si Si1 0.497805 0.140928 0.045679
Si Si2 0.900139 0.958557 0.169524
Si Si3 0.574884 0.208279 0.393198
Si Si4 0.956052 0.643421 0.556919
Si Si5 0.320615 0.153467 0.183351
Si Si6 0.448909 0.399850 0.605179
Si Si7 0.141235 0.909374 0.336792
O O1 0.731146 0.876675 0.350258
O O2 0.455764 0.279868 0.115214
O O3 0.390320 0.134727 0.032501
O O4 0.427481 0.288358 0.735179
O O5 0.984592 0.746160 0.433273
O O6 0.984912 0.988044 0.285546
O O7 0.667752 0.197706 0.903954
O O8 0.947717 0.920013 0.992321
O O9 0.443009 0.408206 0.368736
O O10 0.733456 0.131195 0.454085
O O11 0.686115 0.980029 0.705423
O O12 0.000000 0.500000 0.500000
O O13 0.111663 0.442339 0.924495
O O14 0.500000 0.000000 0.500000
O O15 0.300764 0.647986 0.481426
#
# Coordination Sequence:
#
# PCOD9086413 Si02
#       7
#     2   2   2   2   2   2   2
#     4  10  23  40  60  88 122 155 199 253 300 354
#     4   9  19  34  57  88 114 150 202 243 293 359
#     4  10  21  38  58  85 118 154 198 242 294 357
#     4  11  22  39  63  90 120 158 204 250 301 362
#     4  10  22  40  59  88 124 157 201 249 302 364
#     4  10  20  38  60  84 118 154 197 247 296 355
#     4  10  19  36  58  83 120 155 193 248 297 348
#
# _framework density 25.893139000000001
#
# number of rings (size 3 to 8) (size 9 to 14) (size 15 to 20)
#    0.000    2.000    0.000    5.143    0.000    6.286 
#    0.000   15.714    0.000    0.000    0.000    0.000 
#    0.000    0.000    0.000    0.000    0.000    0.000 
#
# Total GULP energy -78326.586655 kJ/mol
# GULP energy per Si atom -5594.756190 kJ/mol
# Density = 2.583420 g / cm^3
# Si number density = 25.893139 Si / 1000 Ang^3
#
#
#
# Elastic Constant Matrix: (Units=GPa)
#
#
# Indices 1 2 3 4 5 6 
#
# 1 161.2572 22.2848 19.8775 -10.7656 -2.2067 22.8985
# 2 22.2848 65.7888 29.6958 -1.1823 4.2418 8.7235
# 3 19.8775 29.6958 95.1179 -12.4934 5.0024 7.2453
# 4 -10.7656 -1.1823 -12.4934 37.9342 6.8561 -2.3775
# 5 -2.2067 4.2418 5.0024 6.8561 44.6312 -3.0469
# 6 22.8985 8.7235 7.2453 -2.3775 -3.0469 40.3546
#
#
#
# Elastic Compliance Matrix: (Units=1/GPa)
#
#
# Indices 1 2 3 4 5 6 
#
# 1 0.007095 -0.001701 -0.000486 0.001567 0.000089 -0.003472
# 2 -0.001701 0.018568 -0.005423 -0.001624 -0.001146 -0.002257
# 3 -0.000486 -0.005423 0.013010 0.004231 -0.001669 -0.000764
# 4 0.001567 -0.001624 0.004231 0.029001 -0.004694 0.000057
# 5 0.000089 -0.001146 -0.001669 -0.004694 0.023564 0.001999
# 6 -0.003472 -0.002257 -0.000764 0.000057 0.001999 0.027530
#
#
# Mechanical properties :
#
#
# Convention : Reuss Voigt Hill
#
# Bulk Modulus (GPa) = 42.63840 51.76446 47.20143
# Shear Modulus (GPa) = 35.25981 41.27106 38.26543
#
# Velocity S-wave (km/s) = 3.69418 3.99670 3.84841
# Velocity P-wave (km/s) = 5.89057 6.42908 6.16571
#
# Compressibility (1/GPa) = 0.02345304
#
# Stress axis : x y z
#
# Youngs Moduli (GPa) = 140.94220 53.85600 76.86651
#
# Poissons Ratio (x) = 0.09162 0.03736
# Poissons Ratio (y) = 0.23977 0.41682
# Poissons Ratio (z) = 0.06851 0.29204
#
# Static dielectric constant tensor:
#      x y z
#    x 2.086670 -0.027030 -0.025380 
#    y -0.027030 2.134860 0.018600 
#    z -0.025380 0.018600 2.057060 
# 
# From -- ./inp_files/306761.got.cif
#   From: 2010.05.17/outbox.cif.g08.bks.cpg/sg2_154_cif.got.tgz:306761.got - 2010.06.03 11:33:40.
