data_PCOD9086487
_publ_section_title
;
Structure prediction by ZEFSAII (Michael W. Deem and Ramdas Pophale) SiO2 
 PCOD9086487
Probable space group: P -1
;
_chemical_formula_sum "Si O2"
_cell_formula_units_Z 14
_cell_length_a 10.346444
_cell_length_b 7.595481
_cell_length_c 10.001400
_cell_angle_alpha 96.019709
_cell_angle_beta 69.107550
_cell_angle_gamma 53.272742
_cell_volume 532.775081
_symmetry_space_group_name_H-M "P -1"
_symmetry_group_IT_number 2
_symmetry_cell_setting 'triclinic'
loop_
_space_group_symop_operation_xyz
x,y,z
-x,-y,-z
loop_
_atom_site_type_symbol
_atom_site_label
_atom_site_fract_x
_atom_site_fract_y
_atom_site_fract_z
Si Si1 0.196746 0.861180 0.336141
Si Si2 0.748161 0.081681 0.192664
Si Si3 0.255873 0.288142 0.521833
Si Si4 0.817266 0.725555 0.736137
Si Si5 0.778647 0.691641 0.051923
Si Si6 0.453793 0.734936 0.459537
Si Si7 0.798045 0.293170 0.959586
O O1 0.368526 0.705271 0.364177
O O2 0.234303 0.699208 0.184882
O O3 0.183015 0.069090 0.292137
O O4 0.000000 0.000000 0.500000
O O5 0.635628 0.264988 0.370844
O O6 0.726155 0.195176 0.067850
O O7 0.972796 0.899089 0.126313
O O8 0.692744 0.924300 0.188233
O O9 0.274808 0.299230 0.355608
O O10 0.339388 0.372939 0.587047
O O11 0.033220 0.471161 0.644865
O O12 0.346156 0.020306 0.500862
O O13 0.743815 0.769157 0.916121
O O14 0.714802 0.545766 0.073352
O O15 0.000000 0.500000 0.000000
#
# Coordination Sequence:
#
# PCOD9086487 Si02
#       7
#     2   2   2   2   2   2   2
#     4  11  21  35  61  92 123 162 203 252 307 357
#     4  10  19  36  58  89 119 161 205 246 304 359
#     4   9  20  36  62  89 118 157 208 253 303 363
#     4  10  20  37  61  90 115 157 211 251 297 369
#     4  10  20  33  60  90 116 159 209 248 297 362
#     4  10  20  38  61  90 126 157 201 255 310 361
#     4  10  20  34  58  89 123 159 207 250 292 370
#
# _framework density 26.277505999999999
#
# number of rings (size 3 to 8) (size 9 to 14) (size 15 to 20)
#    0.000    2.000    2.857    1.714    4.000    0.000 
#    0.000    1.429    3.143    2.571    0.000    0.000 
#    0.000    0.000    0.000    0.000    0.000    0.000 
#
# Total GULP energy -78454.945459 kJ/mol
# GULP energy per Si atom -5603.924676 kJ/mol
# Density = 2.621770 g / cm^3
# Si number density = 26.277506 Si / 1000 Ang^3
#
#
#
# Elastic Constant Matrix: (Units=GPa)
#
#
# Indices 1 2 3 4 5 6 
#
# 1 123.3233 40.1373 56.1279 -2.7774 32.7833 -10.3452
# 2 40.1373 51.7515 5.3573 -16.7729 6.6976 -7.3418
# 3 56.1279 5.3573 157.7307 -22.2333 43.0777 -12.3907
# 4 -2.7774 -16.7729 -22.2333 44.1041 -1.4230 3.8384
# 5 32.7833 6.6976 43.0777 -1.4230 50.8727 5.5741
# 6 -10.3452 -7.3418 -12.3907 3.8384 5.5741 46.9803
#
#
#
# Elastic Compliance Matrix: (Units=1/GPa)
#
#
# Indices 1 2 3 4 5 6 
#
# 1 0.015704 -0.013029 -0.004667 -0.006586 -0.004779 0.001296
# 2 -0.013029 0.034245 0.006167 0.015008 -0.001247 0.003031
# 3 -0.004667 0.006167 0.011029 0.007104 -0.007287 0.003129
# 4 -0.006586 0.015008 0.007104 0.031405 -0.002929 0.000550
# 5 -0.004779 -0.001247 -0.007287 -0.002929 0.029697 -0.006453
# 6 0.001296 0.003031 0.003129 0.000550 -0.006453 0.023591
#
#
# Mechanical properties :
#
#
# Convention : Reuss Voigt Hill
#
# Bulk Modulus (GPa) = 26.37068 59.56118 42.96593
# Shear Modulus (GPa) = 27.56846 43.80364 35.68605
#
# Velocity S-wave (km/s) = 3.24254 4.08728 3.68916
# Velocity P-wave (km/s) = 4.90673 6.70745 5.87647
#
# Compressibility (1/GPa) = 0.03792090
#
# Stress axis : x y z
#
# Youngs Moduli (GPa) = 63.67796 29.20140 90.67406
#
# Poissons Ratio (x) = 0.38045 0.42317
# Poissons Ratio (y) = 0.82963 -0.55921
# Poissons Ratio (z) = 0.29718 -0.18009
#
# Static dielectric constant tensor:
#      x y z
#    x 2.028620 0.031790 0.000830 
#    y 0.031790 2.116950 0.022920 
#    z 0.000830 0.022920 2.021750 
# 
# From -- ./inp_files/243951.got.cif
#   From: 2010.05.17/outbox.cif.g08.bks.cpg/sg2_122_cif.got.tgz:243951.got - 2010.06.03 11:33:40.
