data_PCOD9086716
_publ_section_title
;
Structure prediction by ZEFSAII (Michael W. Deem and Ramdas Pophale) SiO2 
 PCOD9086716
Probable space group: P -1
;
_chemical_formula_sum "Si O2"
_cell_formula_units_Z 16
_cell_length_a 9.154152
_cell_length_b 12.057302
_cell_length_c 9.458439
_cell_angle_alpha 93.623480
_cell_angle_beta 75.436865
_cell_angle_gamma 112.291206
_cell_volume 934.312723
_symmetry_space_group_name_H-M "P -1"
_symmetry_group_IT_number 2
_symmetry_cell_setting 'triclinic'
loop_
_space_group_symop_operation_xyz
x,y,z
-x,-y,-z
loop_
_atom_site_type_symbol
_atom_site_label
_atom_site_fract_x
_atom_site_fract_y
_atom_site_fract_z
Si Si1 0.998123 0.890594 0.394488
Si Si2 0.443915 0.697323 0.787073
Si Si3 0.533378 0.741423 0.093155
Si Si4 0.670817 0.102360 0.808952
Si Si5 0.693542 0.675221 0.528146
Si Si6 0.142976 0.051039 0.855727
Si Si7 0.674892 0.107448 0.142521
Si Si8 0.526838 0.538878 0.279284
O O1 0.876962 0.765631 0.480051
O O2 0.175893 0.890297 0.320018
O O3 0.921301 0.907950 0.265297
O O4 0.000000 0.000000 0.500000
O O5 0.583824 0.739017 0.636763
O O6 0.317073 0.761791 0.806134
O O7 0.382472 0.552952 0.781863
O O8 0.520614 0.733733 0.926612
O O9 0.396790 0.791068 0.183399
O O10 0.510176 0.614990 0.157866
O O11 0.706908 0.838728 0.105549
O O12 0.514459 0.981459 0.807135
O O13 0.713926 0.103475 0.965623
O O14 0.619993 0.628936 0.388399
O O15 0.645553 0.553914 0.623921
O O16 0.214904 0.947666 0.803107
O O17 0.000000 0.000000 0.000000
#
# Coordination Sequence:
#
# PCOD9086716 Si02
#       8
#     2   2   2   2   2   2   2   2
#     4  12  23  37  53  83 115 150 176 223 285 333
#     4   9  18  32  61  80 107 138 190 225 264 321
#     4  10  19  36  60  84 104 142 194 228 261 325
#     4   9  19  33  55  78 115 139 177 227 283 310
#     4   9  20  35  54  79 115 147 180 222 274 324
#     4  11  22  34  57  81 114 142 182 229 275 325
#     4   9  17  35  54  83 104 143 181 232 267 318
#     4   9  18  36  56  84 105 150 186 221 268 320
#
# _framework density 17.124889
#
# number of rings (size 3 to 8) (size 9 to 14) (size 15 to 20)
#    0.750    1.500    2.500    1.875    1.750    0.000 
#    2.250    2.500    0.000    8.250    0.000    0.000 
#    0.000    0.000    0.000    0.000    0.000    0.000 
#
# Total GULP energy -89090.226401 kJ/mol
# GULP energy per Si atom -5568.139150 kJ/mol
# Density = 1.708591 g / cm^3
# Si number density = 17.124889 Si / 1000 Ang^3
#
#
#
# Elastic Constant Matrix: (Units=GPa)
#
#
# Indices 1 2 3 4 5 6 
#
# 1 63.4829 32.6887 27.3889 3.6747 -20.4097 -2.1669
# 2 32.6887 90.4059 31.7471 -1.4737 -16.7410 -6.4195
# 3 27.3889 31.7471 53.9618 19.1337 -17.6092 6.1008
# 4 3.6747 -1.4737 19.1337 27.4317 -2.2510 -2.9926
# 5 -20.4097 -16.7410 -17.6092 -2.2510 27.9095 -3.9041
# 6 -2.1669 -6.4195 6.1008 -2.9926 -3.9041 27.9154
#
#
#
# Elastic Compliance Matrix: (Units=1/GPa)
#
#
# Indices 1 2 3 4 5 6 
#
# 1 0.025056 -0.003226 -0.009160 0.004400 0.011706 0.005314
# 2 -0.003226 0.018186 -0.013567 0.011973 0.002141 0.008480
# 3 -0.009160 -0.013567 0.048814 -0.034479 0.010848 -0.016678
# 4 0.004400 0.011973 -0.034479 0.062052 -0.004011 0.016721
# 5 0.011706 0.002141 0.010848 -0.004011 0.053038 0.006018
# 6 0.005314 0.008480 -0.016678 0.016721 0.006018 0.044464
#
#
# Mechanical properties :
#
#
# Convention : Reuss Voigt Hill
#
# Bulk Modulus (GPa) = 24.90727 43.50002 34.20365
# Shear Modulus (GPa) = 15.77795 24.38637 20.08216
#
# Velocity S-wave (km/s) = 3.03866 3.77773 3.42817
# Velocity P-wave (km/s) = 5.18530 6.66971 5.97379
#
# Compressibility (1/GPa) = 0.04014892
#
# Stress axis : x y z
#
# Youngs Moduli (GPa) = 39.91099 54.98827 20.48608
#
# Poissons Ratio (x) = 0.17740 0.18765
# Poissons Ratio (y) = 0.12876 0.27793
# Poissons Ratio (z) = 0.36558 0.74602
#
# Static dielectric constant tensor:
#      x y z
#    x 1.559020 -0.018070 -0.003980 
#    y -0.018070 1.597830 0.004280 
#    z -0.003980 0.004280 1.585460 
# 
# From -- ./inp_files/188404.got.cif
#   From: 2010.05.17/outbox.cif.g08.bks.cpg/sg2_95_cif.got.tgz:188404.got - 2010.06.03 11:33:40.
