data_PCOD9086643
_publ_section_title
;
Structure prediction by ZEFSAII (Michael W. Deem and Ramdas Pophale) SiO2 
 PCOD9086643
Probable space group: P -1
;
_chemical_formula_sum "Si O2"
_cell_formula_units_Z 16
_cell_length_a 12.283863
_cell_length_b 7.529952
_cell_length_c 20.327392
_cell_angle_alpha 61.506298
_cell_angle_beta 38.617624
_cell_angle_gamma 91.878537
_cell_volume 694.474425
_symmetry_space_group_name_H-M "P -1"
_symmetry_group_IT_number 2
_symmetry_cell_setting 'triclinic'
loop_
_space_group_symop_operation_xyz
x,y,z
-x,-y,-z
loop_
_atom_site_type_symbol
_atom_site_label
_atom_site_fract_x
_atom_site_fract_y
_atom_site_fract_z
Si Si1 0.614694 0.444694 0.663261
Si Si2 0.803905 0.044473 0.515370
Si Si3 0.660417 0.269890 0.294403
Si Si4 0.203088 0.225022 0.210027
Si Si5 0.130943 0.198966 0.988484
Si Si6 0.674472 0.048731 0.724193
Si Si7 0.557359 0.542011 0.388278
Si Si8 0.120190 0.374005 0.097187
O O1 0.712917 0.734933 0.599392
O O2 0.622443 0.488323 0.573189
O O3 0.719717 0.324517 0.660747
O O4 0.311068 0.186418 0.872478
O O5 0.604180 0.004611 0.572067
O O6 0.765425 0.066220 0.604889
O O7 0.096420 0.281406 0.307891
O O8 0.581819 0.336902 0.382846
O O9 0.861250 0.268528 0.217342
O O10 0.818542 0.555463 0.120535
O O11 0.183388 0.977565 0.287048
O O12 0.056010 0.176635 0.223819
O O13 0.500000 0.500000 0.000000
O O14 0.213569 0.316730 0.002897
O O15 0.838522 0.880874 0.185954
O O16 0.365746 0.731056 0.931832
O O17 0.500000 0.500000 0.500000
#
# Coordination Sequence:
#
# PCOD9086643 Si02
#       8
#     2   2   2   2   2   2   2   2
#     4  10  22  39  65  92 122 165 210 258 303 374
#     4  10  22  42  65  96 123 158 216 256 313 368
#     4  10  21  37  61  94 123 163 206 253 309 388
#     4  10  25  42  64  90 127 169 207 266 308 365
#     4  10  19  36  59  88 130 166 202 251 307 381
#     4  11  21  43  68  88 124 169 217 250 305 371
#     4  10  21  34  53  89 134 162 199 255 313 366
#     4  11  21  37  65  93 129 165 204 254 322 364
#
# _framework density 23.039003000000001
#
# number of rings (size 3 to 8) (size 9 to 14) (size 15 to 20)
#    0.000    2.000    2.500    3.750    5.250    2.000 
#    0.000    0.625    2.750    0.000    0.000    0.000 
#    0.000    0.000    0.000    0.000    0.000    0.000 
#
# Total GULP energy -89432.163560 kJ/mol
# GULP energy per Si atom -5589.510222 kJ/mol
# Density = 2.298657 g / cm^3
# Si number density = 23.039003 Si / 1000 Ang^3
#
#
#
# Elastic Constant Matrix: (Units=GPa)
#
#
# Indices 1 2 3 4 5 6 
#
# 1 129.4208 48.0702 32.2772 20.8395 14.3339 -38.7551
# 2 48.0702 58.0389 9.3579 8.1550 14.6927 -11.1744
# 3 32.2772 9.3579 118.8143 11.8512 -0.7962 -12.9398
# 4 20.8395 8.1550 11.8512 24.6963 10.7036 -4.1655
# 5 14.3339 14.6927 -0.7962 10.7036 44.1445 7.5471
# 6 -38.7551 -11.1744 -12.9398 -4.1655 7.5471 41.5501
#
#
#
# Elastic Compliance Matrix: (Units=1/GPa)
#
#
# Indices 1 2 3 4 5 6 
#
# 1 0.016893 -0.009643 -0.001807 -0.006918 -0.002752 0.012407
# 2 -0.009643 0.026320 0.000264 0.001808 -0.005966 -0.000568
# 3 -0.001807 0.000264 0.009322 -0.003531 0.001407 0.000679
# 4 -0.006918 0.001808 -0.003531 0.052284 -0.011130 0.000197
# 5 -0.002752 -0.005966 0.001407 -0.011130 0.030017 -0.010301
# 6 0.012407 -0.000568 0.000679 0.000197 -0.010301 0.037589
#
#
# Mechanical properties :
#
#
# Convention : Reuss Voigt Hill
#
# Bulk Modulus (GPa) = 33.15084 53.96493 43.55788
# Shear Modulus (GPa) = 24.40792 36.51610 30.46201
#
# Velocity S-wave (km/s) = 3.25840 3.98549 3.64014
# Velocity P-wave (km/s) = 5.34570 6.68229 6.05101
#
# Compressibility (1/GPa) = 0.03016515
#
# Stress axis : x y z
#
# Youngs Moduli (GPa) = 59.19668 37.99342 107.27107
#
# Poissons Ratio (x) = 0.36635 0.19382
# Poissons Ratio (y) = 0.57080 -0.02835
# Poissons Ratio (z) = 0.10696 -0.01004
#
# Static dielectric constant tensor:
#      x y z
#    x 1.921430 0.010790 -0.060870 
#    y 0.010790 1.838000 -0.026970 
#    z -0.060870 -0.026970 1.966500 
# 
# From -- ./inp_files/314772.got.cif
#   From: 2010.05.17/outbox.cif.g08.bks.cpg/sg2_158_cif.got.tgz:314772.got - 2010.06.03 11:33:40.
