data_PCOD9086769
_publ_section_title
;
Structure prediction by ZEFSAII (Michael W. Deem and Ramdas Pophale) SiO2 
 PCOD9086769
Probable space group: P -1
;
_chemical_formula_sum "Si O2"
_cell_formula_units_Z 16
_cell_length_a 9.390684
_cell_length_b 15.565807
_cell_length_c 12.162876
_cell_angle_alpha 60.811012
_cell_angle_beta 62.215081
_cell_angle_gamma 112.722574
_cell_volume 833.951452
_symmetry_space_group_name_H-M "P -1"
_symmetry_group_IT_number 2
_symmetry_cell_setting 'triclinic'
loop_
_space_group_symop_operation_xyz
x,y,z
-x,-y,-z
loop_
_atom_site_type_symbol
_atom_site_label
_atom_site_fract_x
_atom_site_fract_y
_atom_site_fract_z
Si Si1 0.298362 0.998842 0.193249
Si Si2 0.673222 0.392457 0.301075
Si Si3 0.870397 0.945609 0.356529
Si Si4 0.593713 0.436911 0.541757
Si Si5 0.978325 0.887084 0.012758
Si Si6 0.288477 0.980524 0.462898
Si Si7 0.124095 0.780130 0.194934
Si Si8 0.844053 0.274589 0.194944
O O1 0.185184 0.861999 0.236972
O O2 0.145776 0.023450 0.200961
O O3 0.240550 0.949233 0.371502
O O4 0.614019 0.153070 0.971003
O O5 0.372453 0.247882 0.454102
O O6 0.649538 0.400154 0.434898
O O7 0.779896 0.337821 0.256214
O O8 0.880294 0.570461 0.063289
O O9 0.838442 0.984999 0.457837
O O10 0.857002 0.019076 0.216822
O O11 0.500000 0.500000 0.500000
O O12 0.334242 0.273987 0.799277
O O13 0.866437 0.586843 0.412590
O O14 0.073931 0.842746 0.082645
O O15 0.000000 0.000000 0.000000
O O16 0.601269 0.143545 0.278195
O O17 0.167964 0.827954 0.663009
#
# Coordination Sequence:
#
# PCOD9086769 Si02
#       8
#     2   2   2   2   2   2   2   2
#     4  11  22  40  58  85 128 159 193 232 310 346
#     4  10  19  36  60  86 125 140 197 250 303 329
#     4  11  22  38  61  90 118 159 193 245 293 356
#     4  10  20  34  60  91 114 149 194 249 288 340
#     4  11  20  38  64  91 114 152 204 243 294 343
#     4  10  22  37  64  84 117 154 204 238 294 353
#     4  10  23  38  63  86 119 160 194 245 286 360
#     4   9  21  37  60  94 106 154 199 254 284 348
#
# _framework density 19.185770999999999
#
# number of rings (size 3 to 8) (size 9 to 14) (size 15 to 20)
#    0.000    1.750    2.500    1.875    8.750    0.000 
#    0.000    1.250    8.250    0.000    0.000    0.000 
#    0.000    0.000    0.000    0.000    0.000    0.000 
#
# Total GULP energy -89293.164485 kJ/mol
# GULP energy per Si atom -5580.822780 kJ/mol
# Density = 1.914210 g / cm^3
# Si number density = 19.185771 Si / 1000 Ang^3
#
#
#
# Elastic Constant Matrix: (Units=GPa)
#
#
# Indices 1 2 3 4 5 6 
#
# 1 37.0198 21.8640 27.9395 -11.6949 -13.6849 5.2474
# 2 21.8640 57.6693 33.4975 -0.4638 -3.8887 13.8325
# 3 27.9395 33.4975 119.2935 -19.8275 -12.6099 8.3280
# 4 -11.6949 -0.4638 -19.8275 38.0429 3.9788 4.0915
# 5 -13.6849 -3.8887 -12.6099 3.9788 32.0224 2.7283
# 6 5.2474 13.8325 8.3280 4.0915 2.7283 19.5938
#
#
#
# Elastic Compliance Matrix: (Units=1/GPa)
#
#
# Indices 1 2 3 4 5 6 
#
# 1 0.048545 -0.013618 -0.003285 0.012016 0.016889 -0.006852
# 2 -0.013618 0.028212 -0.004905 -0.004743 -0.002643 -0.012827
# 3 -0.003285 -0.004905 0.011735 0.005035 0.002166 -0.001998
# 4 0.012016 -0.004743 0.005035 0.033220 0.003214 -0.009394
# 5 0.016889 -0.002643 0.002166 0.003214 0.039408 -0.009736
# 6 -0.006852 -0.012827 -0.001998 -0.009394 -0.009736 0.066093
#
#
# Mechanical properties :
#
#
# Convention : Reuss Voigt Hill
#
# Bulk Modulus (GPa) = 22.28323 42.28720 32.28521
# Shear Modulus (GPa) = 17.49554 26.64393 22.06974
#
# Velocity S-wave (km/s) = 3.02305 3.73062 3.39531
# Velocity P-wave (km/s) = 4.88106 6.37538 5.67760
#
# Compressibility (1/GPa) = 0.04487680
#
# Stress axis : x y z
#
# Youngs Moduli (GPa) = 20.59953 35.44552 85.21816
#
# Poissons Ratio (x) = 0.48268 0.27995
# Poissons Ratio (y) = 0.28051 0.41798
# Poissons Ratio (z) = 0.06767 0.17385
#
# Static dielectric constant tensor:
#      x y z
#    x 1.665460 -0.005870 -0.014450 
#    y -0.005870 1.679070 0.015050 
#    z -0.014450 0.015050 1.701070 
# 
# From -- ./inp_files/186938.got.cif
#   From: 2010.05.17/outbox.cif.g08.bks.cpg/sg2_94_cif.got.tgz:186938.got - 2010.06.03 11:33:40.
