data_PCOD9086441
_publ_section_title
;
Structure prediction by ZEFSAII (Michael W. Deem and Ramdas Pophale) SiO2 
 PCOD9086441
Probable space group: P -1
;
_chemical_formula_sum "Si O2"
_cell_formula_units_Z 14
_cell_length_a 14.712692
_cell_length_b 9.518756
_cell_length_c 8.797521
_cell_angle_alpha 66.055986
_cell_angle_beta 122.514464
_cell_angle_gamma 68.474861
_cell_volume 618.083874
_symmetry_space_group_name_H-M "P -1"
_symmetry_group_IT_number 2
_symmetry_cell_setting 'triclinic'
loop_
_space_group_symop_operation_xyz
x,y,z
-x,-y,-z
loop_
_atom_site_type_symbol
_atom_site_label
_atom_site_fract_x
_atom_site_fract_y
_atom_site_fract_z
Si Si1 0.099850 0.179735 0.221358
Si Si2 0.802646 0.688053 0.217206
Si Si3 0.020122 0.038187 0.795617
Si Si4 0.603052 0.046221 0.617762
Si Si5 0.925393 0.301153 0.292539
Si Si6 0.181247 0.490135 0.399213
Si Si7 0.678903 0.457739 0.740410
O O1 0.069702 0.223853 0.355917
O O2 0.268299 0.060162 0.355658
O O3 0.074667 0.022040 0.237816
O O4 0.951188 0.420505 0.885938
O O5 0.804467 0.540650 0.172766
O O6 0.744491 0.707172 0.325038
O O7 0.000000 0.500000 0.500000
O O8 0.704697 0.912521 0.926129
O O9 0.999896 0.112201 0.570721
O O10 0.926812 0.269210 0.706879
O O11 0.216712 0.803490 0.108992
O O12 0.490846 0.319188 0.426838
O O13 0.500000 0.000000 0.500000
O O14 0.809927 0.361947 0.030289
O O15 0.316468 0.431869 0.446658
#
# Coordination Sequence:
#
# PCOD9086441 Si02
#       7
#     2   2   2   2   2   2   2
#     4  10  19  36  60  86 114 158 197 236 290 357
#     4  11  21  38  61  85 117 153 208 241 283 354
#     4   9  18  38  64  91 110 149 209 243 288 350
#     4  12  25  38  55  89 129 155 191 245 297 343
#     4   9  19  37  65  84 111 156 203 245 281 354
#     4   9  19  37  65  85 110 156 202 248 283 349
#     4  10  19  36  58  85 118 156 187 245 298 341
#
# _framework density 22.650645999999998
#
# number of rings (size 3 to 8) (size 9 to 14) (size 15 to 20)
#    0.000    2.286    2.857    3.429    0.000    2.286 
#    0.000    5.714    0.000    0.000    0.000    0.000 
#    0.000    0.000    0.000    0.000    0.000    0.000 
#
# Total GULP energy -77955.188015 kJ/mol
# GULP energy per Si atom -5568.227715 kJ/mol
# Density = 2.259909 g / cm^3
# Si number density = 22.650646 Si / 1000 Ang^3
#
#
#
# Elastic Constant Matrix: (Units=GPa)
#
#
# Indices 1 2 3 4 5 6 
#
# 1 124.3712 15.8732 53.4798 15.3847 -20.5657 -24.6045
# 2 15.8732 47.7478 14.7549 14.9533 -6.6991 -13.0158
# 3 53.4798 14.7549 99.9277 1.8295 -19.7698 -15.1123
# 4 15.3847 14.9533 1.8295 40.1746 -11.4303 -7.9020
# 5 -20.5657 -6.6991 -19.7698 -11.4303 39.6952 7.7441
# 6 -24.6045 -13.0158 -15.1123 -7.9020 7.7441 45.3851
#
#
#
# Elastic Compliance Matrix: (Units=1/GPa)
#
#
# Indices 1 2 3 4 5 6 
#
# 1 0.011736 -0.000056 -0.005284 -0.002967 0.001852 0.003754
# 2 -0.000056 0.025877 -0.003002 -0.008671 -0.000627 0.004989
# 3 -0.005284 -0.003002 0.014306 0.004054 0.004870 0.000913
# 4 -0.002967 -0.008671 0.004054 0.031578 0.007835 0.001416
# 5 0.001852 -0.000627 0.004870 0.007835 0.031017 -0.001482
# 6 0.003754 0.004989 0.000913 0.001416 -0.001482 0.026303
#
#
# Mechanical properties :
#
#
# Convention : Reuss Voigt Hill
#
# Bulk Modulus (GPa) = 28.38109 48.91804 38.64957
# Shear Modulus (GPa) = 29.54306 37.58023 33.56164
#
# Velocity S-wave (km/s) = 3.61542 4.07765 3.85347
# Velocity P-wave (km/s) = 5.47590 6.61916 6.07449
#
# Compressibility (1/GPa) = 0.03523472
#
# Stress axis : x y z
#
# Youngs Moduli (GPa) = 85.20983 38.64458 69.90216
#
# Poissons Ratio (x) = 0.00217 0.36936
# Poissons Ratio (y) = 0.00478 0.20983
# Poissons Ratio (z) = 0.45025 0.11600
#
# Static dielectric constant tensor:
#      x y z
#    x 1.944980 0.065200 0.000000 
#    y 0.065200 2.042910 -0.017120 
#    z 0.000000 -0.017120 1.840270 
# 
# From -- ./inp_files/306764.got.cif
#   From: 2010.05.17/outbox.cif.g08.bks.cpg/sg2_154_cif.got.tgz:306764.got - 2010.06.03 11:33:40.
