data_PCOD9086731
_publ_section_title
;
Structure prediction by ZEFSAII (Michael W. Deem and Ramdas Pophale) SiO2 
 PCOD9086731
Probable space group: P -1
;
_chemical_formula_sum "Si O2"
_cell_formula_units_Z 16
_cell_length_a 10.821236
_cell_length_b 15.491901
_cell_length_c 10.069880
_cell_angle_alpha 132.904241
_cell_angle_beta 64.492836
_cell_angle_gamma 78.541103
_cell_volume 745.763992
_symmetry_space_group_name_H-M "P -1"
_symmetry_group_IT_number 2
_symmetry_cell_setting 'triclinic'
loop_
_space_group_symop_operation_xyz
x,y,z
-x,-y,-z
loop_
_atom_site_type_symbol
_atom_site_label
_atom_site_fract_x
_atom_site_fract_y
_atom_site_fract_z
Si Si1 0.778451 0.564148 0.030630
Si Si2 0.564188 0.569792 0.632507
Si Si3 0.168724 0.994509 0.300911
Si Si4 0.841400 0.040445 0.435113
Si Si5 0.403024 0.972577 0.622933
Si Si6 0.602897 0.912581 0.723697
Si Si7 0.155594 0.484739 0.765510
Si Si8 0.573804 0.550578 0.913177
O O1 0.553870 0.764719 0.354436
O O2 0.827134 0.467490 0.045902
O O3 0.767804 0.487673 0.827987
O O4 0.927999 0.579390 0.954072
O O5 0.500000 0.500000 0.500000
O O6 0.747341 0.512480 0.402238
O O7 0.615149 0.496070 0.682564
O O8 0.373590 0.783877 0.959496
O O9 0.083351 0.049311 0.549434
O O10 0.236041 0.085524 0.356034
O O11 0.998366 0.045765 0.336574
O O12 0.803316 0.956473 0.263901
O O13 0.619794 0.236806 0.776165
O O14 0.432642 0.020264 0.798634
O O15 0.500000 0.000000 0.500000
O O16 0.715888 0.716291 0.477219
O O17 0.500000 0.000000 0.000000
O O18 0.500000 0.500000 0.000000
#
# Coordination Sequence:
#
# PCOD9086731 Si02
#       8
#     2   2   2   2   2   2   2   2
#     4   9  21  37  59  86 113 152 195 240 278 346
#     4  11  23  39  60  83 120 156 191 242 293 350
#     4  10  20  38  60  90 114 151 199 238 295 341
#     4   9  20  37  61  87 114 148 198 244 280 349
#     4  10  19  36  60  85 116 151 195 238 289 341
#     4  11  21  36  62  85 121 153 188 246 291 349
#     4  10  21  39  60  87 116 154 199 237 291 344
#     4  10  21  38  60  84 116 151 189 239 292 345
#
# _framework density 21.454508000000001
#
# number of rings (size 3 to 8) (size 9 to 14) (size 15 to 20)
#    0.000    2.000    2.500    0.750    1.750    1.500 
#    6.750    1.875    0.000    0.000    0.000    0.000 
#    0.000    0.000    0.000    0.000    0.000    0.000 
#
# Total GULP energy -89103.554203 kJ/mol
# GULP energy per Si atom -5568.972138 kJ/mol
# Density = 2.140568 g / cm^3
# Si number density = 21.454508 Si / 1000 Ang^3
#
#
#
# Elastic Constant Matrix: (Units=GPa)
#
#
# Indices 1 2 3 4 5 6 
#
# 1 180.3231 58.6518 28.2423 -41.6936 14.2819 -20.5163
# 2 58.6518 79.5452 21.6466 -34.5312 20.7275 -0.8911
# 3 28.2423 21.6466 57.7567 -22.3076 15.4443 -15.1296
# 4 -41.6936 -34.5312 -22.3076 41.3334 -3.9947 4.5605
# 5 14.2819 20.7275 15.4443 -3.9947 29.9674 -5.8517
# 6 -20.5163 -0.8911 -15.1296 4.5605 -5.8517 28.6837
#
#
#
# Elastic Compliance Matrix: (Units=1/GPa)
#
#
# Indices 1 2 3 4 5 6 
#
# 1 0.008619 -0.004572 0.000678 0.004650 0.000445 0.005731
# 2 -0.004572 0.028113 0.001433 0.018894 -0.017073 -0.008128
# 3 0.000678 0.001433 0.028039 0.014711 -0.011737 0.010585
# 4 0.004650 0.018894 0.014711 0.051030 -0.016007 0.000294
# 5 0.000445 -0.017073 -0.011737 -0.016007 0.050125 0.006368
# 6 0.005731 -0.008128 0.010585 0.000294 0.006368 0.045546
#
#
# Mechanical properties :
#
#
# Convention : Reuss Voigt Hill
#
# Bulk Modulus (GPa) = 16.70917 59.41184 38.06051
# Shear Modulus (GPa) = 21.15581 33.93585 27.54583
#
# Velocity S-wave (km/s) = 3.14359 3.98145 3.58707
# Velocity P-wave (km/s) = 4.58054 6.99200 5.91056
#
# Compressibility (1/GPa) = 0.05984737
#
# Stress axis : x y z
#
# Youngs Moduli (GPa) = 116.02602 35.57123 35.66511
#
# Poissons Ratio (x) = 0.16264 -0.02417
# Poissons Ratio (y) = 0.53050 -0.05111
# Poissons Ratio (z) = -0.07864 -0.05098
#
# Static dielectric constant tensor:
#      x y z
#    x 1.779370 -0.043570 0.083160 
#    y -0.043570 1.819680 0.024260 
#    z 0.083160 0.024260 1.770380 
# 
# From -- ./inp_files/208892.got.cif
#   From: 2010.05.17/outbox.cif.g08.bks.cpg/sg2_105_cif.got.tgz:208892.got - 2010.06.03 11:33:40.
