data_PCOD9086317
_publ_section_title
;
Structure prediction by ZEFSAII (Michael W. Deem and Ramdas Pophale) SiO2 
 PCOD9086317
Probable space group: P -1
;
_chemical_formula_sum "Si O2"
_cell_formula_units_Z 16
_cell_length_a 8.724091
_cell_length_b 17.165537
_cell_length_c 7.779378
_cell_angle_alpha 56.732467
_cell_angle_beta 74.960261
_cell_angle_gamma 42.383910
_cell_volume 634.299033
_symmetry_space_group_name_H-M "P -1"
_symmetry_group_IT_number 2
_symmetry_cell_setting 'triclinic'
loop_
_space_group_symop_operation_xyz
x,y,z
-x,-y,-z
loop_
_atom_site_type_symbol
_atom_site_label
_atom_site_fract_x
_atom_site_fract_y
_atom_site_fract_z
Si Si1 0.398716 0.407513 0.985705
Si Si2 0.247289 0.685284 0.696923
Si Si3 0.875228 0.585858 0.192605
Si Si4 0.703737 0.534091 0.606239
Si Si5 0.106717 0.078939 0.707569
Si Si6 0.157890 0.737171 0.118474
Si Si7 0.489962 0.112275 0.923461
Si Si8 0.115004 0.995274 0.297874
O O1 0.266091 0.565257 0.835121
O O2 0.231342 0.396488 0.981881
O O3 0.595274 0.317066 0.885302
O O4 0.594635 0.338490 0.165108
O O5 0.421966 0.652742 0.539991
O O6 0.983130 0.830336 0.548838
O O7 0.814423 0.528491 0.410430
O O8 0.746899 0.730661 0.144205
O O9 0.157861 0.477331 0.259821
O O10 0.774235 0.396925 0.774749
O O11 0.985833 0.191995 0.752684
O O12 0.000537 0.022541 0.786660
O O13 0.364802 0.951432 0.861470
O O14 0.988712 0.857561 0.881554
O O15 0.617075 0.110643 0.724867
O O16 0.500000 0.000000 0.000000
O O17 0.000000 0.000000 0.500000
#
# Coordination Sequence:
#
# PCOD9086317 Si02
#       8
#     2   2   2   2   2   2   2   2
#     4  10  20  34  59  87 121 157 200 263 314 371
#     4  10  21  37  56  90 123 157 205 258 319 366
#     4  11  21  38  60  89 120 163 212 254 318 380
#     4  10  22  37  61  87 121 162 207 263 310 377
#     4  11  21  37  63  88 120 166 216 261 310 385
#     4  10  19  36  57  86 116 156 208 256 310 365
#     4  11  24  42  65  93 129 168 211 265 320 383
#     4  11  22  37  62  92 124 165 211 262 313 376
#
# _framework density 25.224694
#
# number of rings (size 3 to 8) (size 9 to 14) (size 15 to 20)
#    0.000    1.500    0.000    7.500    0.000    3.500 
#    0.000    0.625    0.000   10.500    0.000    0.000 
#    0.000    0.000    0.000    0.000    0.000    0.000 
#
# Total GULP energy -89097.880729 kJ/mol
# GULP energy per Si atom -5568.617546 kJ/mol
# Density = 2.516728 g / cm^3
# Si number density = 25.224694 Si / 1000 Ang^3
#
#
#
# Elastic Constant Matrix: (Units=GPa)
#
#
# Indices 1 2 3 4 5 6 
#
# 1 76.6829 13.0876 6.4164 -1.2206 7.3549 -1.9717
# 2 13.0876 52.0402 24.0656 -0.9392 8.4295 9.1680
# 3 6.4164 24.0656 123.3011 2.2585 8.6848 12.5946
# 4 -1.2206 -0.9392 2.2585 39.8147 7.9146 14.0887
# 5 7.3549 8.4295 8.6848 7.9146 41.1928 -10.1223
# 6 -1.9717 9.1680 12.5946 14.0887 -10.1223 31.0291
#
#
#
# Elastic Compliance Matrix: (Units=1/GPa)
#
#
# Indices 1 2 3 4 5 6 
#
# 1 0.013811 -0.003447 -0.000093 0.000130 -0.001419 0.001412
# 2 -0.003447 0.025010 -0.003034 0.006482 -0.008043 -0.011944
# 3 -0.000093 -0.003034 0.009328 0.001520 -0.002721 -0.004473
# 4 0.000130 0.006482 0.001520 0.036519 -0.014547 -0.023851
# 5 -0.001419 -0.008043 -0.002721 -0.014547 0.034789 0.021345
# 6 0.001412 -0.011944 -0.004473 -0.023851 0.021345 0.055455
#
#
# Mechanical properties :
#
#
# Convention : Reuss Voigt Hill
#
# Bulk Modulus (GPa) = 28.57024 37.68483 33.12753
# Shear Modulus (GPa) = 25.03425 36.30427 30.66926
#
# Velocity S-wave (km/s) = 3.15374 3.79784 3.49068
# Velocity P-wave (km/s) = 4.96108 5.84838 5.42291
#
# Compressibility (1/GPa) = 0.03500145
#
# Stress axis : x y z
#
# Youngs Moduli (GPa) = 72.40471 39.98414 107.20460
#
# Poissons Ratio (x) = 0.13783 0.00992
# Poissons Ratio (y) = 0.24959 0.32528
# Poissons Ratio (z) = 0.00670 0.12132
#
# Static dielectric constant tensor:
#      x y z
#    x 1.989560 -0.040160 0.001260 
#    y -0.040160 2.179930 0.140930 
#    z 0.001260 0.140930 2.134700 
# 
# From -- ./inp_files/217067.got.cif
#   From: 2010.05.17/outbox.cif.g08.bks.cpg/sg2_109_cif.got.tgz:217067.got - 2010.06.03 11:33:40.
