data_PCOD9086714
_publ_section_title
;
Structure prediction by ZEFSAII (Michael W. Deem and Ramdas Pophale) SiO2 
 PCOD9086714
Probable space group: P -1
;
_chemical_formula_sum "Si O2"
_cell_formula_units_Z 10
_cell_length_a 5.298776
_cell_length_b 9.721872
_cell_length_c 14.164052
_cell_angle_alpha 139.145144
_cell_angle_beta 63.693504
_cell_angle_gamma 124.606772
_cell_volume 392.721633
_symmetry_space_group_name_H-M "P -1"
_symmetry_group_IT_number 2
_symmetry_cell_setting 'triclinic'
loop_
_space_group_symop_operation_xyz
x,y,z
-x,-y,-z
loop_
_atom_site_type_symbol
_atom_site_label
_atom_site_fract_x
_atom_site_fract_y
_atom_site_fract_z
Si Si1 0.404313 0.029727 0.382270
Si Si2 0.099604 0.279104 0.431268
Si Si3 0.648912 0.448407 0.656471
Si Si4 0.292351 0.640099 0.087932
Si Si5 0.638766 0.872265 0.982258
O O1 0.772957 0.111081 0.353661
O O2 0.406379 0.182914 0.554312
O O3 0.249902 0.134798 0.386027
O O4 0.249297 0.757668 0.252943
O O5 0.979897 0.430178 0.598977
O O6 0.310685 0.433609 0.393375
O O7 0.577802 0.615871 0.824116
O O8 0.500000 0.500000 0.000000
O O9 0.484182 0.849902 0.097131
O O10 0.000000 0.500000 0.000000
O O11 0.500000 0.000000 0.000000
O O12 0.000000 0.000000 0.000000
#
# Coordination Sequence:
#
# PCOD9086714 Si02
#       5
#     2   2   2   2   2
#     4  10  19  36  60  83 118 171 210 246 312 389
#     4   9  18  31  61  90 124 153 210 257 329 362
#     4   9  21  33  61  90 125 158 211 264 313 376
#     4  12  26  46  65  93 137 180 210 261 338 396
#     4  12  26  42  69 103 131 163 222 279 319 371
#
# _framework density 25.463331
#
# number of rings (size 3 to 8) (size 9 to 14) (size 15 to 20)
#    1.200    0.400    0.000    5.400    2.800    0.000 
#    0.000    2.000    0.000    0.000    0.000    0.000 
#    0.000    0.000    0.000    0.000    0.000    0.000 
#
# Total GULP energy -55881.017270 kJ/mol
# GULP energy per Si atom -5588.101727 kJ/mol
# Density = 2.540538 g / cm^3
# Si number density = 25.463331 Si / 1000 Ang^3
#
#
#
# Elastic Constant Matrix: (Units=GPa)
#
#
# Indices 1 2 3 4 5 6 
#
# 1 195.1352 30.0853 45.5097 20.7197 10.4422 -18.8968
# 2 30.0853 74.5766 -0.9327 -8.9796 3.9217 -6.4471
# 3 45.5097 -0.9327 197.4119 29.0957 -5.5588 1.9277
# 4 20.7197 -8.9796 29.0957 35.6636 4.6726 -5.2881
# 5 10.4422 3.9217 -5.5588 4.6726 41.9062 14.4863
# 6 -18.8968 -6.4471 1.9277 -5.2881 14.4863 39.4987
#
#
#
# Elastic Compliance Matrix: (Units=1/GPa)
#
#
# Indices 1 2 3 4 5 6 
#
# 1 0.006533 -0.002557 -0.001230 -0.002633 -0.002397 0.003294
# 2 -0.002557 0.015656 -0.000420 0.006610 -0.002742 0.003243
# 3 -0.001230 -0.000420 0.006214 -0.005199 0.002659 -0.002631
# 4 -0.002633 0.006610 -0.005199 0.037639 -0.007577 0.007891
# 5 -0.002397 -0.002742 0.002659 -0.007577 0.030761 -0.014020
# 6 0.003294 0.003243 -0.002631 0.007891 -0.014020 0.033749
#
#
# Mechanical properties :
#
#
# Convention : Reuss Voigt Hill
#
# Bulk Modulus (GPa) = 50.02538 68.49427 59.25982
# Shear Modulus (GPa) = 34.33443 49.57778 41.95610
#
# Velocity S-wave (km/s) = 3.67602 4.41730 4.06360
# Velocity P-wave (km/s) = 6.14054 7.27834 6.73352
#
# Compressibility (1/GPa) = 0.01998985
#
# Stress axis : x y z
#
# Youngs Moduli (GPa) = 153.07982 63.87445 160.92876
#
# Poissons Ratio (x) = 0.16332 0.19787
# Poissons Ratio (y) = 0.39142 0.06753
# Poissons Ratio (z) = 0.18822 0.02680
#
# Static dielectric constant tensor:
#      x y z
#    x 1.926470 0.020100 0.040720 
#    y 0.020100 2.002800 0.014540 
#    z 0.040720 0.014540 2.119070 
# 
# From -- ./inp_files/25656.got.cif
#   From: 2010.05.17/outbox.cif.g08.bks.cpg/sg2_13_cif.got.tgz:25656.got - 2010.06.03 11:33:40.
