data_PCOD9086625
_publ_section_title
;
Structure prediction by ZEFSAII (Michael W. Deem and Ramdas Pophale) SiO2 
 PCOD9086625
Probable space group: P -1
;
_chemical_formula_sum "Si O2"
_cell_formula_units_Z 16
_cell_length_a 6.367376
_cell_length_b 16.185061
_cell_length_c 14.004595
_cell_angle_alpha 43.748551
_cell_angle_beta 76.086006
_cell_angle_gamma 96.321908
_cell_volume 877.856166
_symmetry_space_group_name_H-M "P -1"
_symmetry_group_IT_number 2
_symmetry_cell_setting 'triclinic'
loop_
_space_group_symop_operation_xyz
x,y,z
-x,-y,-z
loop_
_atom_site_type_symbol
_atom_site_label
_atom_site_fract_x
_atom_site_fract_y
_atom_site_fract_z
Si Si1 0.719908 0.080328 0.978414
Si Si2 0.162843 0.279855 0.476991
Si Si3 0.444300 0.627345 0.004393
Si Si4 0.080418 0.563040 0.708262
Si Si5 0.965410 0.956354 0.175377
Si Si6 0.423443 0.614206 0.801468
Si Si7 0.539166 0.510726 0.373471
Si Si8 0.574748 0.776448 0.048699
O O1 0.656145 0.194851 0.929395
O O2 0.954230 0.114923 0.859266
O O3 0.500000 0.000000 0.000000
O O4 0.750975 0.989013 0.133896
O O5 0.946563 0.315379 0.441240
O O6 0.091582 0.139448 0.649350
O O7 0.328008 0.298480 0.350818
O O8 0.324655 0.392210 0.440945
O O9 0.411373 0.659308 0.872340
O O10 0.579788 0.531327 0.069478
O O11 0.185788 0.543619 0.149998
O O12 0.579846 0.746219 0.961663
O O13 0.218328 0.605414 0.758377
O O14 0.226252 0.506459 0.672626
O O15 0.188604 0.095610 0.055125
O O16 0.500000 0.500000 0.500000
O O17 0.556256 0.649193 0.215743
#
# Coordination Sequence:
#
# PCOD9086625 Si02
#       8
#     2   2   2   2   2   2   2   2
#     4   9  22  38  58  79 112 157 202 227 278 339
#     4  10  22  39  57  84 117 154 190 237 289 344
#     4  10  19  36  59  87 116 150 187 245 286 345
#     4  10  19  37  58  85 115 154 191 226 299 343
#     4  10  23  39  59  80 115 160 194 232 282 347
#     4   9  19  36  59  86 118 144 192 239 295 342
#     4  11  25  35  56  89 124 146 189 244 283 336
#     4  11  22  38  56  90 115 152 194 237 280 342
#
# _framework density 18.226220999999999
#
# number of rings (size 3 to 8) (size 9 to 14) (size 15 to 20)
#    0.000    2.000    3.750    0.375    8.750    3.500 
#    0.000    0.625    0.000    1.500    0.000    0.000 
#    0.000    0.000    0.000    0.000    0.000    0.000 
#
# Total GULP energy -89257.249562 kJ/mol
# GULP energy per Si atom -5578.578098 kJ/mol
# Density = 1.818474 g / cm^3
# Si number density = 18.226221 Si / 1000 Ang^3
#
#
#
# Elastic Constant Matrix: (Units=GPa)
#
#
# Indices 1 2 3 4 5 6 
#
# 1 106.4420 33.0777 30.4642 -2.6049 27.2843 -4.6394
# 2 33.0777 93.6028 41.6732 16.4450 8.9758 5.3369
# 3 30.4642 41.6732 92.0196 4.5611 21.0059 2.2854
# 4 -2.6049 16.4450 4.5611 34.3795 4.1257 6.4790
# 5 27.2843 8.9758 21.0059 4.1257 20.1540 -1.6771
# 6 -4.6394 5.3369 2.2854 6.4790 -1.6771 20.2830
#
#
#
# Elastic Compliance Matrix: (Units=1/GPa)
#
#
# Indices 1 2 3 4 5 6 
#
# 1 0.016873 -0.005823 0.002106 0.006407 -0.023660 0.001151
# 2 -0.005823 0.016637 -0.007387 -0.008324 0.009759 -0.001411
# 3 0.002106 -0.007387 0.017730 0.004094 -0.019082 -0.002458
# 4 0.006407 -0.008324 0.004094 0.037032 -0.017653 -0.010094
# 5 -0.023660 0.009759 -0.019082 -0.017653 0.101488 0.008201
# 6 0.001151 -0.001411 -0.002458 -0.010094 0.008201 0.054117
#
#
# Mechanical properties :
#
#
# Convention : Reuss Voigt Hill
#
# Bulk Modulus (GPa) = 34.44441 55.83276 45.13858
# Shear Modulus (GPa) = 18.13164 27.41991 22.77577
#
# Velocity S-wave (km/s) = 3.15748 3.88289 3.53883
# Velocity P-wave (km/s) = 5.67734 7.12757 6.44339
#
# Compressibility (1/GPa) = 0.02903229
#
# Stress axis : x y z
#
# Youngs Moduli (GPa) = 59.26522 60.10727 56.40283
#
# Poissons Ratio (x) = 0.34998 -0.11876
# Poissons Ratio (y) = 0.34508 0.41664
# Poissons Ratio (z) = -0.12479 0.44400
#
# Static dielectric constant tensor:
#      x y z
#    x 1.658470 -0.001010 0.001150 
#    y -0.001010 1.635560 0.012870 
#    z 0.001150 0.012870 1.626190 
# 
# From -- ./inp_files/367464.got.cif
#   From: 2010.05.17/outbox.cif.g08.bks.cpg/sg2_184_cif.got.tgz:367464.got - 2010.06.03 11:33:40.
