data_PCOD9086798
_publ_section_title
;
Structure prediction by ZEFSAII (Michael W. Deem and Ramdas Pophale) SiO2 
 PCOD9086798
Probable space group: P -1
;
_chemical_formula_sum "Si O2"
_cell_formula_units_Z 16
_cell_length_a 15.708130
_cell_length_b 14.678756
_cell_length_c 9.361937
_cell_angle_alpha 34.261850
_cell_angle_beta 144.674823
_cell_angle_gamma 127.191461
_cell_volume 686.326834
_symmetry_space_group_name_H-M "P -1"
_symmetry_group_IT_number 2
_symmetry_cell_setting 'triclinic'
loop_
_space_group_symop_operation_xyz
x,y,z
-x,-y,-z
loop_
_atom_site_type_symbol
_atom_site_label
_atom_site_fract_x
_atom_site_fract_y
_atom_site_fract_z
Si Si1 0.376030 0.916378 0.858377
Si Si2 0.868026 0.687140 0.375209
Si Si3 0.043394 0.102224 0.205848
Si Si4 0.363483 0.837355 0.233994
Si Si5 0.900511 0.380115 0.447096
Si Si6 0.393419 0.038638 0.442109
Si Si7 0.323210 0.548223 0.728265
Si Si8 0.114841 0.161804 0.521071
O O1 0.215099 0.042454 0.468946
O O2 0.406282 0.887021 0.769186
O O3 0.360492 0.785513 0.131089
O O4 0.500000 0.000000 0.000000
O O5 0.771069 0.562677 0.342529
O O6 0.865600 0.695562 0.531042
O O7 0.035527 0.645888 0.591172
O O8 0.771258 0.867890 0.955780
O O9 0.048240 0.215628 0.205688
O O10 0.988256 0.943718 0.398065
O O11 0.951182 0.202227 0.823290
O O12 0.530356 0.835985 0.521875
O O13 0.285398 0.730708 0.370507
O O14 0.267887 0.025674 0.875599
O O15 0.731761 0.447269 0.187973
O O16 0.000000 0.500000 0.500000
O O17 0.500000 0.000000 0.500000
O O18 0.500000 0.500000 0.000000
#
# Coordination Sequence:
#
# PCOD9086798 Si02
#       8
#     2   2   2   2   2   2   2   2
#     4   9  20  34  57  88 117 155 193 245 298 357
#     4  11  22  38  58  91 124 155 204 250 299 353
#     4  10  19  38  60  83 118 156 200 239 305 359
#     4  10  19  36  60  88 117 156 201 241 298 362
#     4  10  22  38  60  88 122 162 200 242 304 367
#     4  11  19  33  58  93 121 151 196 252 297 346
#     4  11  22  39  63  88 121 163 201 245 303 366
#     4  10  21  36  62  88 115 154 198 252 295 354
#
# _framework density 23.312508999999999
#
# number of rings (size 3 to 8) (size 9 to 14) (size 15 to 20)
#    0.000    1.750    5.000    0.000    0.000    0.500 
#    2.250    2.500    0.000    0.750    0.000    0.000 
#    0.000    0.000    0.000    0.000    0.000    0.000 
#
# Total GULP energy -89215.199449 kJ/mol
# GULP energy per Si atom -5575.949966 kJ/mol
# Density = 2.325945 g / cm^3
# Si number density = 23.312509 Si / 1000 Ang^3
#
#
#
# Elastic Constant Matrix: (Units=GPa)
#
#
# Indices 1 2 3 4 5 6 
#
# 1 150.3616 17.9321 12.5635 8.2060 15.7314 -8.8372
# 2 17.9321 35.6980 1.2395 5.4367 0.5403 -10.7190
# 3 12.5635 1.2395 32.8523 8.7040 18.9954 -0.7162
# 4 8.2060 5.4367 8.7040 22.1496 4.8684 -2.7358
# 5 15.7314 0.5403 18.9954 4.8684 42.3049 9.0359
# 6 -8.8372 -10.7190 -0.7162 -2.7358 9.0359 34.4440
#
#
#
# Elastic Compliance Matrix: (Units=1/GPa)
#
#
# Indices 1 2 3 4 5 6 
#
# 1 0.007508 -0.003106 -0.001037 -0.000871 -0.002513 0.001528
# 2 -0.003106 0.033399 0.002997 -0.006614 -0.001914 0.009636
# 3 -0.001037 0.002997 0.045926 -0.013288 -0.019985 0.005809
# 4 -0.000871 -0.006614 -0.013288 0.052518 -0.000014 0.001617
# 5 -0.002513 -0.001914 -0.019985 -0.000014 0.035940 -0.011085
# 6 0.001528 0.009636 0.005809 0.001617 -0.011085 0.035581
#
#
# Mechanical properties :
#
#
# Convention : Reuss Voigt Hill
#
# Bulk Modulus (GPa) = 11.82879 31.37580 21.60230
# Shear Modulus (GPa) = 20.71738 32.25816 26.48777
#
# Velocity S-wave (km/s) = 2.98431 3.72388 3.37442
# Velocity P-wave (km/s) = 4.11823 5.65489 4.94659
#
# Compressibility (1/GPa) = 0.08453951
#
# Stress axis : x y z
#
# Youngs Moduli (GPa) = 133.19243 29.94137 21.77433
#
# Poissons Ratio (x) = 0.09300 0.02258
# Poissons Ratio (y) = 0.41369 -0.06525
# Poissons Ratio (z) = 0.13815 -0.08973
#
# Static dielectric constant tensor:
#      x y z
#    x 1.956960 0.008690 -0.009880 
#    y 0.008690 1.930700 -0.017950 
#    z -0.009880 -0.017950 1.975830 
# 
# From -- ./inp_files/312452.got.cif
#   From: 2010.05.17/outbox.cif.g08.bks.cpg/sg2_157_cif.got.tgz:312452.got - 2010.06.03 11:33:40.
