data_PCOD9086542
_publ_section_title
;
Structure prediction by ZEFSAII (Michael W. Deem and Ramdas Pophale) SiO2 
 PCOD9086542
Probable space group: P -1
;
_chemical_formula_sum "Si O2"
_cell_formula_units_Z 16
_cell_length_a 8.812876
_cell_length_b 8.880715
_cell_length_c 16.535655
_cell_angle_alpha 59.246194
_cell_angle_beta 130.488070
_cell_angle_gamma 92.335717
_cell_volume 757.214848
_symmetry_space_group_name_H-M "P -1"
_symmetry_group_IT_number 2
_symmetry_cell_setting 'triclinic'
loop_
_space_group_symop_operation_xyz
x,y,z
-x,-y,-z
loop_
_atom_site_type_symbol
_atom_site_label
_atom_site_fract_x
_atom_site_fract_y
_atom_site_fract_z
Si Si1 0.583516 0.632221 0.741212
Si Si2 0.460207 0.999103 0.702810
Si Si3 0.148572 0.249834 0.839212
Si Si4 0.709920 0.989574 0.523943
Si Si5 0.259966 0.685888 0.996028
Si Si6 0.395634 0.975973 0.865428
Si Si7 0.109636 0.959218 0.137692
Si Si8 0.008871 0.602834 0.802357
O O1 0.800398 0.576585 0.775484
O O2 0.594890 0.781877 0.771505
O O3 0.356469 0.781158 0.575735
O O4 0.591701 0.448752 0.842909
O O5 0.297232 0.096056 0.544106
O O6 0.350067 0.988835 0.751551
O O7 0.634571 0.084352 0.757820
O O8 0.098889 0.461579 0.795942
O O9 0.248151 0.178208 0.804914
O O10 0.342856 0.093714 0.007746
O O11 0.935932 0.210074 0.790561
O O12 0.922430 0.830932 0.686259
O O13 0.500000 0.000000 0.500000
O O14 0.356765 0.808618 0.944849
O O15 0.033493 0.844941 0.914362
O O16 0.196083 0.557775 0.946712
O O17 0.000000 0.000000 0.000000
#
# Coordination Sequence:
#
# PCOD9086542 Si02
#       8
#     2   2   2   2   2   2   2   2
#     4   9  19  32  59  88 111 138 185 242 283 318
#     4  10  19  36  59  80 118 148 184 229 293 328
#     4  10  22  35  55  80 121 148 189 226 284 333
#     4   8  18  36  57  84 118 142 180 242 292 317
#     4  11  21  33  60  86 114 146 191 228 286 336
#     4  10  22  38  50  85 122 155 173 234 287 337
#     4  11  19  32  56  88 110 145 187 237 277 331
#     4  11  19  37  60  87 108 147 195 238 272 333
#
# _framework density 21.130068999999999
#
# number of rings (size 3 to 8) (size 9 to 14) (size 15 to 20)
#    0.750    1.250    2.500    1.875    0.000    2.000 
#    0.000    1.875    0.000    3.000    0.000    0.000 
#    0.000    0.000    0.000    0.000    0.000    0.000 
#
# Total GULP energy -89161.352810 kJ/mol
# GULP energy per Si atom -5572.584551 kJ/mol
# Density = 2.108198 g / cm^3
# Si number density = 21.130069 Si / 1000 Ang^3
#
#
#
# Elastic Constant Matrix: (Units=GPa)
#
#
# Indices 1 2 3 4 5 6 
#
# 1 80.3815 17.2149 19.3337 -4.8291 -15.1452 -14.4293
# 2 17.2149 49.8827 -3.0769 -13.3206 0.9540 -17.3341
# 3 19.3337 -3.0769 66.4274 -10.1465 -20.7746 -2.5879
# 4 -4.8291 -13.3206 -10.1465 24.8182 -4.6742 -3.2880
# 5 -15.1452 0.9540 -20.7746 -4.6742 23.6887 5.6975
# 6 -14.4293 -17.3341 -2.5879 -3.2880 5.6975 33.1449
#
#
#
# Elastic Compliance Matrix: (Units=1/GPa)
#
#
# Indices 1 2 3 4 5 6 
#
# 1 0.016093 -0.003921 -0.001659 0.002446 0.008612 0.003588
# 2 -0.003921 0.035129 0.008505 0.024826 0.003834 0.019133
# 3 -0.001659 0.008505 0.027295 0.020719 0.025785 0.003480
# 4 0.002446 0.024826 0.020719 0.070252 0.028323 0.017767
# 5 0.008612 0.003834 0.025785 0.028323 0.076381 -0.002553
# 6 0.003588 0.019133 0.003480 0.017767 -0.002553 0.044212
#
#
# Mechanical properties :
#
#
# Convention : Reuss Voigt Hill
#
# Bulk Modulus (GPa) = 11.85279 29.29276 20.57278
# Shear Modulus (GPa) = 17.14470 27.21168 22.17819
#
# Velocity S-wave (km/s) = 2.85158 3.59251 3.24327
# Velocity P-wave (km/s) = 4.05754 5.57686 4.87673
#
# Compressibility (1/GPa) = 0.08436831
#
# Stress axis : x y z
#
# Youngs Moduli (GPa) = 62.13871 28.46612 36.63652
#
# Poissons Ratio (x) = 0.11161 0.06077
# Poissons Ratio (y) = 0.24363 -0.31159
# Poissons Ratio (z) = 0.10307 -0.24210
#
# Static dielectric constant tensor:
#      x y z
#    x 1.791970 0.015420 -0.008520 
#    y 0.015420 1.772680 -0.002280 
#    z -0.008520 -0.002280 1.766920 
# 
# From -- ./inp_files/514036.got.cif
#   From: 2010.05.17/outbox.cif.g08.bks.cpg/sg2_258_cif.got.tgz:514036.got - 2010.06.03 11:33:40.
