data_PCOD9086154
_publ_section_title
;
Structure prediction by ZEFSAII (Michael W. Deem and Ramdas Pophale) SiO2 
 PCOD9086154
Probable space group: P -1
;
_chemical_formula_sum "Si O2"
_cell_formula_units_Z 16
_cell_length_a 6.312890
_cell_length_b 15.185422
_cell_length_c 7.538429
_cell_angle_alpha 92.138280
_cell_angle_beta 56.252673
_cell_angle_gamma 91.462131
_cell_volume 600.462837
_symmetry_space_group_name_H-M "P -1"
_symmetry_group_IT_number 2
_symmetry_cell_setting 'triclinic'
loop_
_space_group_symop_operation_xyz
x,y,z
-x,-y,-z
loop_
_atom_site_type_symbol
_atom_site_label
_atom_site_fract_x
_atom_site_fract_y
_atom_site_fract_z
Si Si1 0.344743 0.121170 0.193108
Si Si2 0.749658 0.639152 0.086298
Si Si3 0.595082 0.948758 0.236264
Si Si4 0.812780 0.287707 0.646056
Si Si5 0.183818 0.782112 0.995368
Si Si6 0.816825 0.393788 0.343018
Si Si7 0.281654 0.419634 0.506569
Si Si8 0.826102 0.094760 0.318702
O O1 0.506551 0.208557 0.165093
O O2 0.045463 0.124075 0.352829
O O3 0.444878 0.037343 0.250340
O O4 0.371083 0.099285 0.969154
O O5 0.974554 0.710403 0.029300
O O6 0.900076 0.588380 0.860043
O O7 0.471647 0.675216 0.168641
O O8 0.724589 0.586853 0.276025
O O9 0.430130 0.892276 0.447185
O O10 0.820485 0.991656 0.253837
O O11 0.792271 0.298088 0.442534
O O12 0.059007 0.352647 0.553450
O O13 0.855158 0.214762 0.773286
O O14 0.128083 0.858262 0.886015
O O15 0.574096 0.395265 0.321705
O O16 0.766775 0.477959 0.499529
#
# Coordination Sequence:
#
# PCOD9086154 Si02
#       8
#     2   2   2   2   2   2   2   2
#     4  10  19  36  57  78 108 140 175 221 271 317
#     4  10  21  37  55  79 111 145 182 225 272 324
#     4   9  20  34  56  85 103 133 179 221 270 319
#     4  10  21  37  54  78 111 144 183 224 269 325
#     4  10  22  37  52  77 112 146 181 221 263 320
#     4  10  20  36  59  82 108 142 181 227 278 325
#     4   9  20  37  57  84 110 136 179 233 278 323
#     4  10  19  36  56  78 110 139 175 223 267 317
#
# _framework density 26.64611
#
# number of rings (size 3 to 8) (size 9 to 14) (size 15 to 20)
#    0.000    2.250    0.000    2.250    0.000    3.500 
#    0.000    5.000    0.000    0.000    0.000    0.000 
#    0.000    0.000    0.000    0.000    0.000    0.000 
#
# Total GULP energy -89105.114829 kJ/mol
# GULP energy per Si atom -5569.069677 kJ/mol
# Density = 2.658546 g / cm^3
# Si number density = 26.646110 Si / 1000 Ang^3
#
#
#
# Elastic Constant Matrix: (Units=GPa)
#
#
# Indices 1 2 3 4 5 6 
#
# 1 122.0748 22.9980 19.8465 -6.9458 -26.4457 11.7770
# 2 22.9980 59.7605 18.0125 -28.7465 -1.6777 1.0450
# 3 19.8465 18.0125 104.3970 -8.2117 -5.2699 -9.2512
# 4 -6.9458 -28.7465 -8.2117 43.1805 6.6458 -5.2209
# 5 -26.4457 -1.6777 -5.2699 6.6458 54.6368 -19.0332
# 6 11.7770 1.0450 -9.2512 -5.2209 -19.0332 43.3816
#
#
#
# Elastic Compliance Matrix: (Units=1/GPa)
#
#
# Indices 1 2 3 4 5 6 
#
# 1 0.010227 -0.004631 -0.001221 -0.002522 0.004571 -0.001223
# 2 -0.004631 0.027806 -0.002640 0.017892 -0.003612 0.000593
# 3 -0.001221 -0.002640 0.010659 0.000249 0.001494 0.003353
# 4 -0.002522 0.017892 0.000249 0.035670 -0.003994 0.002847
# 5 0.004571 -0.003612 0.001494 -0.003994 0.024288 0.009340
# 6 -0.001223 0.000593 0.003353 0.002847 0.009340 0.028525
#
#
# Mechanical properties :
#
#
# Convention : Reuss Voigt Hill
#
# Bulk Modulus (GPa) = 31.53759 45.32737 38.43248
# Shear Modulus (GPa) = 30.35298 43.26479 36.80888
#
# Velocity S-wave (km/s) = 3.37874 4.03386 3.72075
# Velocity P-wave (km/s) = 5.20409 6.22446 5.73701
#
# Compressibility (1/GPa) = 0.03170819
#
# Stress axis : x y z
#
# Youngs Moduli (GPa) = 97.77585 35.96335 93.82122
#
# Poissons Ratio (x) = 0.16655 0.11458
# Poissons Ratio (y) = 0.45280 0.24766
# Poissons Ratio (z) = 0.11941 0.09493
#
# Static dielectric constant tensor:
#      x y z
#    x 2.212640 0.003150 -0.002350 
#    y 0.003150 2.165540 0.143720 
#    z -0.002350 0.143720 2.187610 
# 
# From -- ./inp_files/49723.got.cif
#   From: 2010.05.17/outbox.cif.g08.bks.cpg/sg2_25_cif.got.tgz:49723.got - 2010.06.03 11:33:40.
