data_PCOD9086032
_publ_section_title
;
Structure prediction by ZEFSAII (Michael W. Deem and Ramdas Pophale) SiO2 
 PCOD9086032
Probable space group: P -1
;
_chemical_formula_sum "Si O2"
_cell_formula_units_Z 14
_cell_length_a 15.981589
_cell_length_b 10.032240
_cell_length_c 15.405641
_cell_angle_alpha 33.958626
_cell_angle_beta 146.669630
_cell_angle_gamma 152.633774
_cell_volume 585.295899
_symmetry_space_group_name_H-M "P -1"
_symmetry_group_IT_number 2
_symmetry_cell_setting 'triclinic'
loop_
_space_group_symop_operation_xyz
x,y,z
-x,-y,-z
loop_
_atom_site_type_symbol
_atom_site_label
_atom_site_fract_x
_atom_site_fract_y
_atom_site_fract_z
Si Si1 0.480728 0.219449 0.304541
Si Si2 0.540681 0.175203 0.852636
Si Si3 0.367900 0.917038 0.187441
Si Si4 0.109765 0.305987 0.546300
Si Si5 0.250769 0.313615 0.476869
Si Si6 0.950666 0.216243 0.777687
Si Si7 0.035907 0.248565 0.032149
O O1 0.680255 0.562976 0.305225
O O2 0.500000 0.000000 0.500000
O O3 0.463856 0.140595 0.231784
O O4 0.270604 0.101354 0.219309
O O5 0.532628 0.971267 0.879305
O O6 0.383038 0.226455 0.670635
O O7 0.760881 0.502753 0.876535
O O8 0.500000 0.000000 0.000000
O O9 0.376208 0.642797 0.363233
O O10 0.141569 0.776634 0.067225
O O11 0.148691 0.336749 0.459377
O O12 0.063688 0.533128 0.408142
O O13 0.923483 0.955260 0.590000
O O14 0.050363 0.334726 0.895162
O O15 0.028316 0.093601 0.846040
#
# Coordination Sequence:
#
# PCOD9086032 Si02
#       7
#     2   2   2   2   2   2   2
#     4   9  16  34  65  97 131 172 213 267 328 388
#     4  12  27  42  66  98 138 177 225 275 334 386
#     4  11  23  44  69 103 130 174 230 270 326 403
#     4  10  19  35  68  99 135 169 217 269 336 387
#     4  11  22  40  68 100 134 170 223 276 325 396
#     4   9  17  34  64  98 129 175 220 257 331 404
#     4  10  20  38  67  95 133 175 217 269 333 395
#
# _framework density 23.919523999999999
#
# number of rings (size 3 to 8) (size 9 to 14) (size 15 to 20)
#    0.000    1.714    4.286    2.571    4.000    0.000 
#    0.000    0.714    6.286    9.429    0.000    0.000 
#    0.000    0.000    0.000    0.000    0.000    0.000 
#
# Total GULP energy -78302.092484 kJ/mol
# GULP energy per Si atom -5593.006606 kJ/mol
# Density = 2.386508 g / cm^3
# Si number density = 23.919524 Si / 1000 Ang^3
#
#
#
# Elastic Constant Matrix: (Units=GPa)
#
#
# Indices 1 2 3 4 5 6 
#
# 1 88.8305 -4.9988 34.2870 -8.1156 1.8539 -13.2782
# 2 -4.9988 97.7787 17.8285 25.5092 1.4816 -6.1596
# 3 34.2870 17.8285 60.6260 4.9692 21.7759 3.4047
# 4 -8.1156 25.5092 4.9692 30.4923 -1.9219 2.4706
# 5 1.8539 1.4816 21.7759 -1.9219 33.1124 -2.9770
# 6 -13.2782 -6.1596 3.4047 2.4706 -2.9770 20.1617
#
#
#
# Elastic Compliance Matrix: (Units=1/GPa)
#
#
# Indices 1 2 3 4 5 6 
#
# 1 0.023401 0.005142 -0.021790 0.004618 0.015064 0.022321
# 2 0.005142 0.015680 -0.009297 -0.010847 0.005565 0.011898
# 3 -0.021790 -0.009297 0.044510 -0.004879 -0.030491 -0.028612
# 4 0.004618 -0.010847 -0.004879 0.044581 0.005656 -0.004076
# 5 0.015064 0.005565 -0.030491 0.005656 0.051619 0.023699
# 6 0.022321 0.011898 -0.028612 -0.004076 0.023699 0.076765
#
#
# Mechanical properties :
#
#
# Convention : Reuss Voigt Hill
#
# Bulk Modulus (GPa) = 31.54290 37.94095 34.74192
# Shear Modulus (GPa) = 15.67333 30.09451 22.88392
#
# Velocity S-wave (km/s) = 2.56257 3.55090 3.09642
# Velocity P-wave (km/s) = 4.68736 5.71911 5.22875
#
# Compressibility (1/GPa) = 0.03170286
#
# Stress axis : x y z
#
# Youngs Moduli (GPa) = 42.73290 63.77349 22.46667
#
# Poissons Ratio (x) = -0.32795 0.48954
# Poissons Ratio (y) = -0.21975 0.20888
# Poissons Ratio (z) = 0.93113 0.59293
#
# Static dielectric constant tensor:
#      x y z
#    x 1.934360 0.029500 -0.027360 
#    y 0.029500 1.951470 -0.017160 
#    z -0.027360 -0.017160 1.929570 
# 
# From -- ./inp_files/529314.got.cif
#   From: 2010.05.17/outbox.cif.g08.bks.cpg/sg2_265_cif.got.tgz:529314.got - 2010.06.03 11:33:40.
