data_PCOD9086511
_publ_section_title
;
Structure prediction by ZEFSAII (Michael W. Deem and Ramdas Pophale) SiO2 
 PCOD9086511
Probable space group: P -1
;
_chemical_formula_sum "Si O2"
_cell_formula_units_Z 12
_cell_length_a 7.251497
_cell_length_b 19.035706
_cell_length_c 9.062797
_cell_angle_alpha 42.885036
_cell_angle_beta 126.496845
_cell_angle_gamma 148.372243
_cell_volume 444.956227
_symmetry_space_group_name_H-M "P -1"
_symmetry_group_IT_number 2
_symmetry_cell_setting 'triclinic'
loop_
_space_group_symop_operation_xyz
x,y,z
-x,-y,-z
loop_
_atom_site_type_symbol
_atom_site_label
_atom_site_fract_x
_atom_site_fract_y
_atom_site_fract_z
Si Si1 0.493170 0.256387 0.901908
Si Si2 0.248193 0.948126 0.300650
Si Si3 0.293403 0.487726 0.552529
Si Si4 0.354633 0.087976 0.624422
Si Si5 0.125665 0.238489 0.999589
Si Si6 0.750440 0.730718 0.647368
O O1 0.770089 0.419116 0.687773
O O2 0.493569 0.133076 0.108371
O O3 0.451339 0.294319 0.984905
O O4 0.122761 0.153423 0.801515
O O5 0.609311 0.108480 0.613448
O O6 0.117799 0.884485 0.503431
O O7 0.500000 0.500000 0.500000
O O8 0.553750 0.587449 0.663797
O O9 0.028141 0.310464 0.760206
O O10 0.470896 0.238564 0.503460
O O11 0.000000 0.000000 0.500000
O O12 0.187015 0.951883 0.870569
O O13 0.202412 0.284239 0.137744
#
# Coordination Sequence:
#
# PCOD9086511 Si02
#       6
#     2   2   2   2   2   2
#     4   9  19  37  60  89 122 163 198 245 302 356
#     4  10  20  38  62  89 125 157 200 251 302 354
#     4   9  19  37  63  84 122 163 199 248 299 363
#     4  10  22  37  61  95 121 155 201 255 301 357
#     4  10  19  36  58  92 121 158 201 246 302 359
#     4  10  20  38  63  88 119 159 204 251 300 354
#
# _framework density 26.968945999999999
#
# number of rings (size 3 to 8) (size 9 to 14) (size 15 to 20)
#    0.000    2.333    1.667    0.500    0.000    3.333 
#    0.000    0.833   14.667   17.000    0.000    0.000 
#    0.000    0.000    0.000    0.000    0.000    0.000 
#
# Total GULP energy -67139.429317 kJ/mol
# GULP energy per Si atom -5594.952443 kJ/mol
# Density = 2.690756 g / cm^3
# Si number density = 26.968946 Si / 1000 Ang^3
#
#
#
# Elastic Constant Matrix: (Units=GPa)
#
#
# Indices 1 2 3 4 5 6 
#
# 1 155.4348 30.0456 65.2927 11.5958 21.4154 -23.6490
# 2 30.0456 94.6646 41.9243 11.2613 -4.2244 -34.5321
# 3 65.2927 41.9243 228.1374 -10.0893 1.8787 -13.6786
# 4 11.5958 11.2613 -10.0893 51.8711 -11.8362 -6.4067
# 5 21.4154 -4.2244 1.8787 -11.8362 40.5046 6.9198
# 6 -23.6490 -34.5321 -13.6786 -6.4067 6.9198 40.8453
#
#
#
# Elastic Compliance Matrix: (Units=1/GPa)
#
#
# Indices 1 2 3 4 5 6 
#
# 1 0.009489 0.000202 -0.002528 -0.003548 -0.006841 0.005421
# 2 0.000202 0.016661 -0.002444 -0.002814 -0.001328 0.013168
# 3 -0.002528 -0.002444 0.005551 0.002387 0.001796 -0.001601
# 4 -0.003548 -0.002814 0.002387 0.022885 0.008410 -0.001470
# 5 -0.006841 -0.001328 0.001796 0.008410 0.032008 -0.008586
# 6 0.005421 0.013168 -0.001601 -0.001470 -0.008586 0.039442
#
#
# Mechanical properties :
#
#
# Convention : Reuss Voigt Hill
#
# Bulk Modulus (GPa) = 45.12506 83.64024 64.38265
# Shear Modulus (GPa) = 34.97459 49.37580 42.17520
#
# Velocity S-wave (km/s) = 3.60508 4.28347 3.95884
# Velocity P-wave (km/s) = 5.83930 7.45285 6.69486
#
# Compressibility (1/GPa) = 0.02216064
#
# Stress axis : x y z
#
# Youngs Moduli (GPa) = 105.38987 60.02213 180.15333
#
# Poissons Ratio (x) = -0.01214 0.45550
# Poissons Ratio (y) = -0.02132 0.44022
# Poissons Ratio (z) = 0.26647 0.14667
#
# Static dielectric constant tensor:
#      x y z
#    x 2.111960 0.046770 -0.014870 
#    y 0.046770 2.235830 -0.040440 
#    z -0.014870 -0.040440 2.190080 
# 
# From -- ./inp_files/247681.got.cif
#   From: 2010.05.17/outbox.cif.g08.bks.cpg/sg2_124_cif.got.tgz:247681.got - 2010.06.03 11:33:40.
