data_PCOD9086484
_publ_section_title
;
Structure prediction by ZEFSAII (Michael W. Deem and Ramdas Pophale) SiO2 
 PCOD9086484
Probable space group: P -1
;
_chemical_formula_sum "Si O2"
_cell_formula_units_Z 16
_cell_length_a 8.166223
_cell_length_b 12.179091
_cell_length_c 17.551576
_cell_angle_alpha 147.691375
_cell_angle_beta 116.891779
_cell_angle_gamma 83.971494
_cell_volume 676.876916
_symmetry_space_group_name_H-M "P -1"
_symmetry_group_IT_number 2
_symmetry_cell_setting 'triclinic'
loop_
_space_group_symop_operation_xyz
x,y,z
-x,-y,-z
loop_
_atom_site_type_symbol
_atom_site_label
_atom_site_fract_x
_atom_site_fract_y
_atom_site_fract_z
Si Si1 0.414862 0.214185 0.050219
Si Si2 0.555066 0.476007 0.084015
Si Si3 0.134585 0.359128 0.534282
Si Si4 0.267791 0.014903 0.312016
Si Si5 0.303766 0.758977 0.685929
Si Si6 0.783966 0.194753 0.980360
Si Si7 0.618241 0.258583 0.720684
Si Si8 0.258880 0.481420 0.258369
O O1 0.375069 0.264902 0.983955
O O2 0.684425 0.431914 0.245220
O O3 0.319866 0.284854 0.140815
O O4 0.308631 0.921362 0.853811
O O5 0.568588 0.708714 0.263996
O O6 0.500000 0.500000 0.000000
O O7 0.728942 0.398789 0.069723
O O8 0.150808 0.122774 0.397640
O O9 0.227058 0.494854 0.550416
O O10 0.882987 0.285407 0.439599
O O11 0.532206 0.259812 0.509482
O O12 0.180610 0.924451 0.156192
O O13 0.249608 0.779716 0.209508
O O14 0.558177 0.950909 0.824855
O O15 0.015646 0.343207 0.162742
O O16 0.753700 0.449260 0.791963
O O17 0.500000 0.000000 0.500000
#
# Coordination Sequence:
#
# PCOD9086484 Si02
#       8
#     2   2   2   2   2   2   2   2
#     4   9  19  38  63  83 119 157 203 244 299 365
#     4  10  19  36  58  88 125 157 197 247 295 356
#     4  10  21  40  62  85 111 160 209 252 296 368
#     4  10  20  37  58  82 119 154 202 240 296 358
#     4  10  22  38  60  87 117 151 204 260 309 349
#     4  11  22  36  57  86 123 156 190 254 306 347
#     4   9  18  37  59  82 119 165 201 238 290 362
#     4   9  20  37  57  88 117 158 202 236 295 372
#
# _framework density 23.637976999999999
#
# number of rings (size 3 to 8) (size 9 to 14) (size 15 to 20)
#    0.000    2.250    1.250    1.875    0.000    3.000 
#    4.500    5.000    0.000    0.000    0.000    0.000 
#    0.000    0.000    0.000    0.000    0.000    0.000 
#
# Total GULP energy -89075.688299 kJ/mol
# GULP energy per Si atom -5567.230519 kJ/mol
# Density = 2.358418 g / cm^3
# Si number density = 23.637977 Si / 1000 Ang^3
#
#
#
# Elastic Constant Matrix: (Units=GPa)
#
#
# Indices 1 2 3 4 5 6 
#
# 1 63.1017 2.6694 40.8046 -2.2122 5.5595 0.1119
# 2 2.6694 41.8465 6.3491 -9.5214 -3.4044 -6.4370
# 3 40.8046 6.3491 108.3550 -8.7272 10.4373 2.8235
# 4 -2.2122 -9.5214 -8.7272 17.1503 -12.0107 -0.8629
# 5 5.5595 -3.4044 10.4373 -12.0107 52.8867 3.1084
# 6 0.1119 -6.4370 2.8235 -0.8629 3.1084 15.5204
#
#
#
# Elastic Compliance Matrix: (Units=1/GPa)
#
#
# Indices 1 2 3 4 5 6 
#
# 1 0.021080 -0.000650 -0.008011 -0.002594 -0.001334 0.001159
# 2 -0.000650 0.031725 -0.000788 0.022398 0.006575 0.013234
# 3 -0.008011 -0.000788 0.012769 0.004513 -0.000573 -0.002227
# 4 -0.002594 0.022398 0.004513 0.087243 0.020089 0.009314
# 5 -0.001334 0.006575 -0.000573 0.020089 0.024199 -0.000889
# 6 0.001159 0.013234 -0.002227 0.009314 -0.000889 0.071013
#
#
# Mechanical properties :
#
#
# Convention : Reuss Voigt Hill
#
# Bulk Modulus (GPa) = 21.42463 34.77215 28.09839
# Shear Modulus (GPa) = 17.70007 28.01013 22.85510
#
# Velocity S-wave (km/s) = 2.73939 3.44606 3.11284
# Velocity P-wave (km/s) = 4.36909 5.52956 4.98322
#
# Compressibility (1/GPa) = 0.04667525
#
# Stress axis : x y z
#
# Youngs Moduli (GPa) = 47.43919 31.52090 78.31742
#
# Poissons Ratio (x) = 0.02048 0.62738
# Poissons Ratio (y) = 0.03082 0.06175
# Poissons Ratio (z) = 0.38002 0.02485
#
# Static dielectric constant tensor:
#      x y z
#    x 2.005410 -0.100930 0.039660 
#    y -0.100930 2.125970 -0.023390 
#    z 0.039660 -0.023390 1.900860 
# 
# From -- ./inp_files/590103.got.cif
#   From: 2010.05.17/outbox.cif.g08.bks.cpg/sg2_296_cif.got.tgz:590103.got - 2010.06.03 11:33:40.
