data_PCOD9086724
_publ_section_title
;
Structure prediction by ZEFSAII (Michael W. Deem and Ramdas Pophale) SiO2 
 PCOD9086724
Probable space group: P -1
;
_chemical_formula_sum "Si O2"
_cell_formula_units_Z 16
_cell_length_a 18.200610
_cell_length_b 8.766535
_cell_length_c 9.347466
_cell_angle_alpha 93.859763
_cell_angle_beta 122.247501
_cell_angle_gamma 45.873877
_cell_volume 783.581649
_symmetry_space_group_name_H-M "P -1"
_symmetry_group_IT_number 2
_symmetry_cell_setting 'triclinic'
loop_
_space_group_symop_operation_xyz
x,y,z
-x,-y,-z
loop_
_atom_site_type_symbol
_atom_site_label
_atom_site_fract_x
_atom_site_fract_y
_atom_site_fract_z
Si Si1 0.260900 0.677768 0.739911
Si Si2 0.518949 0.901013 0.359354
Si Si3 0.432830 0.516281 0.639028
Si Si4 0.857047 0.631472 0.289250
Si Si5 0.871047 0.901967 0.156442
Si Si6 0.302324 0.684393 0.218281
Si Si7 0.708379 0.583761 0.991515
Si Si8 0.811577 0.520850 0.502598
O O1 0.365128 0.616733 0.732701
O O2 0.178933 0.664902 0.560854
O O3 0.165132 0.925041 0.745671
O O4 0.331501 0.473114 0.921483
O O5 0.498746 0.746340 0.322223
O O6 0.680843 0.703119 0.479898
O O7 0.500000 0.000000 0.500000
O O8 0.415221 0.130183 0.157969
O O9 0.318428 0.681021 0.403852
O O10 0.548957 0.479408 0.712782
O O11 0.806377 0.835767 0.147504
O O12 0.774901 0.689801 0.347653
O O13 0.000000 0.500000 0.500000
O O14 0.845168 0.493004 0.174105
O O15 0.035803 0.651709 0.292555
O O16 0.804710 0.054306 0.952082
O O17 0.265243 0.564151 0.124014
#
# Coordination Sequence:
#
# PCOD9086724 Si02
#       8
#     2   2   2   2   2   2   2   2
#     4   9  20  35  60  87 114 152 195 246 297 346
#     4  11  21  37  60  86 121 158 195 246 294 347
#     4  10  21  38  55  89 121 157 197 243 299 343
#     4   9  19  36  60  89 119 148 193 247 293 346
#     4  10  19  36  60  84 119 154 195 243 294 354
#     4  10  21  36  59  86 123 156 199 242 292 356
#     4  10  20  36  61  90 112 156 199 242 294 350
#     4   9  20  36  58  86 119 150 197 241 294 347
#
# _framework density 20.419059000000001
#
# number of rings (size 3 to 8) (size 9 to 14) (size 15 to 20)
#    0.000    2.250    1.250    1.125    0.000    9.500 
#    0.000    2.500    8.250    2.250    0.000    0.000 
#    0.000    0.000    0.000    0.000    0.000    0.000 
#
# Total GULP energy -89161.399404 kJ/mol
# GULP energy per Si atom -5572.587463 kJ/mol
# Density = 2.037258 g / cm^3
# Si number density = 20.419059 Si / 1000 Ang^3
#
#
#
# Elastic Constant Matrix: (Units=GPa)
#
#
# Indices 1 2 3 4 5 6 
#
# 1 75.3782 27.5471 22.6464 7.4672 1.7640 10.5388
# 2 27.5471 46.4664 20.5791 1.1975 3.9909 9.5976
# 3 22.6464 20.5791 94.0678 -4.1468 -0.1653 3.4543
# 4 7.4672 1.1975 -4.1468 25.0275 8.8473 -7.0980
# 5 1.7640 3.9909 -0.1653 8.8473 24.2837 -5.6334
# 6 10.5388 9.5976 3.4543 -7.0980 -5.6334 18.9930
#
#
#
# Elastic Compliance Matrix: (Units=1/GPa)
#
#
# Indices 1 2 3 4 5 6 
#
# 1 0.019197 -0.008100 -0.002902 -0.008729 0.001011 -0.008994
# 2 -0.008100 0.031748 -0.004566 -0.001022 -0.007370 -0.013286
# 3 -0.002902 -0.004566 0.012383 0.003926 0.000367 0.003242
# 4 -0.008729 -0.001022 0.003926 0.054106 -0.014084 0.020689
# 5 0.001011 -0.007370 0.000367 -0.014084 0.050418 0.012787
# 6 -0.008994 -0.013286 0.003242 0.020689 0.012787 0.075290
#
#
# Mechanical properties :
#
#
# Convention : Reuss Voigt Hill
#
# Bulk Modulus (GPa) = 31.06278 39.71750 35.39014
# Shear Modulus (GPa) = 17.54333 23.33683 20.44008
#
# Velocity S-wave (km/s) = 2.93433 3.38434 3.16734
# Velocity P-wave (km/s) = 5.16973 5.89619 5.54487
#
# Compressibility (1/GPa) = 0.03219287
#
# Stress axis : x y z
#
# Youngs Moduli (GPa) = 52.09176 31.49765 80.75665
#
# Poissons Ratio (x) = 0.25512 0.23439
# Poissons Ratio (y) = 0.42192 0.36871
# Poissons Ratio (z) = 0.15119 0.14381
#
# Static dielectric constant tensor:
#      x y z
#    x 1.741920 0.031010 -0.001230 
#    y 0.031010 1.724450 0.008860 
#    z -0.001230 0.008860 1.772410 
# 
# From -- ./inp_files/175166.got.cif
#   From: 2010.05.17/outbox.cif.g08.bks.cpg/sg2_88_cif.got.tgz:175166.got - 2010.06.03 11:33:40.
