data_PCOD9086831
_publ_section_title
;
Structure prediction by ZEFSAII (Michael W. Deem and Ramdas Pophale) SiO2 
 PCOD9086831
Probable space group: P -1
;
_chemical_formula_sum "Si O2"
_cell_formula_units_Z 16
_cell_length_a 8.794439
_cell_length_b 11.831904
_cell_length_c 8.050460
_cell_angle_alpha 101.593017
_cell_angle_beta 59.773201
_cell_angle_gamma 118.678160
_cell_volume 634.095845
_symmetry_space_group_name_H-M "P -1"
_symmetry_group_IT_number 2
_symmetry_cell_setting 'triclinic'
loop_
_space_group_symop_operation_xyz
x,y,z
-x,-y,-z
loop_
_atom_site_type_symbol
_atom_site_label
_atom_site_fract_x
_atom_site_fract_y
_atom_site_fract_z
Si Si1 0.390141 0.935775 0.867630
Si Si2 0.208719 0.572119 0.559630
Si Si3 0.948719 0.287520 0.505954
Si Si4 0.833531 0.534995 0.979041
Si Si5 0.031726 0.222984 0.792666
Si Si6 0.777315 0.906727 0.157642
Si Si7 0.537782 0.303450 0.264860
Si Si8 0.746936 0.706564 0.853032
O O1 0.162828 0.850656 0.014036
O O2 0.471297 0.835207 0.740803
O O3 0.500000 0.000000 0.000000
O O4 0.369918 0.028260 0.764174
O O5 0.123483 0.433568 0.481635
O O6 0.403304 0.617756 0.573451
O O7 0.224910 0.680186 0.448969
O O8 0.033857 0.559668 0.780738
O O9 0.946806 0.217162 0.654383
O O10 0.019721 0.227965 0.299248
O O11 0.712054 0.577127 0.929443
O O12 0.871000 0.632693 0.141642
O O13 0.712370 0.389339 0.063496
O O14 0.177393 0.156848 0.721512
O O15 0.697439 0.792918 0.031339
O O16 0.000000 0.000000 0.000000
O O17 0.352634 0.297858 0.268693
#
# Coordination Sequence:
#
# PCOD9086831 Si02
#       8
#     2   2   2   2   2   2   2   2
#     4  11  21  36  60  87 111 143 193 247 281 310
#     4  10  20  35  57  86 119 147 185 230 282 349
#     4  10  21  37  55  85 118 153 185 220 292 349
#     4  10  19  36  60  90 108 148 193 232 286 329
#     4  10  19  38  63  83 110 148 195 236 272 346
#     4   9  20  38  60  82 105 150 200 232 269 325
#     4  12  20  34  61  85 119 145 186 242 281 337
#     4  10  22  36  56  87 123 147 179 235 289 344
#
# _framework density 25.232778
#
# number of rings (size 3 to 8) (size 9 to 14) (size 15 to 20)
#    0.000    1.750    3.750    1.500    1.750    0.500 
#    0.000    3.750    0.000    1.500    0.000    0.000 
#    0.000    0.000    0.000    0.000    0.000    0.000 
#
# Total GULP energy -89374.340030 kJ/mol
# GULP energy per Si atom -5585.896252 kJ/mol
# Density = 2.517535 g / cm^3
# Si number density = 25.232778 Si / 1000 Ang^3
#
#
#
# Elastic Constant Matrix: (Units=GPa)
#
#
# Indices 1 2 3 4 5 6 
#
# 1 139.4384 41.6884 5.4154 1.5329 28.8306 -41.1445
# 2 41.6884 76.4175 7.8096 5.6876 -0.7869 -31.8983
# 3 5.4154 7.8096 44.3004 -2.4186 7.6391 -12.3727
# 4 1.5329 5.6876 -2.4186 22.1060 -3.6376 6.3501
# 5 28.8306 -0.7869 7.6391 -3.6376 41.3111 -5.0656
# 6 -41.1445 -31.8983 -12.3727 6.3501 -5.0656 56.1939
#
#
#
# Elastic Compliance Matrix: (Units=1/GPa)
#
#
# Indices 1 2 3 4 5 6 
#
# 1 0.011934 -0.003849 0.002347 -0.002851 -0.008272 0.006646
# 2 -0.003849 0.019734 -0.001486 -0.006980 0.003849 0.009192
# 3 0.002347 -0.001486 0.025169 0.000370 -0.005567 0.005873
# 4 -0.002851 -0.006980 0.000370 0.051333 0.004920 -0.011325
# 5 -0.008272 0.003849 -0.005567 0.004920 0.031167 -0.002844
# 6 0.006646 0.009192 0.005873 -0.011325 -0.002844 0.030196
#
#
# Mechanical properties :
#
#
# Convention : Reuss Voigt Hill
#
# Bulk Modulus (GPa) = 19.66172 41.10925 30.38548
# Shear Modulus (GPa) = 25.97906 37.60506 31.79206
#
# Velocity S-wave (km/s) = 3.21218 3.86466 3.55343
# Velocity P-wave (km/s) = 4.64398 6.02009 5.37625
#
# Compressibility (1/GPa) = 0.05086025
#
# Stress axis : x y z
#
# Youngs Moduli (GPa) = 83.79404 50.67442 39.73197
#
# Poissons Ratio (x) = 0.19504 -0.09324
# Poissons Ratio (y) = 0.32252 0.05904
# Poissons Ratio (z) = -0.19664 0.07529
#
# Static dielectric constant tensor:
#      x y z
#    x 2.031730 -0.016300 0.034460 
#    y -0.016300 2.026160 -0.039710 
#    z 0.034460 -0.039710 1.991720 
# 
# From -- ./inp_files/188394.got.cif
#   From: 2010.05.17/outbox.cif.g08.bks.cpg/sg2_95_cif.got.tgz:188394.got - 2010.06.03 11:33:40.
