data_PCOD9086338
_publ_section_title
;
Structure prediction by ZEFSAII (Michael W. Deem and Ramdas Pophale) SiO2 
 PCOD9086338
Probable space group: P -1
;
_chemical_formula_sum "Si O2"
_cell_formula_units_Z 14
_cell_length_a 8.465098
_cell_length_b 13.319795
_cell_length_c 10.724788
_cell_angle_alpha 127.326542
_cell_angle_beta 41.007623
_cell_angle_gamma 106.938070
_cell_volume 598.079483
_symmetry_space_group_name_H-M "P -1"
_symmetry_group_IT_number 2
_symmetry_cell_setting 'triclinic'
loop_
_space_group_symop_operation_xyz
x,y,z
-x,-y,-z
loop_
_atom_site_type_symbol
_atom_site_label
_atom_site_fract_x
_atom_site_fract_y
_atom_site_fract_z
Si Si1 0.327007 0.007547 0.229076
Si Si2 0.856594 0.425158 0.618473
Si Si3 0.110536 0.030366 0.697672
Si Si4 0.920001 0.160933 0.239546
Si Si5 0.679654 0.770053 0.401268
Si Si6 0.589476 0.819704 0.150279
Si Si7 0.699662 0.556681 0.047960
O O1 0.292461 0.146046 0.428911
O O2 0.066089 0.994007 0.324267
O O3 0.465006 0.878618 0.136155
O O4 0.500000 0.000000 0.000000
O O5 0.929684 0.270863 0.420806
O O6 0.555460 0.480899 0.807496
O O7 0.000000 0.500000 0.500000
O O8 0.891071 0.446562 0.762235
O O9 0.998174 0.982591 0.851259
O O10 0.388843 0.922930 0.435781
O O11 0.163936 0.166857 0.741002
O O12 0.627498 0.194841 0.398166
O O13 0.127504 0.174515 0.029010
O O14 0.767461 0.617388 0.181822
O O15 0.616015 0.678875 0.089275
#
# Coordination Sequence:
#
# PCOD9086338 Si02
#       7
#     2   2   2   2   2   2   2
#     4  11  24  39  57  85 123 166 195 230 292 362
#     4  10  19  36  57  88 122 144 194 244 304 343
#     4  11  22  40  55  88 124 157 193 234 295 359
#     4  11  21  35  61  93 116 154 194 247 290 344
#     4  10  22  38  58  87 125 153 196 243 292 350
#     4  11  20  35  59  85 120 151 195 236 294 342
#     4  10  21  35  59  92 114 154 189 252 296 337
#
# _framework density 23.408259000000001
#
# number of rings (size 3 to 8) (size 9 to 14) (size 15 to 20)
#    0.000    1.429    5.714    2.143    2.000    3.429 
#    0.000    0.000    0.000    0.857    3.714   15.000 
#    0.000    0.000    0.000    0.000    0.000    0.000 
#
# Total GULP energy -78006.986104 kJ/mol
# GULP energy per Si atom -5571.927579 kJ/mol
# Density = 2.335498 g / cm^3
# Si number density = 23.408259 Si / 1000 Ang^3
#
#
#
# Elastic Constant Matrix: (Units=GPa)
#
#
# Indices 1 2 3 4 5 6 
#
# 1 102.7954 39.6676 35.2056 2.3360 6.3159 31.5035
# 2 39.6676 106.1393 43.9274 -21.0597 -2.9105 32.8566
# 3 35.2056 43.9274 111.2349 -22.3840 14.9731 21.1477
# 4 2.3360 -21.0597 -22.3840 60.8651 5.1796 11.2845
# 5 6.3159 -2.9105 14.9731 5.1796 37.5629 0.7264
# 6 31.5035 32.8566 21.1477 11.2845 0.7264 49.7410
#
#
#
# Elastic Compliance Matrix: (Units=1/GPa)
#
#
# Indices 1 2 3 4 5 6 
#
# 1 0.013265 -0.002612 -0.002162 -0.001078 -0.001316 -0.005493
# 2 -0.002612 0.015463 -0.002699 0.005911 0.002068 -0.008784
# 3 -0.002162 -0.002699 0.013233 0.005167 -0.005764 -0.003562
# 4 -0.001078 0.005911 0.005167 0.022736 -0.004352 -0.010513
# 5 -0.001316 0.002068 -0.005764 -0.004352 0.029854 0.002469
# 6 -0.005493 -0.008784 -0.003562 -0.010513 0.002469 0.033248
#
#
# Mechanical properties :
#
#
# Convention : Reuss Voigt Hill
#
# Bulk Modulus (GPa) = 37.01678 61.97452 49.49565
# Shear Modulus (GPa) = 32.94868 43.05841 38.00354
#
# Velocity S-wave (km/s) = 3.75582 4.29354 4.03365
# Velocity P-wave (km/s) = 5.88695 7.14928 6.54860
#
# Compressibility (1/GPa) = 0.02701478
#
# Stress axis : x y z
#
# Youngs Moduli (GPa) = 75.38366 64.66898 75.56953
#
# Poissons Ratio (x) = 0.16894 0.16340
# Poissons Ratio (y) = 0.19693 0.20395
# Poissons Ratio (z) = 0.16300 0.17453
#
# Static dielectric constant tensor:
#      x y z
#    x 2.000060 0.019690 0.085780 
#    y 0.019690 1.900470 0.034970 
#    z 0.085780 0.034970 1.971520 
# 
# From -- ./inp_files/396297.got.cif
#   From: 2010.05.17/outbox.cif.g08.bks.cpg/sg2_199_cif.got.tgz:396297.got - 2010.06.03 11:33:40.
