data_PCOD9086081
_publ_section_title
;
Structure prediction by ZEFSAII (Michael W. Deem and Ramdas Pophale) SiO2 
 PCOD9086081
Probable space group: P -1
;
_chemical_formula_sum "Si O2"
_cell_formula_units_Z 16
_cell_length_a 7.891172
_cell_length_b 8.828295
_cell_length_c 19.686896
_cell_angle_alpha 98.600153
_cell_angle_beta 134.453557
_cell_angle_gamma 107.601382
_cell_volume 790.722286
_symmetry_space_group_name_H-M "P -1"
_symmetry_group_IT_number 2
_symmetry_cell_setting 'triclinic'
loop_
_space_group_symop_operation_xyz
x,y,z
-x,-y,-z
loop_
_atom_site_type_symbol
_atom_site_label
_atom_site_fract_x
_atom_site_fract_y
_atom_site_fract_z
Si Si1 0.822694 0.118933 0.125688
Si Si2 0.876445 0.502191 0.333442
Si Si3 0.810444 0.452066 0.712246
Si Si4 0.616739 0.827980 0.765361
Si Si5 0.948611 0.945795 0.687569
Si Si6 0.366895 0.918392 0.311543
Si Si7 0.963256 0.104350 0.558688
Si Si8 0.412992 0.562860 0.560918
O O1 0.974984 0.341263 0.183711
O O2 0.048567 0.098778 0.143649
O O3 0.832252 0.066169 0.203577
O O4 0.500000 0.000000 0.000000
O O5 0.564959 0.301845 0.231089
O O6 0.027601 0.567029 0.306820
O O7 0.867118 0.670510 0.373290
O O8 0.098166 0.475710 0.436442
O O9 0.715836 0.288499 0.727269
O O10 0.528735 0.438983 0.604860
O O11 0.453185 0.676169 0.648102
O O12 0.577409 0.987314 0.740229
O O13 0.659971 0.731109 0.593470
O O14 0.878446 0.069409 0.721456
O O15 0.013077 0.027934 0.636329
O O16 0.632344 0.034246 0.447008
O O17 0.000000 0.000000 0.500000
#
# Coordination Sequence:
#
# PCOD9086081 Si02
#       8
#     2   2   2   2   2   2   2   2
#     4   9  21  44  66  82 106 152 209 259 301 345
#     4  12  20  36  53  87 131 157 193 234 287 351
#     4  10  21  33  63  84 113 155 202 239 288 352
#     4   9  21  35  57  85 120 152 195 251 287 342
#     4   9  18  39  55  83 116 159 198 240 276 352
#     4  10  19  36  53  84 123 158 195 230 281 354
#     4  12  24  30  55  88 133 170 185 220 291 351
#     4   9  19  34  54  79 121 164 193 220 285 354
#
# _framework density 20.234667000000002
#
# number of rings (size 3 to 8) (size 9 to 14) (size 15 to 20)
#    0.000    2.500    3.750    1.875    3.500    3.000 
#    0.000    3.125    0.000    0.750    0.000    0.000 
#    0.000    0.000    0.000    0.000    0.000    0.000 
#
# Total GULP energy -89242.553459 kJ/mol
# GULP energy per Si atom -5577.659591 kJ/mol
# Density = 2.018861 g / cm^3
# Si number density = 20.234667 Si / 1000 Ang^3
#
#
#
# Elastic Constant Matrix: (Units=GPa)
#
#
# Indices 1 2 3 4 5 6 
#
# 1 61.1200 37.3817 15.3452 -9.5580 7.5778 2.5620
# 2 37.3817 176.6271 33.5622 -8.3855 10.0124 4.4725
# 3 15.3452 33.5622 87.7725 -3.7942 28.8036 6.7148
# 4 -9.5580 -8.3855 -3.7942 10.7237 -1.4533 -3.7094
# 5 7.5778 10.0124 28.8036 -1.4533 21.1633 3.8090
# 6 2.5620 4.4725 6.7148 -3.7094 3.8090 27.3885
#
#
#
# Elastic Compliance Matrix: (Units=1/GPa)
#
#
# Indices 1 2 3 4 5 6 
#
# 1 0.021679 -0.003527 -0.000235 0.016334 -0.004923 0.001503
# 2 -0.003527 0.006858 -0.002387 0.001497 0.001406 -0.000198
# 3 -0.000235 -0.002387 0.021675 0.001517 -0.028039 -0.000797
# 4 0.016334 0.001497 0.001517 0.113821 -0.003276 0.013727
# 5 -0.004923 0.001406 -0.028039 -0.003276 0.087271 -0.005475
# 6 0.001503 -0.000198 -0.000797 0.013727 -0.005475 0.039220
#
#
# Mechanical properties :
#
#
# Convention : Reuss Voigt Hill
#
# Bulk Modulus (GPa) = 26.37559 55.34418 40.85988
# Shear Modulus (GPa) = 15.84987 27.80380 21.82684
#
# Velocity S-wave (km/s) = 2.80179 3.71086 3.28790
# Velocity P-wave (km/s) = 4.85076 6.76544 5.88647
#
# Compressibility (1/GPa) = 0.03791385
#
# Stress axis : x y z
#
# Youngs Moduli (GPa) = 46.12721 145.81270 46.13661
#
# Poissons Ratio (x) = 0.51430 0.01083
# Poissons Ratio (y) = 0.16270 0.11014
# Poissons Ratio (z) = 0.01083 0.34809
#
# Static dielectric constant tensor:
#      x y z
#    x 1.848030 0.003410 0.000460 
#    y 0.003410 1.780560 -0.016350 
#    z 0.000460 -0.016350 1.693600 
# 
# From -- ./inp_files/586768.got.cif
#   From: 2010.05.17/outbox.cif.g08.bks.cpg/sg2_294_cif.got.tgz:586768.got - 2010.06.03 11:33:40.
