data_PCOD9086734
_publ_section_title
;
Structure prediction by ZEFSAII (Michael W. Deem and Ramdas Pophale) SiO2 
 PCOD9086734
Probable space group: P -1
;
_chemical_formula_sum "Si O2"
_cell_formula_units_Z 16
_cell_length_a 17.124578
_cell_length_b 11.595413
_cell_length_c 7.494372
_cell_angle_alpha 83.306145
_cell_angle_beta 119.114237
_cell_angle_gamma 47.603495
_cell_volume 695.732998
_symmetry_space_group_name_H-M "P -1"
_symmetry_group_IT_number 2
_symmetry_cell_setting 'triclinic'
loop_
_space_group_symop_operation_xyz
x,y,z
-x,-y,-z
loop_
_atom_site_type_symbol
_atom_site_label
_atom_site_fract_x
_atom_site_fract_y
_atom_site_fract_z
Si Si1 0.166099 0.075565 0.437203
Si Si2 0.148398 0.832819 0.342483
Si Si3 0.891940 0.359644 0.568867
Si Si4 0.254469 0.044028 0.934473
Si Si5 0.558046 0.565372 0.501790
Si Si6 0.794272 0.500048 0.854403
Si Si7 0.193402 0.276935 0.293855
Si Si8 0.687417 0.785390 0.180041
O O1 0.235028 0.094597 0.366694
O O2 0.180781 0.926745 0.425528
O O3 0.253662 0.003949 0.734383
O O4 0.966338 0.313307 0.187318
O O5 0.098061 0.788247 0.434949
O O6 0.319632 0.597700 0.495902
O O7 0.000000 0.000000 0.000000
O O8 0.849175 0.417852 0.722278
O O9 0.754939 0.581757 0.265199
O O10 0.072138 0.216240 0.769906
O O11 0.283254 0.150877 0.948668
O O12 0.399531 0.814919 0.230510
O O13 0.500000 0.500000 0.500000
O O14 0.671855 0.527351 0.757428
O O15 0.720506 0.711692 0.719465
O O16 0.209993 0.286056 0.520294
O O17 0.000000 0.500000 0.000000
O O18 0.500000 0.000000 0.000000
#
# Coordination Sequence:
#
# PCOD9086734 Si02
#       8
#     2   2   2   2   2   2   2   2
#     4  10  20  35  61  86 116 152 193 243 291 342
#     4  11  20  38  61  82 112 161 202 227 290 362
#     4  10  20  35  60  88 114 155 194 233 285 353
#     4  11  23  36  58  93 119 142 196 252 293 327
#     4  11  23  38  60  87 115 155 199 241 283 353
#     4   9  18  38  63  80 114 162 199 223 288 357
#     4   8  16  31  56  87 108 147 189 233 280 337
#     4  10  19  36  60  85 117 154 193 236 286 344
#
# _framework density 22.997329000000001
#
# number of rings (size 3 to 8) (size 9 to 14) (size 15 to 20)
#    0.000    2.000    2.500    3.375    0.000    1.000 
#    0.000    0.000    0.000    0.750    0.000    0.000 
#    0.000    0.000    0.000    0.000    0.000    0.000 
#
# Total GULP energy -89274.621237 kJ/mol
# GULP energy per Si atom -5579.663827 kJ/mol
# Density = 2.294499 g / cm^3
# Si number density = 22.997329 Si / 1000 Ang^3
#
#
#
# Elastic Constant Matrix: (Units=GPa)
#
#
# Indices 1 2 3 4 5 6 
#
# 1 149.3088 30.1709 19.2822 -24.5408 4.5096 47.2656
# 2 30.1709 81.0307 14.0640 -9.2318 -10.2593 27.6266
# 3 19.2822 14.0640 79.2720 -23.8631 -5.2781 10.1361
# 4 -24.5408 -9.2318 -23.8631 39.8365 8.0203 0.4757
# 5 4.5096 -10.2593 -5.2781 8.0203 29.5157 -12.8632
# 6 47.2656 27.6266 10.1361 0.4757 -12.8632 47.1021
#
#
#
# Elastic Compliance Matrix: (Units=1/GPa)
#
#
# Indices 1 2 3 4 5 6 
#
# 1 0.015593 0.000622 0.002013 0.014145 -0.014619 -0.020581
# 2 0.000622 0.016042 -0.000554 0.003891 -0.000015 -0.009957
# 3 0.002013 -0.000554 0.016301 0.011653 -0.003485 -0.006272
# 4 0.014145 0.003891 0.011653 0.046541 -0.022531 -0.025607
# 5 -0.014619 -0.000015 -0.003485 -0.022531 0.054974 0.030669
# 6 -0.020581 -0.009957 -0.006272 -0.025607 0.030669 0.057707
#
#
# Mechanical properties :
#
#
# Convention : Reuss Voigt Hill
#
# Bulk Modulus (GPa) = 19.19434 48.51619 33.85527
# Shear Modulus (GPa) = 22.68994 39.69716 31.19355
#
# Velocity S-wave (km/s) = 3.14448 4.15922 3.68693
# Velocity P-wave (km/s) = 4.64200 6.64889 5.73393
#
# Compressibility (1/GPa) = 0.05209869
#
# Stress axis : x y z
#
# Youngs Moduli (GPa) = 64.12938 62.33732 61.34463
#
# Poissons Ratio (x) = -0.03877 -0.12348
# Poissons Ratio (y) = -0.03989 0.03398
# Poissons Ratio (z) = -0.12909 0.03453
#
# Static dielectric constant tensor:
#      x y z
#    x 2.841250 -0.177430 0.086530 
#    y -0.177430 2.015210 -0.002740 
#    z 0.086530 -0.002740 1.834440 
# 
# From -- ./inp_files/329315.got.cif
#   From: 2010.05.17/outbox.cif.g08.bks.cpg/sg2_165_cif.got.tgz:329315.got - 2010.06.03 11:33:40.
