data_PCOD9086370
_publ_section_title
;
Structure prediction by ZEFSAII (Michael W. Deem and Ramdas Pophale) SiO2 
 PCOD9086370
Probable space group: P -1
;
_chemical_formula_sum "Si O2"
_cell_formula_units_Z 12
_cell_length_a 11.141778
_cell_length_b 11.273970
_cell_length_c 13.392036
_cell_angle_alpha 34.960194
_cell_angle_beta 135.506723
_cell_angle_gamma 152.376516
_cell_volume 446.408387
_symmetry_space_group_name_H-M "P -1"
_symmetry_group_IT_number 2
_symmetry_cell_setting 'triclinic'
loop_
_space_group_symop_operation_xyz
x,y,z
-x,-y,-z
loop_
_atom_site_type_symbol
_atom_site_label
_atom_site_fract_x
_atom_site_fract_y
_atom_site_fract_z
Si Si1 0.859584 0.836253 0.887995
Si Si2 0.425948 0.873899 0.270661
Si Si3 0.656713 0.366874 0.246974
Si Si4 0.254457 0.212797 0.438043
Si Si5 0.955178 0.270937 0.525294
Si Si6 0.246175 0.587446 0.052116
O O1 0.584948 0.711927 0.808359
O O2 0.863256 0.659039 0.930785
O O3 0.053699 0.196242 0.719183
O O4 0.858775 0.709895 0.078494
O O5 0.542792 0.750379 0.413985
O O6 0.147718 0.568316 0.361101
O O7 0.551776 0.132199 0.253431
O O8 0.508422 0.068228 0.085435
O O9 0.227355 0.706731 0.561498
O O10 0.334338 0.509982 0.243441
O O11 0.187954 0.016273 0.436344
O O12 0.000000 0.000000 0.500000
O O13 0.000000 0.500000 0.000000
#
# Coordination Sequence:
#
# PCOD9086370 Si02
#       6
#     2   2   2   2   2   2
#     4   9  19  36  57  81 110 148 180 220 275 322
#     4  10  21  36  57  86 108 141 183 225 273 321
#     4   9  19  38  58  78 114 145 176 223 275 326
#     4  10  20  37  56  76 112 147 177 223 271 320
#     4  10  21  35  57  85 110 139 184 227 270 323
#     4  10  19  36  58  78 110 147 182 222 271 322
#
# _framework density 26.881215000000001
#
# number of rings (size 3 to 8) (size 9 to 14) (size 15 to 20)
#    0.000    2.333    1.667    0.500    0.000    2.667 
#    0.000    8.333    0.000    0.000    0.000    0.000 
#    0.000    0.000    0.000    0.000    0.000    0.000 
#
# Total GULP energy -67111.108569 kJ/mol
# GULP energy per Si atom -5592.592381 kJ/mol
# Density = 2.682003 g / cm^3
# Si number density = 26.881215 Si / 1000 Ang^3
#
#
#
# Elastic Constant Matrix: (Units=GPa)
#
#
# Indices 1 2 3 4 5 6 
#
# 1 164.3916 17.9215 59.2527 6.3086 22.4572 23.3466
# 2 17.9215 39.5065 49.8632 -2.3755 9.3971 11.6996
# 3 59.2527 49.8632 281.4870 -5.7765 1.2618 19.2201
# 4 6.3086 -2.3755 -5.7765 43.0627 -0.0131 4.2753
# 5 22.4572 9.3971 1.2618 -0.0131 54.3985 -0.3221
# 6 23.3466 11.6996 19.2201 4.2753 -0.3221 51.6989
#
#
#
# Elastic Compliance Matrix: (Units=1/GPa)
#
#
# Indices 1 2 3 4 5 6 
#
# 1 0.007432 -0.000198 -0.001349 -0.001009 -0.003019 -0.002745
# 2 -0.000198 0.036196 -0.005888 0.001840 -0.006070 -0.006102
# 3 -0.001349 -0.005888 0.004877 0.000518 0.001462 0.000095
# 4 -0.001009 0.001840 0.000518 0.023751 0.000080 -0.002117
# 5 -0.003019 -0.006070 0.001462 0.000080 0.020658 0.002316
# 6 -0.002745 -0.006102 0.000095 -0.002117 0.002316 0.022118
#
#
# Mechanical properties :
#
#
# Convention : Reuss Voigt Hill
#
# Bulk Modulus (GPa) = 29.73222 82.16221 55.94721
# Shear Modulus (GPa) = 35.43235 53.72187 44.57711
#
# Velocity S-wave (km/s) = 3.63451 4.47530 4.07664
# Velocity P-wave (km/s) = 5.35701 7.57203 6.55870
#
# Compressibility (1/GPa) = 0.03363355
#
# Stress axis : x y z
#
# Youngs Moduli (GPa) = 134.55530 27.62740 205.03489
#
# Poissons Ratio (x) = 0.00548 0.27659
# Poissons Ratio (y) = 0.02669 1.20733
# Poissons Ratio (z) = 0.18152 0.16268
#
# Static dielectric constant tensor:
#      x y z
#    x 1.858470 -0.128440 0.083760 
#    y -0.128440 2.191720 0.086960 
#    z 0.083760 0.086960 2.052990 
# 
# From -- ./inp_files/289705.got.cif
#   From: 2010.05.17/outbox.cif.g08.bks.cpg/sg2_145_cif.got.tgz:289705.got - 2010.06.03 11:33:40.
