data_PCOD9086988
_publ_section_title
;
Structure prediction by ZEFSAII (Michael W. Deem and Ramdas Pophale) SiO2 
 PCOD9086988
Probable space group: P -1
;
_chemical_formula_sum "Si O2"
_cell_formula_units_Z 16
_cell_length_a 11.162773
_cell_length_b 14.121560
_cell_length_c 10.987678
_cell_angle_alpha 91.301129
_cell_angle_beta 60.638583
_cell_angle_gamma 41.638702
_cell_volume 742.767262
_symmetry_space_group_name_H-M "P -1"
_symmetry_group_IT_number 2
_symmetry_cell_setting 'triclinic'
loop_
_space_group_symop_operation_xyz
x,y,z
-x,-y,-z
loop_
_atom_site_type_symbol
_atom_site_label
_atom_site_fract_x
_atom_site_fract_y
_atom_site_fract_z
Si Si1 0.852906 0.440214 0.659684
Si Si2 0.082699 0.102929 0.580862
Si Si3 0.544399 0.245148 0.493859
Si Si4 0.827674 0.005447 0.108201
Si Si5 0.301890 0.674394 0.008752
Si Si6 0.002807 0.118189 0.345795
Si Si7 0.007693 0.336684 0.302593
Si Si8 0.544813 0.791256 0.936916
O O1 0.965015 0.392679 0.467889
O O2 0.790407 0.567815 0.779125
O O3 0.041112 0.241442 0.614013
O O4 0.535420 0.589984 0.814358
O O5 0.965578 0.143414 0.510281
O O6 0.906495 0.160295 0.779376
O O7 0.387155 0.877071 0.444705
O O8 0.610148 0.158112 0.328252
O O9 0.238898 0.471075 0.647869
O O10 0.760338 0.201757 0.409452
O O11 0.651405 0.083019 0.081176
O O12 0.065348 0.788813 0.030613
O O13 0.000000 0.000000 0.000000
O O14 0.500000 0.500000 0.000000
O O15 0.989901 0.234227 0.309810
O O16 0.319922 0.895914 0.152498
O O17 0.298548 0.206153 0.112011
#
# Coordination Sequence:
#
# PCOD9086988 Si02
#       8
#     2   2   2   2   2   2   2   2
#     4  10  19  36  61  87 119 151 194 247 298 346
#     4   9  21  37  61  90 119 155 199 247 303 353
#     4  11  20  38  63  90 116 153 202 257 293 349
#     4  11  18  33  61  90 113 150 200 247 301 341
#     4   9  17  33  58  88 119 141 192 250 289 343
#     4  11  23  40  63  84 123 162 200 243 297 357
#     4  11  24  39  59  91 123 158 203 241 300 358
#     4  12  22  38  64  87 126 160 194 248 301 350
#
# _framework density 21.541067000000002
#
# number of rings (size 3 to 8) (size 9 to 14) (size 15 to 20)
#    0.000    1.500    3.750    2.250    0.000    0.000 
#    2.250    1.250   11.000    0.000    0.000    0.000 
#    0.000    0.000    0.000    0.000    0.000    0.000 
#
# Total GULP energy -89124.715797 kJ/mol
# GULP energy per Si atom -5570.294737 kJ/mol
# Density = 2.149204 g / cm^3
# Si number density = 21.541067 Si / 1000 Ang^3
#
#
#
# Elastic Constant Matrix: (Units=GPa)
#
#
# Indices 1 2 3 4 5 6 
#
# 1 52.8228 25.4719 13.1318 16.7858 -8.1870 3.0522
# 2 25.4719 106.3105 4.5589 37.7381 -12.8811 7.7932
# 3 13.1318 4.5589 45.9344 -1.6620 -3.9963 -0.8946
# 4 16.7858 37.7381 -1.6620 24.0758 -0.8797 10.1915
# 5 -8.1870 -12.8811 -3.9963 -0.8797 31.3652 3.5099
# 6 3.0522 7.7932 -0.8946 10.1915 3.5099 22.6966
#
#
#
# Elastic Compliance Matrix: (Units=1/GPa)
#
#
# Indices 1 2 3 4 5 6 
#
# 1 0.029642 0.004863 -0.009369 -0.031716 0.006850 0.007157
# 2 0.004863 0.026022 -0.004763 -0.048739 0.008779 0.010751
# 3 -0.009369 -0.004763 0.025454 0.017386 -0.000238 -0.003871
# 4 -0.031716 -0.048739 0.017386 0.161021 -0.016179 -0.048116
# 5 0.006850 0.008779 -0.000238 -0.016179 0.037062 -0.002412
# 6 0.007157 0.010751 -0.003871 -0.048116 -0.002412 0.061232
#
#
# Mechanical properties :
#
#
# Convention : Reuss Voigt Hill
#
# Bulk Modulus (GPa) = 15.97935 32.37699 24.17817
# Shear Modulus (GPa) = 13.16373 26.42119 19.79246
#
# Velocity S-wave (km/s) = 2.47472 3.50601 3.03450
# Velocity P-wave (km/s) = 3.94967 5.60825 4.85038
#
# Compressibility (1/GPa) = 0.06258076
#
# Stress axis : x y z
#
# Youngs Moduli (GPa) = 33.73609 38.42846 39.28605
#
# Poissons Ratio (x) = -0.18689 0.36807
# Poissons Ratio (y) = -0.16407 0.18713
# Poissons Ratio (z) = 0.31607 0.18305
#
# Static dielectric constant tensor:
#      x y z
#    x 1.795520 0.034760 0.023280 
#    y 0.034760 1.922480 0.037070 
#    z 0.023280 0.037070 1.808390 
# 
# From -- ./inp_files/434029.got.cif
#   From: 2010.05.17/outbox.cif.g08.bks.cpg/sg2_218_cif.got.tgz:434029.got - 2010.06.03 11:33:40.
