data_PCOD9086546
_publ_section_title
;
Structure prediction by ZEFSAII (Michael W. Deem and Ramdas Pophale) SiO2 
 PCOD9086546
Probable space group: P -1
;
_chemical_formula_sum "Si O2"
_cell_formula_units_Z 16
_cell_length_a 12.507456
_cell_length_b 22.392160
_cell_length_c 8.888359
_cell_angle_alpha 43.901357
_cell_angle_beta 47.127145
_cell_angle_gamma 26.208662
_cell_volume 757.656318
_symmetry_space_group_name_H-M "P -1"
_symmetry_group_IT_number 2
_symmetry_cell_setting 'triclinic'
loop_
_space_group_symop_operation_xyz
x,y,z
-x,-y,-z
loop_
_atom_site_type_symbol
_atom_site_label
_atom_site_fract_x
_atom_site_fract_y
_atom_site_fract_z
Si Si1 0.481869 0.094277 0.675760
Si Si2 0.642204 0.582090 0.475791
Si Si3 0.915511 0.799341 0.965561
Si Si4 0.150819 0.360068 0.710779
Si Si5 0.793566 0.186335 0.745348
Si Si6 0.395180 0.665287 0.870547
Si Si7 0.321517 0.866628 0.776559
Si Si8 0.313456 0.606433 0.350108
O O1 0.394172 0.210207 0.666321
O O2 0.515683 0.127840 0.427510
O O3 0.734801 0.932026 0.780904
O O4 0.261032 0.132122 0.843732
O O5 0.765399 0.616799 0.279099
O O6 0.382840 0.705507 0.417010
O O7 0.584515 0.586037 0.697193
O O8 0.796807 0.432061 0.526563
O O9 0.148628 0.743157 0.891950
O O10 0.973109 0.674369 0.079596
O O11 0.000000 0.500000 0.500000
O O12 0.851220 0.240505 0.700599
O O13 0.649296 0.188864 0.987439
O O14 0.041041 0.027572 0.742479
O O15 0.362052 0.773161 0.784701
O O16 0.445176 0.580245 0.121107
O O17 0.500000 0.500000 0.500000
#
# Coordination Sequence:
#
# PCOD9086546 Si02
#       8
#     2   2   2   2   2   2   2   2
#     4   9  19  36  53  80 118 146 179 231 288 330
#     4  11  20  34  60  84 111 143 191 231 280 332
#     4   9  20  33  53  89 119 140 178 242 290 328
#     4  10  20  35  54  85 116 146 181 232 289 335
#     4   9  21  34  54  84 113 146 183 234 279 328
#     4  11  19  32  61  91 106 141 191 236 280 327
#     4  10  19  36  59  81 112 145 187 229 282 336
#     4   9  20  36  49  79 121 149 175 226 283 335
#
# _framework density 21.117754000000001
#
# number of rings (size 3 to 8) (size 9 to 14) (size 15 to 20)
#    0.750    1.500    1.250    1.875    1.750    1.000 
#    0.000    0.000    0.000   18.750    0.000    0.000 
#    0.000    0.000    0.000    0.000    0.000    0.000 
#
# Total GULP energy -89079.790123 kJ/mol
# GULP energy per Si atom -5567.486883 kJ/mol
# Density = 2.106969 g / cm^3
# Si number density = 21.117754 Si / 1000 Ang^3
#
#
#
# Elastic Constant Matrix: (Units=GPa)
#
#
# Indices 1 2 3 4 5 6 
#
# 1 45.6623 21.8961 23.9007 -0.6479 4.3885 -6.3948
# 2 21.8961 42.3974 21.3824 -27.6946 3.3223 8.0109
# 3 23.9007 21.3824 88.4748 -5.9021 -5.9839 1.8603
# 4 -0.6479 -27.6946 -5.9021 32.0161 -4.8075 -6.5748
# 5 4.3885 3.3223 -5.9839 -4.8075 22.8506 3.7115
# 6 -6.3948 8.0109 1.8603 -6.5748 3.7115 22.4592
#
#
#
# Elastic Compliance Matrix: (Units=1/GPa)
#
#
# Indices 1 2 3 4 5 6 
#
# 1 0.069411 -0.080280 -0.005949 -0.065652 -0.022450 0.033382
# 2 -0.080280 0.158736 -0.005379 0.129193 0.025489 -0.045423
# 3 -0.005949 -0.005379 0.014535 -0.001729 0.005763 -0.002438
# 4 -0.065652 0.129193 -0.001729 0.139642 0.027343 -0.028270
# 5 -0.022450 0.025489 0.005763 0.027343 0.054382 -0.016943
# 6 0.033382 -0.045423 -0.002438 -0.028270 -0.016943 0.064957
#
#
# Mechanical properties :
#
#
# Convention : Reuss Voigt Hill
#
# Bulk Modulus (GPa) = 16.81599 34.54363 25.67981
# Shear Modulus (GPa) = 7.09522 22.75556 14.92539
#
# Velocity S-wave (km/s) = 1.83497 3.28618 2.66140
# Velocity P-wave (km/s) = 3.53125 5.54903 4.65089
#
# Compressibility (1/GPa) = 0.05946721
#
# Stress axis : x y z
#
# Youngs Moduli (GPa) = 14.40700 6.29978 68.79832
#
# Poissons Ratio (x) = 0.50575 0.40926
# Poissons Ratio (y) = 1.15659 0.37004
# Poissons Ratio (z) = 0.08570 0.03388
#
# Static dielectric constant tensor:
#      x y z
#    x 1.784260 0.005180 -0.024180 
#    y 0.005180 1.769150 -0.026070 
#    z -0.024180 -0.026070 1.822750 
# 
# From -- ./inp_files/282868.got.cif
#   From: 2010.05.17/outbox.cif.g08.bks.cpg/sg2_142_cif.got.tgz:282868.got - 2010.06.03 11:33:40.
