data_PCOD9086345
_publ_section_title
;
Structure prediction by ZEFSAII (Michael W. Deem and Ramdas Pophale) SiO2 
 PCOD9086345
Probable space group: P -1
;
_chemical_formula_sum "Si O2"
_cell_formula_units_Z 14
_cell_length_a 13.340244
_cell_length_b 5.782697
_cell_length_c 9.832336
_cell_angle_alpha 105.235239
_cell_angle_beta 120.310537
_cell_angle_gamma 103.014376
_cell_volume 570.530978
_symmetry_space_group_name_H-M "P -1"
_symmetry_group_IT_number 2
_symmetry_cell_setting 'triclinic'
loop_
_space_group_symop_operation_xyz
x,y,z
-x,-y,-z
loop_
_atom_site_type_symbol
_atom_site_label
_atom_site_fract_x
_atom_site_fract_y
_atom_site_fract_z
Si Si1 0.613981 0.915781 0.219179
Si Si2 0.165342 0.400072 0.409177
Si Si3 0.151463 0.173420 0.642186
Si Si4 0.073632 0.077717 0.853438
Si Si5 0.875851 0.290822 0.804092
Si Si6 0.277683 0.179671 0.233886
Si Si7 0.502295 0.663538 0.809471
O O1 0.765487 0.992086 0.342397
O O2 0.555234 0.647348 0.230851
O O3 0.574885 0.157506 0.256934
O O4 0.572245 0.815660 0.020071
O O5 0.181175 0.626081 0.348596
O O6 0.268118 0.309563 0.389964
O O7 0.811128 0.606450 0.414939
O O8 0.004050 0.240219 0.264511
O O9 0.164426 0.248248 0.821324
O O10 0.000000 0.000000 0.500000
O O11 0.942881 0.111810 0.766437
O O12 0.154112 0.162318 0.058957
O O13 0.762846 0.127786 0.805843
O O14 0.000000 0.500000 0.000000
O O15 0.400480 0.301657 0.242777
#
# Coordination Sequence:
#
# PCOD9086345 Si02
#       7
#     2   2   2   2   2   2   2
#     4  10  22  46  63 100 128 167 222 276 316 385
#     4  10  21  37  55  90 129 161 204 265 328 385
#     4  10  22  43  64  92 133 165 206 266 340 391
#     4  10  19  36  57  89 123 161 213 259 319 383
#     4  11  19  32  58  89 127 164 208 271 310 384
#     4  11  20  36  62  90 118 166 219 262 320 378
#     4  10  23  41  72  92 128 171 226 273 313 376
#
# _framework density 24.538547000000001
#
# number of rings (size 3 to 8) (size 9 to 14) (size 15 to 20)
#    0.000    1.714    4.286    0.857    2.000    0.571 
#   15.429    1.429    0.000    0.000    0.000    0.000 
#    0.000    0.000    0.000    0.000    0.000    0.000 
#
# Total GULP energy -77945.049786 kJ/mol
# GULP energy per Si atom -5567.503556 kJ/mol
# Density = 2.448270 g / cm^3
# Si number density = 24.538547 Si / 1000 Ang^3
#
#
#
# Elastic Constant Matrix: (Units=GPa)
#
#
# Indices 1 2 3 4 5 6 
#
# 1 151.7666 75.2965 21.0341 -17.7178 -3.6822 20.0645
# 2 75.2965 131.8080 41.1763 -36.7105 0.9981 14.7213
# 3 21.0341 41.1763 65.5184 -26.2967 -13.9025 13.7515
# 4 -17.7178 -36.7105 -26.2967 43.0585 3.9882 0.5801
# 5 -3.6822 0.9981 -13.9025 3.9882 42.1943 -24.5269
# 6 20.0645 14.7213 13.7515 0.5801 -24.5269 35.5758
#
#
#
# Elastic Compliance Matrix: (Units=1/GPa)
#
#
# Indices 1 2 3 4 5 6 
#
# 1 0.009653 -0.005186 0.000970 0.000344 -0.001479 -0.004699
# 2 -0.005186 0.015174 -0.004416 0.008835 -0.006914 -0.006558
# 3 0.000970 -0.004416 0.024182 0.011120 0.003856 -0.005590
# 4 0.000344 0.008835 0.011120 0.038705 -0.008806 -0.014850
# 5 -0.001479 -0.006914 0.003856 -0.008806 0.045394 0.033644
# 6 -0.004699 -0.006558 -0.005590 -0.014850 0.033644 0.059070
#
#
# Mechanical properties :
#
#
# Convention : Reuss Voigt Hill
#
# Bulk Modulus (GPa) = 31.50045 69.34519 50.42282
# Shear Modulus (GPa) = 22.72488 38.27145 30.49816
#
# Velocity S-wave (km/s) = 3.04647 3.95352 3.52926
# Velocity P-wave (km/s) = 5.02391 7.01152 6.09923
#
# Compressibility (1/GPa) = 0.03174558
#
# Stress axis : x y z
#
# Youngs Moduli (GPa) = 103.59692 65.90104 41.35349
#
# Poissons Ratio (x) = 0.34174 -0.04013
# Poissons Ratio (y) = 0.53722 0.18263
# Poissons Ratio (z) = -0.10053 0.29104
#
# Static dielectric constant tensor:
#      x y z
#    x 2.284380 -1.624490 -1.609490 
#    y -1.624490 9.958300 7.917400 
#    z -1.609490 7.917400 9.776960 
# 
# From -- ./inp_files/411131.got.cif
#   From: 2010.05.17/outbox.cif.g08.bks.cpg/sg2_206_cif.got.tgz:411131.got - 2010.06.03 11:33:40.
