data_PCOD9086841
_publ_section_title
;
Structure prediction by ZEFSAII (Michael W. Deem and Ramdas Pophale) SiO2 
 PCOD9086841
Probable space group: P -1
;
_chemical_formula_sum "Si O2"
_cell_formula_units_Z 14
_cell_length_a 12.091554
_cell_length_b 9.414403
_cell_length_c 8.839889
_cell_angle_alpha 69.091679
_cell_angle_beta 100.305843
_cell_angle_gamma 130.004066
_cell_volume 718.262113
_symmetry_space_group_name_H-M "P -1"
_symmetry_group_IT_number 2
_symmetry_cell_setting 'triclinic'
loop_
_space_group_symop_operation_xyz
x,y,z
-x,-y,-z
loop_
_atom_site_type_symbol
_atom_site_label
_atom_site_fract_x
_atom_site_fract_y
_atom_site_fract_z
Si Si1 0.866885 0.799330 0.969531
Si Si2 0.008974 0.667191 0.845850
Si Si3 0.318800 0.856817 0.826730
Si Si4 0.415136 0.285570 0.135399
Si Si5 0.628756 0.084537 0.836978
Si Si6 0.132523 0.551190 0.413970
Si Si7 0.307706 0.560811 0.714569
O O1 0.749433 0.801810 0.851060
O O2 0.931635 0.727053 0.903910
O O3 0.777843 0.644530 0.142130
O O4 0.000000 0.000000 0.000000
O O5 0.179372 0.845133 0.792470
O O6 0.931659 0.582487 0.698973
O O7 0.000000 0.500000 0.000000
O O8 0.287336 0.691398 0.768320
O O9 0.483426 0.045970 0.759893
O O10 0.332604 0.825375 0.020043
O O11 0.520626 0.328154 0.283008
O O12 0.408072 0.126757 0.091415
O O13 0.500000 0.500000 0.000000
O O14 0.762878 0.226730 0.706297
O O15 0.233412 0.531712 0.549246
O O16 0.000000 0.500000 0.500000
#
# Coordination Sequence:
#
# PCOD9086841 Si02
#       7
#     2   2   2   2   2   2   2
#     4  11  22  38  67  91 120 167 213 256 303 373
#     4  12  21  39  63  92 123 159 213 265 304 362
#     4  10  19  36  60  90 120 149 213 262 295 364
#     4   9  21  38  59  85 124 165 207 248 308 373
#     4  10  21  36  63  93 118 161 212 257 312 367
#     4  12  23  37  64  95 130 159 204 268 320 362
#     4  10  21  40  57  91 127 162 202 255 320 364
#
# _framework density 19.491492000000001
#
# number of rings (size 3 to 8) (size 9 to 14) (size 15 to 20)
#    0.000    1.429    4.286    0.857    2.000    2.286 
#    0.000    1.429    0.000    0.000    0.000    0.000 
#    0.000    0.000    0.000    0.000    0.000    0.000 
#
# Total GULP energy -78061.283215 kJ/mol
# GULP energy per Si atom -5575.805944 kJ/mol
# Density = 1.944713 g / cm^3
# Si number density = 19.491492 Si / 1000 Ang^3
#
#
#
# Elastic Constant Matrix: (Units=GPa)
#
#
# Indices 1 2 3 4 5 6 
#
# 1 160.7860 57.7956 39.2769 19.8446 9.4068 21.9145
# 2 57.7956 94.2007 48.0828 26.7848 -1.2363 21.9324
# 3 39.2769 48.0828 80.3841 27.5969 7.6195 6.0114
# 4 19.8446 26.7848 27.5969 31.9603 16.4419 2.3279
# 5 9.4068 -1.2363 7.6195 16.4419 30.7365 4.5331
# 6 21.9145 21.9324 6.0114 2.3279 4.5331 37.0322
#
#
#
# Elastic Compliance Matrix: (Units=1/GPa)
#
#
# Indices 1 2 3 4 5 6 
#
# 1 0.008421 -0.004342 -0.001573 0.001349 -0.002804 -0.001898
# 2 -0.004342 0.025834 -0.006834 -0.020945 0.017095 -0.012397
# 3 -0.001573 -0.006834 0.021314 -0.012530 0.001309 0.002146
# 4 0.001349 -0.020945 -0.012530 0.079902 -0.042937 0.013873
# 5 -0.002804 0.017095 0.001309 -0.042937 0.058665 -0.013160
# 6 -0.001898 -0.012397 0.002146 0.013873 -0.013160 0.035859
#
#
# Mechanical properties :
#
#
# Convention : Reuss Voigt Hill
#
# Bulk Modulus (GPa) = 33.25480 69.52016 51.38748
# Shear Modulus (GPa) = 18.83128 32.62683 25.72905
#
# Velocity S-wave (km/s) = 3.11163 4.09577 3.63714
# Velocity P-wave (km/s) = 5.47795 7.62309 6.63775
#
# Compressibility (1/GPa) = 0.03007084
#
# Stress axis : x y z
#
# Youngs Moduli (GPa) = 118.75634 38.70842 46.91860
#
# Poissons Ratio (x) = 0.16808 0.07378
# Poissons Ratio (y) = 0.51566 0.32064
# Poissons Ratio (z) = 0.18675 0.26453
#
# Static dielectric constant tensor:
#      x y z
#    x 1.726270 0.043020 0.011830 
#    y 0.043020 1.696980 -0.022630 
#    z 0.011830 -0.022630 1.679400 
# 
# From -- ./inp_files/154030.got.cif
#   From: 2010.05.17/outbox.cif.g08.bks.cpg/sg2_78_cif.got.tgz:154030.got - 2010.06.03 11:33:40.
