data_PCOD9086327
_publ_section_title
;
Structure prediction by ZEFSAII (Michael W. Deem and Ramdas Pophale) SiO2 
 PCOD9086327
Probable space group: P -1
;
_chemical_formula_sum "Si O2"
_cell_formula_units_Z 16
_cell_length_a 25.608916
_cell_length_b 13.999411
_cell_length_c 14.345602
_cell_angle_alpha 29.685443
_cell_angle_beta 31.197004
_cell_angle_gamma 20.676678
_cell_volume 872.254498
_symmetry_space_group_name_H-M "P -1"
_symmetry_group_IT_number 2
_symmetry_cell_setting 'triclinic'
loop_
_space_group_symop_operation_xyz
x,y,z
-x,-y,-z
loop_
_atom_site_type_symbol
_atom_site_label
_atom_site_fract_x
_atom_site_fract_y
_atom_site_fract_z
Si Si1 0.162951 0.668848 0.016218
Si Si2 0.323654 0.690191 0.600077
Si Si3 0.597458 0.666979 0.384152
Si Si4 0.378836 0.302833 0.168069
Si Si5 0.551499 0.356227 0.215897
Si Si6 0.072777 0.379142 0.386754
Si Si7 0.793219 0.685758 0.420638
Si Si8 0.353741 0.324372 0.491616
O O1 0.244160 0.522433 0.114710
O O2 0.133388 0.501214 0.162079
O O3 0.269308 0.647011 0.808537
O O4 0.000000 0.000000 0.000000
O O5 0.500000 0.500000 0.500000
O O6 0.303064 0.584675 0.630014
O O7 0.212082 0.031838 0.473420
O O8 0.491859 0.651054 0.606369
O O9 0.665308 0.666032 0.375583
O O10 0.503317 0.973103 0.219361
O O11 0.315414 0.281714 0.372228
O O12 0.437685 0.432176 0.990427
O O13 0.414768 0.457123 0.278119
O O14 0.707887 0.011399 0.252198
O O15 0.000000 0.500000 0.500000
O O16 0.946457 0.497479 0.403954
O O17 0.790111 0.555738 0.444091
O O18 0.500000 0.000000 0.500000
#
# Coordination Sequence:
#
# PCOD9086327 Si02
#       8
#     2   2   2   2   2   2   2   2
#     4  12  24  39  62  93 124 165 209 246 305 379
#     4  12  26  41  64  91 130 162 202 262 311 354
#     4   9  21  37  52  87 124 150 198 257 300 353
#     4  11  18  31  60  84 121 157 201 246 305 355
#     4   8  18  31  57  86 120 150 202 248 301 350
#     4  12  24  41  64  86 125 169 206 248 308 369
#     4  10  19  36  57  87 117 160 203 254 295 356
#     4   8  16  36  57  84 122 157 200 256 300 356
#
# _framework density 18.34327
#
# number of rings (size 3 to 8) (size 9 to 14) (size 15 to 20)
#    0.750    1.000    3.750    2.250    1.750    3.500 
#    0.000    0.625    0.000    0.750    0.000    0.000 
#    0.000    0.000    0.000    0.000    0.000    0.000 
#
# Total GULP energy -89079.096253 kJ/mol
# GULP energy per Si atom -5567.443516 kJ/mol
# Density = 1.830152 g / cm^3
# Si number density = 18.343270 Si / 1000 Ang^3
#
#
#
# Elastic Constant Matrix: (Units=GPa)
#
#
# Indices 1 2 3 4 5 6 
#
# 1 107.6459 41.3239 9.3390 -3.6094 -3.9015 -5.4580
# 2 41.3239 94.7890 31.2776 -16.6812 -4.6337 6.7975
# 3 9.3390 31.2776 91.5960 -13.5530 -21.9757 6.0737
# 4 -3.6094 -16.6812 -13.5530 26.2672 5.6818 -6.5153
# 5 -3.9015 -4.6337 -21.9757 5.6818 31.8662 2.2318
# 6 -5.4580 6.7975 6.0737 -6.5153 2.2318 27.1229
#
#
#
# Elastic Compliance Matrix: (Units=1/GPa)
#
#
# Indices 1 2 3 4 5 6 
#
# 1 0.011556 -0.005609 0.000596 -0.001068 0.000972 0.003261
# 2 -0.005609 0.015638 -0.004155 0.006970 -0.002363 -0.002249
# 3 0.000596 -0.004155 0.015119 0.002572 0.009605 -0.002397
# 4 -0.001068 0.006970 0.002572 0.047399 -0.006451 0.009379
# 5 0.000972 -0.002363 0.009605 -0.006451 0.039361 -0.006151
# 6 0.003261 -0.002249 -0.002397 0.009379 -0.006151 0.041385
#
#
# Mechanical properties :
#
#
# Convention : Reuss Voigt Hill
#
# Bulk Modulus (GPa) = 41.70380 50.87913 46.29146
# Shear Modulus (GPa) = 25.40820 31.19061 28.29941
#
# Velocity S-wave (km/s) = 3.72580 4.12805 3.93207
# Velocity P-wave (km/s) = 6.42599 7.10763 6.77539
#
# Compressibility (1/GPa) = 0.02397863
#
# Stress axis : x y z
#
# Youngs Moduli (GPa) = 86.53551 63.94573 66.14028
#
# Poissons Ratio (x) = 0.35866 -0.03942
# Poissons Ratio (y) = 0.48536 0.27479
# Poissons Ratio (z) = -0.05158 0.26568
#
# Static dielectric constant tensor:
#      x y z
#    x 1.462730 -0.062440 -0.268880 
#    y -0.062440 1.624550 -0.054820 
#    z -0.268880 -0.054820 1.349170 
# 
# From -- ./inp_files/544036.got.cif
#   From: 2010.05.17/outbox.cif.g08.bks.cpg/sg2_273_cif.got.tgz:544036.got - 2010.06.03 11:33:40.
