data_PCOD9086603
_publ_section_title
;
Structure prediction by ZEFSAII (Michael W. Deem and Ramdas Pophale) SiO2 
 PCOD9086603
Probable space group: P -1
;
_chemical_formula_sum "Si O2"
_cell_formula_units_Z 16
_cell_length_a 23.414394
_cell_length_b 13.393069
_cell_length_c 18.657211
_cell_angle_alpha 145.614775
_cell_angle_beta 22.258943
_cell_angle_gamma 157.139947
_cell_volume 845.755731
_symmetry_space_group_name_H-M "P -1"
_symmetry_group_IT_number 2
_symmetry_cell_setting 'triclinic'
loop_
_space_group_symop_operation_xyz
x,y,z
-x,-y,-z
loop_
_atom_site_type_symbol
_atom_site_label
_atom_site_fract_x
_atom_site_fract_y
_atom_site_fract_z
Si Si1 0.638651 0.692001 0.520880
Si Si2 0.783462 0.019520 0.293364
Si Si3 0.936065 0.744436 0.701226
Si Si4 0.499244 0.057607 0.116490
Si Si5 0.895776 0.467242 0.989585
Si Si6 0.988300 0.499265 0.613912
Si Si7 0.305653 0.629552 0.678574
Si Si8 0.077718 0.989273 0.019744
O O1 0.500000 0.500000 0.500000
O O2 0.520067 0.748636 0.733439
O O3 0.696797 0.584280 0.442426
O O4 0.863263 0.966940 0.391175
O O5 0.553895 0.885898 0.515875
O O6 0.888521 0.947703 0.175269
O O7 0.946640 0.331249 0.291653
O O8 0.766588 0.938850 0.183758
O O9 0.868243 0.552516 0.601985
O O10 0.023751 0.676092 0.615926
O O11 0.806171 0.777580 0.919330
O O12 0.272501 0.778576 0.247204
O O13 0.732399 0.218739 0.979651
O O14 0.500000 0.000000 0.000000
O O15 0.119013 0.554910 0.801781
O O16 0.754480 0.367406 0.168285
O O17 0.971176 0.724595 0.024207
#
# Coordination Sequence:
#
# PCOD9086603 Si02
#       8
#     2   2   2   2   2   2   2   2
#     4  11  18  34  61  85 111 152 203 245 283 340
#     4  10  21  35  60  91 114 148 199 245 303 339
#     4   9  17  29  50  78 108 144 178 235 289 332
#     4  11  22  36  60  90 117 153 195 251 296 348
#     4  11  23  38  60  88 124 156 201 244 297 350
#     4   9  19  30  52  84 115 142 184 240 292 346
#     4  11  23  37  61  91 118 160 199 247 293 355
#     4  10  19  36  59  86 115 146 199 256 284 341
#
# _framework density 18.917992000000002
#
# number of rings (size 3 to 8) (size 9 to 14) (size 15 to 20)
#    0.000    1.750    2.500    3.000    5.250    2.500 
#    0.000    0.625    0.000    7.500    0.000    0.000 
#    0.000    0.000    0.000    0.000    0.000    0.000 
#
# Total GULP energy -89101.160217 kJ/mol
# GULP energy per Si atom -5568.822514 kJ/mol
# Density = 1.887493 g / cm^3
# Si number density = 18.917992 Si / 1000 Ang^3
#
#
#
# Elastic Constant Matrix: (Units=GPa)
#
#
# Indices 1 2 3 4 5 6 
#
# 1 69.6531 35.9167 36.8667 6.9911 -0.6594 5.0088
# 2 35.9167 99.3440 28.9411 16.3485 -6.3576 -3.3268
# 3 36.8667 28.9411 74.7374 4.4243 -1.9931 4.9966
# 4 6.9911 16.3485 4.4243 30.8748 5.5299 7.1711
# 5 -0.6594 -6.3576 -1.9931 5.5299 25.6891 1.8707
# 6 5.0088 -3.3268 4.9966 7.1711 1.8707 18.7474
#
#
#
# Elastic Compliance Matrix: (Units=1/GPa)
#
#
# Indices 1 2 3 4 5 6 
#
# 1 0.022101 -0.005917 -0.008363 0.000696 -0.001342 -0.004858
# 2 -0.005917 0.015051 -0.002787 -0.008915 0.004698 0.007936
# 3 -0.008363 -0.002787 0.018770 0.001490 0.000514 -0.003884
# 4 0.000696 -0.008915 0.001490 0.042578 -0.009967 -0.017457
# 5 -0.001342 0.004698 0.000514 -0.009967 0.042193 0.000658
# 6 -0.004858 0.007936 -0.003884 -0.017457 0.000658 0.063694
#
#
# Mechanical properties :
#
#
# Convention : Reuss Voigt Hill
#
# Bulk Modulus (GPa) = 45.89748 49.68706 47.79227
# Shear Modulus (GPa) = 20.34310 24.52959 22.43634
#
# Velocity S-wave (km/s) = 3.28278 3.60478 3.44754
# Velocity P-wave (km/s) = 6.21955 6.60661 6.41600
#
# Compressibility (1/GPa) = 0.02178769
#
# Stress axis : x y z
#
# Youngs Moduli (GPa) = 45.24607 66.44218 53.27681
#
# Poissons Ratio (x) = 0.39315 0.44556
# Poissons Ratio (y) = 0.26773 0.14847
# Poissons Ratio (z) = 0.37839 0.18516
#
# Static dielectric constant tensor:
#      x y z
#    x 1.680820 0.024760 0.042700 
#    y 0.024760 1.682890 0.015240 
#    z 0.042700 0.015240 1.724170 
# 
# From -- ./inp_files/602451.got.cif
#   From: 2010.05.17/outbox.cif.g08.bks.cpg/sg2_302_cif.got.tgz:602451.got - 2010.06.03 11:33:40.
