data_PCOD9086833
_publ_section_title
;
Structure prediction by ZEFSAII (Michael W. Deem and Ramdas Pophale) SiO2 
 PCOD9086833
Probable space group: P -1
;
_chemical_formula_sum "Si O2"
_cell_formula_units_Z 16
_cell_length_a 11.555083
_cell_length_b 17.575260
_cell_length_c 13.046433
_cell_angle_alpha 32.378001
_cell_angle_beta 36.718858
_cell_angle_gamma 26.788824
_cell_volume 626.862636
_symmetry_space_group_name_H-M "P -1"
_symmetry_group_IT_number 2
_symmetry_cell_setting 'triclinic'
loop_
_space_group_symop_operation_xyz
x,y,z
-x,-y,-z
loop_
_atom_site_type_symbol
_atom_site_label
_atom_site_fract_x
_atom_site_fract_y
_atom_site_fract_z
Si Si1 0.001868 0.008580 0.174510
Si Si2 0.447545 0.192156 0.425361
Si Si3 0.126737 0.840181 0.502824
Si Si4 0.016020 0.752504 0.342254
Si Si5 0.224017 0.548030 0.645619
Si Si6 0.804819 0.397101 0.918348
Si Si7 0.244505 0.229061 0.919385
Si Si8 0.611583 0.658578 0.493154
O O1 0.712637 0.080713 0.302696
O O2 0.963859 0.193743 0.977523
O O3 0.118853 0.920894 0.304819
O O4 0.122826 0.858516 0.166241
O O5 0.240951 0.414263 0.285504
O O6 0.523066 0.199504 0.478042
O O7 0.282525 0.130262 0.610972
O O8 0.061427 0.708901 0.668567
O O9 0.412718 0.690018 0.519382
O O10 0.000000 0.000000 0.500000
O O11 0.065908 0.660496 0.525478
O O12 0.195758 0.562686 0.359672
O O13 0.500000 0.500000 0.500000
O O14 0.258887 0.359665 0.835244
O O15 0.947119 0.314248 0.025197
O O16 0.500000 0.500000 0.000000
O O17 0.257273 0.283761 0.732140
O O18 0.500000 0.000000 0.000000
#
# Coordination Sequence:
#
# PCOD9086833 Si02
#       8
#     2   2   2   2   2   2   2   2
#     4  10  22  36  62  85 116 154 203 239 297 358
#     4  11  20  39  59  85 119 155 192 244 300 362
#     4  11  20  36  58  91 117 151 195 253 297 347
#     4  10  20  34  60  86 113 149 203 244 287 352
#     4  10  19  36  60  90 114 151 205 251 290 356
#     4  10  22  38  57  89 121 160 196 242 305 358
#     4  11  22  38  66  90 121 160 206 250 298 362
#     4  11  21  36  62  90 117 153 199 248 306 348
#
# _framework density 25.523934000000001
#
# number of rings (size 3 to 8) (size 9 to 14) (size 15 to 20)
#    0.000    1.500    6.250    1.500    1.750    0.000 
#    0.000    0.625    2.750    4.500    0.000    0.000 
#    0.000    0.000    0.000    0.000    0.000    0.000 
#
# Total GULP energy -89099.304382 kJ/mol
# GULP energy per Si atom -5568.706524 kJ/mol
# Density = 2.546584 g / cm^3
# Si number density = 25.523934 Si / 1000 Ang^3
#
#
#
# Elastic Constant Matrix: (Units=GPa)
#
#
# Indices 1 2 3 4 5 6 
#
# 1 129.7266 30.0812 45.4574 -16.3024 -31.3336 -11.3832
# 2 30.0812 64.9157 26.9738 -27.8465 -16.5243 0.6050
# 3 45.4574 26.9738 100.3558 -38.1151 -19.6267 6.6173
# 4 -16.3024 -27.8465 -38.1151 41.7526 6.1402 -8.1975
# 5 -31.3336 -16.5243 -19.6267 6.1402 57.6311 -16.4428
# 6 -11.3832 0.6050 6.6173 -8.1975 -16.4428 47.8776
#
#
#
# Elastic Compliance Matrix: (Units=1/GPa)
#
#
# Indices 1 2 3 4 5 6 
#
# 1 0.011425 -0.002546 -0.003990 -0.000706 0.005660 0.005123
# 2 -0.002546 0.024416 0.001826 0.016859 0.005469 0.003598
# 3 -0.003990 0.001826 0.017667 0.015415 0.002780 0.000181
# 4 -0.000706 0.016859 0.015415 0.049626 0.006785 0.008316
# 5 0.005660 0.005469 0.002780 0.006785 0.025284 0.010737
# 6 0.005123 0.003598 0.000181 0.008316 0.010737 0.027145
#
#
# Mechanical properties :
#
#
# Convention : Reuss Voigt Hill
#
# Bulk Modulus (GPa) = 22.68152 55.55811 39.11981
# Shear Modulus (GPa) = 27.82728 42.28464 35.05596
#
# Velocity S-wave (km/s) = 3.30546 4.07463 3.71004
# Velocity P-wave (km/s) = 4.84498 6.62957 5.80624
#
# Compressibility (1/GPa) = 0.04408876
#
# Stress axis : x y z
#
# Youngs Moduli (GPa) = 87.52950 40.95623 56.60175
#
# Poissons Ratio (x) = 0.10429 0.22582
# Poissons Ratio (y) = 0.22287 -0.10336
# Poissons Ratio (z) = 0.34921 -0.07479
#
# Static dielectric constant tensor:
#      x y z
#    x 2.067980 -0.079470 -0.104590 
#    y -0.079470 2.361950 0.165480 
#    z -0.104590 0.165480 2.213620 
# 
# From -- ./inp_files/570133.got.cif
#   From: 2010.05.17/outbox.cif.g08.bks.cpg/sg2_286_cif.got.tgz:570133.got - 2010.06.03 11:33:40.
