data_PCOD9086898
_publ_section_title
;
Structure prediction by ZEFSAII (Michael W. Deem and Ramdas Pophale) SiO2 
 PCOD9086898
Probable space group: P -1
;
_chemical_formula_sum "Si O2"
_cell_formula_units_Z 14
_cell_length_a 14.614985
_cell_length_b 9.210891
_cell_length_c 19.663255
_cell_angle_alpha 52.118208
_cell_angle_beta 18.197904
_cell_angle_gamma 60.305097
_cell_volume 609.529130
_symmetry_space_group_name_H-M "P -1"
_symmetry_group_IT_number 2
_symmetry_cell_setting 'triclinic'
loop_
_space_group_symop_operation_xyz
x,y,z
-x,-y,-z
loop_
_atom_site_type_symbol
_atom_site_label
_atom_site_fract_x
_atom_site_fract_y
_atom_site_fract_z
Si Si1 0.864901 0.602438 0.121684
Si Si2 0.943784 0.761860 0.523415
Si Si3 0.785665 0.589056 0.393498
Si Si4 0.565723 0.165741 0.669131
Si Si5 0.581943 0.873860 0.860254
Si Si6 0.882522 0.610671 0.470623
Si Si7 0.208476 0.874928 0.913588
O O1 0.521010 0.439357 0.428241
O O2 0.740900 0.768966 0.130814
O O3 0.117970 0.701310 0.972283
O O4 0.000000 0.500000 0.000000
O O5 0.771120 0.691757 0.593356
O O6 0.720536 0.745521 0.750677
O O7 0.129553 0.611320 0.444796
O O8 0.171611 0.991274 0.297495
O O9 0.835239 0.380151 0.413953
O O10 0.728189 0.619299 0.504456
O O11 0.071126 0.765388 0.112301
O O12 0.569759 0.042142 0.767809
O O13 0.535225 0.037526 0.659313
O O14 0.249879 0.745363 0.162329
O O15 0.000000 0.000000 0.000000
#
# Coordination Sequence:
#
# PCOD9086898 Si02
#       7
#     2   2   2   2   2   2   2
#     4   9  20  36  56  82 114 144 190 241 285 338
#     4  10  23  37  61  89 117 157 196 237 289 352
#     4  10  20  36  60  80 117 149 187 240 289 335
#     4   9  20  35  59  79 115 151 187 238 284 343
#     4  11  20  40  61  86 120 153 199 237 289 350
#     4  11  21  39  60  87 121 156 190 243 294 338
#     4  10  19  36  61  78 106 154 191 222 294 346
#
# _framework density 22.968547999999998
#
# number of rings (size 3 to 8) (size 9 to 14) (size 15 to 20)
#    0.857    1.143    2.857    1.286    0.000    1.143 
#    0.000    4.286    0.000    0.000    0.000    0.000 
#    0.000    0.000    0.000    0.000    0.000    0.000 
#
# Total GULP energy -78013.844971 kJ/mol
# GULP energy per Si atom -5572.417498 kJ/mol
# Density = 2.291627 g / cm^3
# Si number density = 22.968548 Si / 1000 Ang^3
#
#
#
# Elastic Constant Matrix: (Units=GPa)
#
#
# Indices 1 2 3 4 5 6 
#
# 1 100.7675 36.1914 -2.7897 -4.7219 0.4856 28.5469
# 2 36.1914 115.0200 17.8971 -0.4983 2.2719 27.9536
# 3 -2.7897 17.8971 49.1466 -14.9923 -4.7073 5.7868
# 4 -4.7219 -0.4983 -14.9923 33.3885 3.7767 -4.8426
# 5 0.4856 2.2719 -4.7073 3.7767 24.0625 -7.5094
# 6 28.5469 27.9536 5.7868 -4.8426 -7.5094 47.7837
#
#
#
# Elastic Compliance Matrix: (Units=1/GPa)
#
#
# Indices 1 2 3 4 5 6 
#
# 1 0.013036 -0.002982 0.003176 0.002489 -0.001765 -0.006453
# 2 -0.002982 0.011749 -0.005020 -0.002902 -0.003225 -0.005285
# 3 0.003176 -0.005020 0.026325 0.011731 0.003595 -0.000395
# 4 0.002489 -0.002902 0.011731 0.036108 -0.002507 0.002055
# 5 -0.001765 -0.003225 0.003595 -0.002507 0.045952 0.009473
# 6 -0.006453 -0.005285 -0.000395 0.002055 0.009473 0.029619
#
#
# Mechanical properties :
#
#
# Convention : Reuss Voigt Hill
#
# Bulk Modulus (GPa) = 24.12054 40.83685 32.47870
# Shear Modulus (GPa) = 26.84416 35.28929 31.06673
#
# Velocity S-wave (km/s) = 3.42239 3.92397 3.68173
# Velocity P-wave (km/s) = 5.11286 6.19259 5.67844
#
# Compressibility (1/GPa) = 0.04145844
#
# Stress axis : x y z
#
# Youngs Moduli (GPa) = 76.71021 85.11376 37.98682
#
# Poissons Ratio (x) = 0.25381 -0.12064
# Poissons Ratio (y) = 0.22875 0.19068
# Poissons Ratio (z) = -0.24363 0.42724
#
# Static dielectric constant tensor:
#      x y z
#    x 1.931670 0.041840 -0.093890 
#    y 0.041840 1.892550 -0.011680 
#    z -0.093890 -0.011680 1.928020 
# 
# From -- ./inp_files/227214.got.cif
#   From: 2010.05.17/outbox.cif.g08.bks.cpg/sg2_114_cif.got.tgz:227214.got - 2010.06.03 11:33:40.
