data_PCOD9086968
_publ_section_title
;
Structure prediction by ZEFSAII (Michael W. Deem and Ramdas Pophale) SiO2 
 PCOD9086968
Probable space group: P -1
;
_chemical_formula_sum "Si O2"
_cell_formula_units_Z 16
_cell_length_a 14.549678
_cell_length_b 7.814441
_cell_length_c 8.663131
_cell_angle_alpha 107.879457
_cell_angle_beta 87.474100
_cell_angle_gamma 46.775703
_cell_volume 635.473257
_symmetry_space_group_name_H-M "P -1"
_symmetry_group_IT_number 2
_symmetry_cell_setting 'triclinic'
loop_
_space_group_symop_operation_xyz
x,y,z
-x,-y,-z
loop_
_atom_site_type_symbol
_atom_site_label
_atom_site_fract_x
_atom_site_fract_y
_atom_site_fract_z
Si Si1 0.465071 0.786139 0.049292
Si Si2 0.724278 0.633369 0.934808
Si Si3 0.012162 0.191092 0.662135
Si Si4 0.923029 0.816464 0.694302
Si Si5 0.813494 0.368514 0.339205
Si Si6 0.807600 0.791136 0.217549
Si Si7 0.284422 0.147462 0.421921
Si Si8 0.718649 0.212343 0.086816
O O1 0.412039 0.881161 0.253534
O O2 0.619039 0.624363 0.970533
O O3 0.420339 0.667409 0.936228
O O4 0.367901 0.080156 0.058896
O O5 0.787338 0.636197 0.083356
O O6 0.853986 0.387856 0.757968
O O7 0.058509 0.130494 0.464626
O O8 0.047497 0.334631 0.775783
O O9 0.103819 0.908402 0.658981
O O10 0.848464 0.735270 0.631371
O O11 0.069979 0.649274 0.711716
O O12 0.823079 0.045034 0.890407
O O13 0.712905 0.639698 0.518153
O O14 0.736344 0.379027 0.211228
O O15 0.723705 0.905757 0.415248
O O16 0.756504 0.015152 0.163199
#
# Coordination Sequence:
#
# PCOD9086968 Si02
#       8
#     2   2   2   2   2   2   2   2
#     4   9  20  38  61  85 116 161 207 242 285 355
#     4  10  19  36  61  86 118 160 203 244 291 355
#     4  10  21  36  59  92 124 152 193 248 309 355
#     4  10  20  36  58  87 121 156 195 241 296 360
#     4  11  21  35  59  92 125 154 190 249 310 354
#     4   9  20  36  59  89 119 153 195 249 298 349
#     4  10  21  37  59  90 122 156 198 243 296 358
#     4   9  20  38  59  87 122 156 196 246 299 352
#
# _framework density 25.178083999999998
#
# number of rings (size 3 to 8) (size 9 to 14) (size 15 to 20)
#    0.000    2.250    0.000    2.250    0.000    8.500 
#    0.000    2.500    0.000   28.500    0.000   14.000 
#    0.000    0.000    0.000    0.000    0.000    0.000 
#
# Total GULP energy -89467.676543 kJ/mol
# GULP energy per Si atom -5591.729784 kJ/mol
# Density = 2.512078 g / cm^3
# Si number density = 25.178084 Si / 1000 Ang^3
#
#
#
# Elastic Constant Matrix: (Units=GPa)
#
#
# Indices 1 2 3 4 5 6 
#
# 1 197.5823 42.5590 101.4136 8.6499 23.8262 0.5402
# 2 42.5590 105.4693 64.5235 0.1668 -3.8968 -2.7490
# 3 101.4136 64.5235 177.1400 -2.2512 16.5102 -4.0215
# 4 8.6499 0.1668 -2.2512 36.7430 6.9644 15.4190
# 5 23.8262 -3.8968 16.5102 6.9644 60.2899 1.8886
# 6 0.5402 -2.7490 -4.0215 15.4190 1.8886 33.6487
#
#
#
# Elastic Compliance Matrix: (Units=1/GPa)
#
#
# Indices 1 2 3 4 5 6 
#
# 1 0.007497 -0.000699 -0.003891 -0.001784 -0.001745 0.000273
# 2 -0.000699 0.012559 -0.004389 -0.000954 0.002375 0.000817
# 3 -0.003891 -0.004389 0.009646 0.001774 -0.001597 0.000134
# 4 -0.001784 -0.000954 0.001774 0.034968 -0.003391 -0.015670
# 5 -0.001745 0.002375 -0.001597 -0.003391 0.018241 0.000561
# 6 0.000273 0.000817 0.000134 -0.015670 0.000561 0.036946
#
#
# Mechanical properties :
#
#
# Convention : Reuss Voigt Hill
#
# Bulk Modulus (GPa) = 85.15750 99.68708 92.42229
# Shear Modulus (GPa) = 35.27808 44.24936 39.76372
#
# Velocity S-wave (km/s) = 3.74724 4.19675 3.97835
# Velocity P-wave (km/s) = 7.25382 7.94748 7.60856
#
# Compressibility (1/GPa) = 0.01174295
#
# Stress axis : x y z
#
# Youngs Moduli (GPa) = 133.39155 79.62134 103.66783
#
# Poissons Ratio (x) = 0.05567 0.40338
# Poissons Ratio (y) = 0.09326 0.45505
# Poissons Ratio (z) = 0.51904 0.34950
#
# Static dielectric constant tensor:
#      x y z
#    x 2.012560 0.046930 0.017900 
#    y 0.046930 2.089160 -0.049770 
#    z 0.017900 -0.049770 1.961240 
# 
# From -- ./inp_files/296102.got.cif
#   From: 2010.05.17/outbox.cif.g08.bks.cpg/sg2_149_cif.got.tgz:296102.got - 2010.06.03 11:33:40.
