data_PCOD9086052
_publ_section_title
;
Structure prediction by ZEFSAII (Michael W. Deem and Ramdas Pophale) SiO2 
 PCOD9086052
Probable space group: P -1
;
_chemical_formula_sum "Si O2"
_cell_formula_units_Z 16
_cell_length_a 20.470864
_cell_length_b 12.228055
_cell_length_c 12.683400
_cell_angle_alpha 55.037903
_cell_angle_beta 35.073735
_cell_angle_gamma 30.787944
_cell_volume 837.615230
_symmetry_space_group_name_H-M "P -1"
_symmetry_group_IT_number 2
_symmetry_cell_setting 'triclinic'
loop_
_space_group_symop_operation_xyz
x,y,z
-x,-y,-z
loop_
_atom_site_type_symbol
_atom_site_label
_atom_site_fract_x
_atom_site_fract_y
_atom_site_fract_z
Si Si1 0.407258 0.276961 0.825545
Si Si2 0.146778 0.840975 0.294337
Si Si3 0.517231 0.300825 0.061051
Si Si4 0.971418 0.377869 0.730133
Si Si5 0.984856 0.076364 0.807730
Si Si6 0.523821 0.550763 0.203085
Si Si7 0.688291 0.759479 0.703674
Si Si8 0.354889 0.546289 0.596776
O O1 0.493361 0.304916 0.776978
O O2 0.404087 0.349098 0.675226
O O3 0.538290 0.017176 0.804803
O O4 0.176511 0.478208 0.054807
O O5 0.263522 0.865483 0.095063
O O6 0.033646 0.895542 0.310284
O O7 0.335107 0.555921 0.219166
O O8 0.000000 0.000000 0.500000
O O9 0.525299 0.349282 0.903354
O O10 0.446572 0.217745 0.191616
O O11 0.059604 0.144923 0.718097
O O12 0.819257 0.559028 0.732741
O O13 0.144453 0.320456 0.538198
O O14 0.759332 0.278844 0.038930
O O15 0.131879 0.810186 0.780749
O O16 0.395394 0.554913 0.419480
O O17 0.500000 0.500000 0.500000
#
# Coordination Sequence:
#
# PCOD9086052 Si02
#       8
#     2   2   2   2   2   2   2   2
#     4  10  20  32  48  79 106 146 172 203 253 316
#     4  10  20  34  55  77 102 136 174 224 268 302
#     4  10  20  35  52  81 108 132 177 214 267 312
#     4  10  20  32  51  78 111 144 168 204 266 312
#     4  10  19  36  51  77 108 134 176 220 259 305
#     4   9  18  33  50  77 107 140 169 217 258 303
#     4  11  20  33  51  76 114 142 168 206 259 325
#     4  10  20  31  51  76 106 141 178 210 254 306
#
# _framework density 19.101848
#
# number of rings (size 3 to 8) (size 9 to 14) (size 15 to 20)
#    0.000    2.000    3.750    2.625    0.000    6.500 
#    0.000    0.000    0.000    0.750    0.000   13.125 
#    0.000    0.000    0.000    0.000    0.000    0.000 
#
# Total GULP energy -89214.797778 kJ/mol
# GULP energy per Si atom -5575.924861 kJ/mol
# Density = 1.905837 g / cm^3
# Si number density = 19.101848 Si / 1000 Ang^3
#
#
#
# Elastic Constant Matrix: (Units=GPa)
#
#
# Indices 1 2 3 4 5 6 
#
# 1 33.6791 12.2217 17.7076 -1.8496 -1.0420 16.8280
# 2 12.2217 62.6343 13.4730 10.1725 4.5717 13.3598
# 3 17.7076 13.4730 88.8329 -4.9942 5.1667 15.2274
# 4 -1.8496 10.1725 -4.9942 30.1791 4.4661 -0.5658
# 5 -1.0420 4.5717 5.1667 4.4661 25.2060 0.8069
# 6 16.8280 13.3598 15.2274 -0.5658 0.8069 22.0800
#
#
#
# Elastic Compliance Matrix: (Units=1/GPa)
#
#
# Indices 1 2 3 4 5 6 
#
# 1 0.049755 -0.002229 -0.003877 0.001930 0.004002 -0.033994
# 2 -0.002229 0.019998 -0.001210 -0.006974 -0.001926 -0.009675
# 3 -0.003877 -0.001210 0.013473 0.002744 -0.003015 -0.005424
# 4 0.001930 -0.006974 0.002744 0.036959 -0.005831 0.002017
# 5 0.004002 -0.001926 -0.003015 -0.005831 0.041887 -0.001486
# 6 -0.033994 -0.009675 -0.005424 0.002017 -0.001486 0.080898
#
#
# Mechanical properties :
#
#
# Convention : Reuss Voigt Hill
#
# Bulk Modulus (GPa) = 14.57888 30.21674 22.39781
# Shear Modulus (GPa) = 17.82745 24.94263 21.38504
#
# Velocity S-wave (km/s) = 3.05828 3.61746 3.34956
# Velocity P-wave (km/s) = 4.48548 5.77072 5.16821
#
# Compressibility (1/GPa) = 0.06859236
#
# Stress axis : x y z
#
# Youngs Moduli (GPa) = 20.09867 50.00557 74.22327
#
# Poissons Ratio (x) = 0.11147 0.28776
# Poissons Ratio (y) = 0.04480 0.08983
# Poissons Ratio (z) = 0.07792 0.06052
#
# Static dielectric constant tensor:
#      x y z
#    x 1.725230 -0.023860 -0.010780 
#    y -0.023860 1.667140 -0.003830 
#    z -0.010780 -0.003830 1.720430 
# 
# From -- ./inp_files/436979.got.cif
#   From: 2010.05.17/outbox.cif.g08.bks.cpg/sg2_219_cif.got.tgz:436979.got - 2010.06.03 11:33:40.
