data_PCOD9086684
_publ_section_title
;
Structure prediction by ZEFSAII (Michael W. Deem and Ramdas Pophale) SiO2 
 PCOD9086684
Probable space group: P -1
;
_chemical_formula_sum "Si O2"
_cell_formula_units_Z 16
_cell_length_a 7.859813
_cell_length_b 7.880800
_cell_length_c 16.628076
_cell_angle_alpha 84.957175
_cell_angle_beta 107.823902
_cell_angle_gamma 44.878773
_cell_volume 616.550672
_symmetry_space_group_name_H-M "P -1"
_symmetry_group_IT_number 2
_symmetry_cell_setting 'triclinic'
loop_
_space_group_symop_operation_xyz
x,y,z
-x,-y,-z
loop_
_atom_site_type_symbol
_atom_site_label
_atom_site_fract_x
_atom_site_fract_y
_atom_site_fract_z
Si Si1 0.612220 0.115198 0.503050
Si Si2 0.998981 0.678680 0.442153
Si Si3 0.202292 0.644115 0.185276
Si Si4 0.408359 0.871990 0.973029
Si Si5 0.707974 0.453504 0.173252
Si Si6 0.626583 0.777449 0.266070
Si Si7 0.250516 0.304585 0.109532
Si Si8 0.227852 0.863819 0.310091
O O1 0.321373 0.443269 0.462296
O O2 0.500000 0.000000 0.500000
O O3 0.797151 0.059781 0.605032
O O4 0.830098 0.937376 0.465499
O O5 0.000000 0.500000 0.500000
O O6 0.793376 0.805165 0.330796
O O7 0.464718 0.542542 0.185669
O O8 0.194795 0.449185 0.175959
O O9 0.220499 0.681319 0.279349
O O10 0.924827 0.905470 0.084008
O O11 0.500554 0.783752 0.898104
O O12 0.578883 0.623044 0.066198
O O13 0.500000 0.000000 0.000000
O O14 0.811163 0.531924 0.241967
O O15 0.970494 0.139080 0.213291
O O16 0.367113 0.036406 0.163017
O O17 0.508810 0.746674 0.321448
O O18 0.000000 0.500000 0.000000
#
# Coordination Sequence:
#
# PCOD9086684 Si02
#       8
#     2   2   2   2   2   2   2   2
#     4  10  19  36  64  97 140 170 221 286 350 402
#     4  10  19  36  60 102 135 172 223 292 341 402
#     4  11  26  42  61  94 133 177 221 279 342 403
#     4  12  23  43  64  93 128 177 224 280 334 400
#     4  11  23  41  65  95 132 169 230 277 340 406
#     4  11  22  36  66  99 129 174 228 282 339 403
#     4  12  24  43  64  92 133 178 224 278 333 409
#     4  11  23  38  65  99 128 174 218 283 343 409
#
# _framework density 25.950825999999999
#
# number of rings (size 3 to 8) (size 9 to 14) (size 15 to 20)
#    0.000    1.000    5.000    3.375    1.750    4.000 
#    0.000    0.000    0.000    1.500    0.000    0.000 
#    0.000    0.000    0.000    0.000    0.000    0.000 
#
# Total GULP energy -89379.844178 kJ/mol
# GULP energy per Si atom -5586.240261 kJ/mol
# Density = 2.589176 g / cm^3
# Si number density = 25.950826 Si / 1000 Ang^3
#
#
#
# Elastic Constant Matrix: (Units=GPa)
#
#
# Indices 1 2 3 4 5 6 
#
# 1 63.2727 28.0453 28.3206 13.8778 -4.0257 -18.3291
# 2 28.0453 135.1877 41.2407 29.0093 11.1739 -10.8078
# 3 28.3206 41.2407 99.5109 16.8683 13.1669 3.3194
# 4 13.8778 29.0093 16.8683 58.7920 2.2091 13.0712
# 5 -4.0257 11.1739 13.1669 2.2091 36.8442 5.4937
# 6 -18.3291 -10.8078 3.3194 13.0712 5.4937 31.0560
#
#
#
# Elastic Compliance Matrix: (Units=1/GPa)
#
#
# Indices 1 2 3 4 5 6 
#
# 1 0.026914 -0.000223 -0.007170 -0.008677 0.003159 0.019667
# 2 -0.000223 0.010336 -0.003151 -0.005509 -0.002686 0.006596
# 3 -0.007170 -0.003151 0.013990 0.000820 -0.003911 -0.006477
# 4 -0.008677 -0.005509 0.000820 0.025515 0.001606 -0.018149
# 5 0.003159 -0.002686 -0.003911 0.001606 0.030302 -0.004689
# 6 0.019667 0.006596 -0.006477 -0.018149 -0.004689 0.055263
#
#
# Mechanical properties :
#
#
# Convention : Reuss Voigt Hill
#
# Bulk Modulus (GPa) = 33.16544 54.79828 43.98186
# Shear Modulus (GPa) = 25.84524 38.69608 32.27066
#
# Velocity S-wave (km/s) = 3.15926 3.86571 3.53020
# Velocity P-wave (km/s) = 5.11036 6.40991 5.79667
#
# Compressibility (1/GPa) = 0.03015187
#
# Stress axis : x y z
#
# Youngs Moduli (GPa) = 37.15526 96.74804 71.47876
#
# Poissons Ratio (x) = 0.02156 0.51253
# Poissons Ratio (y) = 0.00828 0.22523
# Poissons Ratio (z) = 0.26642 0.30485
#
# Static dielectric constant tensor:
#      x y z
#    x 2.038630 -0.014740 0.010490 
#    y -0.014740 2.149290 0.034000 
#    z 0.010490 0.034000 2.005030 
# 
# From -- ./inp_files/557327.got.cif
#   From: 2010.05.17/outbox.cif.g08.bks.cpg/sg2_279_cif.got.tgz:557327.got - 2010.06.03 11:33:40.
