data_PCOD9086127
_publ_section_title
;
Structure prediction by ZEFSAII (Michael W. Deem and Ramdas Pophale) SiO2 
 PCOD9086127
Probable space group: P -1
;
_chemical_formula_sum "Si O2"
_cell_formula_units_Z 14
_cell_length_a 6.368944
_cell_length_b 6.368942
_cell_length_c 15.432658
_cell_angle_alpha 113.661909
_cell_angle_beta 66.338043
_cell_angle_gamma 109.668088
_cell_volume 513.549798
_symmetry_space_group_name_H-M "P -1"
_symmetry_group_IT_number 2
_symmetry_cell_setting 'triclinic'
loop_
_space_group_symop_operation_xyz
x,y,z
-x,-y,-z
loop_
_atom_site_type_symbol
_atom_site_label
_atom_site_fract_x
_atom_site_fract_y
_atom_site_fract_z
Si Si1 0.205284 0.359112 0.938572
Si Si2 0.144196 0.420262 0.278865
Si Si3 0.500000 0.000000 0.500000
Si Si4 0.825339 0.743785 0.400014
Si Si5 0.743785 0.825338 0.599986
Si Si6 0.000000 0.500000 0.500000
Si Si7 0.359112 0.205284 0.061428
Si Si8 0.420262 0.144195 0.721135
O O1 0.441787 0.558213 0.931694
O O2 0.220696 0.201593 0.825484
O O3 0.211813 0.211813 1.000000
O O4 0.000000 0.500000 0.000000
O O5 0.201593 0.220696 0.174516
O O6 0.360334 0.639666 0.270799
O O7 0.908709 0.511299 0.307215
O O8 0.156165 0.346467 0.367465
O O9 0.359196 0.138130 0.479463
O O10 0.253712 0.746288 0.498728
O O11 0.861870 0.640804 0.479463
O O12 0.653533 0.843835 0.367465
O O13 0.057365 0.942635 0.384649
O O14 0.511299 0.908709 0.692785
O O15 0.500000 0.000000 0.000000
#
# Coordination Sequence:
#
# PCOD9086127 Si02
#       8
#     2   2   1   2   2   1   2   2
#     4  10  23  43  68  95 128 171 220 270 325 384
#     4   9  19  35  54  80 115 152 196 254 311 372
#     4  10  16  26  54  80 104 146 186 238 304 368
#     4   8  15  28  46  70 101 138 180 226 284 353
#     4   8  15  28  46  70 101 138 180 226 284 353
#     4  10  16  26  54  80 104 146 186 238 304 368
#     4  10  23  43  68  95 128 171 220 270 325 384
#     4   9  19  35  54  80 115 152 196 254 311 372
#
# _framework density 27.261234000000002
#
# number of rings (size 3 to 8) (size 9 to 14) (size 15 to 20)
#    0.000    2.857    0.000    2.571    4.000    0.571 
#    0.000    1.429    0.000   30.857    0.000    0.000 
#    0.000    0.000    0.000    0.000    0.000    0.000 
#
# Total GULP energy -77950.486826 kJ/mol
# GULP energy per Si atom -5567.891916 kJ/mol
# Density = 2.719919 g / cm^3
# Si number density = 27.261234 Si / 1000 Ang^3
#
#
#
# Elastic Constant Matrix: (Units=GPa)
#
#
# Indices 1 2 3 4 5 6 
#
# 1 226.5380 120.3319 87.2520 3.9136 -11.0455 -77.6795
# 2 120.3319 188.0774 77.1331 10.1339 -5.1480 -54.9983
# 3 87.2520 77.1331 227.5768 33.9436 -21.4744 -44.1517
# 4 3.9136 10.1339 33.9436 36.3969 -20.0390 -10.6275
# 5 -11.0455 -5.1480 -21.4744 -20.0390 38.1570 2.4180
# 6 -77.6795 -54.9983 -44.1517 -10.6275 2.4180 112.8063
#
#
#
# Elastic Compliance Matrix: (Units=1/GPa)
#
#
# Indices 1 2 3 4 5 6 
#
# 1 0.008356 -0.003788 -0.001577 0.004395 0.003098 0.003638
# 2 -0.003788 0.008553 -0.001183 -0.001334 -0.001372 0.001003
# 3 -0.001577 -0.001183 0.006239 -0.005136 0.000180 0.000291
# 4 0.004395 -0.001334 -0.005136 0.045363 0.021761 0.004173
# 5 0.003098 -0.001372 0.000180 0.021761 0.038273 0.002764
# 6 0.003638 0.001003 0.000291 0.004173 0.002764 0.012307
#
#
# Mechanical properties :
#
#
# Convention : Reuss Voigt Hill
#
# Bulk Modulus (GPa) = 99.47494 134.62514 117.05004
# Shear Modulus (GPa) = 36.89031 61.30371 49.09701
#
# Velocity S-wave (km/s) = 3.68260 4.74724 4.24840
# Velocity P-wave (km/s) = 7.39262 8.91846 8.19115
#
# Compressibility (1/GPa) = 0.01005278
#
# Stress axis : x y z
#
# Youngs Moduli (GPa) = 119.67118 116.92082 160.27514
#
# Poissons Ratio (x) = 0.44285 0.25283
# Poissons Ratio (y) = 0.45327 0.18956
# Poissons Ratio (z) = 0.18877 0.13828
#
# Static dielectric constant tensor:
#      x y z
#    x 2.318570 0.216510 -0.097960 
#    y 0.216510 2.405850 0.052870 
#    z -0.097960 0.052870 2.277370 
# 
# From -- ./inp_files/7483.got.cif
#   From: 2010.05.17/outbox.cif.g08.bks.cpg/sg2_4_cif.got.tgz:7483.got - 2010.06.03 11:33:40.
