data_PCOD9086839
_publ_section_title
;
Structure prediction by ZEFSAII (Michael W. Deem and Ramdas Pophale) SiO2 
 PCOD9086839
Probable space group: P -1
;
_chemical_formula_sum "Si O2"
_cell_formula_units_Z 16
_cell_length_a 23.765017
_cell_length_b 10.187351
_cell_length_c 8.711180
_cell_angle_alpha 114.003918
_cell_angle_beta 33.942288
_cell_angle_gamma 137.449239
_cell_volume 669.626270
_symmetry_space_group_name_H-M "P -1"
_symmetry_group_IT_number 2
_symmetry_cell_setting 'triclinic'
loop_
_space_group_symop_operation_xyz
x,y,z
-x,-y,-z
loop_
_atom_site_type_symbol
_atom_site_label
_atom_site_fract_x
_atom_site_fract_y
_atom_site_fract_z
Si Si1 0.692982 0.226326 0.685171
Si Si2 0.673689 0.627244 0.213527
Si Si3 0.241460 0.728585 0.080700
Si Si4 0.983448 0.254068 0.318299
Si Si5 0.481399 0.219177 0.654934
Si Si6 0.386314 0.587534 0.219691
Si Si7 0.795819 0.850979 0.739714
Si Si8 0.750060 0.969156 0.431149
O O1 0.730812 0.284492 0.809185
O O2 0.717514 0.396531 0.609570
O O3 0.766565 0.155494 0.426269
O O4 0.500000 0.000000 0.000000
O O5 0.500000 0.500000 0.500000
O O6 0.608436 0.403294 0.322404
O O7 0.747679 0.830466 0.257026
O O8 0.785622 0.746377 0.866870
O O9 0.124309 0.734088 0.371849
O O10 0.158138 0.519901 0.058991
O O11 0.391606 0.969810 0.770842
O O12 0.959585 0.100176 0.421720
O O13 0.895023 0.111972 0.293574
O O14 0.575874 0.355171 0.661860
O O15 0.331150 0.161761 0.949677
O O16 0.285248 0.333070 0.296572
O O17 0.566803 0.770471 0.822943
#
# Coordination Sequence:
#
# PCOD9086839 Si02
#       8
#     2   2   2   2   2   2   2   2
#     4   9  17  28  47  74  98 122 152 202 242 274
#     4  10  19  27  47  72 104 120 150 204 244 279
#     4   9  16  29  47  72  98 121 157 199 236 279
#     4   9  17  29  51  70  94 127 159 198 233 277
#     4  10  16  27  46  72  95 121 154 200 241 271
#     4  11  16  28  50  73  97 120 159 202 238 277
#     4  10  18  29  46  74  98 125 154 198 240 278
#     4  10  16  30  47  73  97 124 158 196 242 279
#
# _framework density 23.893926
#
# number of rings (size 3 to 8) (size 9 to 14) (size 15 to 20)
#    0.000    2.250    7.500    1.125    0.000    0.000 
#    0.000    0.625    0.000   30.000    0.000    1.750 
#    0.000    0.000    0.000    0.000    0.000    0.000 
#
# Total GULP energy -89213.024080 kJ/mol
# GULP energy per Si atom -5575.814005 kJ/mol
# Density = 2.383954 g / cm^3
# Si number density = 23.893926 Si / 1000 Ang^3
#
#
#
# Elastic Constant Matrix: (Units=GPa)
#
#
# Indices 1 2 3 4 5 6 
#
# 1 104.7048 17.3458 47.0774 -45.6605 -0.5213 -13.8722
# 2 17.3458 121.3430 89.1047 -77.4856 -4.3455 10.3901
# 3 47.0774 89.1047 18.1022 -12.2890 19.3590 -28.2169
# 4 -45.6605 -77.4856 -12.2890 38.0775 -18.6746 14.9659
# 5 -0.5213 -4.3455 19.3590 -18.6746 33.1836 4.3298
# 6 -13.8722 10.3901 -28.2169 14.9659 4.3298 51.2013
#
#
#
# Elastic Compliance Matrix: (Units=1/GPa)
#
#
# Indices 1 2 3 4 5 6 
#
# 1 0.009963 -0.003645 0.004773 0.002862 -0.002202 0.005419
# 2 -0.003645 0.002407 0.007379 -0.000760 -0.004895 0.003227
# 3 0.004773 0.007379 0.016336 0.030779 0.008957 -0.000955
# 4 0.002862 -0.000760 0.030779 0.035765 0.001159 0.007340
# 5 -0.002202 -0.004895 0.008957 0.001159 0.024505 0.002922
# 6 0.005419 0.003227 -0.000955 0.007340 0.002922 0.017425
#
#
# Mechanical properties :
#
#
# Convention : Reuss Voigt Hill
#
# Bulk Modulus (GPa) = 21.87189 61.24510 41.55849
# Shear Modulus (GPa) = 47.78835 30.53397 39.16116
#
# Velocity S-wave (km/s) = 4.47701 3.57865 4.05280
# Velocity P-wave (km/s) = 5.99153 6.53937 6.27143
#
# Compressibility (1/GPa) = 0.04572079
#
# Stress axis : x y z
#
# Youngs Moduli (GPa) = 100.36739 415.44712 61.21313
#
# Poissons Ratio (x) = 1.51413 -0.29216
# Poissons Ratio (y) = 0.36580 -0.45167
# Poissons Ratio (z) = -0.47904 -3.06545
#
# Static dielectric constant tensor:
#      x y z
#    x -75.780160 6.049560 -3.816600 
#    y 6.049560 1.436990 0.287110 
#    z -3.816600 0.287110 1.724550 
# 
# From -- ./inp_files/353532.got.cif
#   From: 2010.05.17/outbox.cif.g08.bks.cpg/sg2_177_cif.got.tgz:353532.got - 2010.06.03 11:33:40.
