data_PCOD9086357
_publ_section_title
;
Structure prediction by ZEFSAII (Michael W. Deem and Ramdas Pophale) SiO2 
 PCOD9086357
Probable space group: P -1
;
_chemical_formula_sum "Si O2"
_cell_formula_units_Z 16
_cell_length_a 11.065046
_cell_length_b 8.721480
_cell_length_c 17.304565
_cell_angle_alpha 30.774816
_cell_angle_beta 115.989405
_cell_angle_gamma 121.795453
_cell_volume 725.828983
_symmetry_space_group_name_H-M "P -1"
_symmetry_group_IT_number 2
_symmetry_cell_setting 'triclinic'
loop_
_space_group_symop_operation_xyz
x,y,z
-x,-y,-z
loop_
_atom_site_type_symbol
_atom_site_label
_atom_site_fract_x
_atom_site_fract_y
_atom_site_fract_z
Si Si1 0.124832 0.402799 0.835265
Si Si2 0.556509 0.037588 0.123758
Si Si3 0.087921 0.351835 0.145413
Si Si4 0.290428 0.033565 0.949002
Si Si5 0.311911 0.128618 0.542909
Si Si6 0.075601 0.255245 0.346253
Si Si7 0.589983 0.223341 0.649163
Si Si8 0.763805 0.747206 0.908845
O O1 0.182998 0.213672 0.869303
O O2 0.967263 0.437030 0.774109
O O3 0.226707 0.769597 0.698574
O O4 0.146405 0.264798 0.984471
O O5 0.636951 0.885837 0.149903
O O6 0.503816 0.835513 0.272922
O O7 0.419636 0.086200 0.022366
O O8 0.661722 0.384588 0.025688
O O9 0.014079 0.172737 0.278490
O O10 0.148743 0.158274 0.186879
O O11 0.000000 0.500000 0.000000
O O12 0.206513 0.658243 0.082554
O O13 0.234688 0.232412 0.403684
O O14 0.476615 0.148767 0.580244
O O15 0.311316 0.412200 0.478695
O O16 0.000000 0.000000 0.500000
O O17 0.672894 0.978321 0.788466
#
# Coordination Sequence:
#
# PCOD9086357 Si02
#       8
#     2   2   2   2   2   2   2   2
#     4  11  20  40  63  91 119 168 211 256 305 373
#     4  10  19  36  57  93 132 153 198 268 311 354
#     4  11  23  41  62  96 126 158 209 270 307 359
#     4  10  22  33  60  96 122 156 207 265 307 355
#     4  10  23  38  59  88 128 165 206 245 318 377
#     4  10  23  41  62  84 128 169 198 250 319 374
#     4  11  20  37  62  92 121 172 203 256 306 384
#     4  11  21  36  68  93 121 158 217 259 305 360
#
# _framework density 22.043762999999998
#
# number of rings (size 3 to 8) (size 9 to 14) (size 15 to 20)
#    0.000    1.500    3.750    1.875    0.000    1.500 
#    0.000    6.250    0.000    5.250    0.000    0.000 
#    0.000    0.000    0.000    0.000    0.000    0.000 
#
# Total GULP energy -89244.246756 kJ/mol
# GULP energy per Si atom -5577.765422 kJ/mol
# Density = 2.199359 g / cm^3
# Si number density = 22.043763 Si / 1000 Ang^3
#
#
#
# Elastic Constant Matrix: (Units=GPa)
#
#
# Indices 1 2 3 4 5 6 
#
# 1 87.3003 18.9409 50.3060 10.9991 9.5966 -36.2105
# 2 18.9409 48.7864 44.6795 6.6408 1.5172 -11.3444
# 3 50.3060 44.6795 129.4452 15.8022 21.3076 -18.5932
# 4 10.9991 6.6408 15.8022 37.3694 8.4390 0.2589
# 5 9.5966 1.5172 21.3076 8.4390 37.4002 0.0886
# 6 -36.2105 -11.3444 -18.5932 0.2589 0.0886 40.1789
#
#
#
# Elastic Compliance Matrix: (Units=1/GPa)
#
#
# Indices 1 2 3 4 5 6 
#
# 1 0.022891 0.001491 -0.006001 -0.004229 -0.001604 0.018305
# 2 0.001491 0.031671 -0.011365 -0.002507 0.005361 0.005031
# 3 -0.006001 -0.011365 0.014895 -0.001093 -0.006235 -0.001703
# 4 -0.004229 -0.002507 -0.001093 0.030069 -0.004963 -0.005208
# 5 -0.001604 0.005361 -0.006235 -0.004963 0.031611 -0.002855
# 6 0.018305 0.005031 -0.001703 -0.005208 -0.002855 0.042057
#
#
# Mechanical properties :
#
#
# Convention : Reuss Voigt Hill
#
# Bulk Modulus (GPa) = 26.52034 54.82050 40.67042
# Shear Modulus (GPa) = 22.98704 33.09675 28.04190
#
# Velocity S-wave (km/s) = 3.23273 3.87901 3.57052
# Velocity P-wave (km/s) = 5.09813 6.70710 5.95719
#
# Compressibility (1/GPa) = 0.03770691
#
# Stress axis : x y z
#
# Youngs Moduli (GPa) = 43.68538 31.57437 67.13604
#
# Poissons Ratio (x) = -0.04706 0.40288
# Poissons Ratio (y) = -0.06512 0.76299
# Poissons Ratio (z) = 0.26215 0.35884
#
# Static dielectric constant tensor:
#      x y z
#    x 1.951320 0.038750 -0.017310 
#    y 0.038750 1.860910 0.023800 
#    z -0.017310 0.023800 1.821300 
# 
# From -- ./inp_files/474212.got.cif
#   From: 2010.05.17/outbox.cif.g08.bks.cpg/sg2_238_cif.got.tgz:474212.got - 2010.06.03 11:33:40.
