data_PCOD9086801
_publ_section_title
;
Structure prediction by ZEFSAII (Michael W. Deem and Ramdas Pophale) SiO2 
 PCOD9086801
Probable space group: P -1
;
_chemical_formula_sum "Si O2"
_cell_formula_units_Z 16
_cell_length_a 11.476733
_cell_length_b 17.033881
_cell_length_c 11.373171
_cell_angle_alpha 35.232020
_cell_angle_beta 50.855942
_cell_angle_gamma 40.909914
_cell_volume 839.391936
_symmetry_space_group_name_H-M "P -1"
_symmetry_group_IT_number 2
_symmetry_cell_setting 'triclinic'
loop_
_space_group_symop_operation_xyz
x,y,z
-x,-y,-z
loop_
_atom_site_type_symbol
_atom_site_label
_atom_site_fract_x
_atom_site_fract_y
_atom_site_fract_z
Si Si1 0.896409 0.408583 0.187954
Si Si2 0.333640 0.147357 0.987560
Si Si3 0.402898 0.705775 0.744967
Si Si4 0.407037 0.490352 0.378101
Si Si5 0.255468 0.496165 0.087697
Si Si6 0.923289 0.528015 0.384380
Si Si7 0.444954 0.356298 0.762141
Si Si8 0.130376 0.051211 0.404863
O O1 0.753760 0.486220 0.286913
O O2 0.022110 0.216319 0.346262
O O3 0.781589 0.461507 0.076989
O O4 0.000000 0.500000 0.000000
O O5 0.210788 0.097295 0.189455
O O6 0.217381 0.289974 0.794065
O O7 0.410514 0.212938 0.957412
O O8 0.500000 0.000000 0.000000
O O9 0.503890 0.604602 0.684129
O O10 0.555894 0.655181 0.805817
O O11 0.287702 0.894260 0.561348
O O12 0.274496 0.643047 0.943315
O O13 0.200947 0.545710 0.444156
O O14 0.501574 0.367778 0.579302
O O15 0.436249 0.632094 0.227325
O O16 0.096075 0.477271 0.256852
O O17 0.000000 0.500000 0.500000
O O18 0.000000 0.000000 0.500000
#
# Coordination Sequence:
#
# PCOD9086801 Si02
#       8
#     2   2   2   2   2   2   2   2
#     4  12  21  39  62  89 128 164 202 253 309 372
#     4  11  23  38  61  90 122 156 207 265 309 356
#     4  11  22  38  63  94 123 163 207 257 305 370
#     4  10  19  36  60  88 119 158 208 249 301 363
#     4  11  22  39  60  92 125 164 208 248 315 371
#     4  11  20  36  58  91 121 159 206 254 302 365
#     4  10  20  36  59  88 121 163 204 248 312 368
#     4  12  21  37  62  95 124 157 212 256 303 360
#
# _framework density 19.061415
#
# number of rings (size 3 to 8) (size 9 to 14) (size 15 to 20)
#    0.000    1.000    6.250    2.250    0.000    1.000 
#    0.000    0.625    0.000    0.750    0.000    0.000 
#    0.000    0.000    0.000    0.000    0.000    0.000 
#
# Total GULP energy -89158.200257 kJ/mol
# GULP energy per Si atom -5572.387516 kJ/mol
# Density = 1.901803 g / cm^3
# Si number density = 19.061415 Si / 1000 Ang^3
#
#
#
# Elastic Constant Matrix: (Units=GPa)
#
#
# Indices 1 2 3 4 5 6 
#
# 1 124.4170 30.8396 37.5005 -18.5674 -15.0205 -18.3178
# 2 30.8396 81.3052 28.4417 -11.3712 -10.9886 -2.1019
# 3 37.5005 28.4417 84.4259 -13.0869 -9.7619 -6.4380
# 4 -18.5674 -11.3712 -13.0869 35.7998 -9.6769 -1.5528
# 5 -15.0205 -10.9886 -9.7619 -9.6769 51.1312 5.2425
# 6 -18.3178 -2.1019 -6.4380 -1.5528 5.2425 21.6660
#
#
#
# Elastic Compliance Matrix: (Units=1/GPa)
#
#
# Indices 1 2 3 4 5 6 
#
# 1 0.011823 -0.002186 -0.002682 0.005552 0.002645 0.008745
# 2 -0.002186 0.015084 -0.003468 0.003040 0.002703 -0.001852
# 3 -0.002682 -0.003468 0.015108 0.003607 0.001860 0.001694
# 4 0.005552 0.003040 0.003607 0.035834 0.009095 0.006428
# 5 0.002645 0.002703 0.001860 0.009095 0.023187 -0.001907
# 6 0.008745 -0.001852 0.001694 0.006428 -0.001907 0.054794
#
#
# Mechanical properties :
#
#
# Convention : Reuss Voigt Hill
#
# Bulk Modulus (GPa) = 39.45945 53.74574 46.60260
# Shear Modulus (GPa) = 27.63187 34.61047 31.12117
#
# Velocity S-wave (km/s) = 3.81152 4.26577 4.04503
# Velocity P-wave (km/s) = 6.33375 7.24704 6.80574
#
# Compressibility (1/GPa) = 0.02534247
#
# Stress axis : x y z
#
# Youngs Moduli (GPa) = 84.58023 66.29391 66.19224
#
# Poissons Ratio (x) = 0.14495 0.17751
# Poissons Ratio (y) = 0.18493 0.22956
# Poissons Ratio (z) = 0.22682 0.22991
#
# Static dielectric constant tensor:
#      x y z
#    x 1.760800 0.030370 -0.040130 
#    y 0.030370 1.723480 0.040610 
#    z -0.040130 0.040610 1.701590 
# 
# From -- ./inp_files/436336.got.cif
#   From: 2010.05.17/outbox.cif.g08.bks.cpg/sg2_219_cif.got.tgz:436336.got - 2010.06.03 11:33:40.
