data_PCOD9086014
_publ_section_title
;
Structure prediction by ZEFSAII (Michael W. Deem and Ramdas Pophale) SiO2 
 PCOD9086014
Probable space group: P -1
;
_chemical_formula_sum "Si O2"
_cell_formula_units_Z 16
_cell_length_a 11.843721
_cell_length_b 9.807394
_cell_length_c 14.393391
_cell_angle_alpha 128.033723
_cell_angle_beta 134.511988
_cell_angle_gamma 83.903374
_cell_volume 765.012091
_symmetry_space_group_name_H-M "P -1"
_symmetry_group_IT_number 2
_symmetry_cell_setting 'triclinic'
loop_
_space_group_symop_operation_xyz
x,y,z
-x,-y,-z
loop_
_atom_site_type_symbol
_atom_site_label
_atom_site_fract_x
_atom_site_fract_y
_atom_site_fract_z
Si Si1 0.022912 0.252210 0.019535
Si Si2 0.017267 0.596914 0.281602
Si Si3 0.900426 0.801683 0.158900
Si Si4 0.651045 0.368676 0.425245
Si Si5 0.719721 0.889513 0.803703
Si Si6 0.521594 0.314559 0.126215
Si Si7 0.752783 0.233632 0.108466
Si Si8 0.101522 0.284821 0.421412
O O1 0.085647 0.303573 0.970823
O O2 0.162384 0.199885 0.127539
O O3 0.811207 0.029831 0.822493
O O4 0.032393 0.442843 0.155090
O O5 0.991516 0.754763 0.276522
O O6 0.837936 0.438707 0.178339
O O7 0.208439 0.700205 0.498414
O O8 0.677977 0.711766 0.014797
O O9 0.018599 0.047996 0.301811
O O10 0.506645 0.301493 0.399585
O O11 0.526078 0.262390 0.215153
O O12 0.791055 0.615528 0.575402
O O13 0.745290 0.063374 0.965287
O O14 0.559263 0.180470 0.022685
O O15 0.724609 0.551419 0.340503
O O16 0.912445 0.287403 0.302318
#
# Coordination Sequence:
#
# PCOD9086014 Si02
#       8
#     2   2   2   2   2   2   2   2
#     4  10  20  39  60  88 120 161 199 252 298 353
#     4  10  24  38  63  84 131 156 196 254 304 351
#     4  12  22  44  59  91 124 166 194 245 311 356
#     4   9  20  40  57  98 112 160 204 251 291 360
#     4  10  19  35  67  91 116 155 210 250 295 351
#     4  10  22  38  70  85 124 156 209 241 298 360
#     4  10  19  41  63  94 117 160 201 253 295 354
#     4   9  20  37  62  88 121 154 201 249 285 359
#
# _framework density 20.914701999999998
#
# number of rings (size 3 to 8) (size 9 to 14) (size 15 to 20)
#    0.750    1.250    2.500    0.750    1.750    3.000 
#    6.750    1.250    0.000    0.000    0.000    0.000 
#    0.000    0.000    0.000    0.000    0.000    0.000 
#
# Total GULP energy -89178.462272 kJ/mol
# GULP energy per Si atom -5573.653892 kJ/mol
# Density = 2.086710 g / cm^3
# Si number density = 20.914702 Si / 1000 Ang^3
#
#
#
# Elastic Constant Matrix: (Units=GPa)
#
#
# Indices 1 2 3 4 5 6 
#
# 1 87.5239 23.9131 9.5772 4.2559 18.6519 -5.0665
# 2 23.9131 107.8192 25.5526 -20.8885 10.9779 9.4251
# 3 9.5772 25.5526 41.2324 -2.9921 10.7248 -6.4014
# 4 4.2559 -20.8885 -2.9921 23.5818 -1.4805 1.8563
# 5 18.6519 10.9779 10.7248 -1.4805 29.8846 5.7169
# 6 -5.0665 9.4251 -6.4014 1.8563 5.7169 16.1020
#
#
#
# Elastic Compliance Matrix: (Units=1/GPa)
#
#
# Indices 1 2 3 4 5 6 
#
# 1 0.017850 -0.008190 0.007079 -0.012098 -0.015094 0.019979
# 2 -0.008190 0.019904 -0.015440 0.019775 0.009283 -0.025941
# 3 0.007079 -0.015440 0.042731 -0.013876 -0.021972 0.037654
# 4 -0.012098 0.019775 -0.013876 0.063917 0.014849 -0.033538
# 5 -0.015094 0.009283 -0.021972 0.014849 0.055832 -0.040453
# 6 0.019979 -0.025941 0.037654 -0.033538 -0.040453 0.116774
#
#
# Mechanical properties :
#
#
# Convention : Reuss Voigt Hill
#
# Bulk Modulus (GPa) = 21.10424 39.40680 30.25552
# Shear Modulus (GPa) = 13.66483 25.74919 19.70701
#
# Velocity S-wave (km/s) = 2.55886 3.51258 3.07295
# Velocity P-wave (km/s) = 4.34084 5.94421 5.20464
#
# Compressibility (1/GPa) = 0.04738385
#
# Stress axis : x y z
#
# Youngs Moduli (GPa) = 56.02257 50.24133 23.40235
#
# Poissons Ratio (x) = 0.41149 -0.16568
# Poissons Ratio (y) = 0.45884 0.36132
# Poissons Ratio (z) = -0.39661 0.77571
#
# Static dielectric constant tensor:
#      x y z
#    x 1.811450 -0.001970 -0.023340 
#    y -0.001970 1.724030 0.063970 
#    z -0.023340 0.063970 1.816750 
# 
# From -- ./inp_files/516155.got.cif
#   From: 2010.05.17/outbox.cif.g08.bks.cpg/sg2_259_cif.got.tgz:516155.got - 2010.06.03 11:33:40.
