data_PCOD9086982
_publ_section_title
;
Structure prediction by ZEFSAII (Michael W. Deem and Ramdas Pophale) SiO2 
 PCOD9086982
Probable space group: P -1
;
_chemical_formula_sum "Si O2"
_cell_formula_units_Z 14
_cell_length_a 12.593037
_cell_length_b 18.800184
_cell_length_c 18.485996
_cell_angle_alpha 29.139318
_cell_angle_beta 160.589629
_cell_angle_gamma 140.226822
_cell_volume 665.740775
_symmetry_space_group_name_H-M "P -1"
_symmetry_group_IT_number 2
_symmetry_cell_setting 'triclinic'
loop_
_space_group_symop_operation_xyz
x,y,z
-x,-y,-z
loop_
_atom_site_type_symbol
_atom_site_label
_atom_site_fract_x
_atom_site_fract_y
_atom_site_fract_z
Si Si1 0.080981 0.478839 0.827160
Si Si2 0.426516 0.774960 0.970682
Si Si3 0.662877 0.275200 0.298359
Si Si4 0.813242 0.698468 0.596067
Si Si5 0.886253 0.665737 0.237386
Si Si6 0.436969 0.567378 0.571388
Si Si7 0.652917 0.992063 0.026190
O O1 0.126499 0.611378 0.685474
O O2 0.975867 0.562728 0.762019
O O3 0.789553 0.426543 0.651151
O O4 0.438965 0.338225 0.170661
O O5 0.072815 0.792665 0.688951
O O6 0.699289 0.776884 0.082903
O O7 0.487412 0.606727 0.195971
O O8 0.464694 0.895694 0.945143
O O9 0.943548 0.104866 0.632077
O O10 0.394859 0.309220 0.029192
O O11 0.734640 0.624169 0.684799
O O12 0.462854 0.830028 0.231008
O O13 0.000000 0.500000 0.500000
O O14 0.212473 0.672767 0.397754
O O15 0.500000 0.000000 0.000000
#
# Coordination Sequence:
#
# PCOD9086982 Si02
#       7
#     2   2   2   2   2   2   2
#     4  10  19  36  61  87 117 155 204 238 286 353
#     4  11  21  38  60  87 115 165 204 242 289 363
#     4  10  19  36  61  91 114 155 208 245 276 354
#     4  12  23  37  59  94 127 154 193 256 307 339
#     4   9  19  36  62  89 114 153 206 245 285 352
#     4  10  21  37  60  91 124 153 200 252 297 345
#     4  12  23  39  60  89 121 159 198 248 301 361
#
# _framework density 21.029205999999999
#
# number of rings (size 3 to 8) (size 9 to 14) (size 15 to 20)
#    0.000    1.429    4.286    1.286    2.000    0.000 
#    0.000    3.571    0.000    1.714    0.000    0.000 
#    0.000    0.000    0.000    0.000    0.000    0.000 
#
# Total GULP energy -78042.264848 kJ/mol
# GULP energy per Si atom -5574.447489 kJ/mol
# Density = 2.098134 g / cm^3
# Si number density = 21.029206 Si / 1000 Ang^3
#
#
#
# Elastic Constant Matrix: (Units=GPa)
#
#
# Indices 1 2 3 4 5 6 
#
# 1 138.9207 50.3351 57.5306 -14.0247 30.8913 -15.8426
# 2 50.3351 36.6821 10.3887 -4.4794 12.9314 -15.0285
# 3 57.5306 10.3887 141.7888 -19.7588 15.3411 -5.5290
# 4 -14.0247 -4.4794 -19.7588 20.4178 -2.1737 -1.4025
# 5 30.8913 12.9314 15.3411 -2.1737 31.5781 -6.7289
# 6 -15.8426 -15.0285 -5.5290 -1.4025 -6.7289 33.4644
#
#
#
# Elastic Compliance Matrix: (Units=1/GPa)
#
#
# Indices 1 2 3 4 5 6 
#
# 1 0.019406 -0.023869 -0.005195 0.002023 -0.007353 -0.003784
# 2 -0.023869 0.068178 0.006650 0.006043 -0.003113 0.020044
# 3 -0.005195 0.006650 0.009970 0.007530 -0.001500 0.002188
# 4 0.002023 0.006043 0.007530 0.059177 -0.002572 0.006878
# 5 -0.007353 -0.003113 -0.001500 -0.002572 0.041343 0.003078
# 6 -0.003784 0.020044 0.002188 0.006878 0.003078 0.038361
#
#
# Mechanical properties :
#
#
# Convention : Reuss Voigt Hill
#
# Bulk Modulus (GPa) = 18.96595 61.54449 40.25522
# Shear Modulus (GPa) = 16.73146 30.36787 23.54967
#
# Velocity S-wave (km/s) = 2.82375 3.80423 3.35005
# Velocity P-wave (km/s) = 4.43507 6.97323 5.84362
#
# Compressibility (1/GPa) = 0.05272607
#
# Stress axis : x y z
#
# Youngs Moduli (GPa) = 51.53108 14.66755 100.29747
#
# Poissons Ratio (x) = 0.35009 0.52106
# Poissons Ratio (y) = 1.22997 -0.66696
# Poissons Ratio (z) = 0.26771 -0.09754
#
# Static dielectric constant tensor:
#      x y z
#    x 1.756810 -0.019790 -0.020150 
#    y -0.019790 1.741460 0.015630 
#    z -0.020150 0.015630 1.917030 
# 
# From -- ./inp_files/283508.got.cif
#   From: 2010.05.17/outbox.cif.g08.bks.cpg/sg2_142_cif.got.tgz:283508.got - 2010.06.03 11:33:40.
