data_PCOD9086237
_publ_section_title
;
Structure prediction by ZEFSAII (Michael W. Deem and Ramdas Pophale) SiO2 
 PCOD9086237
Probable space group: P -1
;
_chemical_formula_sum "Si O2"
_cell_formula_units_Z 10
_cell_length_a 7.974587
_cell_length_b 6.434051
_cell_length_c 10.202947
_cell_angle_alpha 67.268305
_cell_angle_beta 58.761152
_cell_angle_gamma 66.134343
_cell_volume 398.753572
_symmetry_space_group_name_H-M "P -1"
_symmetry_group_IT_number 2
_symmetry_cell_setting 'triclinic'
loop_
_space_group_symop_operation_xyz
x,y,z
-x,-y,-z
loop_
_atom_site_type_symbol
_atom_site_label
_atom_site_fract_x
_atom_site_fract_y
_atom_site_fract_z
Si Si1 0.850795 0.774216 0.892424
Si Si2 0.194466 0.853935 0.372655
Si Si3 0.850054 0.513242 0.347835
Si Si4 0.433509 0.015494 0.672935
Si Si5 0.713020 0.408250 0.162464
O O1 0.816359 0.037014 0.793609
O O2 0.930958 0.614203 0.769299
O O3 0.046103 0.715880 0.923286
O O4 0.682468 0.664319 0.051523
O O5 0.396300 0.902971 0.337325
O O6 0.188702 0.589622 0.470882
O O7 0.000000 0.000000 0.500000
O O8 0.706595 0.426751 0.319288
O O9 0.780213 0.788418 0.293367
O O10 0.410758 0.767357 0.791821
O O11 0.500000 0.000000 0.500000
#
# Coordination Sequence:
#
# PCOD9086237 Si02
#       5
#     2   2   2   2   2
#     4   8  18  40  57  79 114 139 173 231 272 311
#     4  10  19  36  57  79 112 140 179 232 265 310
#     4   9  19  36  60  77 110 145 175 226 267 317
#     4  12  21  33  60  82 106 148 187 213 267 329
#     4   9  19  37  61  76 111 144 180 214 277 326
#
# _framework density 25.078143000000001
#
# number of rings (size 3 to 8) (size 9 to 14) (size 15 to 20)
#    1.200    1.200    2.000    0.600    0.000    1.600 
#    0.000   10.000    0.000    0.000    0.000    0.000 
#    0.000    0.000    0.000    0.000    0.000    0.000 
#
# Total GULP energy -55754.431865 kJ/mol
# GULP energy per Si atom -5575.443186 kJ/mol
# Density = 2.502106 g / cm^3
# Si number density = 25.078143 Si / 1000 Ang^3
#
#
#
# Elastic Constant Matrix: (Units=GPa)
#
#
# Indices 1 2 3 4 5 6 
#
# 1 55.8312 15.2539 24.9230 -10.9381 -14.2162 -1.0512
# 2 15.2539 44.4087 23.7991 1.7192 -14.7365 -10.9279
# 3 24.9230 23.7991 151.1242 -40.4910 -4.6493 2.0289
# 4 -10.9381 1.7192 -40.4910 30.7684 1.1502 -6.2899
# 5 -14.2162 -14.7365 -4.6493 1.1502 28.8272 -8.4603
# 6 -1.0512 -10.9279 2.0289 -6.2899 -8.4603 25.3307
#
#
#
# Elastic Compliance Matrix: (Units=1/GPa)
#
#
# Indices 1 2 3 4 5 6 
#
# 1 0.023710 -0.002587 -0.001123 0.007842 0.011569 0.005769
# 2 -0.002587 0.044587 -0.008992 -0.010864 0.028309 0.026605
# 3 -0.001123 -0.008992 0.012439 0.016147 -0.004497 -0.002415
# 4 0.007842 -0.010864 0.016147 0.059027 0.001336 0.009449
# 5 0.011569 0.028309 -0.004497 0.001336 0.064321 0.034867
# 6 0.005769 0.026605 -0.002415 0.009449 0.034867 0.065380
#
#
# Mechanical properties :
#
#
# Convention : Reuss Voigt Hill
#
# Bulk Modulus (GPa) = 18.07281 42.14621 30.10951
# Shear Modulus (GPa) = 15.95857 29.47781 22.71819
#
# Velocity S-wave (km/s) = 2.52534 3.43219 3.01308
# Velocity P-wave (km/s) = 3.96552 5.70517 4.91296
#
# Compressibility (1/GPa) = 0.05533172
#
# Stress axis : x y z
#
# Youngs Moduli (GPa) = 42.17575 22.42808 80.39459
#
# Poissons Ratio (x) = 0.05802 0.09029
# Poissons Ratio (y) = 0.10911 0.72290
# Poissons Ratio (z) = 0.04737 0.20167
#
# Static dielectric constant tensor:
#      x y z
#    x 1.981530 -0.051850 0.017660 
#    y -0.051850 2.055750 -0.011490 
#    z 0.017660 -0.011490 2.018420 
# 
# From -- ./inp_files/33874.got.cif
#   From: 2010.05.17/outbox.cif.g08.bks.cpg/sg2_17_cif.got.tgz:33874.got - 2010.06.03 11:33:40.
