data_PCOD9086840
_publ_section_title
;
Structure prediction by ZEFSAII (Michael W. Deem and Ramdas Pophale) SiO2 
 PCOD9086840
Probable space group: P -1
;
_chemical_formula_sum "Si O2"
_cell_formula_units_Z 15
_cell_length_a 19.773310
_cell_length_b 7.982105
_cell_length_c 20.667825
_cell_angle_alpha 28.309814
_cell_angle_beta 159.900589
_cell_angle_gamma 143.004167
_cell_volume 523.663486
_symmetry_space_group_name_H-M "P -1"
_symmetry_group_IT_number 2
_symmetry_cell_setting 'triclinic'
loop_
_space_group_symop_operation_xyz
x,y,z
-x,-y,-z
loop_
_atom_site_type_symbol
_atom_site_label
_atom_site_fract_x
_atom_site_fract_y
_atom_site_fract_z
Si Si1 0.927528 0.635069 0.583786
Si Si2 0.210948 0.312697 0.228850
Si Si3 0.460147 0.564001 0.753737
Si Si4 0.679203 0.381917 0.261194
Si Si5 0.103404 0.217937 0.768383
Si Si6 0.289901 0.489848 0.117124
Si Si7 0.701922 0.560400 0.530004
Si Si8 0.500000 0.500000 0.500000
O O1 0.700376 0.652634 0.346974
O O2 0.896213 0.542234 0.663080
O O3 0.055182 0.304820 0.770600
O O4 0.000000 0.000000 0.500000
O O5 0.211230 0.204931 0.190600
O O6 0.344553 0.614771 0.263348
O O7 0.352895 0.992773 0.505655
O O8 0.000000 0.500000 0.000000
O O9 0.480281 0.466423 0.879650
O O10 0.667034 0.517537 0.917157
O O11 0.718643 0.588516 0.162381
O O12 0.886903 0.379754 0.488147
O O13 0.661998 0.983167 0.364361
O O14 0.154152 0.843100 0.903157
O O15 0.519032 0.458183 0.358715
O O16 0.685856 0.399674 0.642366
#
# Coordination Sequence:
#
# PCOD9086840 Si02
#       8
#     2   2   2   2   2   2   2   1
#     4  10  19  36  60  90 119 161 211 258 317 383
#     4  11  21  40  71  92 129 173 217 265 330 386
#     4  10  21  38  62  90 128 169 209 261 327 387
#     4  10  19  36  62  85 122 165 204 265 319 374
#     4  10  21  37  61  90 123 162 217 255 323 388
#     4  10  23  38  60  90 123 170 213 258 322 387
#     4  10  20  38  60  87 124 164 199 273 320 368
#     4  10  22  38  66  98 132 164 218 270 322 390
#
# _framework density 28.644352000000001
#
# number of rings (size 3 to 8) (size 9 to 14) (size 15 to 20)
#    0.000    1.867    2.667    2.000    0.000    1.067 
#    0.000    1.333    5.867    6.400    0.000    0.000 
#    0.000    0.000    0.000    0.000    0.000    0.000 
#
# Total GULP energy -83510.656913 kJ/mol
# GULP energy per Si atom -5567.377128 kJ/mol
# Density = 2.857916 g / cm^3
# Si number density = 28.644352 Si / 1000 Ang^3
#
#
#
# Elastic Constant Matrix: (Units=GPa)
#
#
# Indices 1 2 3 4 5 6 
#
# 1 261.4864 33.9531 76.2149 4.2830 64.8992 19.3781
# 2 33.9531 55.9344 22.6226 -8.1631 14.0383 16.9532
# 3 76.2149 22.6226 97.8279 3.0032 44.1892 -0.8872
# 4 4.2830 -8.1631 3.0032 44.3472 -3.3947 2.6937
# 5 64.8992 14.0383 44.1892 -3.3947 50.7623 8.3888
# 6 19.3781 16.9532 -0.8872 2.6937 8.3888 37.2405
#
#
#
# Elastic Compliance Matrix: (Units=1/GPa)
#
#
# Indices 1 2 3 4 5 6 
#
# 1 0.006032 -0.001275 -0.001850 -0.001045 -0.005610 -0.001263
# 2 -0.001275 0.025023 -0.006208 0.006061 0.002481 -0.011873
# 3 -0.001850 -0.006208 0.020036 -0.003945 -0.014932 0.007915
# 4 -0.001045 0.006061 -0.003945 0.024791 0.005639 -0.005373
# 5 -0.005610 0.002481 -0.014932 0.005639 0.040915 -0.008191
# 6 -0.001263 -0.011873 0.007915 -0.005373 -0.008191 0.035337
#
#
# Mechanical properties :
#
#
# Convention : Reuss Voigt Hill
#
# Bulk Modulus (GPa) = 30.83910 75.64779 53.24344
# Shear Modulus (GPa) = 27.53160 45.30055 36.41607
#
# Velocity S-wave (km/s) = 3.10361 3.98110 3.56942
# Velocity P-wave (km/s) = 4.86135 6.89919 5.96790
#
# Compressibility (1/GPa) = 0.03242637
#
# Stress axis : x y z
#
# Youngs Moduli (GPa) = 165.77765 39.96293 49.90900
#
# Poissons Ratio (x) = 0.05095 0.09232
# Poissons Ratio (y) = 0.21137 0.30983
# Poissons Ratio (z) = 0.30666 0.24808
#
# Static dielectric constant tensor:
#      x y z
#    x 2.391600 0.028340 -0.008640 
#    y 0.028340 1.958370 0.029710 
#    z -0.008640 0.029710 2.300210 
# 
# From -- ./inp_files/203491.got.cif
#   From: 2010.05.17/outbox.cif.g08.bks.cpg/sg2_102_cif.got.tgz:203491.got - 2010.06.03 11:33:40.
