data_PCOD9086821
_publ_section_title
;
Structure prediction by ZEFSAII (Michael W. Deem and Ramdas Pophale) SiO2 
 PCOD9086821
Probable space group: P -1
;
_chemical_formula_sum "Si O2"
_cell_formula_units_Z 14
_cell_length_a 12.195143
_cell_length_b 10.743191
_cell_length_c 8.278976
_cell_angle_alpha 84.768887
_cell_angle_beta 144.746967
_cell_angle_gamma 83.314568
_cell_volume 588.071408
_symmetry_space_group_name_H-M "P -1"
_symmetry_group_IT_number 2
_symmetry_cell_setting 'triclinic'
loop_
_space_group_symop_operation_xyz
x,y,z
-x,-y,-z
loop_
_atom_site_type_symbol
_atom_site_label
_atom_site_fract_x
_atom_site_fract_y
_atom_site_fract_z
Si Si1 0.140040 0.394294 0.057144
Si Si2 0.575852 0.603498 0.853911
Si Si3 0.781232 0.427001 0.385809
Si Si4 0.272357 0.816949 0.826813
Si Si5 0.700059 0.910978 0.650165
Si Si6 0.481194 0.116984 0.134506
Si Si7 0.127425 0.027164 0.851622
O O1 0.307120 0.443719 0.165164
O O2 0.247270 0.246938 0.274623
O O3 0.000000 0.500000 0.000000
O O4 0.993347 0.382894 0.734821
O O5 0.386004 0.560222 0.678217
O O6 0.506815 0.762490 0.753374
O O7 0.726598 0.557159 0.195067
O O8 0.745097 0.323026 0.225778
O O9 0.470074 0.838691 0.988085
O O10 0.091303 0.914426 0.492057
O O11 0.228069 0.871824 0.947630
O O12 0.500000 0.000000 0.500000
O O13 0.654163 0.984062 0.416732
O O14 0.869799 0.935980 0.963511
O O15 0.269802 0.095437 0.917313
#
# Coordination Sequence:
#
# PCOD9086821 Si02
#       7
#     2   2   2   2   2   2   2
#     4  12  24  44  65  96 129 171 215 262 318 381
#     4  10  21  43  67  91 127 173 206 266 319 373
#     4  10  22  43  65  92 129 167 215 261 322 377
#     4  10  20  36  60  91 121 157 206 261 308 369
#     4  10  20  42  63  89 128 165 208 255 317 378
#     4  10  20  39  63  88 125 164 203 253 318 370
#     4  10  19  36  60  89 122 153 209 257 307 372
#
# _framework density 23.806633999999999
#
# number of rings (size 3 to 8) (size 9 to 14) (size 15 to 20)
#    0.000    1.714    4.286    0.857    0.000    1.143 
#   23.143    0.000    0.000    0.000    0.000    0.000 
#    0.000    0.000    0.000    0.000    0.000    0.000 
#
# Total GULP energy -78143.729672 kJ/mol
# GULP energy per Si atom -5581.694977 kJ/mol
# Density = 2.375245 g / cm^3
# Si number density = 23.806634 Si / 1000 Ang^3
#
#
#
# Elastic Constant Matrix: (Units=GPa)
#
#
# Indices 1 2 3 4 5 6 
#
# 1 92.2080 48.8140 -0.9324 -12.1759 15.7956 -0.5199
# 2 48.8140 94.6773 27.8282 -18.5463 -5.7641 -10.1165
# 3 -0.9324 27.8282 59.8226 -18.1461 4.7030 13.7806
# 4 -12.1759 -18.5463 -18.1461 42.7548 -1.4558 2.3015
# 5 15.7956 -5.7641 4.7030 -1.4558 21.5510 -0.7539
# 6 -0.5199 -10.1165 13.7806 2.3015 -0.7539 35.3685
#
#
#
# Elastic Compliance Matrix: (Units=1/GPa)
#
#
# Indices 1 2 3 4 5 6 
#
# 1 0.029435 -0.023043 0.018908 0.006110 -0.031961 -0.014604
# 2 -0.023043 0.032687 -0.022966 -0.002079 0.031159 0.018759
# 3 0.018908 -0.022966 0.038892 0.012190 -0.028464 -0.022844
# 4 0.006110 -0.002079 0.012190 0.029591 -0.005951 -0.007307
# 5 -0.031961 0.031159 -0.028464 -0.005951 0.084731 0.021726
# 6 -0.014604 0.018759 -0.022844 -0.007307 0.021726 0.043264
#
#
# Mechanical properties :
#
#
# Convention : Reuss Voigt Hill
#
# Bulk Modulus (GPa) = 21.36232 44.23638 32.79935
# Shear Modulus (GPa) = 15.22508 31.33474 23.27991
#
# Velocity S-wave (km/s) = 2.53164 3.63191 3.13049
# Velocity P-wave (km/s) = 4.18788 6.01744 5.18401
#
# Compressibility (1/GPa) = 0.04681139
#
# Stress axis : x y z
#
# Youngs Moduli (GPa) = 33.97371 30.59298 25.71243
#
# Poissons Ratio (x) = 0.70496 -0.48617
# Poissons Ratio (y) = 0.78286 0.59051
# Poissons Ratio (z) = -0.64238 0.70260
#
# Static dielectric constant tensor:
#      x y z
#    x 1.980500 -0.054150 0.002900 
#    y -0.054150 1.976630 -0.007460 
#    z 0.002900 -0.007460 1.929590 
# 
# From -- ./inp_files/257749.got.cif
#   From: 2010.05.17/outbox.cif.g08.bks.cpg/sg2_129_cif.got.tgz:257749.got - 2010.06.03 11:33:40.
