data_PCOD9086575
_publ_section_title
;
Structure prediction by ZEFSAII (Michael W. Deem and Ramdas Pophale) SiO2 
 PCOD9086575
Probable space group: P -1
;
_chemical_formula_sum "Si O2"
_cell_formula_units_Z 16
_cell_length_a 9.587099
_cell_length_b 12.131139
_cell_length_c 14.855281
_cell_angle_alpha 113.911738
_cell_angle_beta 149.412801
_cell_angle_gamma 67.431777
_cell_volume 801.426340
_symmetry_space_group_name_H-M "P -1"
_symmetry_group_IT_number 2
_symmetry_cell_setting 'triclinic'
loop_
_space_group_symop_operation_xyz
x,y,z
-x,-y,-z
loop_
_atom_site_type_symbol
_atom_site_label
_atom_site_fract_x
_atom_site_fract_y
_atom_site_fract_z
Si Si1 0.243257 0.040929 0.433549
Si Si2 0.578503 0.452744 0.735141
Si Si3 0.285234 0.106186 0.876587
Si Si4 0.180793 0.501254 0.806063
Si Si5 0.062983 0.300078 0.370207
Si Si6 0.865878 0.620667 0.079942
Si Si7 0.171848 0.113187 0.615465
Si Si8 0.851813 0.351646 0.458686
O O1 0.098885 0.156959 0.341075
O O2 0.318198 0.089258 0.591894
O O3 0.500000 0.000000 0.500000
O O4 0.017893 0.943105 0.291709
O O5 0.348296 0.356488 0.575401
O O6 0.423267 0.570453 0.638399
O O7 0.848962 0.391187 0.819242
O O8 0.684547 0.516548 0.904773
O O9 0.272306 0.242363 0.954931
O O10 0.336434 0.124765 0.803734
O O11 0.500000 0.000000 0.000000
O O12 0.065340 0.421997 0.794801
O O13 0.045699 0.635741 0.760027
O O14 0.098153 0.434758 0.647468
O O15 0.500000 0.500000 0.000000
O O16 0.855315 0.332016 0.347547
O O17 0.945846 0.225245 0.513733
O O18 0.000000 0.000000 0.500000
#
# Coordination Sequence:
#
# PCOD9086575 Si02
#       8
#     2   2   2   2   2   2   2   2
#     4  10  22  42  65  90 123 162 208 258 309 365
#     4  10  22  38  57  88 123 162 192 254 311 357
#     4  11  24  41  65  92 122 168 210 256 305 374
#     4  11  21  34  57  85 116 149 197 248 296 357
#     4  10  21  37  61  88 119 159 199 244 302 375
#     4  11  23  39  58  88 126 157 201 253 311 356
#     4   9  20  38  60  87 117 162 204 250 296 370
#     4  10  19  36  59  84 116 152 201 237 301 365
#
# _framework density 19.964403999999998
#
# number of rings (size 3 to 8) (size 9 to 14) (size 15 to 20)
#    0.000    1.750    1.250    3.750    7.000    2.000 
#    4.500    0.625    0.000    0.000    0.000    0.000 
#    0.000    0.000    0.000    0.000    0.000    0.000 
#
# Total GULP energy -89134.918329 kJ/mol
# GULP energy per Si atom -5570.932396 kJ/mol
# Density = 1.991896 g / cm^3
# Si number density = 19.964404 Si / 1000 Ang^3
#
#
#
# Elastic Constant Matrix: (Units=GPa)
#
#
# Indices 1 2 3 4 5 6 
#
# 1 79.3834 36.8130 23.3470 -13.9958 -0.1395 -11.0225
# 2 36.8130 123.6147 8.4584 -13.7768 -7.4024 5.5110
# 3 23.3470 8.4584 65.5703 -3.4344 4.6770 -7.7573
# 4 -13.9958 -13.7768 -3.4344 32.2395 5.8436 -1.7608
# 5 -0.1395 -7.4024 4.6770 5.8436 19.8569 -2.9966
# 6 -11.0225 5.5110 -7.7573 -1.7608 -2.9966 33.6591
#
#
#
# Elastic Compliance Matrix: (Units=1/GPa)
#
#
# Indices 1 2 3 4 5 6 
#
# 1 0.018007 -0.004727 -0.004714 0.005860 -0.001379 0.005768
# 2 -0.004727 0.009969 -0.000062 0.001535 0.002814 -0.002864
# 3 -0.004714 -0.000062 0.017517 0.000645 -0.004043 0.002177
# 4 0.005860 0.001535 0.000645 0.036212 -0.009766 0.002841
# 5 -0.001379 0.002814 -0.004043 -0.009766 0.055618 0.002596
# 6 0.005768 -0.002864 0.002177 0.002841 0.002596 0.032949
#
#
# Mechanical properties :
#
#
# Convention : Reuss Voigt Hill
#
# Bulk Modulus (GPa) = 37.75404 45.08945 41.42174
# Shear Modulus (GPa) = 25.23891 30.48109 27.86000
#
# Velocity S-wave (km/s) = 3.55941 3.91163 3.73967
# Velocity P-wave (km/s) = 5.98701 6.56011 6.28010
#
# Compressibility (1/GPa) = 0.02648723
#
# Stress axis : x y z
#
# Youngs Moduli (GPa) = 55.53348 100.31346 57.08706
#
# Poissons Ratio (x) = 0.47415 0.26912
# Poissons Ratio (y) = 0.26249 0.00354
# Poissons Ratio (z) = 0.26179 0.00622
#
# Static dielectric constant tensor:
#      x y z
#    x 1.730570 0.030920 -0.043890 
#    y 0.030920 1.946090 -0.092570 
#    z -0.043890 -0.092570 1.799280 
# 
# From -- ./inp_files/335693.got.cif
#   From: 2010.05.17/outbox.cif.g08.bks.cpg/sg2_168_cif.got.tgz:335693.got - 2010.06.03 11:33:40.
