data_PCOD9086182
_publ_section_title
;
Structure prediction by ZEFSAII (Michael W. Deem and Ramdas Pophale) SiO2 
 PCOD9086182
Probable space group: P -1
;
_chemical_formula_sum "Si O2"
_cell_formula_units_Z 14
_cell_length_a 11.394543
_cell_length_b 16.609151
_cell_length_c 11.862124
_cell_angle_alpha 42.221688
_cell_angle_beta 62.047642
_cell_angle_gamma 28.832297
_cell_volume 604.963333
_symmetry_space_group_name_H-M "P -1"
_symmetry_group_IT_number 2
_symmetry_cell_setting 'triclinic'
loop_
_space_group_symop_operation_xyz
x,y,z
-x,-y,-z
loop_
_atom_site_type_symbol
_atom_site_label
_atom_site_fract_x
_atom_site_fract_y
_atom_site_fract_z
Si Si1 0.176511 0.241753 0.944097
Si Si2 0.704085 0.053082 0.651063
Si Si3 0.366436 0.439286 0.204950
Si Si4 0.919502 0.480948 0.448674
Si Si5 0.945448 0.194314 0.706938
Si Si6 0.488691 0.609877 0.053924
Si Si7 0.739977 0.284797 0.462537
O O1 0.176585 0.174873 0.134044
O O2 0.033250 0.484842 0.724697
O O3 0.975884 0.314745 0.883454
O O4 0.500000 0.000000 0.000000
O O5 0.566687 0.191932 0.446982
O O6 0.421340 0.276040 0.630967
O O7 0.853739 0.059453 0.615245
O O8 0.435026 0.378452 0.105057
O O9 0.415501 0.534570 0.124105
O O10 0.054758 0.240954 0.633012
O O11 0.000000 0.500000 0.500000
O O12 0.894650 0.206942 0.584669
O O13 0.614235 0.440820 0.646505
O O14 0.206030 0.899037 0.934698
O O15 0.756064 0.371135 0.267019
#
# Coordination Sequence:
#
# PCOD9086182 Si02
#       7
#     2   2   2   2   2   2   2
#     4  10  20  34  57  84 109 148 189 234 284 320
#     4   9  18  34  58  83 109 146 183 239 284 329
#     4  10  20  36  58  85 119 143 196 230 274 357
#     4  10  19  36  56  83 110 141 195 240 269 338
#     4  10  20  36  55  83 118 147 183 240 290 329
#     4  10  21  36  58  86 114 157 179 232 297 334
#     4   9  19  36  56  85 117 139 190 237 283 348
#
# _framework density 23.141898999999999
#
# number of rings (size 3 to 8) (size 9 to 14) (size 15 to 20)
#    0.000    2.286    1.429    1.286    0.000    2.286 
#   12.857    5.000    0.000    1.714    0.000    0.000 
#    0.000    0.000    0.000    0.000    0.000    0.000 
#
# Total GULP energy -78021.650914 kJ/mol
# GULP energy per Si atom -5572.975065 kJ/mol
# Density = 2.308923 g / cm^3
# Si number density = 23.141899 Si / 1000 Ang^3
#
#
#
# Elastic Constant Matrix: (Units=GPa)
#
#
# Indices 1 2 3 4 5 6 
#
# 1 74.7962 20.1275 45.5164 2.4091 1.2830 -10.3391
# 2 20.1275 62.2762 34.8606 6.1524 -8.6756 -5.1855
# 3 45.5164 34.8606 171.3403 28.0110 -23.1079 -3.0425
# 4 2.4091 6.1524 28.0110 51.7870 -3.7703 1.0873
# 5 1.2830 -8.6756 -23.1079 -3.7703 29.7959 -0.9414
# 6 -10.3391 -5.1855 -3.0425 1.0873 -0.9414 23.1906
#
#
#
# Elastic Compliance Matrix: (Units=1/GPa)
#
#
# Indices 1 2 3 4 5 6 
#
# 1 0.018291 -0.003465 -0.005041 0.001768 -0.005279 0.006421
# 2 -0.003465 0.019316 -0.002320 -0.000645 0.003976 0.002661
# 3 -0.005041 -0.002320 0.009088 -0.003941 0.006055 -0.001143
# 4 0.001768 -0.000645 -0.003941 0.021408 -0.000640 -0.000903
# 5 -0.005279 0.003976 0.006055 -0.000640 0.039592 0.000967
# 6 0.006421 0.002661 -0.001143 -0.000903 0.000967 0.046510
#
#
# Mechanical properties :
#
#
# Convention : Reuss Voigt Hill
#
# Bulk Modulus (GPa) = 39.93408 56.60241 48.26824
# Shear Modulus (GPa) = 27.14354 34.81525 30.97939
#
# Velocity S-wave (km/s) = 3.42850 3.88290 3.66275
# Velocity P-wave (km/s) = 5.74165 6.67941 6.22820
#
# Compressibility (1/GPa) = 0.02504127
#
# Stress axis : x y z
#
# Youngs Moduli (GPa) = 54.67154 51.77160 110.03380
#
# Poissons Ratio (x) = 0.17940 0.55468
# Poissons Ratio (y) = 0.18945 0.25533
# Poissons Ratio (z) = 0.27560 0.12013
#
# Static dielectric constant tensor:
#      x y z
#    x 1.841150 -0.062040 -0.013560 
#    y -0.062040 2.031110 0.039570 
#    z -0.013560 0.039570 1.979720 
# 
# From -- ./inp_files/363137.got.cif
#   From: 2010.05.17/outbox.cif.g08.bks.cpg/sg2_182_cif.got.tgz:363137.got - 2010.06.03 11:33:40.
