data_PCOD9086638
_publ_section_title
;
Structure prediction by ZEFSAII (Michael W. Deem and Ramdas Pophale) SiO2 
 PCOD9086638
Probable space group: P -1
;
_chemical_formula_sum "Si O2"
_cell_formula_units_Z 14
_cell_length_a 7.205727
_cell_length_b 7.456059
_cell_length_c 15.730824
_cell_angle_alpha 131.713890
_cell_angle_beta 90.097511
_cell_angle_gamma 90.097526
_cell_volume 630.886479
_symmetry_space_group_name_H-M "P -1"
_symmetry_group_IT_number 2
_symmetry_cell_setting 'triclinic'
loop_
_space_group_symop_operation_xyz
x,y,z
-x,-y,-z
loop_
_atom_site_type_symbol
_atom_site_label
_atom_site_fract_x
_atom_site_fract_y
_atom_site_fract_z
Si Si1 0.174882 0.255734 0.601745
Si Si2 0.212192 0.741906 0.483366
Si Si3 0.570757 0.419340 0.848475
Si Si4 0.207803 0.091440 0.731234
Si Si5 0.908786 0.243705 0.898333
Si Si6 0.522093 0.593105 0.712692
Si Si7 0.433977 0.908559 0.061878
O O1 0.114043 0.232211 0.693976
O O2 0.327575 0.459566 0.657911
O O3 0.002401 0.295122 0.552579
O O4 0.260676 0.986126 0.505500
O O5 0.333194 0.515979 0.387671
O O6 0.242461 0.832502 0.607818
O O7 0.392515 0.245245 0.794911
O O8 0.750491 0.287001 0.841359
O O9 0.591672 0.510068 0.780441
O O10 0.531792 0.651095 0.980671
O O11 0.071439 0.086007 0.808879
O O12 0.786923 0.136536 0.941560
O O13 0.000000 0.500000 0.000000
O O14 0.511130 0.879976 0.806721
O O15 0.500000 0.000000 0.000000
#
# Coordination Sequence:
#
# PCOD9086638 Si02
#       7
#     2   2   2   2   2   2   2
#     4   8  17  31  56  89 118 148 201 234 279 348
#     4   9  17  32  57  91 117 150 197 241 280 347
#     4  10  21  38  62  86 118 157 197 243 289 347
#     4   9  19  33  58  89 112 145 205 241 272 346
#     4  12  23  39  64  85 114 161 206 238 290 351
#     4  10  19  36  59  88 123 157 182 243 304 340
#     4  10  23  42  57  87 125 150 195 247 298 353
#
# _framework density 22.190995000000001
#
# number of rings (size 3 to 8) (size 9 to 14) (size 15 to 20)
#    0.857    1.429    1.429    1.714    0.000    0.000 
#    2.571    2.143    0.000    1.714    0.000    0.000 
#    0.000    0.000    0.000    0.000    0.000    0.000 
#
# Total GULP energy -78112.613845 kJ/mol
# GULP energy per Si atom -5579.472418 kJ/mol
# Density = 2.214049 g / cm^3
# Si number density = 22.190995 Si / 1000 Ang^3
#
#
#
# Elastic Constant Matrix: (Units=GPa)
#
#
# Indices 1 2 3 4 5 6 
#
# 1 57.4170 4.9815 34.0827 5.5949 5.8518 15.5921
# 2 4.9815 30.2455 -10.2455 7.5539 10.0128 -28.1429
# 3 34.0827 -10.2455 129.7710 22.3154 -2.9271 -11.3970
# 4 5.5949 7.5539 22.3154 23.9462 8.0659 9.3876
# 5 5.8518 10.0128 -2.9271 8.0659 42.6956 8.9015
# 6 15.5921 -28.1429 -11.3970 9.3876 8.9015 -4.5750
#
#
#
# Elastic Compliance Matrix: (Units=1/GPa)
#
#
# Indices 1 2 3 4 5 6 
#
# 1 0.017300 0.006238 -0.002616 -0.005021 -0.004672 0.007709
# 2 0.006238 0.010401 -0.003805 0.006958 -0.000652 -0.020230
# 3 -0.002616 -0.003805 0.008319 -0.004492 0.004191 -0.007296
# 4 -0.005021 0.006958 -0.004492 0.043161 -0.012601 0.015326
# 5 -0.004672 -0.000652 0.004191 -0.012601 0.026275 0.002913
# 6 0.007709 -0.020230 -0.007296 0.015326 0.002913 -0.012571
#
#
# Mechanical properties :
#
#
# Convention : Reuss Voigt Hill
#
# Bulk Modulus (GPa) = 28.04744 30.56346 29.30545
# Shear Modulus (GPa) = 47.55780 24.98766 36.27273
#
# Velocity S-wave (km/s) = 4.63440 3.35927 4.04737
# Velocity P-wave (km/s) = 6.42677 5.37114 5.92252
#
# Compressibility (1/GPa) = 0.03565388
#
# Stress axis : x y z
#
# Youngs Moduli (GPa) = 57.80340 96.14747 120.20933
#
# Poissons Ratio (x) = -0.59981 0.31448
# Poissons Ratio (y) = -0.36060 0.45741
# Poissons Ratio (z) = 0.15122 0.36585
#
# Static dielectric constant tensor:
#      x y z
#    x 1.777700 -0.020200 -0.000910 
#    y -0.020200 1.890490 -0.026160 
#    z -0.000910 -0.026160 1.841720 
# 
# From -- ./inp_files/582066.got.cif
#   From: 2010.05.17/outbox.cif.g08.bks.cpg/sg2_292_cif.got.tgz:582066.got - 2010.06.03 11:33:40.
