data_PCOD9086063
_publ_section_title
;
Structure prediction by ZEFSAII (Michael W. Deem and Ramdas Pophale) SiO2 
 PCOD9086063
Probable space group: P -1
;
_chemical_formula_sum "Si O2"
_cell_formula_units_Z 16
_cell_length_a 25.579374
_cell_length_b 7.452836
_cell_length_c 8.115745
_cell_angle_alpha 123.738910
_cell_angle_beta 41.404444
_cell_angle_gamma 142.187700
_cell_volume 624.695069
_symmetry_space_group_name_H-M "P -1"
_symmetry_group_IT_number 2
_symmetry_cell_setting 'triclinic'
loop_
_space_group_symop_operation_xyz
x,y,z
-x,-y,-z
loop_
_atom_site_type_symbol
_atom_site_label
_atom_site_fract_x
_atom_site_fract_y
_atom_site_fract_z
Si Si1 0.127451 0.739443 0.296628
Si Si2 0.168605 0.409479 0.840009
Si Si3 0.121229 0.648319 0.625771
Si Si4 0.011586 0.873904 0.120829
Si Si5 0.434927 0.601722 0.225593
Si Si6 0.596585 0.015040 0.475750
Si Si7 0.331509 0.298535 0.987675
Si Si8 0.668429 0.808371 0.426640
O O1 0.168534 0.738825 0.377836
O O2 0.000000 0.500000 0.500000
O O3 0.148852 0.619472 0.035977
O O4 0.206822 0.075827 0.227856
O O5 0.084190 0.186441 0.784645
O O6 0.291962 0.640620 0.618536
O O7 0.122208 0.209143 0.012110
O O8 0.044231 0.303835 0.670148
O O9 0.218640 0.864100 0.633332
O O10 0.046415 0.718258 0.867168
O O11 0.483744 0.930882 0.318654
O O12 0.361983 0.387716 0.444326
O O13 0.500000 0.500000 0.000000
O O14 0.389332 0.538583 0.114538
O O15 0.590268 0.859794 0.578135
O O16 0.616528 0.854175 0.216309
O O17 0.331492 0.340109 0.813296
#
# Coordination Sequence:
#
# PCOD9086063 Si02
#       8
#     2   2   2   2   2   2   2   2
#     4  11  20  34  58  89 124 169 217 259 298 371
#     4  10  19  36  52  79 124 162 206 259 309 360
#     4  11  19  34  58  82 123 170 212 257 313 367
#     4  10  20  29  53  83 114 167 210 255 303 354
#     4  12  25  45  75 101 121 167 221 271 343 405
#     4   9  22  44  63  94 135 168 210 271 331 390
#     4   9  23  44  63  96 138 171 212 269 325 384
#     4  10  22  45  63  93 137 168 212 272 331 393
#
# _framework density 25.612494999999999
#
# number of rings (size 3 to 8) (size 9 to 14) (size 15 to 20)
#    0.750    1.000    3.750    0.750    1.750    2.000 
#    2.250    1.250    0.000    0.000    0.000    0.000 
#    0.000    0.000    0.000    0.000    0.000    0.000 
#
# Total GULP energy -89074.376912 kJ/mol
# GULP energy per Si atom -5567.148557 kJ/mol
# Density = 2.555420 g / cm^3
# Si number density = 25.612495 Si / 1000 Ang^3
#
#
#
# Elastic Constant Matrix: (Units=GPa)
#
#
# Indices 1 2 3 4 5 6 
#
# 1 70.5376 19.2562 30.5676 6.4653 21.2800 -1.3389
# 2 19.2562 72.8676 22.0545 -1.7117 12.8809 -3.3884
# 3 30.5676 22.0545 108.1074 7.8119 23.2282 0.4101
# 4 6.4653 -1.7117 7.8119 39.4888 -12.1018 9.2945
# 5 21.2800 12.8809 23.2282 -12.1018 41.7286 7.1741
# 6 -1.3389 -3.3884 0.4101 9.2945 7.1741 36.5152
#
#
#
# Elastic Compliance Matrix: (Units=1/GPa)
#
#
# Indices 1 2 3 4 5 6 
#
# 1 0.019956 -0.002607 -0.002212 -0.007416 -0.011079 0.004579
# 2 -0.002607 0.015545 -0.001883 0.000222 -0.002672 0.001837
# 3 -0.002212 -0.001883 0.012026 -0.004646 -0.006695 0.002107
# 4 -0.007416 0.000222 -0.004646 0.036450 0.019146 -0.013239
# 5 -0.011079 -0.002672 -0.006695 0.019146 0.042077 -0.013719
# 6 0.004579 0.001837 0.002107 -0.013239 -0.013719 0.033766
#
#
# Mechanical properties :
#
#
# Convention : Reuss Voigt Hill
#
# Bulk Modulus (GPa) = 29.30561 43.91880 36.61221
# Shear Modulus (GPa) = 27.08587 35.52213 31.30400
#
# Velocity S-wave (km/s) = 3.25549 3.72816 3.49981
# Velocity P-wave (km/s) = 5.05942 5.97636 5.53690
#
# Compressibility (1/GPa) = 0.03412315
#
# Stress axis : x y z
#
# Youngs Moduli (GPa) = 50.11050 64.32771 83.15482
#
# Poissons Ratio (x) = 0.16771 0.18393
# Poissons Ratio (y) = 0.13064 0.15658
# Poissons Ratio (z) = 0.11084 0.12113
#
# Static dielectric constant tensor:
#      x y z
#    x 2.138510 0.034350 -0.101470 
#    y 0.034350 2.216630 -0.062630 
#    z -0.101470 -0.062630 2.073860 
# 
# From -- ./inp_files/358405.got.cif
#   From: 2010.05.17/outbox.cif.g08.bks.cpg/sg2_180_cif.got.tgz:358405.got - 2010.06.03 11:33:40.
