data_PCOD9086435
_publ_section_title
;
Structure prediction by ZEFSAII (Michael W. Deem and Ramdas Pophale) SiO2 
 PCOD9086435
Probable space group: P -1
;
_chemical_formula_sum "Si O2"
_cell_formula_units_Z 16
_cell_length_a 8.108636
_cell_length_b 14.228316
_cell_length_c 20.746964
_cell_angle_alpha 152.360420
_cell_angle_beta 48.395660
_cell_angle_gamma 112.350840
_cell_volume 664.606246
_symmetry_space_group_name_H-M "P -1"
_symmetry_group_IT_number 2
_symmetry_cell_setting 'triclinic'
loop_
_space_group_symop_operation_xyz
x,y,z
-x,-y,-z
loop_
_atom_site_type_symbol
_atom_site_label
_atom_site_fract_x
_atom_site_fract_y
_atom_site_fract_z
Si Si1 0.889596 0.789342 0.213023
Si Si2 0.032536 0.779841 0.695855
Si Si3 0.766851 0.813201 0.398708
Si Si4 0.596290 0.022734 0.845224
Si Si5 0.973002 0.769037 0.037405
Si Si6 0.972302 0.618425 0.749221
Si Si7 0.674891 0.953173 0.646113
Si Si8 0.587635 0.339191 0.313510
O O1 0.923040 0.815773 0.296793
O O2 0.016874 0.806865 0.124598
O O3 0.560434 0.994454 0.412837
O O4 0.000000 0.500000 0.000000
O O5 0.956935 0.678755 0.714184
O O6 0.349095 0.553997 0.458301
O O7 0.990930 0.033218 0.884846
O O8 0.833049 0.863239 0.738655
O O9 0.806365 0.907653 0.513679
O O10 0.855286 0.525943 0.205260
O O11 0.696591 0.057053 0.771748
O O12 0.456828 0.873165 0.792264
O O13 0.327613 0.294936 0.100878
O O14 0.653097 0.884959 0.181469
O O15 0.188161 0.328941 0.536328
O O16 0.111439 0.734408 0.819346
O O17 0.500000 0.500000 0.500000
#
# Coordination Sequence:
#
# PCOD9086435 Si02
#       8
#     2   2   2   2   2   2   2   2
#     4   8  16  33  58  90 117 139 183 243 292 339
#     4  11  22  39  54  82 119 158 195 246 295 336
#     4   9  18  32  58  89 115 145 187 243 288 341
#     4  12  23  36  55  79 118 157 200 247 289 340
#     4  10  19  36  58  85 115 151 194 239 288 348
#     4  11  22  38  55  80 112 159 205 241 287 335
#     4  11  20  35  56  82 115 153 199 236 288 341
#     4  10  19  37  57  74 106 152 201 246 286 329
#
# _framework density 24.074406
#
# number of rings (size 3 to 8) (size 9 to 14) (size 15 to 20)
#    0.000    1.750    3.750    2.625    0.000    1.000 
#    0.000    0.000    0.000    0.750    0.000   35.875 
#    0.000    0.000    0.000    0.000    0.000    0.000 
#
# Total GULP energy -89147.876640 kJ/mol
# GULP energy per Si atom -5571.742290 kJ/mol
# Density = 2.401961 g / cm^3
# Si number density = 24.074406 Si / 1000 Ang^3
#
#
#
# Elastic Constant Matrix: (Units=GPa)
#
#
# Indices 1 2 3 4 5 6 
#
# 1 89.4433 33.5379 30.1019 -19.2150 -12.0659 -34.1519
# 2 33.5379 104.1913 35.5930 -13.4195 -4.3376 -29.5083
# 3 30.1019 35.5930 123.1857 2.7699 -28.1289 -11.0653
# 4 -19.2150 -13.4195 2.7699 38.3879 -13.4057 13.5604
# 5 -12.0659 -4.3376 -28.1289 -13.4057 25.3705 -2.2639
# 6 -34.1519 -29.5083 -11.0653 13.5604 -2.2639 41.0187
#
#
#
# Elastic Compliance Matrix: (Units=1/GPa)
#
#
# Indices 1 2 3 4 5 6 
#
# 1 0.022139 -0.000560 -0.000054 0.011834 0.017974 0.015095
# 2 -0.000560 0.013216 -0.002930 0.002040 0.000501 0.007604
# 3 -0.000054 -0.002930 0.012392 0.002852 0.014815 0.001065
# 4 0.011834 0.002040 0.002852 0.044011 0.032334 -0.000675
# 5 0.017974 0.000501 0.014815 0.032334 0.082738 0.013199
# 6 0.015095 0.007604 0.001065 -0.000675 0.013199 0.043656
#
#
# Mechanical properties :
#
#
# Convention : Reuss Voigt Hill
#
# Bulk Modulus (GPa) = 24.59527 57.25398 40.92463
# Shear Modulus (GPa) = 20.93855 35.46126 28.19991
#
# Velocity S-wave (km/s) = 2.95234 3.84211 3.42623
# Velocity P-wave (km/s) = 4.67550 6.59668 5.71736
#
# Compressibility (1/GPa) = 0.04065822
#
# Stress axis : x y z
#
# Youngs Moduli (GPa) = 45.16871 75.66493 80.69679
#
# Poissons Ratio (x) = 0.04240 0.00436
# Poissons Ratio (y) = 0.02531 0.23646
# Poissons Ratio (z) = 0.00244 0.22172
#
# Static dielectric constant tensor:
#      x y z
#    x 1.998950 -0.021260 0.046570 
#    y -0.021260 2.022580 -0.071530 
#    z 0.046570 -0.071530 2.029500 
# 
# From -- ./inp_files/590312.got.cif
#   From: 2010.05.17/outbox.cif.g08.bks.cpg/sg2_296_cif.got.tgz:590312.got - 2010.06.03 11:33:40.
