data_PCOD9086671
_publ_section_title
;
Structure prediction by ZEFSAII (Michael W. Deem and Ramdas Pophale) SiO2 
 PCOD9086671
Probable space group: P -1
;
_chemical_formula_sum "Si O2"
_cell_formula_units_Z 14
_cell_length_a 8.252723
_cell_length_b 13.544186
_cell_length_c 5.436117
_cell_angle_alpha 85.334950
_cell_angle_beta 59.959168
_cell_angle_gamma 82.350676
_cell_volume 521.248864
_symmetry_space_group_name_H-M "P -1"
_symmetry_group_IT_number 2
_symmetry_cell_setting 'triclinic'
loop_
_space_group_symop_operation_xyz
x,y,z
-x,-y,-z
loop_
_atom_site_type_symbol
_atom_site_label
_atom_site_fract_x
_atom_site_fract_y
_atom_site_fract_z
Si Si1 0.071435 0.203890 0.325823
Si Si2 0.543954 0.827144 0.476577
Si Si3 0.281255 0.396014 0.610668
Si Si4 0.507344 0.117686 0.993769
Si Si5 0.935201 0.895661 0.146837
Si Si6 0.671023 0.442830 0.118934
Si Si7 0.878036 0.412304 0.468425
O O1 0.998238 0.145037 0.627373
O O2 0.037655 0.321032 0.372958
O O3 0.293074 0.169002 0.157258
O O4 0.004371 0.176302 0.112777
O O5 0.676337 0.721649 0.396992
O O6 0.420323 0.840623 0.322916
O O7 0.704427 0.904051 0.333230
O O8 0.418920 0.847803 0.809405
O O9 0.453136 0.429358 0.313015
O O10 0.303256 0.442054 0.857060
O O11 0.102616 0.469081 0.626590
O O12 0.500000 0.000000 0.000000
O O13 0.000000 0.000000 0.000000
O O14 0.767544 0.390958 0.300512
O O15 0.752641 0.404672 0.807625
#
# Coordination Sequence:
#
# PCOD9086671 Si02
#       7
#     2   2   2   2   2   2   2
#     4  10  21  39  65  86 118 157 203 240 310 359
#     4  10  22  38  65  88 115 158 201 245 306 355
#     4   9  21  36  62  89 129 155 199 240 292 363
#     4  10  22  42  60  83 121 152 204 256 299 347
#     4  10  21  41  60  81 117 156 199 253 299 348
#     4   9  20  34  59  82 134 158 195 233 292 340
#     4  10  19  36  59  93 124 157 197 239 294 364
#
# _framework density 26.858571000000001
#
# number of rings (size 3 to 8) (size 9 to 14) (size 15 to 20)
#    0.857    1.429    0.000    2.143    2.000    0.000 
#    0.000   22.857    0.000    0.000    0.000    0.000 
#    0.000    0.000    0.000    0.000    0.000    0.000 
#
# Total GULP energy -78289.333537 kJ/mol
# GULP energy per Si atom -5592.095253 kJ/mol
# Density = 2.679744 g / cm^3
# Si number density = 26.858571 Si / 1000 Ang^3
#
#
#
# Elastic Constant Matrix: (Units=GPa)
#
#
# Indices 1 2 3 4 5 6 
#
# 1 48.1760 25.5116 46.9104 -1.3680 5.8014 -21.8456
# 2 25.5116 134.0202 40.5341 17.6935 8.2846 -16.6362
# 3 46.9104 40.5341 220.6455 13.8905 50.1076 -1.1528
# 4 -1.3680 17.6935 13.8905 44.8059 7.8107 -0.6061
# 5 5.8014 8.2846 50.1076 7.8107 49.8324 -3.3131
# 6 -21.8456 -16.6362 -1.1528 -0.6061 -3.3131 34.8286
#
#
#
# Elastic Compliance Matrix: (Units=1/GPa)
#
#
# Indices 1 2 3 4 5 6 
#
# 1 0.043938 -0.002958 -0.010555 0.004924 0.006983 0.026547
# 2 -0.002958 0.009020 -0.000902 -0.003418 0.000448 0.002406
# 3 -0.010555 -0.000902 0.008738 -0.001437 -0.007682 -0.007518
# 4 0.004924 -0.003418 -0.001437 0.024691 -0.002322 0.001617
# 5 0.006983 0.000448 -0.007682 -0.002322 0.027729 0.006937
# 6 0.026547 0.002406 -0.007518 0.001617 0.006937 0.046952
#
#
# Mechanical properties :
#
#
# Convention : Reuss Voigt Hill
#
# Bulk Modulus (GPa) = 30.42710 69.86154 50.14432
# Shear Modulus (GPa) = 24.89382 45.21910 35.05646
#
# Velocity S-wave (km/s) = 3.04772 4.10762 3.61671
# Velocity P-wave (km/s) = 4.87217 6.96879 6.01258
#
# Compressibility (1/GPa) = 0.03286544
#
# Stress axis : x y z
#
# Youngs Moduli (GPa) = 22.75911 110.86842 114.44724
#
# Poissons Ratio (x) = 0.32793 1.20802
# Poissons Ratio (y) = 0.06732 0.10323
# Poissons Ratio (z) = 0.24023 0.10000
#
# Static dielectric constant tensor:
#      x y z
#    x 2.246410 0.044870 0.109470 
#    y 0.044870 2.121240 -0.020140 
#    z 0.109470 -0.020140 2.206170 
# 
# From -- ./inp_files/66062.got.cif
#   From: 2010.05.17/outbox.cif.g08.bks.cpg/sg2_34_cif.got.tgz:66062.got - 2010.06.03 11:33:40.
