data_PCOD9086515
_publ_section_title
;
Structure prediction by ZEFSAII (Michael W. Deem and Ramdas Pophale) SiO2 
 PCOD9086515
Probable space group: P -1
;
_chemical_formula_sum "Si O2"
_cell_formula_units_Z 16
_cell_length_a 16.987605
_cell_length_b 8.211799
_cell_length_c 9.654554
_cell_angle_alpha 83.603062
_cell_angle_beta 47.101150
_cell_angle_gamma 114.411782
_cell_volume 726.180980
_symmetry_space_group_name_H-M "P -1"
_symmetry_group_IT_number 2
_symmetry_cell_setting 'triclinic'
loop_
_space_group_symop_operation_xyz
x,y,z
-x,-y,-z
loop_
_atom_site_type_symbol
_atom_site_label
_atom_site_fract_x
_atom_site_fract_y
_atom_site_fract_z
Si Si1 0.419074 0.379782 0.250643
Si Si2 0.813437 0.363346 0.276037
Si Si3 0.850027 0.117339 0.451340
Si Si4 0.081494 0.181209 0.004766
Si Si5 0.298393 0.868508 0.135199
Si Si6 0.377037 0.453945 0.750269
Si Si7 0.378642 0.692297 0.270840
Si Si8 0.343073 0.810299 0.773079
O O1 0.547820 0.497346 0.196218
O O2 0.333692 0.460877 0.373679
O O3 0.302690 0.114437 0.401949
O O4 0.500000 0.500000 0.000000
O O5 0.890048 0.319346 0.293881
O O6 0.665818 0.250316 0.547455
O O7 0.772119 0.236945 0.193885
O O8 0.879137 0.606070 0.138063
O O9 0.823222 0.148352 0.638546
O O10 0.974617 0.116077 0.266646
O O11 0.223362 0.235870 0.892579
O O12 0.000000 0.000000 0.000000
O O13 0.306656 0.703978 0.223184
O O14 0.305071 0.840590 0.966806
O O15 0.449437 0.113840 0.967044
O O16 0.500000 0.500000 0.500000
O O17 0.340419 0.610142 0.788056
O O18 0.500000 0.000000 0.500000
#
# Coordination Sequence:
#
# PCOD9086515 Si02
#       8
#     2   2   2   2   2   2   2   2
#     4  12  22  38  66  98 129 174 216 270 327 388
#     4  10  21  38  66  93 125 171 224 267 327 391
#     4  11  23  42  67  96 135 176 219 267 339 401
#     4  11  24  46  67  96 135 178 221 278 335 397
#     4  10  21  36  60  96 131 170 212 267 332 392
#     4  11  25  41  64  98 129 167 227 275 324 389
#     4  10  19  36  58  92 129 165 214 266 320 384
#     4  11  20  35  61  97 132 165 214 281 325 380
#
# _framework density 22.033075
#
# number of rings (size 3 to 8) (size 9 to 14) (size 15 to 20)
#    0.000    1.250    2.500    4.875    1.750    0.000 
#    0.000    3.125    0.000    6.000    0.000    0.000 
#    0.000    0.000    0.000    0.000    0.000    0.000 
#
# Total GULP energy -89197.161199 kJ/mol
# GULP energy per Si atom -5574.822575 kJ/mol
# Density = 2.198293 g / cm^3
# Si number density = 22.033075 Si / 1000 Ang^3
#
#
#
# Elastic Constant Matrix: (Units=GPa)
#
#
# Indices 1 2 3 4 5 6 
#
# 1 48.2700 35.3640 61.2373 11.7571 3.6441 21.2385
# 2 35.3640 84.2329 35.8090 14.5450 5.8131 11.7195
# 3 61.2373 35.8090 136.0728 37.9285 -10.7102 21.8457
# 4 11.7571 14.5450 37.9285 50.6867 -1.3260 6.4902
# 5 3.6441 5.8131 -10.7102 -1.3260 40.1197 5.6597
# 6 21.2385 11.7195 21.8457 6.4902 5.6597 33.0800
#
#
#
# Elastic Compliance Matrix: (Units=1/GPa)
#
#
# Indices 1 2 3 4 5 6 
#
# 1 0.091922 -0.021084 -0.036275 0.015290 -0.010408 -0.028811
# 2 -0.021084 0.018763 0.005201 -0.004963 -0.000209 0.004464
# 3 -0.036275 0.005201 0.025590 -0.012738 0.008154 0.005652
# 4 0.015290 -0.004963 -0.012738 0.027668 -0.002500 -0.004647
# 5 -0.010408 -0.000209 0.008154 -0.002500 0.028419 -0.003000
# 6 -0.028811 0.004464 0.005652 -0.004647 -0.003000 0.044839
#
#
# Mechanical properties :
#
#
# Convention : Reuss Voigt Hill
#
# Bulk Modulus (GPa) = 31.29041 59.26625 45.27833
# Shear Modulus (GPa) = 14.19772 33.85498 24.02635
#
# Velocity S-wave (km/s) = 2.54122 3.92414 3.30581
# Velocity P-wave (km/s) = 4.77942 6.89123 5.93008
#
# Compressibility (1/GPa) = 0.03195867
#
# Stress axis : x y z
#
# Youngs Moduli (GPa) = 10.87878 53.29655 39.07757
#
# Poissons Ratio (x) = 1.12372 1.41754
# Poissons Ratio (y) = 0.22937 -0.20325
# Poissons Ratio (z) = 0.39463 -0.27720
#
# Static dielectric constant tensor:
#      x y z
#    x 1.852240 0.005110 -0.011680 
#    y 0.005110 1.955020 0.032540 
#    z -0.011680 0.032540 1.845110 
# 
# From -- ./inp_files/329003.got.cif
#   From: 2010.05.17/outbox.cif.g08.bks.cpg/sg2_165_cif.got.tgz:329003.got - 2010.06.03 11:33:40.
