data_PCOD9086881
_publ_section_title
;
Structure prediction by ZEFSAII (Michael W. Deem and Ramdas Pophale) SiO2 
 PCOD9086881
Probable space group: P -1
;
_chemical_formula_sum "Si O2"
_cell_formula_units_Z 16
_cell_length_a 9.889303
_cell_length_b 7.602606
_cell_length_c 12.969480
_cell_angle_alpha 91.336480
_cell_angle_beta 96.554038
_cell_angle_gamma 52.849285
_cell_volume 770.844897
_symmetry_space_group_name_H-M "P -1"
_symmetry_group_IT_number 2
_symmetry_cell_setting 'triclinic'
loop_
_space_group_symop_operation_xyz
x,y,z
-x,-y,-z
loop_
_atom_site_type_symbol
_atom_site_label
_atom_site_fract_x
_atom_site_fract_y
_atom_site_fract_z
Si Si1 0.890485 0.935972 0.110495
Si Si2 0.567222 0.328073 0.702828
Si Si3 0.798072 0.514535 0.349107
Si Si4 0.725604 0.666868 0.568680
Si Si5 0.840843 0.960990 0.876041
Si Si6 0.670935 0.095067 0.509660
Si Si7 0.938270 0.513576 0.775882
Si Si8 0.732548 0.185156 0.301835
O O1 0.012605 0.675136 0.141646
O O2 0.772042 0.046907 0.201902
O O3 0.799086 0.979845 0.994039
O O4 0.997224 0.034027 0.115564
O O5 0.408321 0.312145 0.682232
O O6 0.660475 0.251698 0.598909
O O7 0.461342 0.588708 0.714254
O O8 0.693370 0.169853 0.800128
O O9 0.820393 0.519229 0.473477
O O10 0.902320 0.561331 0.286002
O O11 0.840985 0.281324 0.317316
O O12 0.525478 0.785035 0.538987
O O13 0.799013 0.553049 0.682742
O O14 0.744309 0.863721 0.565635
O O15 0.880030 0.738582 0.829535
O O16 0.764088 0.066436 0.411472
#
# Coordination Sequence:
#
# PCOD9086881 Si02
#       8
#     2   2   2   2   2   2   2   2
#     4  11  26  42  66  87 123 168 203 264 302 360
#     4   9  20  38  66  86 125 165 194 262 301 359
#     4   9  21  37  58  92 130 157 194 251 303 370
#     4  10  21  34  60  92 129 161 199 248 305 374
#     4  11  23  46  64  91 119 159 221 251 306 359
#     4  10  19  36  60  94 125 157 202 250 304 370
#     4  12  22  42  64  91 126 162 206 252 311 362
#     4  10  21  39  61  89 127 163 199 254 305 361
#
# _framework density 20.756447000000001
#
# number of rings (size 3 to 8) (size 9 to 14) (size 15 to 20)
#    0.750    1.000    2.500    1.875    1.750    0.500 
#    0.000    2.500    0.000    0.000    0.000    0.000 
#    0.000    0.000    0.000    0.000    0.000    0.000 
#
# Total GULP energy -89310.924356 kJ/mol
# GULP energy per Si atom -5581.932772 kJ/mol
# Density = 2.070920 g / cm^3
# Si number density = 20.756447 Si / 1000 Ang^3
#
#
#
# Elastic Constant Matrix: (Units=GPa)
#
#
# Indices 1 2 3 4 5 6 
#
# 1 27.8518 -8.7714 19.8580 15.1227 -1.8961 -0.0344
# 2 -8.7714 67.7878 26.0132 -1.4397 5.6888 12.4312
# 3 19.8580 26.0132 106.7282 -28.7747 17.5212 4.7906
# 4 15.1227 -1.4397 -28.7747 4.6138 10.5753 5.9202
# 5 -1.8961 5.6888 17.5212 10.5753 25.7049 -4.7001
# 6 -0.0344 12.4312 4.7906 5.9202 -4.7001 17.3703
#
#
#
# Elastic Compliance Matrix: (Units=1/GPa)
#
#
# Indices 1 2 3 4 5 6 
#
# 1 0.020421 0.006038 0.004624 0.023886 -0.016111 -0.018057
# 2 0.006038 0.020514 -0.003166 0.004054 -0.006712 -0.016994
# 3 0.004624 -0.003166 0.003973 -0.014818 0.005858 0.007814
# 4 0.023886 0.004054 -0.014818 -0.019460 0.021471 0.013675
# 5 -0.016111 -0.006712 0.005858 0.021471 0.026946 0.003129
# 6 -0.018057 -0.016994 0.007814 0.013675 0.003129 0.063726
#
#
# Mechanical properties :
#
#
# Convention : Reuss Voigt Hill
#
# Bulk Modulus (GPa) = 16.69415 30.72969 23.71192
# Shear Modulus (GPa) = 41.29051 20.55568 30.92310
#
# Velocity S-wave (km/s) = 4.46498 3.15036 3.86399
# Velocity P-wave (km/s) = 5.88572 5.29812 5.59963
#
# Compressibility (1/GPa) = 0.05990122
#
# Stress axis : x y z
#
# Youngs Moduli (GPa) = 48.97031 48.74757 251.67215
#
# Poissons Ratio (x) = -0.29436 -1.16373
# Poissons Ratio (y) = -0.29571 0.79674
# Poissons Ratio (z) = -0.22644 0.15432
#
# Static dielectric constant tensor:
#      x y z
#    x 1.783540 0.000710 -0.001100 
#    y 0.000710 1.754470 0.020790 
#    z -0.001100 0.020790 1.713650 
# 
# From -- ./inp_files/417395.got.cif
#   From: 2010.05.17/outbox.cif.g08.bks.cpg/sg2_209_cif.got.tgz:417395.got - 2010.06.03 11:33:40.
