data_PCOD9086445
_publ_section_title
;
Structure prediction by ZEFSAII (Michael W. Deem and Ramdas Pophale) SiO2 
 PCOD9086445
Probable space group: P -1
;
_chemical_formula_sum "Si O2"
_cell_formula_units_Z 16
_cell_length_a 12.009404
_cell_length_b 21.850499
_cell_length_c 9.879458
_cell_angle_alpha 41.705344
_cell_angle_beta 41.301634
_cell_angle_gamma 25.823691
_cell_volume 722.701881
_symmetry_space_group_name_H-M "P -1"
_symmetry_group_IT_number 2
_symmetry_cell_setting 'triclinic'
loop_
_space_group_symop_operation_xyz
x,y,z
-x,-y,-z
loop_
_atom_site_type_symbol
_atom_site_label
_atom_site_fract_x
_atom_site_fract_y
_atom_site_fract_z
Si Si1 0.311535 0.880686 0.882087
Si Si2 0.599757 0.748396 0.327532
Si Si3 0.155477 0.250252 0.657830
Si Si4 0.640838 0.032688 0.041194
Si Si5 0.226847 0.863310 0.708330
Si Si6 0.100853 0.513958 0.688938
Si Si7 0.308368 0.453770 0.877099
Si Si8 0.574511 0.414230 0.940564
O O1 0.304321 0.902250 0.691901
O O2 0.462072 0.721483 0.040163
O O3 0.411348 0.911378 0.850481
O O4 0.000000 0.000000 0.000000
O O5 0.805609 0.701553 0.326735
O O6 0.323765 0.854928 0.487445
O O7 0.699833 0.609911 0.401892
O O8 0.560875 0.837102 0.095341
O O9 0.133305 0.325548 0.424086
O O10 0.868454 0.323303 0.788192
O O11 0.347882 0.082143 0.777812
O O12 0.927697 0.953866 0.859176
O O13 0.412806 0.697258 0.843551
O O14 0.249637 0.501850 0.695826
O O15 0.955946 0.484752 0.928242
O O16 0.392508 0.495256 0.839787
O O17 0.500000 0.500000 0.000000
#
# Coordination Sequence:
#
# PCOD9086445 Si02
#       8
#     2   2   2   2   2   2   2   2
#     4   9  17  37  62  86 113 160 202 245 294 355
#     4  12  21  39  62  91 119 162 208 248 299 366
#     4  11  23  36  57  90 124 158 194 255 310 350
#     4  10  21  38  61  87 124 157 204 254 305 350
#     4   9  20  35  62  88 118 157 208 247 293 365
#     4  11  23  39  64  89 123 160 206 249 301 365
#     4  10  21  40  63  89 119 163 209 247 292 371
#     4  10  19  36  58  85 123 157 193 247 311 357
#
# _framework density 22.139143000000001
#
# number of rings (size 3 to 8) (size 9 to 14) (size 15 to 20)
#    0.000    1.750    1.250    4.875    0.000    0.500 
#    0.000    2.500    8.250    0.000    0.000    0.000 
#    0.000    0.000    0.000    0.000    0.000    0.000 
#
# Total GULP energy -89278.877044 kJ/mol
# GULP energy per Si atom -5579.929815 kJ/mol
# Density = 2.208875 g / cm^3
# Si number density = 22.139143 Si / 1000 Ang^3
#
#
#
# Elastic Constant Matrix: (Units=GPa)
#
#
# Indices 1 2 3 4 5 6 
#
# 1 144.7475 19.9361 30.6564 -3.4748 28.8757 10.2507
# 2 19.9361 66.4895 17.1837 1.1635 17.7106 5.5106
# 3 30.6564 17.1837 71.1602 -8.8337 13.3793 8.8291
# 4 -3.4748 1.1635 -8.8337 31.3564 -6.8497 6.6125
# 5 28.8757 17.7106 13.3793 -6.8497 30.6548 3.3400
# 6 10.2507 5.5106 8.8291 6.6125 3.3400 35.0683
#
#
#
# Elastic Compliance Matrix: (Units=1/GPa)
#
#
# Indices 1 2 3 4 5 6 
#
# 1 0.008979 0.000067 -0.002470 -0.001125 -0.007552 -0.001082
# 2 0.000067 0.018640 -0.002984 -0.003662 -0.010291 -0.000527
# 3 -0.002470 -0.002984 0.017329 0.005130 -0.001935 -0.003955
# 4 -0.001125 -0.003662 0.005130 0.037347 0.010196 -0.008401
# 5 -0.007552 -0.010291 -0.001935 0.010196 0.049052 -0.002283
# 6 -0.001082 -0.000527 -0.003955 -0.008401 -0.002283 0.031712
#
#
# Mechanical properties :
#
#
# Convention : Reuss Voigt Hill
#
# Bulk Modulus (GPa) = 29.26282 46.43882 37.85082
# Shear Modulus (GPa) = 26.99442 33.72395 30.35918
#
# Velocity S-wave (km/s) = 3.49565 3.90715 3.70711
# Velocity P-wave (km/s) = 5.43499 6.43240 5.95462
#
# Compressibility (1/GPa) = 0.03417306
#
# Stress axis : x y z
#
# Youngs Moduli (GPa) = 111.37678 53.64811 57.70699
#
# Poissons Ratio (x) = -0.00360 0.14252
# Poissons Ratio (y) = -0.00747 0.17223
# Poissons Ratio (z) = 0.27507 0.16011
#
# Static dielectric constant tensor:
#      x y z
#    x 1.842830 -0.013130 0.018630 
#    y -0.013130 1.842320 0.026060 
#    z 0.018630 0.026060 1.871130 
# 
# From -- ./inp_files/282867.got.cif
#   From: 2010.05.17/outbox.cif.g08.bks.cpg/sg2_142_cif.got.tgz:282867.got - 2010.06.03 11:33:40.
