data_PCOD9086008
_publ_section_title
;
Structure prediction by ZEFSAII (Michael W. Deem and Ramdas Pophale) SiO2 
 PCOD9086008
Probable space group: P -1
;
_chemical_formula_sum "Si O2"
_cell_formula_units_Z 16
_cell_length_a 9.331572
_cell_length_b 5.444458
_cell_length_c 14.382834
_cell_angle_alpha 82.012482
_cell_angle_beta 102.692620
_cell_angle_gamma 70.081419
_cell_volume 651.757663
_symmetry_space_group_name_H-M "P -1"
_symmetry_group_IT_number 2
_symmetry_cell_setting 'triclinic'
loop_
_space_group_symop_operation_xyz
x,y,z
-x,-y,-z
loop_
_atom_site_type_symbol
_atom_site_label
_atom_site_fract_x
_atom_site_fract_y
_atom_site_fract_z
Si Si1 0.209900 0.615822 0.248378
Si Si2 0.672741 0.384711 0.483017
Si Si3 0.626528 0.572145 0.257970
Si Si4 0.102334 0.683295 0.019743
Si Si5 0.400476 0.988323 0.310192
Si Si6 0.740680 0.856866 0.450737
Si Si7 0.145088 0.198936 0.741944
Si Si8 0.350717 0.682000 0.907557
O O1 0.196893 0.625736 0.133892
O O2 0.295096 0.297141 0.293643
O O3 0.033655 0.733209 0.258933
O O4 0.300128 0.795734 0.297014
O O5 0.500000 0.500000 0.500000
O O6 0.634927 0.433784 0.364781
O O7 0.759374 0.063795 0.516020
O O8 0.783165 0.552792 0.508440
O O9 0.802582 0.548588 0.258767
O O10 0.578649 0.433871 0.176329
O O11 0.505813 0.880403 0.236612
O O12 0.211302 0.634209 0.946825
O O13 0.000000 0.500000 0.000000
O O14 0.000000 0.000000 0.000000
O O15 0.550120 0.936802 0.403733
O O16 0.815874 0.872797 0.359292
O O17 0.257698 0.993219 0.846117
O O18 0.500000 0.500000 0.000000
#
# Coordination Sequence:
#
# PCOD9086008 Si02
#       8
#     2   2   2   2   2   2   2   2
#     4  12  23  40  60  87 119 167 219 249 310 365
#     4  10  19  35  66  99 125 156 197 260 316 362
#     4  10  23  42  61  89 128 156 211 257 304 377
#     4  12  26  42  57  83 121 161 212 267 305 353
#     4  10  23  38  64  86 121 164 202 257 306 362
#     4  10  21  39  62  94 131 154 207 253 307 377
#     4  10  23  39  60  87 125 164 208 261 304 366
#     4  12  25  40  63  86 124 171 208 258 313 364
#
# _framework density 24.549001000000001
#
# number of rings (size 3 to 8) (size 9 to 14) (size 15 to 20)
#    0.000    1.500    2.500    4.125    7.000    0.500 
#    0.000    0.000    0.000    0.000    0.000   92.750 
#    0.000    0.000    0.000    0.000    0.000    0.000 
#
# Total GULP energy -89165.976363 kJ/mol
# GULP energy per Si atom -5572.873523 kJ/mol
# Density = 2.449313 g / cm^3
# Si number density = 24.549001 Si / 1000 Ang^3
#
#
#
# Elastic Constant Matrix: (Units=GPa)
#
#
# Indices 1 2 3 4 5 6 
#
# 1 138.6068 40.2294 23.0630 -15.1967 -30.8838 3.5141
# 2 40.2294 150.3416 24.9894 -2.1200 -2.6059 17.1733
# 3 23.0630 24.9894 107.0513 7.5369 -13.9624 3.0506
# 4 -15.1967 -2.1200 7.5369 31.1483 -0.2270 -6.0237
# 5 -30.8838 -2.6059 -13.9624 -0.2270 44.6261 -3.1183
# 6 3.5141 17.1733 3.0506 -6.0237 -3.1183 35.8637
#
#
#
# Elastic Compliance Matrix: (Units=1/GPa)
#
#
# Indices 1 2 3 4 5 6 
#
# 1 0.010196 -0.002550 -0.001166 0.005485 0.006698 0.001825
# 2 -0.002550 0.007947 -0.001380 -0.001119 -0.002003 -0.003800
# 3 -0.001166 -0.001380 0.010463 -0.003266 0.002337 -0.000460
# 4 0.005485 -0.001119 -0.003266 0.036825 0.003368 0.006754
# 5 0.006698 -0.002003 0.002337 0.003368 0.027891 0.003095
# 6 0.001825 -0.003800 -0.000460 0.006754 0.003095 0.030967
#
#
# Mechanical properties :
#
#
# Convention : Reuss Voigt Hill
#
# Bulk Modulus (GPa) = 54.30562 63.61812 58.96187
# Shear Modulus (GPa) = 35.55720 42.84215 39.19967
#
# Velocity S-wave (km/s) = 3.80994 4.18205 4.00032
# Velocity P-wave (km/s) = 6.44387 7.02071 6.73847
#
# Compressibility (1/GPa) = 0.01841430
#
# Stress axis : x y z
#
# Youngs Moduli (GPa) = 98.07603 125.83830 95.57872
#
# Poissons Ratio (x) = 0.32083 0.11145
# Poissons Ratio (y) = 0.25005 0.13190
# Poissons Ratio (z) = 0.11436 0.17366
#
# Static dielectric constant tensor:
#      x y z
#    x 1.939180 0.063320 -0.025410 
#    y 0.063320 2.020740 -0.083080 
#    z -0.025410 -0.083080 2.027560 
# 
# From -- ./inp_files/552449.got.cif
#   From: 2010.05.17/outbox.cif.g08.bks.cpg/sg2_277_cif.got.tgz:552449.got - 2010.06.03 11:33:40.
