data_PCOD9086340
_publ_section_title
;
Structure prediction by ZEFSAII (Michael W. Deem and Ramdas Pophale) SiO2 
 PCOD9086340
Probable space group: P -1
;
_chemical_formula_sum "Si O2"
_cell_formula_units_Z 16
_cell_length_a 9.619883
_cell_length_b 8.339764
_cell_length_c 12.205966
_cell_angle_alpha 105.719361
_cell_angle_beta 107.508030
_cell_angle_gamma 46.265892
_cell_volume 671.966287
_symmetry_space_group_name_H-M "P -1"
_symmetry_group_IT_number 2
_symmetry_cell_setting 'triclinic'
loop_
_space_group_symop_operation_xyz
x,y,z
-x,-y,-z
loop_
_atom_site_type_symbol
_atom_site_label
_atom_site_fract_x
_atom_site_fract_y
_atom_site_fract_z
Si Si1 0.534031 0.175935 0.534762
Si Si2 0.251019 0.181559 0.127691
Si Si3 0.689468 0.097040 0.108310
Si Si4 0.695272 0.174807 0.796657
Si Si5 0.349551 0.999464 0.694800
Si Si6 0.226954 0.517213 0.078996
Si Si7 0.756955 0.415217 0.149090
Si Si8 0.158289 0.454308 0.609172
O O1 0.668036 0.136945 0.657934
O O2 0.604148 0.155442 0.425292
O O3 0.323256 0.403952 0.559355
O O4 0.500000 0.000000 0.500000
O O5 0.447729 0.083249 0.222755
O O6 0.144003 0.438003 0.124879
O O7 0.197560 0.053761 0.155652
O O8 0.280275 0.083935 0.995060
O O9 0.755560 0.008470 0.230661
O O10 0.458479 0.306676 0.098814
O O11 0.770136 0.207334 0.100510
O O12 0.798624 0.274661 0.848685
O O13 0.473760 0.366158 0.833727
O O14 0.235942 0.240924 0.661256
O O15 0.184462 0.545511 0.944434
O O16 0.878982 0.382257 0.276659
O O17 0.000000 0.500000 0.500000
#
# Coordination Sequence:
#
# PCOD9086340 Si02
#       8
#     2   2   2   2   2   2   2   2
#     4   9  17  31  51  68 102 135 163 204 250 300
#     4  11  16  26  47  74 102 128 158 207 258 296
#     4  10  17  26  47  75 100 126 158 211 254 294
#     4  10  16  27  42  68 102 124 158 200 253 296
#     4  10  18  31  49  74 101 130 167 198 254 304
#     4  10  17  24  43  73 101 126 156 204 261 297
#     4  10  16  29  43  70 101 125 160 210 250 290
#     4  10  19  32  49  69  96 136 174 203 241 291
#
# _framework density 23.810721000000001
#
# number of rings (size 3 to 8) (size 9 to 14) (size 15 to 20)
#    0.000    2.000    6.250    3.000    0.000    0.000 
#    0.000   10.625    0.000    0.000    0.000   21.875 
#    0.000    0.000    0.000    1.875    0.000    0.000 
#
# Total GULP energy -89361.021236 kJ/mol
# GULP energy per Si atom -5585.063827 kJ/mol
# Density = 2.375653 g / cm^3
# Si number density = 23.810721 Si / 1000 Ang^3
#
#
#
# Elastic Constant Matrix: (Units=GPa)
#
#
# Indices 1 2 3 4 5 6 
#
# 1 78.2318 48.4908 42.5353 -2.2909 -3.5290 27.6502
# 2 48.4908 86.3583 46.6795 0.0478 0.6833 24.1898
# 3 42.5353 46.6795 186.1267 2.6049 -7.6486 14.6839
# 4 -2.2909 0.0478 2.6049 38.1532 1.9509 0.6224
# 5 -3.5290 0.6833 -7.6486 1.9509 30.0738 -0.0889
# 6 27.6502 24.1898 14.6839 0.6224 -0.0889 37.8160
#
#
#
# Elastic Compliance Matrix: (Units=1/GPa)
#
#
# Indices 1 2 3 4 5 6 
#
# 1 0.023458 -0.009059 -0.002188 0.001625 0.002266 -0.010529
# 2 -0.009059 0.019378 -0.002496 -0.000210 -0.002139 -0.004804
# 3 -0.002188 -0.002496 0.006516 -0.000661 0.001502 0.000680
# 4 0.001625 -0.000210 -0.000661 0.026460 -0.001693 -0.001237
# 5 0.002266 -0.002139 0.001502 -0.001693 0.034056 -0.000764
# 6 -0.010529 -0.004804 0.000680 -0.001237 -0.000764 0.036970
#
#
# Mechanical properties :
#
#
# Convention : Reuss Voigt Hill
#
# Bulk Modulus (GPa) = 45.72997 69.56978 57.64988
# Shear Modulus (GPa) = 27.53120 35.40934 31.47027
#
# Velocity S-wave (km/s) = 3.40406 3.86050 3.63944
# Velocity P-wave (km/s) = 5.89046 7.01089 6.47495
#
# Compressibility (1/GPa) = 0.02186750
#
# Stress axis : x y z
#
# Youngs Moduli (GPa) = 42.62858 51.60476 153.47135
#
# Poissons Ratio (x) = 0.46748 0.33579
# Poissons Ratio (y) = 0.38617 0.38300
# Poissons Ratio (z) = 0.09327 0.12878
#
# Static dielectric constant tensor:
#      x y z
#    x 2.020590 -0.047830 0.002470 
#    y -0.047830 1.984710 0.039350 
#    z 0.002470 0.039350 1.924240 
# 
# From -- ./inp_files/391039.got.cif
#   From: 2010.05.17/outbox.cif.g08.bks.cpg/sg2_196_cif.got.tgz:391039.got - 2010.06.03 11:33:40.
