data_PCOD9086636
_publ_section_title
;
Structure prediction by ZEFSAII (Michael W. Deem and Ramdas Pophale) SiO2 
 PCOD9086636
Probable space group: P -1
;
_chemical_formula_sum "Si O2"
_cell_formula_units_Z 16
_cell_length_a 8.793291
_cell_length_b 12.259150
_cell_length_c 24.095581
_cell_angle_alpha 29.275906
_cell_angle_beta 140.074971
_cell_angle_gamma 130.973111
_cell_volume 814.470110
_symmetry_space_group_name_H-M "P -1"
_symmetry_group_IT_number 2
_symmetry_cell_setting 'triclinic'
loop_
_space_group_symop_operation_xyz
x,y,z
-x,-y,-z
loop_
_atom_site_type_symbol
_atom_site_label
_atom_site_fract_x
_atom_site_fract_y
_atom_site_fract_z
Si Si1 0.336452 0.642770 0.933132
Si Si2 0.540684 0.856885 0.269802
Si Si3 0.493188 0.825296 0.398878
Si Si4 0.530351 0.449229 0.383499
Si Si5 0.972901 0.245280 0.409254
Si Si6 0.902635 0.232402 0.522323
Si Si7 0.218430 0.260092 0.283012
Si Si8 0.521957 0.657016 0.795035
O O1 0.061535 0.669855 0.825368
O O2 0.450595 0.885133 0.858825
O O3 0.500000 0.500000 0.000000
O O4 0.342795 0.513223 0.050554
O O5 0.441742 0.824795 0.318975
O O6 0.432517 0.689573 0.269890
O O7 0.820078 0.782485 0.381740
O O8 0.371295 0.686347 0.474333
O O9 0.754681 0.699673 0.534033
O O10 0.475611 0.085133 0.297121
O O11 0.761294 0.448057 0.409798
O O12 0.339487 0.326972 0.345553
O O13 0.877908 0.220624 0.455135
O O14 0.760276 0.389780 0.258139
O O15 0.000000 0.000000 0.500000
O O16 0.781327 0.006729 0.608000
O O17 0.359628 0.355598 0.227320
#
# Coordination Sequence:
#
# PCOD9086636 Si02
#       8
#     2   2   2   2   2   2   2   2
#     4  11  24  41  62  79 114 160 206 235 277 344
#     4  10  23  40  56  88 120 159 188 231 297 354
#     4  10  20  34  60  88 118 148 189 239 297 340
#     4  12  21  36  62  90 125 142 186 249 301 348
#     4   9  18  30  55  90 115 143 185 243 288 333
#     4  10  19  36  59  88 120 149 188 236 297 349
#     4  11  22  36  60  93 110 151 199 244 284 336
#     4  11  19  37  61  83 115 149 202 240 277 337
#
# _framework density 19.644674999999999
#
# number of rings (size 3 to 8) (size 9 to 14) (size 15 to 20)
#    0.000    1.500    3.750    3.000    3.500    0.000 
#    0.000    1.250    0.000    0.000    0.000    0.000 
#    0.000    0.000    0.000    0.000    0.000    0.000 
#
# Total GULP energy -89119.634788 kJ/mol
# GULP energy per Si atom -5569.977174 kJ/mol
# Density = 1.959996 g / cm^3
# Si number density = 19.644675 Si / 1000 Ang^3
#
#
#
# Elastic Constant Matrix: (Units=GPa)
#
#
# Indices 1 2 3 4 5 6 
#
# 1 89.0461 34.6546 13.0087 -9.9149 1.4470 -26.5281
# 2 34.6546 65.8504 34.6341 -13.2595 -6.3417 -20.5829
# 3 13.0087 34.6341 71.7931 -9.0872 4.7627 -4.1055
# 4 -9.9149 -13.2595 -9.0872 24.2801 2.6651 6.9458
# 5 1.4470 -6.3417 4.7627 2.6651 31.0594 -0.5209
# 6 -26.5281 -20.5829 -4.1055 6.9458 -0.5209 25.8232
#
#
#
# Elastic Compliance Matrix: (Units=1/GPa)
#
#
# Indices 1 2 3 4 5 6 
#
# 1 0.017299 -0.005016 0.000267 0.000726 -0.001705 0.013586
# 2 -0.005016 0.032139 -0.013621 0.004501 0.008788 0.017265
# 3 0.000267 -0.013621 0.020853 0.003573 -0.006438 -0.008358
# 4 0.000726 0.004501 0.003573 0.048024 -0.003919 -0.008095
# 5 -0.001705 0.008788 -0.006438 -0.003919 0.035494 0.005999
# 6 0.013586 0.017265 -0.008358 -0.008095 0.005999 0.067413
#
#
# Mechanical properties :
#
#
# Convention : Reuss Voigt Hill
#
# Bulk Modulus (GPa) = 29.80542 43.47606 36.64074
# Shear Modulus (GPa) = 18.57724 25.85869 22.21796
#
# Velocity S-wave (km/s) = 3.07850 3.63205 3.36667
# Velocity P-wave (km/s) = 5.27650 6.30621 5.81419
#
# Compressibility (1/GPa) = 0.03355094
#
# Stress axis : x y z
#
# Youngs Moduli (GPa) = 57.80609 31.11472 47.95467
#
# Poissons Ratio (x) = 0.15607 -0.01281
# Poissons Ratio (y) = 0.28995 0.65321
# Poissons Ratio (z) = -0.01544 0.42383
#
# Static dielectric constant tensor:
#      x y z
#    x 1.674980 0.015300 0.055920 
#    y 0.015300 1.759600 0.043260 
#    z 0.055920 0.043260 1.623220 
# 
# From -- ./inp_files/180209.got.cif
#   From: 2010.05.17/outbox.cif.g08.bks.cpg/sg2_91_cif.got.tgz:180209.got - 2010.06.03 11:33:40.
