data_PCOD9086280
_publ_section_title
;
Structure prediction by ZEFSAII (Michael W. Deem and Ramdas Pophale) SiO2 
 PCOD9086280
Probable space group: P -1
;
_chemical_formula_sum "Si O2"
_cell_formula_units_Z 16
_cell_length_a 14.660757
_cell_length_b 13.176622
_cell_length_c 9.895533
_cell_angle_alpha 46.193121
_cell_angle_beta 104.570510
_cell_angle_gamma 133.502715
_cell_volume 903.546645
_symmetry_space_group_name_H-M "P -1"
_symmetry_group_IT_number 2
_symmetry_cell_setting 'triclinic'
loop_
_space_group_symop_operation_xyz
x,y,z
-x,-y,-z
loop_
_atom_site_type_symbol
_atom_site_label
_atom_site_fract_x
_atom_site_fract_y
_atom_site_fract_z
Si Si1 0.655494 0.761791 0.689099
Si Si2 0.890712 0.301167 0.049478
Si Si3 0.897593 0.975022 0.385448
Si Si4 0.383038 0.958664 0.652973
Si Si5 0.998014 0.601496 0.281637
Si Si6 0.318492 0.677255 0.648479
Si Si7 0.335986 0.364582 0.917927
Si Si8 0.115199 0.042904 0.919552
O O1 0.750310 0.811082 0.557913
O O2 0.643542 0.918043 0.540161
O O3 0.502188 0.530296 0.823027
O O4 0.715338 0.779807 0.838996
O O5 0.925254 0.173431 0.201708
O O6 0.731859 0.163249 0.158891
O O7 0.000000 0.500000 0.000000
O O8 0.926403 0.379959 0.837604
O O9 0.891180 0.923274 0.273062
O O10 0.000000 0.000000 0.500000
O O11 0.550494 0.141748 0.568158
O O12 0.351246 0.794667 0.691977
O O13 0.835168 0.447065 0.335221
O O14 0.000000 0.500000 0.500000
O O15 0.075337 0.835554 0.113450
O O16 0.312531 0.502447 0.816330
O O17 0.259638 0.237192 0.869527
O O18 0.000000 0.000000 0.000000
#
# Coordination Sequence:
#
# PCOD9086280 Si02
#       8
#     2   2   2   2   2   2   2   2
#     4   9  20  36  58  85 109 147 184 232 275 337
#     4  10  20  37  57  82 109 144 184 236 275 326
#     4  10  22  36  56  82 113 145 188 229 276 336
#     4   9  19  35  60  83 109 145 188 230 281 322
#     4  11  24  37  56  83 114 148 188 227 282 334
#     4  10  19  36  57  83 112 146 185 230 275 332
#     4  10  20  36  58  83 115 143 188 227 281 332
#     4  11  22  37  56  81 111 150 183 232 280 328
#
# _framework density 17.707995
#
# number of rings (size 3 to 8) (size 9 to 14) (size 15 to 20)
#    0.000    2.000    2.500    0.750    3.500    1.500 
#    0.000    0.625    0.000    0.000    0.000    0.000 
#    0.000    0.000    0.000    0.000    0.000    0.000 
#
# Total GULP energy -89128.737281 kJ/mol
# GULP energy per Si atom -5570.546080 kJ/mol
# Density = 1.766769 g / cm^3
# Si number density = 17.707995 Si / 1000 Ang^3
#
#
#
# Elastic Constant Matrix: (Units=GPa)
#
#
# Indices 1 2 3 4 5 6 
#
# 1 72.5846 37.5929 41.4685 8.4574 -28.5700 -0.7263
# 2 37.5929 107.5238 50.0896 8.5701 -6.6293 -7.1772
# 3 41.4685 50.0896 115.3064 22.1907 -20.9489 -2.1462
# 4 8.4574 8.5701 22.1907 28.3560 -3.5806 -3.6601
# 5 -28.5700 -6.6293 -20.9489 -3.5806 19.3985 2.0762
# 6 -0.7263 -7.1772 -2.1462 -3.6601 2.0762 28.7224
#
#
#
# Elastic Compliance Matrix: (Units=1/GPa)
#
#
# Indices 1 2 3 4 5 6 
#
# 1 0.044641 -0.012556 0.001413 -0.003554 0.063066 -0.006915
# 2 -0.012556 0.015474 -0.006121 0.001955 -0.019965 0.004784
# 3 0.001413 -0.006121 0.015229 -0.008920 0.015065 -0.002581
# 4 -0.003554 0.001955 -0.008920 0.042569 -0.006948 0.005659
# 5 0.063066 -0.019965 0.015065 -0.006948 0.154127 -0.014295
# 6 -0.006915 0.004784 -0.002581 0.005659 -0.014295 0.037398
#
#
# Mechanical properties :
#
#
# Convention : Reuss Voigt Hill
#
# Bulk Modulus (GPa) = 24.49979 61.52408 43.01194
# Shear Modulus (GPa) = 13.98322 26.37964 20.18143
#
# Velocity S-wave (km/s) = 2.81313 3.86385 3.37958
# Velocity P-wave (km/s) = 4.94136 7.39763 6.29055
#
# Compressibility (1/GPa) = 0.04081667
#
# Stress axis : x y z
#
# Youngs Moduli (GPa) = 22.40087 64.62440 65.66420
#
# Poissons Ratio (x) = 0.81141 -0.09277
# Poissons Ratio (y) = 0.28126 0.40192
# Poissons Ratio (z) = -0.03165 0.39556
#
# Static dielectric constant tensor:
#      x y z
#    x 1.584730 0.004310 -0.026390 
#    y 0.004310 1.594300 -0.014750 
#    z -0.026390 -0.014750 1.613360 
# 
# From -- ./inp_files/239958.got.cif
#   From: 2010.05.17/outbox.cif.g08.bks.cpg/sg2_120_cif.got.tgz:239958.got - 2010.06.03 11:33:40.
