data_PCOD9086664
_publ_section_title
;
Structure prediction by ZEFSAII (Michael W. Deem and Ramdas Pophale) SiO2 
 PCOD9086664
Probable space group: P -1
;
_chemical_formula_sum "Si O2"
_cell_formula_units_Z 16
_cell_length_a 10.851040
_cell_length_b 10.241890
_cell_length_c 7.125340
_cell_angle_alpha 111.243021
_cell_angle_beta 84.005780
_cell_angle_gamma 110.259510
_cell_volume 692.207537
_symmetry_space_group_name_H-M "P -1"
_symmetry_group_IT_number 2
_symmetry_cell_setting 'triclinic'
loop_
_space_group_symop_operation_xyz
x,y,z
-x,-y,-z
loop_
_atom_site_type_symbol
_atom_site_label
_atom_site_fract_x
_atom_site_fract_y
_atom_site_fract_z
Si Si1 0.813658 0.040462 0.943868
Si Si2 0.541898 0.563240 0.321138
Si Si3 0.737775 0.464625 0.701199
Si Si4 0.287236 0.092139 0.499000
Si Si5 0.212788 0.475142 0.903692
Si Si6 0.890995 0.849173 0.153637
Si Si7 0.233485 0.820869 0.623966
Si Si8 0.050688 0.373896 0.509273
O O1 0.956480 0.126650 0.880217
O O2 0.726945 0.957817 0.740462
O O3 0.758388 0.143867 0.137103
O O4 0.842996 0.933324 0.040428
O O5 0.500000 0.500000 0.500000
O O6 0.403875 0.527626 0.220352
O O7 0.611963 0.741804 0.406537
O O8 0.645585 0.487935 0.192599
O O9 0.721183 0.318738 0.501706
O O10 0.824364 0.605018 0.634807
O O11 0.799137 0.426806 0.867162
O O12 0.151610 0.105511 0.613777
O O13 0.308918 0.964440 0.561266
O O14 0.189346 0.322593 0.940574
O O15 0.105005 0.427234 0.733837
O O16 0.076314 0.771935 0.569125
O O17 0.000000 0.500000 0.500000
#
# Coordination Sequence:
#
# PCOD9086664 Si02
#       8
#     2   2   2   2   2   2   2   2
#     4  10  19  36  59  91 129 168 200 254 319 374
#     4  11  24  44  66  92 123 163 222 270 310 363
#     4  11  24  42  64  93 131 170 212 260 309 377
#     4  10  22  39  62  90 125 166 210 261 311 369
#     4  11  22  39  67  93 121 169 211 262 321 365
#     4   9  20  33  59  95 124 159 211 257 309 375
#     4  10  23  40  61  94 132 164 209 253 314 386
#     4  10  22  39  62  94 131 163 202 255 312 380
#
# _framework density 23.114453000000001
#
# number of rings (size 3 to 8) (size 9 to 14) (size 15 to 20)
#    0.000    1.750    1.250    2.250    1.750    9.500 
#    2.250    0.625    0.000    0.000    0.000    0.000 
#    0.000    0.000    0.000    0.000    0.000    0.000 
#
# Total GULP energy -89332.972954 kJ/mol
# GULP energy per Si atom -5583.310810 kJ/mol
# Density = 2.306184 g / cm^3
# Si number density = 23.114453 Si / 1000 Ang^3
#
#
#
# Elastic Constant Matrix: (Units=GPa)
#
#
# Indices 1 2 3 4 5 6 
#
# 1 61.4640 6.1449 12.1618 -4.9730 6.4629 15.2865
# 2 6.1449 75.6939 2.6356 -16.4189 0.1976 20.5116
# 3 12.1618 2.6356 149.2273 -5.7513 22.3603 3.4651
# 4 -4.9730 -16.4189 -5.7513 23.2352 1.1128 -6.1850
# 5 6.4629 0.1976 22.3603 1.1128 27.2836 4.6206
# 6 15.2865 20.5116 3.4651 -6.1850 4.6206 23.3231
#
#
#
# Elastic Compliance Matrix: (Units=1/GPa)
#
#
# Indices 1 2 3 4 5 6 
#
# 1 0.020189 0.002874 -0.001034 0.002258 -0.001558 -0.014699
# 2 0.002874 0.019716 -0.000058 0.009951 0.001682 -0.016908
# 3 -0.001034 -0.000058 0.007820 0.002381 -0.006512 0.001489
# 4 0.002258 0.009951 0.002381 0.052586 -0.005455 0.004441
# 5 -0.001558 0.001682 -0.006512 -0.005455 0.044211 -0.009695
# 6 -0.014699 -0.016908 0.001489 0.004441 -0.009695 0.070257
#
#
# Mechanical properties :
#
#
# Convention : Reuss Voigt Hill
#
# Bulk Modulus (GPa) = 19.49800 36.47440 27.98620
# Shear Modulus (GPa) = 21.89988 32.46457 27.18223
#
# Velocity S-wave (km/s) = 3.08141 3.75175 3.43298
# Velocity P-wave (km/s) = 4.59498 5.88062 5.27710
#
# Compressibility (1/GPa) = 0.05128732
#
# Stress axis : x y z
#
# Youngs Moduli (GPa) = 49.53127 50.72072 127.88497
#
# Poissons Ratio (x) = -0.14577 0.13227
# Poissons Ratio (y) = -0.14235 0.00745
# Poissons Ratio (z) = 0.05123 0.00296
#
# Static dielectric constant tensor:
#      x y z
#    x 1.931320 0.000830 -0.005850 
#    y 0.000830 1.889470 0.029540 
#    z -0.005850 0.029540 2.001340 
# 
# From -- ./inp_files/71779.got.cif
#   From: 2010.05.17/outbox.cif.g08.bks.cpg/sg2_36_cif.got.tgz:71779.got - 2010.06.03 11:33:40.
