data_PCOD9086908
_publ_section_title
;
Structure prediction by ZEFSAII (Michael W. Deem and Ramdas Pophale) SiO2 
 PCOD9086908
Probable space group: P -1
;
_chemical_formula_sum "Si O2"
_cell_formula_units_Z 14
_cell_length_a 12.482176
_cell_length_b 7.411709
_cell_length_c 13.210139
_cell_angle_alpha 44.403293
_cell_angle_beta 126.414631
_cell_angle_gamma 91.705570
_cell_volume 491.221845
_symmetry_space_group_name_H-M "P -1"
_symmetry_group_IT_number 2
_symmetry_cell_setting 'triclinic'
loop_
_space_group_symop_operation_xyz
x,y,z
-x,-y,-z
loop_
_atom_site_type_symbol
_atom_site_label
_atom_site_fract_x
_atom_site_fract_y
_atom_site_fract_z
Si Si1 0.859489 0.610448 0.788875
Si Si2 0.376922 0.476347 0.235740
Si Si3 0.234280 0.769522 0.233072
Si Si4 0.465558 0.332774 0.130949
Si Si5 0.771453 0.806611 0.177646
Si Si6 0.353874 0.293145 0.658635
Si Si7 0.096404 0.534847 0.809211
O O1 0.689397 0.729991 0.714520
O O2 0.881398 0.308635 0.857695
O O3 0.000000 0.500000 0.000000
O O4 0.902746 0.778175 0.663160
O O5 0.413692 0.497228 0.364857
O O6 0.507972 0.347407 0.264267
O O7 0.211217 0.909373 0.939648
O O8 0.252493 0.672241 0.400157
O O9 0.185143 0.134983 0.045504
O O10 0.250313 0.535111 0.925294
O O11 0.596251 0.929104 0.326493
O O12 0.500000 0.500000 0.000000
O O13 0.766393 0.700078 0.329936
O O14 0.557984 0.055300 0.917295
O O15 0.906249 0.469316 0.312650
#
# Coordination Sequence:
#
# PCOD9086908 Si02
#       7
#     2   2   2   2   2   2   2
#     4  10  19  37  61  81 111 143 195 228 276 332
#     4   9  19  34  54  85 104 150 187 226 278 321
#     4   9  21  35  57  88 111 144 188 240 271 318
#     4  11  20  33  59  83 111 152 185 223 280 341
#     4   9  19  33  57  78 110 158 178 222 279 338
#     4  10  20  36  54  83 123 140 188 226 280 336
#     4  10  19  36  61  82 107 152 187 229 276 330
#
# _framework density 28.500361000000002
#
# number of rings (size 3 to 8) (size 9 to 14) (size 15 to 20)
#    0.857    1.429    2.857    0.429    0.000    5.714 
#    0.000    2.143    0.000    1.714    0.000    0.000 
#    0.000    0.000    0.000    0.000    0.000    0.000 
#
# Total GULP energy -78109.754736 kJ/mol
# GULP energy per Si atom -5579.268195 kJ/mol
# Density = 2.843549 g / cm^3
# Si number density = 28.500361 Si / 1000 Ang^3
#
#
#
# Elastic Constant Matrix: (Units=GPa)
#
#
# Indices 1 2 3 4 5 6 
#
# 1 242.4027 43.0723 48.1584 21.1475 -30.4789 -5.4554
# 2 43.0723 92.7464 22.5200 25.2136 -2.5409 -16.8907
# 3 48.1584 22.5200 93.6160 18.1486 -22.6774 7.6805
# 4 21.1475 25.2136 18.1486 30.6982 2.0592 -3.5318
# 5 -30.4789 -2.5409 -22.6774 2.0592 58.1817 15.1301
# 6 -5.4554 -16.8907 7.6805 -3.5318 15.1301 64.3486
#
#
#
# Elastic Compliance Matrix: (Units=1/GPa)
#
#
# Indices 1 2 3 4 5 6 
#
# 1 0.005091 -0.001631 -0.001339 -0.001579 0.002247 -0.000452
# 2 -0.001631 0.015294 -0.001577 -0.009965 -0.001452 0.003859
# 3 -0.001339 -0.001577 0.015176 -0.007687 0.006534 -0.004297
# 4 -0.001579 -0.009965 -0.007687 0.047092 -0.006519 0.002285
# 5 0.002247 -0.001452 0.006534 -0.006519 0.022820 -0.006694
# 6 -0.000452 0.003859 -0.004297 0.002285 -0.006694 0.018727
#
#
# Mechanical properties :
#
#
# Convention : Reuss Voigt Hill
#
# Bulk Modulus (GPa) = 37.78177 72.91850 55.35013
# Shear Modulus (GPa) = 35.18248 51.64665 43.41457
#
# Velocity S-wave (km/s) = 3.51730 4.26154 3.90718
# Velocity P-wave (km/s) = 5.45715 7.06081 6.31013
#
# Compressibility (1/GPa) = 0.02646779
#
# Stress axis : x y z
#
# Youngs Moduli (GPa) = 196.41155 65.38395 65.89476
#
# Poissons Ratio (x) = 0.10662 0.08826
# Poissons Ratio (y) = 0.32029 0.10390
# Poissons Ratio (z) = 0.26306 0.10309
#
# Static dielectric constant tensor:
#      x y z
#    x 2.596250 -0.097210 0.323540 
#    y -0.097210 2.345010 -0.175810 
#    z 0.323540 -0.175810 2.505280 
# 
# From -- ./inp_files/513960.got.cif
#   From: 2010.05.17/outbox.cif.g08.bks.cpg/sg2_257_cif.got.tgz:513960.got - 2010.06.03 11:33:40.
