data_PCOD9086576
_publ_section_title
;
Structure prediction by ZEFSAII (Michael W. Deem and Ramdas Pophale) SiO2 
 PCOD9086576
Probable space group: P -1
;
_chemical_formula_sum "Si O2"
_cell_formula_units_Z 16
_cell_length_a 8.286617
_cell_length_b 18.047179
_cell_length_c 18.490303
_cell_angle_alpha 21.106728
_cell_angle_beta 136.068568
_cell_angle_gamma 132.523835
_cell_volume 690.775624
_symmetry_space_group_name_H-M "P -1"
_symmetry_group_IT_number 2
_symmetry_cell_setting 'triclinic'
loop_
_space_group_symop_operation_xyz
x,y,z
-x,-y,-z
loop_
_atom_site_type_symbol
_atom_site_label
_atom_site_fract_x
_atom_site_fract_y
_atom_site_fract_z
Si Si1 0.775511 0.291745 0.818431
Si Si2 0.211430 0.483614 0.864812
Si Si3 0.994634 0.642092 0.798532
Si Si4 0.550116 0.351140 0.547671
Si Si5 0.693663 0.067721 0.559559
Si Si6 0.533857 0.196497 0.171318
Si Si7 0.227452 0.956362 0.827419
Si Si8 0.458451 0.554123 0.197285
O O1 0.745078 0.287637 0.726332
O O2 0.599355 0.465248 0.632245
O O3 0.022855 0.366424 0.860778
O O4 0.733104 0.078251 0.042347
O O5 0.095573 0.537426 0.854457
O O6 0.278674 0.690692 0.657789
O O7 0.432661 0.339730 0.072280
O O8 0.187380 0.819188 0.716999
O O9 0.720275 0.637819 0.700470
O O10 0.000000 0.500000 0.000000
O O11 0.625875 0.453186 0.402839
O O12 0.375131 0.152138 0.668131
O O13 0.500000 0.000000 0.500000
O O14 0.605450 0.007528 0.666211
O O15 0.951412 0.983497 0.701205
O O16 0.470060 0.327618 0.960553
O O17 0.317784 0.745174 0.014051
#
# Coordination Sequence:
#
# PCOD9086576 Si02
#       8
#     2   2   2   2   2   2   2   2
#     4  10  20  36  62  93 116 155 194 260 300 345
#     4  12  21  40  62  87 121 160 197 245 299 355
#     4  10  19  36  59  84 116 158 195 235 295 348
#     4  10  20  37  63  92 116 149 209 247 304 351
#     4  12  24  35  60  90 118 158 199 239 296 366
#     4  11  24  39  59  84 127 161 201 240 299 354
#     4  11  20  38  63  87 125 149 203 251 298 350
#     4  10  22  40  59  87 121 162 197 253 291 352
#
# _framework density 23.162367
#
# number of rings (size 3 to 8) (size 9 to 14) (size 15 to 20)
#    0.000    1.250    6.250    0.750    1.750    1.000 
#    0.000    1.250    0.000    1.500    0.000    0.000 
#    0.000    0.000    0.000    0.000    0.000    0.000 
#
# Total GULP energy -89200.237856 kJ/mol
# GULP energy per Si atom -5575.014866 kJ/mol
# Density = 2.310965 g / cm^3
# Si number density = 23.162367 Si / 1000 Ang^3
#
#
#
# Elastic Constant Matrix: (Units=GPa)
#
#
# Indices 1 2 3 4 5 6 
#
# 1 84.4116 22.8377 46.4915 4.4032 -37.0038 1.5416
# 2 22.8377 79.4362 27.2258 20.0129 -27.6320 1.0814
# 3 46.4915 27.2258 131.8227 9.5327 -40.0771 -5.0927
# 4 4.4032 20.0129 9.5327 29.9064 2.2965 -8.2499
# 5 -37.0038 -27.6320 -40.0771 2.2965 53.4228 2.6259
# 6 1.5416 1.0814 -5.0927 -8.2499 2.6259 18.1669
#
#
#
# Elastic Compliance Matrix: (Units=1/GPa)
#
#
# Indices 1 2 3 4 5 6 
#
# 1 0.018875 0.001244 -0.003166 -0.005371 0.011903 -0.006723
# 2 0.001244 0.022032 0.000135 -0.019388 0.013791 -0.012177
# 3 -0.003166 0.000135 0.010792 -0.003276 0.006069 0.000921
# 4 -0.005371 -0.019388 -0.003276 0.058065 -0.020176 0.029976
# 5 0.011903 0.013791 0.006069 -0.020176 0.040259 -0.015111
# 6 -0.006723 -0.012177 0.000921 0.029976 -0.015111 0.072396
#
#
# Mechanical properties :
#
#
# Convention : Reuss Voigt Hill
#
# Bulk Modulus (GPa) = 20.77908 54.30895 37.54402
# Shear Modulus (GPa) = 20.65811 33.57358 27.11585
#
# Velocity S-wave (km/s) = 2.98968 3.81135 3.42524
# Velocity P-wave (km/s) = 4.57254 6.54725 5.64688
#
# Compressibility (1/GPa) = 0.04812533
#
# Stress axis : x y z
#
# Youngs Moduli (GPa) = 52.97968 45.38806 92.65977
#
# Poissons Ratio (x) = -0.05646 0.29338
# Poissons Ratio (y) = -0.06590 -0.01253
# Poissons Ratio (z) = 0.16775 -0.00614
#
# Static dielectric constant tensor:
#      x y z
#    x 1.928840 -0.038470 -0.029710 
#    y -0.038470 1.953780 -0.005520 
#    z -0.029710 -0.005520 1.890830 
# 
# From -- ./inp_files/591772.got.cif
#   From: 2010.05.17/outbox.cif.g08.bks.cpg/sg2_296_cif.got.tgz:591772.got - 2010.06.03 11:33:40.
