data_PCOD9086655
_publ_section_title
;
Structure prediction by ZEFSAII (Michael W. Deem and Ramdas Pophale) SiO2 
 PCOD9086655
Probable space group: P -1
;
_chemical_formula_sum "Si O2"
_cell_formula_units_Z 15
_cell_length_a 11.285638
_cell_length_b 5.300903
_cell_length_c 15.034680
_cell_angle_alpha 77.033464
_cell_angle_beta 41.204925
_cell_angle_gamma 88.887831
_cell_volume 561.543606
_symmetry_space_group_name_H-M "P -1"
_symmetry_group_IT_number 2
_symmetry_cell_setting 'triclinic'
loop_
_space_group_symop_operation_xyz
x,y,z
-x,-y,-z
loop_
_atom_site_type_symbol
_atom_site_label
_atom_site_fract_x
_atom_site_fract_y
_atom_site_fract_z
Si Si1 0.395979 0.983005 0.653414
Si Si2 0.259307 0.372701 0.406382
Si Si3 0.223480 0.818759 0.498915
Si Si4 0.500000 0.000000 0.000000
Si Si5 0.825298 0.005568 0.964251
Si Si6 0.317093 0.485689 0.169091
Si Si7 0.666248 0.589685 0.241406
Si Si8 0.991003 0.608440 0.796906
O O1 0.269522 0.687145 0.764164
O O2 0.500000 0.000000 0.500000
O O3 0.557286 0.045206 0.632921
O O4 0.314276 0.239937 0.693078
O O5 0.164669 0.611672 0.468693
O O6 0.309218 0.341846 0.277570
O O7 0.452461 0.470063 0.343466
O O8 0.145107 0.083282 0.522795
O O9 0.176031 0.660480 0.630287
O O10 0.353825 0.006897 0.996602
O O11 0.337355 0.791143 0.158757
O O12 0.915164 0.317906 0.907007
O O13 0.965836 0.861115 0.846393
O O14 0.761949 0.808855 0.098578
O O15 0.151405 0.390676 0.205084
O O16 0.500000 0.500000 0.000000
#
# Coordination Sequence:
#
# PCOD9086655 Si02
#       8
#     2   2   2   1   2   2   2   2
#     4  10  21  38  64  87 111 143 186 241 291 348
#     4  10  21  35  56  77 114 147 190 236 278 333
#     4  10  23  39  55  81 111 153 185 228 292 349
#     4  10  20  32  52  80 114 142 198 228 274 308
#     4  11  21  36  58  84 114 154 193 238 277 324
#     4  11  21  33  53  79 110 148 195 237 276 316
#     4  10  19  36  59  91 112 141 189 241 287 328
#     4  11  23  36  55  79 117 156 191 227 282 338
#
# _framework density 26.712083
#
# number of rings (size 3 to 8) (size 9 to 14) (size 15 to 20)
#    0.000    1.600    2.667    2.000    1.867    3.200 
#    0.000    0.000    0.000    4.800    0.000    0.000 
#    0.000    0.000    0.000    0.000    0.000    0.000 
#
# Total GULP energy -83550.520559 kJ/mol
# GULP energy per Si atom -5570.034704 kJ/mol
# Density = 2.665129 g / cm^3
# Si number density = 26.712083 Si / 1000 Ang^3
#
#
#
# Elastic Constant Matrix: (Units=GPa)
#
#
# Indices 1 2 3 4 5 6 
#
# 1 74.7418 26.8059 13.2430 -6.1329 0.2341 -4.3810
# 2 26.8059 201.9605 59.9461 -30.7635 10.6161 2.3905
# 3 13.2430 59.9461 124.6135 -19.9180 25.1940 -3.1624
# 4 -6.1329 -30.7635 -19.9180 49.7225 -4.1475 -0.8661
# 5 0.2341 10.6161 25.1940 -4.1475 32.7034 -15.3090
# 6 -4.3810 2.3905 -3.1624 -0.8661 -15.3090 19.7893
#
#
#
# Elastic Compliance Matrix: (Units=1/GPa)
#
#
# Indices 1 2 3 4 5 6 
#
# 1 0.014729 -0.001773 -0.001434 0.000688 0.005010 0.007151
# 2 -0.001773 0.006353 -0.002306 0.002673 -0.000932 -0.002132
# 3 -0.001434 -0.002306 0.011690 0.002036 -0.011116 -0.006681
# 4 0.000688 0.002673 0.002036 0.022837 0.001561 0.002362
# 5 0.005010 -0.000932 -0.011116 0.001561 0.061735 0.047272
# 6 0.007151 -0.002132 -0.006681 0.002362 0.047272 0.087978
#
#
# Mechanical properties :
#
#
# Convention : Reuss Voigt Hill
#
# Bulk Modulus (GPa) = 45.98423 66.81174 56.39799
# Shear Modulus (GPa) = 22.36180 40.53111 31.44645
#
# Velocity S-wave (km/s) = 2.89648 3.89952 3.43481
# Velocity P-wave (km/s) = 5.33275 6.73358 6.07369
#
# Compressibility (1/GPa) = 0.02174659
#
# Stress axis : x y z
#
# Youngs Moduli (GPa) = 67.89270 157.41557 85.54504
#
# Poissons Ratio (x) = 0.27902 0.12267
# Poissons Ratio (y) = 0.12034 0.19726
# Poissons Ratio (z) = 0.09736 0.36299
#
# Static dielectric constant tensor:
#      x y z
#    x 2.216770 -0.088420 -0.020180 
#    y -0.088420 2.257170 0.102260 
#    z -0.020180 0.102260 2.089350 
# 
# From -- ./inp_files/111712.got.cif
#   From: 2010.05.17/outbox.cif.g08.bks.cpg/sg2_56_cif.got.tgz:111712.got - 2010.06.03 11:33:40.
