data_PCOD9086777
_publ_section_title
;
Structure prediction by ZEFSAII (Michael W. Deem and Ramdas Pophale) SiO2 
 PCOD9086777
Probable space group: P -1
;
_chemical_formula_sum "Si O2"
_cell_formula_units_Z 16
_cell_length_a 14.913290
_cell_length_b 5.768582
_cell_length_c 14.864851
_cell_angle_alpha 80.391676
_cell_angle_beta 37.806398
_cell_angle_gamma 69.039533
_cell_volume 716.912661
_symmetry_space_group_name_H-M "P -1"
_symmetry_group_IT_number 2
_symmetry_cell_setting 'triclinic'
loop_
_space_group_symop_operation_xyz
x,y,z
-x,-y,-z
loop_
_atom_site_type_symbol
_atom_site_label
_atom_site_fract_x
_atom_site_fract_y
_atom_site_fract_z
Si Si1 0.015078 0.552581 0.293701
Si Si2 0.067993 0.944480 0.090863
Si Si3 0.727036 0.408260 0.537339
Si Si4 0.096716 0.103152 0.483881
Si Si5 0.601905 0.803070 0.751075
Si Si6 0.289717 0.141165 0.015247
Si Si7 0.555081 0.716892 0.266814
Si Si8 0.863191 0.386164 0.122068
O O1 0.159752 0.288961 0.180433
O O2 0.846859 0.537504 0.403459
O O3 0.005240 0.645556 0.397665
O O4 0.041854 0.755028 0.194468
O O5 0.197678 0.045181 0.019588
O O6 0.910711 0.191869 0.180001
O O7 0.123007 0.791938 0.964216
O O8 0.667072 0.523525 0.677180
O O9 0.569748 0.416226 0.612596
O O10 0.837191 0.116342 0.479694
O O11 0.255637 0.135972 0.323366
O O12 0.000000 0.000000 0.500000
O O13 0.541458 0.983374 0.696448
O O14 0.447273 0.901594 0.929262
O O15 0.355715 0.333970 0.898486
O O16 0.693203 0.612208 0.236870
O O17 0.000000 0.500000 0.000000
#
# Coordination Sequence:
#
# PCOD9086777 Si02
#       8
#     2   2   2   2   2   2   2   2
#     4  11  22  37  60  90 121 155 195 250 296 350
#     4  11  20  32  56  88 123 155 199 248 290 341
#     4  10  20  39  60  83 119 155 196 235 301 360
#     4  10  22  40  63  89 116 154 194 237 302 368
#     4   8  18  33  59  84 112 153 194 236 288 355
#     4  10  19  36  60  87 116 154 206 244 290 334
#     4   9  18  33  56  84 112 158 202 238 281 347
#     4  11  19  32  55  89 122 159 202 244 291 341
#
# _framework density 22.317920000000001
#
# number of rings (size 3 to 8) (size 9 to 14) (size 15 to 20)
#    0.750    1.250    2.500    1.500    0.000    2.000 
#    0.000    1.250    0.000   16.500    0.000    0.000 
#    0.000    0.000    0.000    0.000    0.000    0.000 
#
# Total GULP energy -89175.878677 kJ/mol
# GULP energy per Si atom -5573.492417 kJ/mol
# Density = 2.226712 g / cm^3
# Si number density = 22.317920 Si / 1000 Ang^3
#
#
#
# Elastic Constant Matrix: (Units=GPa)
#
#
# Indices 1 2 3 4 5 6 
#
# 1 74.8193 12.6013 32.6161 12.2046 -14.0970 10.6359
# 2 12.6013 50.0942 23.2565 15.6139 -0.5836 4.5417
# 3 32.6161 23.2565 103.3932 22.5298 -21.5911 11.2524
# 4 12.2046 15.6139 22.5298 34.8110 -3.5255 8.2921
# 5 -14.0970 -0.5836 -21.5911 -3.5255 24.7809 0.1695
# 6 10.6359 4.5417 11.2524 8.2921 0.1695 34.3164
#
#
#
# Elastic Compliance Matrix: (Units=1/GPa)
#
#
# Indices 1 2 3 4 5 6 
#
# 1 0.017021 -0.002107 -0.002626 -0.001706 0.007128 -0.003758
# 2 -0.002107 0.025013 -0.004401 -0.008405 -0.005645 0.000845
# 3 -0.002626 -0.004401 0.015165 -0.005256 0.010884 -0.002360
# 4 -0.001706 -0.008405 -0.005256 0.037839 -0.000325 -0.005777
# 5 0.007128 -0.005645 0.010884 -0.000325 0.053748 -0.005218
# 6 -0.003758 0.000845 -0.002360 -0.005777 -0.005218 0.032389
#
#
# Mechanical properties :
#
#
# Convention : Reuss Voigt Hill
#
# Bulk Modulus (GPa) = 25.68672 40.58383 33.13528
# Shear Modulus (GPa) = 23.53822 29.43717 26.48769
#
# Velocity S-wave (km/s) = 3.25110 3.63573 3.44878
# Velocity P-wave (km/s) = 5.06235 5.98737 5.54419
#
# Compressibility (1/GPa) = 0.03893062
#
# Stress axis : x y z
#
# Youngs Moduli (GPa) = 58.75195 39.97916 65.94076
#
# Poissons Ratio (x) = 0.08423 0.17318
# Poissons Ratio (y) = 0.12379 0.29020
# Poissons Ratio (z) = 0.15430 0.17594
#
# Static dielectric constant tensor:
#      x y z
#    x 1.820000 -0.030010 -0.013690 
#    y -0.030010 1.864720 0.030820 
#    z -0.013690 0.030820 1.856210 
# 
# From -- ./inp_files/525768.got.cif
#   From: 2010.05.17/outbox.cif.g08.bks.cpg/sg2_263_cif.got.tgz:525768.got - 2010.06.03 11:33:40.
