data_PCOD9086785
_publ_section_title
;
Structure prediction by ZEFSAII (Michael W. Deem and Ramdas Pophale) SiO2 
 PCOD9086785
Probable space group: P -1
;
_chemical_formula_sum "Si O2"
_cell_formula_units_Z 16
_cell_length_a 18.994749
_cell_length_b 7.358799
_cell_length_c 10.587045
_cell_angle_alpha 118.841138
_cell_angle_beta 137.425702
_cell_angle_gamma 47.935744
_cell_volume 743.092771
_symmetry_space_group_name_H-M "P -1"
_symmetry_group_IT_number 2
_symmetry_cell_setting 'triclinic'
loop_
_space_group_symop_operation_xyz
x,y,z
-x,-y,-z
loop_
_atom_site_type_symbol
_atom_site_label
_atom_site_fract_x
_atom_site_fract_y
_atom_site_fract_z
Si Si1 0.820588 0.137017 0.558186
Si Si2 0.453184 0.865252 0.128967
Si Si3 0.616688 0.609041 0.787011
Si Si4 0.457505 0.739469 0.369242
Si Si5 0.938302 0.121334 0.325873
Si Si6 0.776988 0.100402 0.751182
Si Si7 0.307649 0.606799 0.786876
Si Si8 0.992578 0.750708 0.071664
O O1 0.677471 0.071577 0.687729
O O2 0.752089 0.099504 0.569503
O O3 0.743980 0.288611 0.387072
O O4 0.948083 0.888639 0.600237
O O5 0.481807 0.836067 0.307012
O O6 0.580090 0.671191 0.163953
O O7 0.396105 0.143294 0.103795
O O8 0.360311 0.772073 0.957353
O O9 0.552830 0.665242 0.583397
O O10 0.549290 0.503542 0.746343
O O11 0.748127 0.362482 0.854105
O O12 0.920361 0.931979 0.155235
O O13 0.805237 0.349560 0.260409
O O14 0.000000 0.000000 0.500000
O O15 0.875547 0.284160 0.748230
O O16 0.915208 0.896615 0.896580
O O17 0.000000 0.500000 0.000000
#
# Coordination Sequence:
#
# PCOD9086785 Si02
#       8
#     2   2   2   2   2   2   2   2
#     4   9  20  37  60  82 122 159 197 254 312 349
#     4  11  21  37  65  88 120 164 211 241 307 367
#     4   9  21  37  58  94 124 154 195 254 316 363
#     4   9  20  38  60  91 125 151 198 256 313 363
#     4   8  18  38  57  80 120 159 193 245 302 357
#     4  10  19  36  60  87 125 152 191 264 312 356
#     4  10  21  37  60  87 119 168 209 248 294 383
#     4  10  21  35  62  90 114 154 213 253 300 365
#
# _framework density 21.531631999999998
#
# number of rings (size 3 to 8) (size 9 to 14) (size 15 to 20)
#    1.500    1.000    0.000    2.250    0.000    3.000 
#    0.000    2.500    5.500    2.250    0.000    0.000 
#    0.000    0.000    0.000    0.000    0.000    0.000 
#
# Total GULP energy -89070.781050 kJ/mol
# GULP energy per Si atom -5566.923816 kJ/mol
# Density = 2.148263 g / cm^3
# Si number density = 21.531632 Si / 1000 Ang^3
#
#
#
# Elastic Constant Matrix: (Units=GPa)
#
#
# Indices 1 2 3 4 5 6 
#
# 1 63.5718 21.2445 -13.9386 2.7677 0.3608 -19.2602
# 2 21.2445 88.4046 -0.9297 -9.4379 3.8945 2.5233
# 3 -13.9386 -0.9297 51.6822 -12.9183 -3.0392 0.4319
# 4 2.7677 -9.4379 -12.9183 15.6186 -5.4398 1.8740
# 5 0.3608 3.8945 -3.0392 -5.4398 26.1355 -5.5534
# 6 -19.2602 2.5233 0.4319 1.8740 -5.5534 22.0424
#
#
#
# Elastic Compliance Matrix: (Units=1/GPa)
#
#
# Indices 1 2 3 4 5 6 
#
# 1 0.028674 -0.008585 0.006106 -0.006418 0.006214 0.028029
# 2 -0.008585 0.015059 0.000961 0.012083 -0.001776 -0.010719
# 3 0.006106 0.000961 0.027801 0.025138 0.009275 0.004880
# 4 -0.006418 0.012083 0.025138 0.101550 0.019994 -0.011080
# 5 0.006214 -0.001776 0.009275 0.019994 0.046994 0.015591
# 6 0.028029 -0.010719 0.004880 -0.011080 0.015591 0.075860
#
#
# Mechanical properties :
#
#
# Convention : Reuss Voigt Hill
#
# Bulk Modulus (GPa) = 14.59912 24.04566 19.32239
# Shear Modulus (GPa) = 15.53721 25.91144 20.72433
#
# Velocity S-wave (km/s) = 2.68917 3.47279 3.10579
# Velocity P-wave (km/s) = 4.05429 5.22228 4.67490
#
# Compressibility (1/GPa) = 0.06849728
#
# Stress axis : x y z
#
# Youngs Moduli (GPa) = 34.87456 66.40510 35.96980
#
# Poissons Ratio (x) = 0.57011 -0.21963
# Poissons Ratio (y) = 0.29941 -0.03456
# Poissons Ratio (z) = -0.21294 -0.06381
#
# Static dielectric constant tensor:
#      x y z
#    x 1.860720 -0.021540 0.003230 
#    y -0.021540 1.790580 -0.015760 
#    z 0.003230 -0.015760 1.815970 
# 
# From -- ./inp_files/459580.got.cif
#   From: 2010.05.17/outbox.cif.g08.bks.cpg/sg2_230_cif.got.tgz:459580.got - 2010.06.03 11:33:40.
