data_PCOD9086319
_publ_section_title
;
Structure prediction by ZEFSAII (Michael W. Deem and Ramdas Pophale) SiO2 
 PCOD9086319
Probable space group: P -1
;
_chemical_formula_sum "Si O2"
_cell_formula_units_Z 16
_cell_length_a 15.701274
_cell_length_b 12.375130
_cell_length_c 8.890037
_cell_angle_alpha 81.935113
_cell_angle_beta 126.373166
_cell_angle_gamma 54.645983
_cell_volume 767.715137
_symmetry_space_group_name_H-M "P -1"
_symmetry_group_IT_number 2
_symmetry_cell_setting 'triclinic'
loop_
_space_group_symop_operation_xyz
x,y,z
-x,-y,-z
loop_
_atom_site_type_symbol
_atom_site_label
_atom_site_fract_x
_atom_site_fract_y
_atom_site_fract_z
Si Si1 0.611761 0.596316 0.668777
Si Si2 0.543003 0.346163 0.830475
Si Si3 0.740847 0.812280 0.448910
Si Si4 0.899957 0.516148 0.265558
Si Si5 0.125354 0.829367 0.947613
Si Si6 0.282306 0.772349 0.451966
Si Si7 0.575337 0.757435 0.082405
Si Si8 0.702291 0.770709 0.738095
O O1 0.533702 0.626334 0.418772
O O2 0.439533 0.727698 0.580841
O O3 0.674250 0.666199 0.709206
O O4 0.785970 0.367329 0.935219
O O5 0.405937 0.565401 0.686072
O O6 0.515543 0.269414 0.929248
O O7 0.757781 0.201303 0.048563
O O8 0.667620 0.761798 0.302803
O O9 0.788586 0.748042 0.683855
O O10 0.930822 0.692704 0.593852
O O11 0.575861 0.039788 0.204415
O O12 0.736052 0.590132 0.161603
O O13 0.000000 0.500000 0.500000
O O14 0.820052 0.673286 0.033044
O O15 0.197515 0.807644 0.193351
O O16 0.897848 0.036691 0.674860
O O17 0.500000 0.000000 0.500000
#
# Coordination Sequence:
#
# PCOD9086319 Si02
#       8
#     2   2   2   2   2   2   2   2
#     4   9  18  32  51  81 117 153 190 243 288 341
#     4   9  16  29  56  82 116 151 191 236 294 346
#     4  10  21  38  57  79 122 157 196 246 287 346
#     4  10  23  40  58  82 117 156 200 246 292 349
#     4   8  15  30  50  80 116 150 188 239 292 346
#     4   8  15  30  50  81 113 147 192 239 288 352
#     4  10  19  36  57  86 117 158 195 241 295 346
#     4  12  22  40  61  87 120 162 203 242 294 347
#
# _framework density 20.841066000000001
#
# number of rings (size 3 to 8) (size 9 to 14) (size 15 to 20)
#    0.000    2.500    2.500    1.875    0.000    1.000 
#    4.500    2.500    0.000    3.000    0.000    5.250 
#    0.000    0.000    0.000    0.000    0.000    0.250 
#
# Total GULP energy -89276.680034 kJ/mol
# GULP energy per Si atom -5579.792502 kJ/mol
# Density = 2.079363 g / cm^3
# Si number density = 20.841066 Si / 1000 Ang^3
#
#
#
# Elastic Constant Matrix: (Units=GPa)
#
#
# Indices 1 2 3 4 5 6 
#
# 1 148.0941 46.9376 29.6976 -27.8434 0.2426 -21.0293
# 2 46.9376 49.2844 23.3856 -19.1888 13.2508 -13.5723
# 3 29.6976 23.3856 74.2621 -0.2858 4.2946 -12.0901
# 4 -27.8434 -19.1888 -0.2858 31.0450 -13.9773 4.8747
# 5 0.2426 13.2508 4.2946 -13.9773 30.2244 -11.8981
# 6 -21.0293 -13.5723 -12.0901 4.8747 -11.8981 26.7567
#
#
#
# Elastic Compliance Matrix: (Units=1/GPa)
#
#
# Indices 1 2 3 4 5 6 
#
# 1 0.012887 -0.008153 -0.001844 0.010553 0.011986 0.008567
# 2 -0.008153 0.040592 -0.008290 0.013049 -0.008905 0.004100
# 3 -0.001844 -0.008290 0.017349 -0.007607 -0.001125 0.003071
# 4 0.010553 0.013049 -0.007607 0.060380 0.028348 0.013081
# 5 0.011986 -0.008905 -0.001125 0.028348 0.060440 0.026107
# 6 0.008567 0.004100 0.003071 0.013081 0.026107 0.056800
#
#
# Mechanical properties :
#
#
# Convention : Reuss Voigt Hill
#
# Bulk Modulus (GPa) = 29.19238 52.40913 40.80076
# Shear Modulus (GPa) = 16.86674 29.04655 22.95664
#
# Velocity S-wave (km/s) = 2.84791 3.73730 3.32250
# Velocity P-wave (km/s) = 4.98515 6.62004 5.85989
#
# Compressibility (1/GPa) = 0.03425551
#
# Stress axis : x y z
#
# Youngs Moduli (GPa) = 77.59595 24.63513 57.63887
#
# Poissons Ratio (x) = 0.20085 0.10628
# Poissons Ratio (y) = 0.63265 0.47781
# Poissons Ratio (z) = 0.14308 0.20422
#
# Static dielectric constant tensor:
#      x y z
#    x 1.734750 -0.034540 0.018490 
#    y -0.034540 1.761280 0.038850 
#    z 0.018490 0.038850 1.762780 
# 
# From -- ./inp_files/307143.got.cif
#   From: 2010.05.17/outbox.cif.g08.bks.cpg/sg2_154_cif.got.tgz:307143.got - 2010.06.03 11:33:40.
