data_PCOD9086660
_publ_section_title
;
Structure prediction by ZEFSAII (Michael W. Deem and Ramdas Pophale) SiO2 
 PCOD9086660
Probable space group: P -1
;
_chemical_formula_sum "Si O2"
_cell_formula_units_Z 14
_cell_length_a 6.810741
_cell_length_b 11.830815
_cell_length_c 12.144094
_cell_angle_alpha 114.013697
_cell_angle_beta 84.583182
_cell_angle_gamma 132.733984
_cell_volume 631.984388
_symmetry_space_group_name_H-M "P -1"
_symmetry_group_IT_number 2
_symmetry_cell_setting 'triclinic'
loop_
_space_group_symop_operation_xyz
x,y,z
-x,-y,-z
loop_
_atom_site_type_symbol
_atom_site_label
_atom_site_fract_x
_atom_site_fract_y
_atom_site_fract_z
Si Si1 0.255263 0.401874 0.710873
Si Si2 0.255702 0.232511 0.084392
Si Si3 0.835882 0.121049 0.238078
Si Si4 0.797487 0.390775 0.363429
Si Si5 0.831748 0.664798 0.064951
Si Si6 0.385420 0.837803 0.018666
Si Si7 0.300300 0.292816 0.453709
O O1 0.569942 0.575029 0.798262
O O2 0.153863 0.476938 0.674966
O O3 0.111561 0.313824 0.800342
O O4 0.255888 0.285001 0.583102
O O5 0.002396 0.118567 0.135253
O O6 0.134805 0.197717 0.954887
O O7 0.483904 0.227296 0.064517
O O8 0.838229 0.269172 0.271512
O O9 0.008229 0.177558 0.362258
O O10 0.526692 0.932702 0.166651
O O11 0.484149 0.266362 0.379266
O O12 0.000000 0.500000 0.500000
O O13 0.057598 0.679987 0.995743
O O14 0.500000 0.500000 0.000000
O O15 0.500000 0.000000 0.000000
O O16 0.500000 0.500000 0.500000
#
# Coordination Sequence:
#
# PCOD9086660 Si02
#       7
#     2   2   2   2   2   2   2
#     4  10  20  40  62  93 131 161 219 268 317 378
#     4  11  22  42  64  93 133 169 212 266 323 382
#     4  12  22  37  65  98 128 167 220 272 317 379
#     4  11  19  35  64  97 124 168 219 268 317 374
#     4  10  25  44  63  94 134 175 213 262 327 388
#     4  12  26  41  66  98 129 172 220 263 325 389
#     4  10  19  36  59  91 125 161 215 267 314 370
#
# _framework density 22.152446000000001
#
# number of rings (size 3 to 8) (size 9 to 14) (size 15 to 20)
#    0.000    1.143    7.143    1.286    0.000    2.286 
#    5.143    0.714    0.000    1.714    0.000    0.000 
#    0.000    0.000    0.000    0.000    0.000    0.000 
#
# Total GULP energy -78023.604275 kJ/mol
# GULP energy per Si atom -5573.114591 kJ/mol
# Density = 2.210203 g / cm^3
# Si number density = 22.152446 Si / 1000 Ang^3
#
#
#
# Elastic Constant Matrix: (Units=GPa)
#
#
# Indices 1 2 3 4 5 6 
#
# 1 131.2678 25.8914 56.6091 -13.4972 -18.6813 10.3110
# 2 25.8914 37.5862 45.3639 -5.6811 -9.4549 14.7521
# 3 56.6091 45.3639 129.2670 -25.1227 8.5076 -4.2271
# 4 -13.4972 -5.6811 -25.1227 38.8264 7.8465 6.4586
# 5 -18.6813 -9.4549 8.5076 7.8465 50.6707 -0.7149
# 6 10.3110 14.7521 -4.2271 6.4586 -0.7149 33.5879
#
#
#
# Elastic Compliance Matrix: (Units=1/GPa)
#
#
# Indices 1 2 3 4 5 6 
#
# 1 0.011169 0.005586 -0.007564 -0.000385 0.006396 -0.006624
# 2 0.005586 0.097475 -0.041697 -0.008504 0.027895 -0.047546
# 3 -0.007564 -0.041697 0.029458 0.010049 -0.016760 0.022054
# 4 -0.000385 -0.008504 0.010049 0.032830 -0.008519 -0.001376
# 5 0.006396 0.027895 -0.016760 -0.008519 0.031234 -0.014021
# 6 -0.006624 -0.047546 0.022054 -0.001376 -0.014021 0.055430
#
#
# Mechanical properties :
#
#
# Convention : Reuss Voigt Hill
#
# Bulk Modulus (GPa) = 19.70323 61.53886 40.62105
# Shear Modulus (GPa) = 13.81732 35.96742 24.89237
#
# Velocity S-wave (km/s) = 2.50018 4.03380 3.35578
# Velocity P-wave (km/s) = 4.15310 7.03814 5.77857
#
# Compressibility (1/GPa) = 0.05075309
#
# Stress axis : x y z
#
# Youngs Moduli (GPa) = 89.53223 10.25900 33.94646
#
# Poissons Ratio (x) = -0.05730 0.25676
# Poissons Ratio (y) = -0.50008 1.41545
# Poissons Ratio (z) = 0.67720 0.42777
#
# Static dielectric constant tensor:
#      x y z
#    x 1.915640 0.014750 0.001850 
#    y 0.014750 1.935590 -0.038560 
#    z 0.001850 -0.038560 1.925570 
# 
# From -- ./inp_files/365016.got.cif
#   From: 2010.05.17/outbox.cif.g08.bks.cpg/sg2_183_cif.got.tgz:365016.got - 2010.06.03 11:33:40.
