data_PCOD9086404
_publ_section_title
;
Structure prediction by ZEFSAII (Michael W. Deem and Ramdas Pophale) SiO2 
 PCOD9086404
Probable space group: P -1
;
_chemical_formula_sum "Si O2"
_cell_formula_units_Z 13
_cell_length_a 22.269744
_cell_length_b 10.366737
_cell_length_c 11.448171
_cell_angle_alpha 154.150273
_cell_angle_beta 37.825753
_cell_angle_gamma 150.487359
_cell_volume 567.398734
_symmetry_space_group_name_H-M "P -1"
_symmetry_group_IT_number 2
_symmetry_cell_setting 'triclinic'
loop_
_space_group_symop_operation_xyz
x,y,z
-x,-y,-z
loop_
_atom_site_type_symbol
_atom_site_label
_atom_site_fract_x
_atom_site_fract_y
_atom_site_fract_z
Si Si1 0.882961 0.959620 0.788634
Si Si2 0.160500 0.971153 0.838489
Si Si3 0.601414 0.096584 0.275195
Si Si4 0.000000 0.000000 0.000000
Si Si5 0.348332 0.895611 0.537688
Si Si6 0.058656 0.833112 0.530378
Si Si7 0.758383 0.967422 0.772243
O O1 0.999488 0.964168 0.637274
O O2 0.766505 0.531750 0.626737
O O3 0.867280 0.133595 0.068264
O O4 0.865059 0.112333 0.823828
O O5 0.290468 0.065874 0.695423
O O6 0.036618 0.617389 0.678041
O O7 0.132253 0.254506 0.080060
O O8 0.610120 0.943491 0.262774
O O9 0.675263 0.527941 0.536860
O O10 0.461891 0.934387 0.337830
O O11 0.670448 0.056424 0.032767
O O12 0.926014 0.960864 0.206554
O O13 0.175983 0.902585 0.346760
#
# Coordination Sequence:
#
# PCOD9086404 Si02
#       7
#     2   2   2   1   2   2   2
#     4   9  19  33  55  87 115 152 183 228 289 339
#     4  10  19  36  58  83 109 147 194 240 283 332
#     4  10  22  34  58  86 123 158 186 221 284 339
#     4  10  22  38  58  82 102 152 198 246 286 330
#     4   9  19  35  55  84 119 153 191 228 268 348
#     4  10  22  36  57  81 115 148 191 238 294 339
#     4  11  22  36  55  90 123 153 181 232 287 354
#
# _framework density 22.911577000000001
#
# number of rings (size 3 to 8) (size 9 to 14) (size 15 to 20)
#    0.000    2.154    1.538    0.923    6.462    2.462 
#    0.000    0.000    0.000    1.846    0.000    0.000 
#    0.000    0.000    0.000    0.000    0.000    0.000 
#
# Total GULP energy -72369.537341 kJ/mol
# GULP energy per Si atom -5566.887488 kJ/mol
# Density = 2.285943 g / cm^3
# Si number density = 22.911577 Si / 1000 Ang^3
#
#
#
# Elastic Constant Matrix: (Units=GPa)
#
#
# Indices 1 2 3 4 5 6 
#
# 1 83.5192 27.7028 42.0906 -35.0620 -8.8568 6.7550
# 2 27.7028 46.8420 49.8382 -27.4918 -9.3030 4.1235
# 3 42.0906 49.8382 178.1430 -55.4378 9.7496 -0.7775
# 4 -35.0620 -27.4918 -55.4378 53.8261 10.7474 -2.8647
# 5 -8.8568 -9.3030 9.7496 10.7474 41.0506 -5.7700
# 6 6.7550 4.1235 -0.7775 -2.8647 -5.7700 18.0050
#
#
#
# Elastic Compliance Matrix: (Units=1/GPa)
#
#
# Indices 1 2 3 4 5 6 
#
# 1 0.017607 -0.004864 -0.000110 0.008677 -0.000134 -0.004159
# 2 -0.004864 0.038310 -0.007939 0.006566 0.007247 -0.003925
# 3 -0.000110 -0.007939 0.010822 0.008375 -0.006358 0.001622
# 4 0.008677 0.006566 0.008375 0.037888 -0.008712 -0.001161
# 5 -0.000134 0.007247 -0.006358 -0.008712 0.030687 0.006564
# 6 -0.004159 -0.003925 0.001622 -0.001161 0.006564 0.059988
#
#
# Mechanical properties :
#
#
# Convention : Reuss Voigt Hill
#
# Bulk Modulus (GPa) = 24.44199 60.86304 42.65252
# Shear Modulus (GPa) = 21.29784 35.16784 28.23284
#
# Velocity S-wave (km/s) = 3.05219 3.92208 3.51415
# Velocity P-wave (km/s) = 4.80752 6.86529 5.92640
#
# Compressibility (1/GPa) = 0.04091320
#
# Stress axis : x y z
#
# Youngs Moduli (GPa) = 56.79616 26.10266 92.40486
#
# Poissons Ratio (x) = 0.12696 0.01015
# Poissons Ratio (y) = 0.27625 0.73362
# Poissons Ratio (z) = 0.00624 0.20723
#
# Static dielectric constant tensor:
#      x y z
#    x 1.588840 0.166620 0.334570 
#    y 0.166620 1.745610 -0.150470 
#    z 0.334570 -0.150470 1.493950 
# 
# From -- ./inp_files/474604.got.cif
#   From: 2010.05.17/outbox.cif.g08.bks.cpg/sg2_238_cif.got.tgz:474604.got - 2010.06.03 11:33:40.
