data_PCOD9086627
_publ_section_title
;
Structure prediction by ZEFSAII (Michael W. Deem and Ramdas Pophale) SiO2 
 PCOD9086627
Probable space group: P -1
;
_chemical_formula_sum "Si O2"
_cell_formula_units_Z 12
_cell_length_a 13.342361
_cell_length_b 12.606255
_cell_length_c 9.216080
_cell_angle_alpha 42.058764
_cell_angle_beta 143.699891
_cell_angle_gamma 149.289422
_cell_volume 462.329151
_symmetry_space_group_name_H-M "P -1"
_symmetry_group_IT_number 2
_symmetry_cell_setting 'triclinic'
loop_
_space_group_symop_operation_xyz
x,y,z
-x,-y,-z
loop_
_atom_site_type_symbol
_atom_site_label
_atom_site_fract_x
_atom_site_fract_y
_atom_site_fract_z
Si Si1 0.165514 0.395827 0.923929
Si Si2 0.096771 0.689272 0.575979
Si Si3 0.637690 0.270526 0.588725
Si Si4 0.357604 0.062753 0.716595
Si Si5 0.170604 0.962819 0.903530
Si Si6 0.259675 0.185491 0.058890
O O1 0.957173 0.305555 0.659885
O O2 0.245229 0.620524 0.829605
O O3 0.075466 0.243655 0.112238
O O4 0.318030 0.383964 0.009681
O O5 0.862382 0.497178 0.573165
O O6 0.196110 0.893255 0.575767
O O7 0.695549 0.120487 0.826904
O O8 0.445642 0.178374 0.339679
O O9 0.537742 0.274644 0.620317
O O10 0.217814 0.034837 0.719192
O O11 0.500000 0.000000 0.000000
O O12 0.243202 0.148299 0.906653
O O13 0.000000 0.000000 0.000000
#
# Coordination Sequence:
#
# PCOD9086627 Si02
#       6
#     2   2   2   2   2   2
#     4   9  20  37  60  85 114 150 189 242 283 327
#     4  10  21  40  61  85 115 148 196 236 280 343
#     4  10  21  37  60  86 114 154 190 233 286 334
#     4  10  21  37  61  86 114 153 190 233 284 341
#     4   9  19  35  61  87 114 151 189 233 286 341
#     4  10  19  36  59  87 117 146 193 238 282 338
#
# _framework density 25.955534
#
# number of rings (size 3 to 8) (size 9 to 14) (size 15 to 20)
#    0.000    2.333    0.000    2.500    0.000   13.333 
#    0.000    7.500    0.000   13.000    0.000    0.000 
#    0.000    0.000    0.000    0.000    0.000    0.000 
#
# Total GULP energy -67069.180195 kJ/mol
# GULP energy per Si atom -5589.098350 kJ/mol
# Density = 2.589646 g / cm^3
# Si number density = 25.955534 Si / 1000 Ang^3
#
#
#
# Elastic Constant Matrix: (Units=GPa)
#
#
# Indices 1 2 3 4 5 6 
#
# 1 218.9519 41.0432 17.3536 -9.3931 -35.8605 14.2819
# 2 41.0432 73.0674 -0.1344 -4.5129 -6.9696 15.7965
# 3 17.3536 -0.1344 40.5345 -4.1817 -0.4405 5.6840
# 4 -9.3931 -4.5129 -4.1817 23.9701 5.4129 -1.2372
# 5 -35.8605 -6.9696 -0.4405 5.4129 62.3740 -7.1668
# 6 14.2819 15.7965 5.6840 -1.2372 -7.1668 42.6047
#
#
#
# Elastic Compliance Matrix: (Units=1/GPa)
#
#
# Indices 1 2 3 4 5 6 
#
# 1 0.005821 -0.002949 -0.002400 0.000642 0.002942 -0.000024
# 2 -0.002949 0.016618 0.002316 0.002239 -0.000651 -0.005526
# 3 -0.002400 0.002316 0.026665 0.004346 -0.001744 -0.003779
# 4 0.000642 0.002239 0.004346 0.043839 -0.003258 -0.000900
# 5 0.002942 -0.000651 -0.001744 -0.003258 0.018203 0.002456
# 6 -0.000024 -0.005526 -0.003779 -0.000900 0.002456 0.026420
#
#
# Mechanical properties :
#
#
# Convention : Reuss Voigt Hill
#
# Bulk Modulus (GPa) = 23.23516 49.89762 36.56639
# Shear Modulus (GPa) = 31.65005 44.07585 37.86295
#
# Velocity S-wave (km/s) = 3.49577 4.12531 3.82352
# Velocity P-wave (km/s) = 5.02645 6.47741 5.79750
#
# Compressibility (1/GPa) = 0.04303822
#
# Stress axis : x y z
#
# Youngs Moduli (GPa) = 171.78754 60.17734 37.50237
#
# Poissons Ratio (x) = 0.17745 0.09002
# Poissons Ratio (y) = 0.50656 -0.08687
# Poissons Ratio (z) = 0.41235 -0.13939
#
# Static dielectric constant tensor:
#      x y z
#    x 2.089640 -0.001700 0.065530 
#    y -0.001700 2.140150 -0.057620 
#    z 0.065530 -0.057620 2.075940 
# 
# From -- ./inp_files/154391.got.cif
#   From: 2010.05.17/outbox.cif.g08.bks.cpg/sg2_78_cif.got.tgz:154391.got - 2010.06.03 11:33:40.
