data_PCOD9086533
_publ_section_title
;
Structure prediction by ZEFSAII (Michael W. Deem and Ramdas Pophale) SiO2 
 PCOD9086533
Probable space group: P -1
;
_chemical_formula_sum "Si O2"
_cell_formula_units_Z 16
_cell_length_a 18.117545
_cell_length_b 9.387553
_cell_length_c 11.676389
_cell_angle_alpha 94.408677
_cell_angle_beta 141.353929
_cell_angle_gamma 56.554998
_cell_volume 760.184303
_symmetry_space_group_name_H-M "P -1"
_symmetry_group_IT_number 2
_symmetry_cell_setting 'triclinic'
loop_
_space_group_symop_operation_xyz
x,y,z
-x,-y,-z
loop_
_atom_site_type_symbol
_atom_site_label
_atom_site_fract_x
_atom_site_fract_y
_atom_site_fract_z
Si Si1 0.274005 0.438454 0.067503
Si Si2 0.271619 0.377616 0.799777
Si Si3 0.741299 0.148343 0.880614
Si Si4 0.065753 0.038435 0.321512
Si Si5 0.610267 0.319184 0.489100
Si Si6 0.419718 0.936400 0.043052
Si Si7 0.920302 0.914334 0.403219
Si Si8 0.385609 0.045027 0.255932
O O1 0.469602 0.319541 0.344702
O O2 0.245234 0.305100 0.062633
O O3 0.305540 0.419928 0.967300
O O4 0.090384 0.701825 0.900014
O O5 0.420432 0.254227 0.868732
O O6 0.075262 0.644358 0.542629
O O7 0.295782 0.186896 0.852715
O O8 0.739809 0.210146 0.752277
O O9 0.541920 0.408758 0.700224
O O10 0.721234 0.998409 0.845501
O O11 0.932046 0.024161 0.166596
O O12 0.249797 0.837483 0.455965
O O13 0.125702 0.049708 0.514927
O O14 0.496203 0.910158 0.259880
O O15 0.276322 0.940283 0.887943
O O16 0.000000 0.000000 0.500000
O O17 0.500000 0.000000 0.500000
#
# Coordination Sequence:
#
# PCOD9086533 Si02
#       8
#     2   2   2   2   2   2   2   2
#     4   9  19  37  60  85 113 149 185 235 280 332
#     4   9  20  38  60  85 113 147 194 227 277 341
#     4  10  21  36  56  81 114 152 186 233 278 327
#     4  10  21  37  59  85 112 150 190 227 280 343
#     4  10  19  36  59  79 113 151 192 226 275 337
#     4  10  21  38  62  82 111 156 188 226 284 337
#     4  11  22  36  58  88 119 143 180 240 286 331
#     4  11  21  39  60  82 118 149 186 240 284 324
#
# _framework density 21.047529999999998
#
# number of rings (size 3 to 8) (size 9 to 14) (size 15 to 20)
#    0.000    2.000    1.250    2.250    0.000    1.500 
#    0.000    1.875    0.000    0.000    0.000    0.000 
#    0.000    0.000    0.000    0.000    0.000    0.000 
#
# Total GULP energy -89153.219712 kJ/mol
# GULP energy per Si atom -5572.076232 kJ/mol
# Density = 2.099962 g / cm^3
# Si number density = 21.047530 Si / 1000 Ang^3
#
#
#
# Elastic Constant Matrix: (Units=GPa)
#
#
# Indices 1 2 3 4 5 6 
#
# 1 64.9858 44.3396 30.1242 -18.1155 3.6681 1.6854
# 2 44.3396 111.8984 39.3856 -10.1967 15.2100 -4.7085
# 3 30.1242 39.3856 57.6788 9.0127 3.6788 -12.2662
# 4 -18.1155 -10.1967 9.0127 28.2447 -10.1337 9.1802
# 5 3.6681 15.2100 3.6788 -10.1337 22.8495 3.0012
# 6 1.6854 -4.7085 -12.2662 9.1802 3.0012 34.4595
#
#
#
# Elastic Compliance Matrix: (Units=1/GPa)
#
#
# Indices 1 2 3 4 5 6 
#
# 1 0.124011 -0.009809 -0.115787 0.183608 0.100656 -0.106302
# 2 -0.009809 0.014966 -0.002819 -0.005052 -0.010673 0.003797
# 3 -0.115787 -0.002819 0.142054 -0.196370 -0.104903 0.117294
# 4 0.183608 -0.005052 -0.196370 0.338976 0.180214 -0.185571
# 5 0.100656 -0.010673 -0.104903 0.180214 0.145235 -0.104382
# 6 -0.106302 0.003797 0.117294 -0.185571 -0.104382 0.135017
#
#
# Mechanical properties :
#
#
# Convention : Reuss Voigt Hill
#
# Bulk Modulus (GPa) = 41.31808 51.36241 46.34024
# Shear Modulus (GPa) = 4.29127 25.15830 14.72479
#
# Velocity S-wave (km/s) = 1.42943 3.46107 2.64786
# Velocity P-wave (km/s) = 4.73263 6.35831 5.60473
#
# Compressibility (1/GPa) = 0.02420248
#
# Stress axis : x y z
#
# Youngs Moduli (GPa) = 8.06377 66.81975 7.03959
#
# Poissons Ratio (x) = 0.65542 0.81509
# Poissons Ratio (y) = 0.07910 0.01984
# Poissons Ratio (z) = 0.93368 0.18834
#
# Static dielectric constant tensor:
#      x y z
#    x 1.793720 0.020410 -0.046930 
#    y 0.020410 1.773970 0.030250 
#    z -0.046930 0.030250 1.764640 
# 
# From -- ./inp_files/462254.got.cif
#   From: 2010.05.17/outbox.cif.g08.bks.cpg/sg2_232_cif.got.tgz:462254.got - 2010.06.03 11:33:40.
