data_PCOD9086886
_publ_section_title
;
Structure prediction by ZEFSAII (Michael W. Deem and Ramdas Pophale) SiO2 
 PCOD9086886
Probable space group: P -1
;
_chemical_formula_sum "Si O2"
_cell_formula_units_Z 14
_cell_length_a 5.183499
_cell_length_b 12.012799
_cell_length_c 11.850640
_cell_angle_alpha 122.434291
_cell_angle_beta 108.757224
_cell_angle_gamma 90.902313
_cell_volume 573.144620
_symmetry_space_group_name_H-M "P -1"
_symmetry_group_IT_number 2
_symmetry_cell_setting 'triclinic'
loop_
_space_group_symop_operation_xyz
x,y,z
-x,-y,-z
loop_
_atom_site_type_symbol
_atom_site_label
_atom_site_fract_x
_atom_site_fract_y
_atom_site_fract_z
Si Si1 0.190430 0.578717 0.802176
Si Si2 0.389188 0.031951 0.379510
Si Si3 0.179592 0.416056 0.908324
Si Si4 0.132287 0.836341 0.638749
Si Si5 0.589159 0.792936 0.845642
Si Si6 0.042051 0.805138 0.072835
Si Si7 0.230243 0.379893 0.408789
O O1 0.120895 0.437276 0.781172
O O2 0.487728 0.654439 0.831743
O O3 0.001086 0.567225 0.661370
O O4 0.125000 0.693123 0.940944
O O5 0.641898 0.142089 0.417753
O O6 0.083795 0.067761 0.359042
O O7 0.500000 0.000000 0.500000
O O8 0.320841 0.906099 0.213359
O O9 0.112894 0.270908 0.878951
O O10 0.500000 0.500000 0.000000
O O11 0.000000 0.500000 0.000000
O O12 0.327754 0.847100 0.787889
O O13 0.911832 0.690926 0.537822
O O14 0.717601 0.745811 0.725811
O O15 0.835760 0.873554 0.005339
O O16 0.500000 0.500000 0.500000
#
# Coordination Sequence:
#
# PCOD9086886 Si02
#       7
#     2   2   2   2   2   2   2
#     4   9  20  37  64 102 138 167 220 280 329 402
#     4  12  28  49  68  96 138 183 234 280 331 411
#     4  10  19  36  60  94 133 165 212 266 329 388
#     4  11  25  48  70  98 138 174 231 286 337 399
#     4  10  20  43  69 105 133 168 228 279 340 404
#     4  10  23  40  68  99 136 180 227 277 339 394
#     4  10  22  43  70 102 137 176 218 276 343 409
#
# _framework density 24.426646000000002
#
# number of rings (size 3 to 8) (size 9 to 14) (size 15 to 20)
#    0.000    1.714    2.857    0.429    2.000    4.571 
#    2.571    0.000    0.000    0.000    0.000    0.000 
#    0.000    0.000    0.000    0.000    0.000    0.000 
#
# Total GULP energy -78059.097656 kJ/mol
# GULP energy per Si atom -5575.649833 kJ/mol
# Density = 2.437105 g / cm^3
# Si number density = 24.426646 Si / 1000 Ang^3
#
#
#
# Elastic Constant Matrix: (Units=GPa)
#
#
# Indices 1 2 3 4 5 6 
#
# 1 120.8875 38.6342 23.1051 -5.4057 6.9097 11.4368
# 2 38.6342 124.3964 35.7148 -32.1422 3.2548 14.2743
# 3 23.1051 35.7148 92.4526 -9.4497 13.2602 -2.7805
# 4 -5.4057 -32.1422 -9.4497 33.5868 0.6234 0.5152
# 5 6.9097 3.2548 13.2602 0.6234 34.7255 0.8078
# 6 11.4368 14.2743 -2.7805 0.5152 0.8078 52.1910
#
#
#
# Elastic Compliance Matrix: (Units=1/GPa)
#
#
# Indices 1 2 3 4 5 6 
#
# 1 0.009540 -0.002763 -0.001354 -0.001448 -0.001064 -0.001376
# 2 -0.002763 0.013136 -0.003408 0.011208 0.000495 -0.003287
# 3 -0.001354 -0.003408 0.013207 0.000289 -0.004506 0.001999
# 4 -0.001448 0.011208 0.000289 0.040424 -0.001526 -0.003108
# 5 -0.001064 0.000495 -0.004506 -0.001526 0.030725 -0.000603
# 6 -0.001376 -0.003287 0.001999 -0.003108 -0.000603 0.020508
#
#
# Mechanical properties :
#
#
# Convention : Reuss Voigt Hill
#
# Bulk Modulus (GPa) = 47.99896 59.18277 53.59086
# Shear Modulus (GPa) = 33.43734 40.11948 36.77841
#
# Velocity S-wave (km/s) = 3.70386 4.05711 3.88450
# Velocity P-wave (km/s) = 6.16315 6.79913 6.48894
#
# Compressibility (1/GPa) = 0.02083379
#
# Stress axis : x y z
#
# Youngs Moduli (GPa) = 104.82076 76.12865 75.71582
#
# Poissons Ratio (x) = 0.21032 0.10250
# Poissons Ratio (y) = 0.28959 0.25805
# Poissons Ratio (z) = 0.14190 0.25946
#
# Static dielectric constant tensor:
#      x y z
#    x 2.151670 0.143780 0.126120 
#    y 0.143780 2.537530 0.136860 
#    z 0.126120 0.136860 2.066900 
# 
# From -- ./inp_files/68495.got.cif
#   From: 2010.05.17/outbox.cif.g08.bks.cpg/sg2_35_cif.got.tgz:68495.got - 2010.06.03 11:33:40.
