data_PCOD9086589
_publ_section_title
;
Structure prediction by ZEFSAII (Michael W. Deem and Ramdas Pophale) SiO2 
 PCOD9086589
Probable space group: P -1
;
_chemical_formula_sum "Si O2"
_cell_formula_units_Z 16
_cell_length_a 8.711585
_cell_length_b 18.145491
_cell_length_c 8.678011
_cell_angle_alpha 106.957188
_cell_angle_beta 98.753199
_cell_angle_gamma 141.520258
_cell_volume 627.833879
_symmetry_space_group_name_H-M "P -1"
_symmetry_group_IT_number 2
_symmetry_cell_setting 'triclinic'
loop_
_space_group_symop_operation_xyz
x,y,z
-x,-y,-z
loop_
_atom_site_type_symbol
_atom_site_label
_atom_site_fract_x
_atom_site_fract_y
_atom_site_fract_z
Si Si1 0.409474 0.270651 0.923097
Si Si2 0.973508 0.158927 0.571757
Si Si3 0.698683 0.179881 0.703143
Si Si4 0.472940 0.409672 0.267330
Si Si5 0.263453 0.915189 0.053102
Si Si6 0.561848 0.434647 0.637514
Si Si7 0.817028 0.948045 0.784480
Si Si8 0.719289 0.349151 0.707725
O O1 0.599244 0.317446 0.842050
O O2 0.218537 0.259228 0.812050
O O3 0.576646 0.381651 0.163434
O O4 0.130253 0.091028 0.813535
O O5 0.792185 0.159967 0.571566
O O6 0.200365 0.248166 0.513437
O O7 0.686662 0.973636 0.440104
O O8 0.743936 0.155260 0.859422
O O9 0.871852 0.332612 0.765498
O O10 0.645786 0.486164 0.504075
O O11 0.466698 0.492770 0.246553
O O12 0.102602 0.235630 0.147822
O O13 0.326172 0.028455 0.194559
O O14 0.500000 0.000000 0.000000
O O15 0.812208 0.477158 0.751512
O O16 0.534532 0.780763 0.549072
O O17 0.000000 0.000000 0.000000
#
# Coordination Sequence:
#
# PCOD9086589 Si02
#       8
#     2   2   2   2   2   2   2   2
#     4  10  20  36  57  84 119 155 199 248 289 347
#     4  10  19  36  59  85 115 164 191 236 296 353
#     4  11  20  36  57  88 132 148 197 245 298 364
#     4  10  21  44  61  86 117 154 213 246 288 363
#     4  11  23  39  62  91 121 163 193 243 309 361
#     4  10  23  39  67  82 114 162 206 249 294 356
#     4  11  21  35  57  88 125 151 200 252 289 350
#     4  11  22  34  59  92 118 158 194 249 306 342
#
# _framework density 25.484449999999999
#
# number of rings (size 3 to 8) (size 9 to 14) (size 15 to 20)
#    0.000    1.500    3.750    3.375    3.500    2.000 
#    0.000    0.625    0.000    2.250    0.000    0.000 
#    0.000    0.000    0.000    0.000    0.000    0.000 
#
# Total GULP energy -89120.635639 kJ/mol
# GULP energy per Si atom -5570.039727 kJ/mol
# Density = 2.542645 g / cm^3
# Si number density = 25.484450 Si / 1000 Ang^3
#
#
#
# Elastic Constant Matrix: (Units=GPa)
#
#
# Indices 1 2 3 4 5 6 
#
# 1 87.5359 18.2596 13.5890 -7.3705 -7.7167 -19.4029
# 2 18.2596 63.0719 1.8396 -12.0838 11.4519 -3.3327
# 3 13.5890 1.8396 87.5723 -16.0573 5.6549 -10.0019
# 4 -7.3705 -12.0838 -16.0573 38.1715 -10.9195 7.0029
# 5 -7.7167 11.4519 5.6549 -10.9195 30.0944 -9.8910
# 6 -19.4029 -3.3327 -10.0019 7.0029 -9.8910 39.6432
#
#
#
# Elastic Compliance Matrix: (Units=1/GPa)
#
#
# Indices 1 2 3 4 5 6 
#
# 1 0.015914 -0.005569 -0.001626 0.001865 0.010180 0.009121
# 2 -0.005569 0.019587 0.001308 0.003784 -0.008954 -0.003652
# 3 -0.001626 0.001308 0.012774 0.004909 -0.001073 0.001402
# 4 0.001865 0.003784 0.004909 0.032762 0.009709 -0.000896
# 5 0.010180 -0.008954 -0.001073 0.009709 0.047613 0.014123
# 6 0.009121 -0.003652 0.001402 -0.000896 0.014123 0.033418
#
#
# Mechanical properties :
#
#
# Convention : Reuss Voigt Hill
#
# Bulk Modulus (GPa) = 27.39766 33.95073 30.67420
# Shear Modulus (GPa) = 26.88047 35.21462 31.04755
#
# Velocity S-wave (km/s) = 3.25126 3.72130 3.49419
# Velocity P-wave (km/s) = 4.98682 5.64049 5.32370
#
# Compressibility (1/GPa) = 0.03649947
#
# Stress axis : x y z
#
# Youngs Moduli (GPa) = 62.83743 51.05479 78.28667
#
# Poissons Ratio (x) = 0.28432 0.12731
# Poissons Ratio (y) = 0.34994 -0.10237
# Poissons Ratio (z) = 0.10219 -0.06676
#
# Static dielectric constant tensor:
#      x y z
#    x 2.064240 -0.009520 0.050740 
#    y -0.009520 2.130490 0.056600 
#    z 0.050740 0.056600 2.159680 
# 
# From -- ./inp_files/179209.got.cif
#   From: 2010.05.17/outbox.cif.g08.bks.cpg/sg2_90_cif.got.tgz:179209.got - 2010.06.03 11:33:40.
