data_PCOD9086262
_publ_section_title
;
Structure prediction by ZEFSAII (Michael W. Deem and Ramdas Pophale) SiO2 
 PCOD9086262
Probable space group: P -1
;
_chemical_formula_sum "Si O2"
_cell_formula_units_Z 12
_cell_length_a 8.920156
_cell_length_b 13.736691
_cell_length_c 12.340866
_cell_angle_alpha 68.309261
_cell_angle_beta 33.782249
_cell_angle_gamma 59.266108
_cell_volume 717.899147
_symmetry_space_group_name_H-M "P -1"
_symmetry_group_IT_number 2
_symmetry_cell_setting 'triclinic'
loop_
_space_group_symop_operation_xyz
x,y,z
-x,-y,-z
loop_
_atom_site_type_symbol
_atom_site_label
_atom_site_fract_x
_atom_site_fract_y
_atom_site_fract_z
Si Si1 0.713581 0.032008 0.728071
Si Si2 0.352023 0.558785 0.895317
Si Si3 0.461086 0.171616 0.014985
Si Si4 0.267272 0.264010 0.873924
Si Si5 0.288709 0.375207 0.174428
Si Si6 0.610022 0.425893 0.572975
O O1 0.433730 0.130817 0.798974
O O2 0.658822 0.919326 0.831599
O O3 0.726606 0.095223 0.807868
O O4 0.000000 0.000000 0.500000
O O5 0.582476 0.595778 0.805300
O O6 0.476698 0.501492 0.728912
O O7 0.289264 0.468258 0.047040
O O8 0.045816 0.665431 0.017528
O O9 0.495859 0.251478 0.053751
O O10 0.241131 0.257430 0.023283
O O11 0.484073 0.327159 0.691456
O O12 0.962276 0.379852 0.383443
O O13 0.500000 0.500000 0.500000
#
# Coordination Sequence:
#
# PCOD9086262 Si02
#       6
#     2   2   2   2   2   2
#     4   9  18  34  60  81 103 137 193 235 269 313
#     4  11  22  37  51  84 118 150 176 225 284 325
#     4   9  19  35  56  81 105 144 186 228 273 318
#     4  10  19  36  57  82 110 139 191 229 267 320
#     4  11  22  36  55  79 121 149 177 224 281 334
#     4  12  21  34  58  85 110 148 193 219 266 329
#
# _framework density 16.715440000000001
#
# number of rings (size 3 to 8) (size 9 to 14) (size 15 to 20)
#    1.000    0.667    3.333    3.000    0.000    0.000 
#    0.000    0.833    0.000    1.000    0.000    0.000 
#    0.000    0.000    0.000    0.000    0.000    0.000 
#
# Total GULP energy -66812.485438 kJ/mol
# GULP energy per Si atom -5567.707120 kJ/mol
# Density = 1.667739 g / cm^3
# Si number density = 16.715440 Si / 1000 Ang^3
#
#
#
# Elastic Constant Matrix: (Units=GPa)
#
#
# Indices 1 2 3 4 5 6 
#
# 1 69.1267 28.2633 29.0738 -9.4534 0.4077 -7.5075
# 2 28.2633 85.1438 24.0365 -19.8681 -0.7202 -9.4255
# 3 29.0738 24.0365 97.4221 -4.3803 0.6974 -8.1892
# 4 -9.4534 -19.8681 -4.3803 23.2380 -0.0665 6.1389
# 5 0.4077 -0.7202 0.6974 -0.0665 24.4251 -1.5247
# 6 -7.5075 -9.4255 -8.1892 6.1389 -1.5247 8.3480
#
#
#
# Elastic Compliance Matrix: (Units=1/GPa)
#
#
# Indices 1 2 3 4 5 6 
#
# 1 0.018745 -0.003922 -0.003931 0.001564 0.000153 0.007452
# 2 -0.003922 0.016789 -0.002017 0.010897 0.000999 0.005620
# 3 -0.003931 -0.002017 0.012538 -0.003330 0.000199 0.008973
# 4 0.001564 0.010897 -0.003330 0.061650 -0.001639 -0.035191
# 5 0.000153 0.000999 0.000199 -0.001639 0.041599 0.010263
# 6 0.007452 0.005620 0.008973 -0.035191 0.010263 0.169391
#
#
# Mechanical properties :
#
#
# Convention : Reuss Voigt Hill
#
# Bulk Modulus (GPa) = 35.29299 46.04887 40.67093
# Shear Modulus (GPa) = 14.28995 22.55683 18.42339
#
# Velocity S-wave (km/s) = 2.92703 3.67749 3.32351
# Velocity P-wave (km/s) = 5.70817 6.75577 6.25394
#
# Compressibility (1/GPa) = 0.02833424
#
# Stress axis : x y z
#
# Youngs Moduli (GPa) = 53.34717 59.56133 79.75486
#
# Poissons Ratio (x) = 0.23357 0.31351
# Poissons Ratio (y) = 0.20920 0.16085
# Poissons Ratio (z) = 0.20971 0.12012
#
# Static dielectric constant tensor:
#      x y z
#    x 1.561830 -0.003710 0.020230 
#    y -0.003710 1.572130 0.010660 
#    z 0.020230 0.010660 1.558620 
# 
# From -- ./inp_files/29192.got.cif
#   From: 2010.05.17/outbox.cif.g08.bks.cpg/sg2_15_cif.got.tgz:29192.got - 2010.06.03 11:33:40.
