data_PCOD9086137
_publ_section_title
;
Structure prediction by ZEFSAII (Michael W. Deem and Ramdas Pophale) SiO2 
 PCOD9086137
Probable space group: P -1
;
_chemical_formula_sum "Si O2"
_cell_formula_units_Z 13
_cell_length_a 8.749400
_cell_length_b 7.757201
_cell_length_c 20.160916
_cell_angle_alpha 34.444482
_cell_angle_beta 143.258498
_cell_angle_gamma 126.803427
_cell_volume 455.194779
_symmetry_space_group_name_H-M "P -1"
_symmetry_group_IT_number 2
_symmetry_cell_setting 'triclinic'
loop_
_space_group_symop_operation_xyz
x,y,z
-x,-y,-z
loop_
_atom_site_type_symbol
_atom_site_label
_atom_site_fract_x
_atom_site_fract_y
_atom_site_fract_z
Si Si1 0.854345 0.615929 0.728408
Si Si2 0.719881 0.151218 0.061201
Si Si3 0.849535 0.134704 0.778518
Si Si4 0.974571 0.340516 0.417946
Si Si5 0.485526 0.142703 0.346781
Si Si6 0.757762 0.957533 0.269791
Si Si7 0.500000 0.500000 0.000000
O O1 0.662452 0.881275 0.536644
O O2 0.833249 0.285682 0.796889
O O3 0.400010 0.962992 0.311027
O O4 0.752752 0.689057 0.744176
O O5 0.854208 0.299908 0.208735
O O6 0.926230 0.148392 0.075490
O O7 0.599329 0.446019 0.969111
O O8 0.500000 0.000000 0.000000
O O9 0.924666 0.429250 0.670355
O O10 0.141313 0.086734 0.755563
O O11 0.670788 0.384675 0.317919
O O12 0.000000 0.000000 0.500000
O O13 0.141403 0.278070 0.564162
O O14 0.466124 0.125711 0.108740
#
# Coordination Sequence:
#
# PCOD9086137 Si02
#       7
#     2   2   2   2   2   2   1
#     4  10  19  36  55  87 128 156 204 249 302 370
#     4  10  21  35  62  90 120 166 215 254 304 368
#     4  12  22  38  66  95 124 165 209 247 320 377
#     4  11  23  37  63  99 132 158 202 260 317 375
#     4  10  21  40  56  88 133 171 194 251 314 373
#     4   9  18  37  55  88 127 159 198 264 300 358
#     4   8  18  36  56  84 124 158 210 260 300 350
#
# _framework density 28.559201999999999
#
# number of rings (size 3 to 8) (size 9 to 14) (size 15 to 20)
#    0.923    0.923    4.615    1.385    0.000    0.615 
#    0.000    1.538    0.000    0.923    0.000   10.769 
#    0.000    0.000    0.000    0.000    0.000    0.000 
#
# Total GULP energy -72490.496346 kJ/mol
# GULP energy per Si atom -5576.192027 kJ/mol
# Density = 2.849420 g / cm^3
# Si number density = 28.559202 Si / 1000 Ang^3
#
#
#
# Elastic Constant Matrix: (Units=GPa)
#
#
# Indices 1 2 3 4 5 6 
#
# 1 106.1374 34.3825 49.0616 -21.3870 4.6464 16.3875
# 2 34.3825 129.5585 21.1073 -11.9994 -0.4148 -19.8891
# 3 49.0616 21.1073 104.4175 -1.2306 -4.8368 -5.1779
# 4 -21.3870 -11.9994 -1.2306 44.4177 -15.7207 14.4174
# 5 4.6464 -0.4148 -4.8368 -15.7207 53.3929 -11.5038
# 6 16.3875 -19.8891 -5.1779 14.4174 -11.5038 53.0421
#
#
#
# Elastic Compliance Matrix: (Units=1/GPa)
#
#
# Indices 1 2 3 4 5 6 
#
# 1 0.018801 -0.004397 -0.008475 0.010769 -0.001765 -0.011594
# 2 -0.004397 0.009591 0.000460 -0.000793 0.001457 0.005531
# 3 -0.008475 0.000460 0.013784 -0.004824 0.001828 0.005844
# 4 0.010769 -0.000793 -0.004824 0.033277 0.005860 -0.011869
# 5 -0.001765 0.001457 0.001828 0.005860 0.021731 0.004390
# 6 -0.011594 0.005531 0.005844 -0.011869 0.004390 0.029258
#
#
# Mechanical properties :
#
#
# Convention : Reuss Voigt Hill
#
# Bulk Modulus (GPa) = 57.63300 61.02402 59.32851
# Shear Modulus (GPa) = 31.83703 45.87469 38.85586
#
# Velocity S-wave (km/s) = 3.34244 4.01222 3.69255
# Velocity P-wave (km/s) = 5.92621 6.54811 6.24491
#
# Compressibility (1/GPa) = 0.01735117
#
# Stress axis : x y z
#
# Youngs Moduli (GPa) = 53.18892 104.26631 72.54993
#
# Poissons Ratio (x) = 0.45845 0.61485
# Poissons Ratio (y) = 0.23387 -0.03335
# Poissons Ratio (z) = 0.45076 -0.04793
#
# Static dielectric constant tensor:
#      x y z
#    x 2.401310 -0.004780 0.105830 
#    y -0.004780 2.275670 -0.013370 
#    z 0.105830 -0.013370 2.780920 
# 
# From -- ./inp_files/608878.got.cif
#   From: 2010.05.17/outbox.cif.g08.bks.cpg/sg2_305_cif.got.tgz:608878.got - 2010.06.03 11:33:40.
