data_PCOD9086964
_publ_section_title
;
Structure prediction by ZEFSAII (Michael W. Deem and Ramdas Pophale) SiO2 
 PCOD9086964
Probable space group: P -1
;
_chemical_formula_sum "Si O2"
_cell_formula_units_Z 14
_cell_length_a 14.655780
_cell_length_b 5.043742
_cell_length_c 9.173895
_cell_angle_alpha 76.762892
_cell_angle_beta 105.620741
_cell_angle_gamma 104.894905
_cell_volume 621.774120
_symmetry_space_group_name_H-M "P -1"
_symmetry_group_IT_number 2
_symmetry_cell_setting 'triclinic'
loop_
_space_group_symop_operation_xyz
x,y,z
-x,-y,-z
loop_
_atom_site_type_symbol
_atom_site_label
_atom_site_fract_x
_atom_site_fract_y
_atom_site_fract_z
Si Si1 0.711800 0.559664 0.948736
Si Si2 0.933171 0.198237 0.504754
Si Si3 0.387546 0.800844 0.317079
Si Si4 0.791202 0.915133 0.701706
Si Si5 0.452743 0.187352 0.065329
Si Si6 0.329878 0.401730 0.569251
Si Si7 0.731353 0.189453 0.273336
O O1 0.728260 0.331329 0.098495
O O2 0.642632 0.396416 0.812349
O O3 0.800217 0.736480 0.871924
O O4 0.659090 0.779827 0.979418
O O5 0.840740 0.173384 0.361956
O O6 0.000000 0.500000 0.500000
O O7 0.885912 0.111362 0.653721
O O8 0.000000 0.000000 0.500000
O O9 0.410562 0.606070 0.481705
O O10 0.295251 0.922000 0.320133
O O11 0.462807 0.061235 0.247462
O O12 0.750963 0.708746 0.576047
O O13 0.500000 0.500000 0.000000
O O14 0.500000 0.000000 0.000000
O O15 0.297255 0.593997 0.652019
O O16 0.337431 0.113686 0.688060
#
# Coordination Sequence:
#
# PCOD9086964 Si02
#       7
#     2   2   2   2   2   2   2
#     4  10  23  38  66  92 122 158 204 251 301 352
#     4  11  22  39  61  87 120 160 203 249 303 356
#     4  10  19  39  63  92 114 165 206 242 287 372
#     4   9  20  38  61  89 116 161 213 239 289 375
#     4  11  22  38  61  94 124 156 199 249 298 357
#     4  10  19  36  61  86 116 155 210 244 282 355
#     4  11  23  38  61  93 121 155 207 254 297 356
#
# _framework density 22.516217999999999
#
# number of rings (size 3 to 8) (size 9 to 14) (size 15 to 20)
#    0.000    1.714    4.286    1.714    6.000    0.000 
#    0.000    1.429    0.000    5.143    0.000    0.000 
#    0.000    0.000    0.000    0.000    0.000    0.000 
#
# Total GULP energy -78127.493699 kJ/mol
# GULP energy per Si atom -5580.535264 kJ/mol
# Density = 2.246497 g / cm^3
# Si number density = 22.516218 Si / 1000 Ang^3
#
#
#
# Elastic Constant Matrix: (Units=GPa)
#
#
# Indices 1 2 3 4 5 6 
#
# 1 105.4878 56.1484 67.6202 -17.7423 -29.8056 -14.9724
# 2 56.1484 175.8437 67.1480 -18.7514 -26.7005 -20.2244
# 3 67.6202 67.1480 187.0442 -41.7310 -41.6050 9.5739
# 4 -17.7423 -18.7514 -41.7310 52.2993 11.0744 -17.5749
# 5 -29.8056 -26.7005 -41.6050 11.0744 46.8210 -10.3694
# 6 -14.9724 -20.2244 9.5739 -17.5749 -10.3694 33.8597
#
#
#
# Elastic Compliance Matrix: (Units=1/GPa)
#
#
# Indices 1 2 3 4 5 6 
#
# 1 0.017853 -0.000573 -0.003512 0.005885 0.009756 0.014588
# 2 -0.000573 0.008399 -0.001550 0.003498 0.004050 0.008258
# 3 -0.003512 -0.001550 0.008934 0.004026 0.003456 -0.001857
# 4 0.005885 0.003498 0.004026 0.031549 0.006726 0.021989
# 5 0.009756 0.004050 0.003456 0.006726 0.035837 0.020222
# 6 0.014588 0.008258 -0.001857 0.021989 0.020222 0.059048
#
#
# Mechanical properties :
#
#
# Convention : Reuss Voigt Hill
#
# Bulk Modulus (GPa) = 41.81038 94.46764 68.13901
# Shear Modulus (GPa) = 27.64552 45.09328 36.36940
#
# Velocity S-wave (km/s) = 3.50781 4.48001 4.02338
# Velocity P-wave (km/s) = 5.91740 8.29501 7.20495
#
# Compressibility (1/GPa) = 0.02391750
#
# Stress axis : x y z
#
# Youngs Moduli (GPa) = 56.01320 119.05971 111.92661
#
# Poissons Ratio (x) = 0.06818 0.39311
# Poissons Ratio (y) = 0.03208 0.17345
# Poissons Ratio (z) = 0.19673 0.18450
#
# Static dielectric constant tensor:
#      x y z
#    x 1.843380 0.050270 -0.003010 
#    y 0.050270 1.906690 -0.048620 
#    z -0.003010 -0.048620 1.909180 
# 
# From -- ./inp_files/288494.got.cif
#   From: 2010.05.17/outbox.cif.g08.bks.cpg/sg2_145_cif.got.tgz:288494.got - 2010.06.03 11:33:40.
