data_PCOD9086369
_publ_section_title
;
Structure prediction by ZEFSAII (Michael W. Deem and Ramdas Pophale) SiO2 
 PCOD9086369
Probable space group: P -1
;
_chemical_formula_sum "Si O2"
_cell_formula_units_Z 14
_cell_length_a 8.159829
_cell_length_b 13.246955
_cell_length_c 7.228234
_cell_angle_alpha 63.997061
_cell_angle_beta 115.714403
_cell_angle_gamma 114.480443
_cell_volume 607.961289
_symmetry_space_group_name_H-M "P -1"
_symmetry_group_IT_number 2
_symmetry_cell_setting 'triclinic'
loop_
_space_group_symop_operation_xyz
x,y,z
-x,-y,-z
loop_
_atom_site_type_symbol
_atom_site_label
_atom_site_fract_x
_atom_site_fract_y
_atom_site_fract_z
Si Si1 0.150166 0.919855 0.846745
Si Si2 0.624523 0.875388 0.948269
Si Si3 0.724690 0.514741 0.873719
Si Si4 0.436860 0.300481 0.442360
Si Si5 0.264760 0.705109 0.113955
Si Si6 0.655587 0.648789 0.042690
Si Si7 0.743734 0.951165 0.556148
O O1 0.950025 0.947673 0.727726
O O2 0.224426 0.941435 0.653862
O O3 0.131329 0.788830 0.009570
O O4 0.288820 0.014511 0.968455
O O5 0.741157 0.776121 0.069859
O O6 0.621297 0.930906 0.698835
O O7 0.432550 0.792588 0.006163
O O8 0.706221 0.620545 0.646515
O O9 0.820057 0.416516 0.935021
O O10 0.775330 0.574662 0.052271
O O11 0.501704 0.437698 0.840349
O O12 0.628690 0.325862 0.629602
O O13 0.461391 0.322046 0.216465
O O14 0.335194 0.163551 0.517855
#
# Coordination Sequence:
#
# PCOD9086369 Si02
#       7
#     2   2   2   2   2   2   2
#     4  11  23  38  52  82 115 137 183 222 271 318
#     4  10  19  36  58  78 106 142 185 218 264 320
#     4   8  15  31  51  81 109 136 175 222 268 316
#     4   9  16  32  55  79 103 141 181 213 263 319
#     4  11  20  32  56  89 109 131 178 240 263 305
#     4   7  15  29  52  80 106 138 175 219 261 318
#     4  10  22  39  56  74 108 158 176 209 272 333
#
# _framework density 23.027785000000002
#
# number of rings (size 3 to 8) (size 9 to 14) (size 15 to 20)
#    0.857    1.714    1.429    1.286    0.000    0.571 
#    5.143    0.714    0.000    0.000    0.000    7.000 
#    0.000    0.000    0.000    0.000    0.000    0.000 
#
# Total GULP energy -77939.139001 kJ/mol
# GULP energy per Si atom -5567.081357 kJ/mol
# Density = 2.297537 g / cm^3
# Si number density = 23.027785 Si / 1000 Ang^3
#
#
#
# Elastic Constant Matrix: (Units=GPa)
#
#
# Indices 1 2 3 4 5 6 
#
# 1 40.5985 6.4243 5.5543 8.0417 -7.0501 -0.6114
# 2 6.4243 67.6693 21.1542 20.9885 33.4848 -4.4769
# 3 5.5543 21.1542 60.5172 -8.8613 -1.6960 -12.1306
# 4 8.0417 20.9885 -8.8613 8.3851 -14.7768 0.3553
# 5 -7.0501 33.4848 -1.6960 -14.7768 19.3682 -9.7562
# 6 -0.6114 -4.4769 -12.1306 0.3553 -9.7562 27.6319
#
#
#
# Elastic Compliance Matrix: (Units=1/GPa)
#
#
# Indices 1 2 3 4 5 6 
#
# 1 0.028811 -0.002547 -0.002620 -0.010165 0.007913 0.001999
# 2 -0.002547 0.002912 0.003404 0.018616 0.011410 0.005699
# 3 -0.002620 0.003404 0.014792 -0.008266 -0.010067 0.003539
# 4 -0.010165 0.018616 -0.008266 0.008207 -0.037490 -0.014180
# 5 0.007913 0.011410 -0.010067 -0.037490 0.005275 -0.000051
# 6 0.001999 0.005699 0.003539 -0.014180 -0.000051 0.038876
#
#
# Mechanical properties :
#
#
# Convention : Reuss Voigt Hill
#
# Bulk Modulus (GPa) = 23.26178 26.11675 24.68927
# Shear Modulus (GPa) = 42.83477 20.12052 31.47764
#
# Velocity S-wave (km/s) = 4.31761 2.95913 3.70123
# Velocity P-wave (km/s) = 5.91432 4.80014 5.38612
#
# Compressibility (1/GPa) = 0.04298896
#
# Stress axis : x y z
#
# Youngs Moduli (GPa) = 34.70952 343.38079 67.60487
#
# Poissons Ratio (x) = 0.87452 0.17712
# Poissons Ratio (y) = 0.08840 -0.23012
# Poissons Ratio (z) = 0.09093 -1.16881
#
# Static dielectric constant tensor:
#      x y z
#    x 1.940990 -0.082390 0.020580 
#    y -0.082390 1.945180 -0.023690 
#    z 0.020580 -0.023690 1.869840 
# 
# From -- ./inp_files/195845.got.cif
#   From: 2010.05.17/outbox.cif.g08.bks.cpg/sg2_98_cif.got.tgz:195845.got - 2010.06.03 11:33:40.
