data_PCOD9086392
_publ_section_title
;
Structure prediction by ZEFSAII (Michael W. Deem and Ramdas Pophale) SiO2 
 PCOD9086392
Probable space group: P -1
;
_chemical_formula_sum "Si O2"
_cell_formula_units_Z 12
_cell_length_a 8.755775
_cell_length_b 14.767710
_cell_length_c 27.574889
_cell_angle_alpha 18.557980
_cell_angle_beta 28.673640
_cell_angle_gamma 29.760096
_cell_volume 528.823067
_symmetry_space_group_name_H-M "P -1"
_symmetry_group_IT_number 2
_symmetry_cell_setting 'triclinic'
loop_
_space_group_symop_operation_xyz
x,y,z
-x,-y,-z
loop_
_atom_site_type_symbol
_atom_site_label
_atom_site_fract_x
_atom_site_fract_y
_atom_site_fract_z
Si Si1 0.367923 0.355658 0.565538
Si Si2 0.344909 0.353723 0.040877
Si Si3 0.152962 0.832556 0.929408
Si Si4 0.641692 0.377915 0.768167
Si Si5 0.611286 0.615637 0.560177
Si Si6 0.273959 0.777207 0.753184
O O1 0.500000 0.500000 0.500000
O O2 0.530268 0.389998 0.451480
O O3 0.976051 0.488401 0.609906
O O4 0.387002 0.014158 0.744479
O O5 0.705294 0.209000 0.034650
O O6 0.114793 0.146248 0.191167
O O7 0.183854 0.539302 0.038912
O O8 0.327234 0.584600 0.885121
O O9 0.799042 0.050140 0.909536
O O10 0.493290 0.426857 0.730583
O O11 0.441194 0.573165 0.766383
O O12 0.000000 0.500000 0.500000
O O13 0.575397 0.945716 0.421227
#
# Coordination Sequence:
#
# PCOD9086392 Si02
#       6
#     2   2   2   2   2   2
#     4   9  19  37  59  80 109 152 184 228 284 331
#     4  10  21  36  61  77 116 158 185 223 274 344
#     4   9  20  39  53  84 111 153 190 225 272 333
#     4   9  21  36  59  85 117 137 189 242 273 327
#     4  10  19  36  58  81 113 143 187 233 277 336
#     4  11  21  37  57  89 110 150 189 228 284 326
#
# _framework density 22.691898999999999
#
# number of rings (size 3 to 8) (size 9 to 14) (size 15 to 20)
#    1.000    1.333    1.667    0.500    4.667    1.333 
#    0.000    4.167    0.000    0.000    0.000    0.000 
#    0.000    0.000    0.000    0.000    0.000    0.000 
#
# Total GULP energy -66872.013343 kJ/mol
# GULP energy per Si atom -5572.667779 kJ/mol
# Density = 2.264025 g / cm^3
# Si number density = 22.691899 Si / 1000 Ang^3
#
#
#
# Elastic Constant Matrix: (Units=GPa)
#
#
# Indices 1 2 3 4 5 6 
#
# 1 173.3658 20.6948 48.8214 1.6237 24.2474 1.5699
# 2 20.6948 46.8975 9.1732 -9.0507 9.8061 2.1959
# 3 48.8214 9.1732 75.5909 -4.6145 11.3256 -3.4103
# 4 1.6237 -9.0507 -4.6145 19.8826 2.0724 2.3834
# 5 24.2474 9.8061 11.3256 2.0724 30.0682 -2.8222
# 6 1.5699 2.1959 -3.4103 2.3834 -2.8222 20.2617
#
#
#
# Elastic Compliance Matrix: (Units=1/GPa)
#
#
# Indices 1 2 3 4 5 6 
#
# 1 0.007848 -0.002093 -0.004407 -0.002029 -0.003981 -0.001439
# 2 -0.002093 0.027025 -0.000035 0.014036 -0.008608 -0.005623
# 3 -0.004407 -0.000035 0.016875 0.004286 -0.002872 0.002281
# 4 -0.002029 0.014036 0.004286 0.059920 -0.009532 -0.009019
# 5 -0.003981 -0.008608 -0.002872 -0.009532 0.041737 0.007693
# 6 -0.001439 -0.005623 0.002281 -0.009019 0.007693 0.052591
#
#
# Mechanical properties :
#
#
# Convention : Reuss Voigt Hill
#
# Bulk Modulus (GPa) = 25.85424 50.35923 38.10673
# Shear Modulus (GPa) = 21.55562 28.52015 25.03789
#
# Velocity S-wave (km/s) = 3.08543 3.54904 3.32533
# Velocity P-wave (km/s) = 4.91035 6.24780 5.61901
#
# Compressibility (1/GPa) = 0.03867838
#
# Stress axis : x y z
#
# Youngs Moduli (GPa) = 127.42291 37.00210 59.26086
#
# Poissons Ratio (x) = 0.07744 0.26116
# Poissons Ratio (y) = 0.26666 0.00208
# Poissons Ratio (z) = 0.56155 0.00130
#
# Static dielectric constant tensor:
#      x y z
#    x 1.952790 -0.079300 0.044560 
#    y -0.079300 1.843280 -0.032840 
#    z 0.044560 -0.032840 1.949120 
# 
# From -- ./inp_files/310645.got.cif
#   From: 2010.05.17/outbox.cif.g08.bks.cpg/sg2_156_cif.got.tgz:310645.got - 2010.06.03 11:33:40.
