data_PCOD9086469
_publ_section_title
;
Structure prediction by ZEFSAII (Michael W. Deem and Ramdas Pophale) SiO2 
 PCOD9086469
Probable space group: P -1
;
_chemical_formula_sum "Si O2"
_cell_formula_units_Z 16
_cell_length_a 6.371259
_cell_length_b 22.470836
_cell_length_c 4.990578
_cell_angle_alpha 80.752206
_cell_angle_beta 81.487387
_cell_angle_gamma 72.153113
_cell_volume 667.546829
_symmetry_space_group_name_H-M "P -1"
_symmetry_group_IT_number 2
_symmetry_cell_setting 'triclinic'
loop_
_space_group_symop_operation_xyz
x,y,z
-x,-y,-z
loop_
_atom_site_type_symbol
_atom_site_label
_atom_site_fract_x
_atom_site_fract_y
_atom_site_fract_z
Si Si1 0.965194 0.959548 0.785905
Si Si2 0.877713 0.638760 0.261204
Si Si3 0.380892 0.382130 0.180795
Si Si4 0.647208 0.886671 0.066502
Si Si5 0.711616 0.259618 0.433093
Si Si6 0.595242 0.139903 0.382389
Si Si7 0.142431 0.511672 0.213723
Si Si8 0.004825 0.763244 0.099473
O O1 0.158574 0.894545 0.746703
O O2 0.000000 0.000000 0.500000
O O3 0.738968 0.942290 0.899637
O O4 0.000000 0.000000 0.000000
O O5 0.409901 0.671489 0.709879
O O6 0.110639 0.586232 0.182858
O O7 0.885857 0.709027 0.179150
O O8 0.691899 0.626813 0.102558
O O9 0.368926 0.454947 0.191340
O O10 0.186286 0.371043 0.415543
O O11 0.472212 0.899106 0.332982
O O12 0.854463 0.830745 0.174608
O O13 0.554683 0.859240 0.847369
O O14 0.575867 0.209480 0.443566
O O15 0.783480 0.257540 0.728414
O O16 0.925268 0.234584 0.222017
O O17 0.000000 0.500000 0.500000
O O18 0.000000 0.500000 0.000000
#
# Coordination Sequence:
#
# PCOD9086469 Si02
#       8
#     2   2   2   2   2   2   2   2
#     4  12  28  48  74 106 144 171 218 277 324 392
#     4  10  19  36  58  87 119 164 220 267 328 395
#     4  10  19  36  58  87 119 164 220 267 328 395
#     4  12  26  46  74 101 136 182 224 268 333 395
#     4  12  24  40  63  93 132 169 216 280 333 379
#     4  12  26  46  74 101 136 182 224 268 333 395
#     4   8  16  30  54  80 116 160 210 270 320 387
#     4  12  24  40  63  93 132 169 216 280 333 379
#
# _framework density 23.968351999999999
#
# number of rings (size 3 to 8) (size 9 to 14) (size 15 to 20)
#    0.000    1.000    1.250    6.000    1.750    3.000 
#    0.000    1.250    0.000    0.000    0.000    0.000 
#    0.000    0.000    0.000    0.000    0.000    0.000 
#
# Total GULP energy -89469.975102 kJ/mol
# GULP energy per Si atom -5591.873444 kJ/mol
# Density = 2.391380 g / cm^3
# Si number density = 23.968352 Si / 1000 Ang^3
#
#
#
# Elastic Constant Matrix: (Units=GPa)
#
#
# Indices 1 2 3 4 5 6 
#
# 1 34.4171 8.4580 11.6620 1.8888 -4.0259 -6.2992
# 2 8.4580 86.3333 7.4771 -5.5563 -7.2183 -8.9977
# 3 11.6620 7.4771 135.6246 4.8983 -1.3534 10.0821
# 4 1.8888 -5.5563 4.8983 37.6553 1.8272 -4.6851
# 5 -4.0259 -7.2183 -1.3534 1.8272 45.5896 -3.5405
# 6 -6.2992 -8.9977 10.0821 -4.6851 -3.5405 30.6352
#
#
#
# Elastic Compliance Matrix: (Units=1/GPa)
#
#
# Indices 1 2 3 4 5 6 
#
# 1 0.032347 -0.001917 -0.003167 -0.000724 0.003061 0.007373
# 2 -0.001917 0.012622 -0.000916 0.002506 0.002030 0.004232
# 3 -0.003167 -0.000916 0.008031 -0.001478 -0.000425 -0.003838
# 4 -0.000724 0.002506 -0.001478 0.027832 -0.000416 0.005282
# 5 0.003061 0.002030 -0.000425 -0.000416 0.022837 0.003941
# 6 0.007373 0.004232 -0.003838 0.005282 0.003941 0.037928
#
#
# Mechanical properties :
#
#
# Convention : Reuss Voigt Hill
#
# Bulk Modulus (GPa) = 24.39046 34.61879 29.50463
# Shear Modulus (GPa) = 29.89302 38.02788 33.96045
#
# Velocity S-wave (km/s) = 3.53538 3.98752 3.76824
# Velocity P-wave (km/s) = 5.18300 5.97288 5.59190
#
# Compressibility (1/GPa) = 0.04099964
#
# Stress axis : x y z
#
# Youngs Moduli (GPa) = 30.91492 79.22508 124.52386
#
# Poissons Ratio (x) = 0.15187 0.39439
# Poissons Ratio (y) = 0.05926 0.11405
# Poissons Ratio (z) = 0.09791 0.07256
#
# Static dielectric constant tensor:
#      x y z
#    x 1.938040 -0.065420 -0.027690 
#    y -0.065420 1.970470 -0.036870 
#    z -0.027690 -0.036870 1.836690 
# 
# From -- ./inp_files/10567.got.cif
#   From: 2010.05.17/outbox.cif.g08.bks.cpg/sg2_6_cif.got.tgz:10567.got - 2010.06.03 11:33:40.
