data_PCOD9086726
_publ_section_title
;
Structure prediction by ZEFSAII (Michael W. Deem and Ramdas Pophale) SiO2 
 PCOD9086726
Probable space group: P -1
;
_chemical_formula_sum "Si O2"
_cell_formula_units_Z 14
_cell_length_a 13.541152
_cell_length_b 13.447268
_cell_length_c 9.307581
_cell_angle_alpha 138.517962
_cell_angle_beta 69.645376
_cell_angle_gamma 133.977640
_cell_volume 753.184352
_symmetry_space_group_name_H-M "P -1"
_symmetry_group_IT_number 2
_symmetry_cell_setting 'triclinic'
loop_
_space_group_symop_operation_xyz
x,y,z
-x,-y,-z
loop_
_atom_site_type_symbol
_atom_site_label
_atom_site_fract_x
_atom_site_fract_y
_atom_site_fract_z
Si Si1 0.467192 0.091657 0.895517
Si Si2 0.931541 0.750775 0.382497
Si Si3 0.765443 0.843730 0.434309
Si Si4 0.790945 0.336542 0.547703
Si Si5 0.295815 0.528452 0.025426
Si Si6 0.110322 0.548421 0.699253
Si Si7 0.632366 0.974856 0.815896
O O1 0.528168 0.989272 0.802803
O O2 0.318980 0.912760 0.688254
O O3 0.584777 0.290033 0.950533
O O4 0.433551 0.133864 0.112296
O O5 0.850886 0.832429 0.503535
O O6 0.863955 0.609677 0.119699
O O7 0.885920 0.598396 0.368744
O O8 0.104715 0.947944 0.495066
O O9 0.689319 0.637133 0.155615
O O10 0.663641 0.864181 0.581274
O O11 0.833351 0.428083 0.464502
O O12 0.943189 0.439347 0.655571
O O13 0.710146 0.384020 0.731758
O O14 0.218001 0.782176 0.963729
#
# Coordination Sequence:
#
# PCOD9086726 Si02
#       7
#     2   2   2   2   2   2   2
#     4  10  21  35  57  84 111 148 184 226 279 323
#     4   9  19  36  59  87 104 143 196 223 274 322
#     4   9  20  34  58  86 111 138 192 234 267 321
#     4  10  22  35  57  84 118 138 186 233 277 325
#     4  10  19  37  55  80 114 147 176 232 275 329
#     4  10  20  37  61  83 105 150 188 231 274 317
#     4  10  19  36  60  85 107 141 196 230 262 333
#
# _framework density 18.587747
#
# number of rings (size 3 to 8) (size 9 to 14) (size 15 to 20)
#    0.857    1.429    1.429    1.286    2.000    1.714 
#    0.000    1.429    0.000    0.000    0.000    0.000 
#    0.000    0.000    0.000    0.000    0.000    0.000 
#
# Total GULP energy -77990.188201 kJ/mol
# GULP energy per Si atom -5570.727729 kJ/mol
# Density = 1.854544 g / cm^3
# Si number density = 18.587747 Si / 1000 Ang^3
#
#
#
# Elastic Constant Matrix: (Units=GPa)
#
#
# Indices 1 2 3 4 5 6 
#
# 1 16.6323 -3.8866 -3.3817 -0.4026 2.1855 4.8746
# 2 -3.8866 70.1087 26.7238 12.5289 -13.9238 0.1095
# 3 -3.3817 26.7238 -18.1311 18.3753 2.7771 4.4724
# 4 -0.4026 12.5289 18.3753 6.9863 8.3979 -2.8927
# 5 2.1855 -13.9238 2.7771 8.3979 23.0214 0.3112
# 6 4.8746 0.1095 4.4724 -2.8927 0.3112 24.7947
#
#
#
# Elastic Compliance Matrix: (Units=1/GPa)
#
#
# Indices 1 2 3 4 5 6 
#
# 1 0.065791 -0.010459 0.004919 0.038441 -0.027067 -0.008951
# 2 -0.010459 0.133617 -0.073709 -0.293567 0.198086 -0.021975
# 3 0.004919 -0.073709 0.031524 0.207764 -0.124904 0.019480
# 4 0.038441 -0.293567 0.207764 0.698187 -0.461546 0.043512
# 5 -0.027067 0.198086 -0.124904 -0.461546 0.349671 -0.031260
# 6 -0.008951 -0.021975 0.019480 0.043512 -0.031260 0.044143
#
#
# Mechanical properties :
#
#
# Convention : Reuss Voigt Hill
#
# Bulk Modulus (GPa) = 13.80586 11.94676 12.87631
# Shear Modulus (GPa) = 3.32099 14.23741 8.77920
#
# Velocity S-wave (km/s) = 1.33811 2.77060 2.17563
# Velocity P-wave (km/s) = 3.13543 4.08364 3.64054
#
# Compressibility (1/GPa) = 0.07243301
#
# Stress axis : x y z
#
# Youngs Moduli (GPa) = 15.19970 7.48406 31.72226
#
# Poissons Ratio (x) = 0.07828 -0.15603
# Poissons Ratio (y) = 0.15897 2.33822
# Poissons Ratio (z) = -0.07476 0.55164
#
# Static dielectric constant tensor:
#      x y z
#    x 1.646600 0.019500 0.015100 
#    y 0.019500 1.641050 0.016780 
#    z 0.015100 0.016780 1.635040 
# 
# From -- ./inp_files/311028.got.cif
#   From: 2010.05.17/outbox.cif.g08.bks.cpg/sg2_156_cif.got.tgz:311028.got - 2010.06.03 11:33:40.
