data_PCOD9086819
_publ_section_title
;
Structure prediction by ZEFSAII (Michael W. Deem and Ramdas Pophale) SiO2 
 PCOD9086819
Probable space group: P -1
;
_chemical_formula_sum "Si O2"
_cell_formula_units_Z 16
_cell_length_a 8.124606
_cell_length_b 9.001298
_cell_length_c 20.678845
_cell_angle_alpha 122.531987
_cell_angle_beta 118.077228
_cell_angle_gamma 109.267389
_cell_volume 698.532733
_symmetry_space_group_name_H-M "P -1"
_symmetry_group_IT_number 2
_symmetry_cell_setting 'triclinic'
loop_
_space_group_symop_operation_xyz
x,y,z
-x,-y,-z
loop_
_atom_site_type_symbol
_atom_site_label
_atom_site_fract_x
_atom_site_fract_y
_atom_site_fract_z
Si Si1 0.724921 0.514734 0.288899
Si Si2 0.802109 0.430328 0.614103
Si Si3 0.353264 0.355491 0.557766
Si Si4 0.905940 0.023199 0.272398
Si Si5 0.089588 0.899160 0.035274
Si Si6 0.309689 0.806322 0.595710
Si Si7 0.846716 0.019688 0.790396
Si Si8 0.488122 0.689025 0.221887
O O1 0.753215 0.640400 0.392446
O O2 0.626350 0.599003 0.243079
O O3 0.005812 0.601645 0.340927
O O4 0.449268 0.171415 0.163945
O O5 0.547095 0.317911 0.588369
O O6 0.019341 0.752457 0.706284
O O7 0.646737 0.263469 0.478879
O O8 0.130620 0.185025 0.414758
O O9 0.608094 0.683660 0.662467
O O10 0.936335 0.865676 0.201110
O O11 0.580870 0.798891 0.191376
O O12 0.002685 0.869277 0.086460
O O13 0.868557 0.582740 0.896160
O O14 0.000000 0.000000 0.000000
O O15 0.612477 0.004600 0.739188
O O16 0.000000 0.500000 0.500000
O O17 0.333931 0.031416 0.640013
#
# Coordination Sequence:
#
# PCOD9086819 Si02
#       8
#     2   2   2   2   2   2   2   2
#     4  10  23  42  63  87 126 170 206 252 307 368
#     4  11  20  37  64  93 125 163 198 250 321 366
#     4  10  19  37  64  92 126 163 200 248 316 376
#     4  11  20  36  61  94 126 155 202 257 310 374
#     4   9  21  42  63  81 121 169 207 253 304 358
#     4  12  20  35  61  93 121 158 198 253 311 372
#     4  10  19  36  60  89 121 157 201 256 308 353
#     4  11  24  39  61  89 122 166 214 249 301 365
#
# _framework density 22.905152000000001
#
# number of rings (size 3 to 8) (size 9 to 14) (size 15 to 20)
#    0.000    1.500    3.750    3.000    0.000    3.000 
#    2.250    1.250    0.000   14.250    0.000    0.000 
#    0.000    0.000    0.000    0.000    0.000    0.000 
#
# Total GULP energy -89114.315620 kJ/mol
# GULP energy per Si atom -5569.644726 kJ/mol
# Density = 2.285302 g / cm^3
# Si number density = 22.905152 Si / 1000 Ang^3
#
#
#
# Elastic Constant Matrix: (Units=GPa)
#
#
# Indices 1 2 3 4 5 6 
#
# 1 97.4814 8.9657 23.2510 2.4020 14.9872 -27.5748
# 2 8.9657 54.3951 26.9981 18.5691 0.0031 -15.3696
# 3 23.2510 26.9981 81.1774 9.2335 -0.2165 -5.9746
# 4 2.4020 18.5691 9.2335 39.6445 -1.6010 0.7949
# 5 14.9872 0.0031 -0.2165 -1.6010 9.0883 -5.0701
# 6 -27.5748 -15.3696 -5.9746 0.7949 -5.0701 21.5350
#
#
#
# Elastic Compliance Matrix: (Units=1/GPa)
#
#
# Indices 1 2 3 4 5 6 
#
# 1 0.023091 0.010233 -0.007203 -0.006028 -0.022722 0.029745
# 2 0.010233 0.038987 -0.011100 -0.017013 0.001514 0.038832
# 3 -0.007203 -0.011100 0.017040 0.002151 0.006556 -0.010953
# 4 -0.006028 -0.017013 0.002151 0.033653 0.005165 -0.019291
# 5 -0.022722 0.001514 0.006556 0.005165 0.154085 0.009892
# 6 0.029745 0.038832 -0.010953 -0.019291 0.009892 0.112240
#
#
# Mechanical properties :
#
#
# Convention : Reuss Voigt Hill
#
# Bulk Modulus (GPa) = 15.87851 39.05372 27.46612
# Shear Modulus (GPa) = 12.01265 25.64284 18.82774
#
# Velocity S-wave (km/s) = 2.29258 3.34956 2.87014
# Velocity P-wave (km/s) = 3.73567 5.66097 4.79592
#
# Compressibility (1/GPa) = 0.06297819
#
# Stress axis : x y z
#
# Youngs Moduli (GPa) = 43.30673 25.64974 58.68545
#
# Poissons Ratio (x) = -0.26247 0.42269
# Poissons Ratio (y) = -0.44315 0.65140
# Poissons Ratio (z) = 0.31193 0.28471
#
# Static dielectric constant tensor:
#      x y z
#    x 1.971650 -0.076130 0.058630 
#    y -0.076130 1.936900 -0.027780 
#    z 0.058630 -0.027780 1.948350 
# 
# From -- ./inp_files/606446.got.cif
#   From: 2010.05.17/outbox.cif.g08.bks.cpg/sg2_304_cif.got.tgz:606446.got - 2010.06.03 11:33:40.
