data_PCOD9086276
_publ_section_title
;
Structure prediction by ZEFSAII (Michael W. Deem and Ramdas Pophale) SiO2 
 PCOD9086276
Probable space group: P -1
;
_chemical_formula_sum "Si O2"
_cell_formula_units_Z 14
_cell_length_a 5.047272
_cell_length_b 9.399422
_cell_length_c 25.816672
_cell_angle_alpha 134.271218
_cell_angle_beta 126.388275
_cell_angle_gamma 77.960252
_cell_volume 659.589852
_symmetry_space_group_name_H-M "P -1"
_symmetry_group_IT_number 2
_symmetry_cell_setting 'triclinic'
loop_
_space_group_symop_operation_xyz
x,y,z
-x,-y,-z
loop_
_atom_site_type_symbol
_atom_site_label
_atom_site_fract_x
_atom_site_fract_y
_atom_site_fract_z
Si Si1 0.295436 0.891239 0.000589
Si Si2 0.254564 0.282561 0.388692
Si Si3 0.462439 0.254995 0.288908
Si Si4 0.291466 0.843959 0.103979
Si Si5 0.581820 0.711325 0.415480
Si Si6 0.374220 0.888733 0.539041
Si Si7 0.507958 0.516874 0.942476
O O1 0.452209 0.923033 0.085867
O O2 0.245030 0.637357 0.924763
O O3 0.500000 0.000000 0.000000
O O4 0.000000 0.000000 0.000000
O O5 0.500000 0.500000 0.500000
O O6 0.381464 0.252270 0.339165
O O7 0.305430 0.106556 0.386968
O O8 0.867343 0.280949 0.338029
O O9 0.417950 0.468905 0.317746
O O10 0.259282 0.041706 0.180977
O O11 0.507974 0.723898 0.131438
O O12 0.894872 0.672603 0.008250
O O13 0.388915 0.761635 0.455791
O O14 0.996720 0.771640 0.492452
O O15 0.589268 0.876764 0.413946
O O16 0.500000 0.500000 0.000000
#
# Coordination Sequence:
#
# PCOD9086276 Si02
#       7
#     2   2   2   2   2   2   2
#     4  11  21  39  68  96 121 166 206 256 315 389
#     4  12  22  38  59  90 121 164 211 256 309 358
#     4  12  24  37  63  91 125 158 209 270 300 357
#     4  10  23  41  63  99 127 167 218 256 323 387
#     4  10  19  36  57  83 110 161 196 251 301 357
#     4  10  20  35  58  79 115 156 210 235 301 374
#     4   9  20  41  68  88 129 170 209 249 323 400
#
# _framework density 21.225311000000001
#
# number of rings (size 3 to 8) (size 9 to 14) (size 15 to 20)
#    0.000    1.429    4.286    1.286    4.000    0.000 
#    0.000    2.857    0.000    0.000    0.000    0.000 
#    0.000    0.000    0.000    0.000    0.000    0.000 
#
# Total GULP energy -78031.108969 kJ/mol
# GULP energy per Si atom -5573.650641 kJ/mol
# Density = 2.117700 g / cm^3
# Si number density = 21.225311 Si / 1000 Ang^3
#
#
#
# Elastic Constant Matrix: (Units=GPa)
#
#
# Indices 1 2 3 4 5 6 
#
# 1 122.6840 29.5784 18.2299 2.1456 -20.7826 3.6173
# 2 29.5784 144.0935 37.3138 36.4751 -15.0378 -14.5521
# 3 18.2299 37.3138 79.6919 24.9751 -25.3416 4.6991
# 4 2.1456 36.4751 24.9751 31.9074 -9.1902 -14.0266
# 5 -20.7826 -15.0378 -25.3416 -9.1902 25.7867 0.2554
# 6 3.6173 -14.5521 4.6991 -14.0266 0.2554 44.0011
#
#
#
# Elastic Compliance Matrix: (Units=1/GPa)
#
#
# Indices 1 2 3 4 5 6 
#
# 1 0.010037 -0.002299 0.000201 0.004055 0.008394 -0.000363
# 2 -0.002299 0.010437 -0.001227 -0.010941 -0.000875 0.000289
# 3 0.000201 -0.001227 0.024201 -0.016120 0.017566 -0.008248
# 4 0.004055 -0.010941 -0.016120 0.065621 0.004248 0.018664
# 5 0.008394 -0.000875 0.017566 0.004248 0.063830 -0.001872
# 6 -0.000363 0.000289 -0.008248 0.018664 -0.001872 0.029693
#
#
# Mechanical properties :
#
#
# Convention : Reuss Voigt Hill
#
# Bulk Modulus (GPa) = 26.29962 57.41261 41.85612
# Shear Modulus (GPa) = 22.40672 37.76219 30.08445
#
# Velocity S-wave (km/s) = 3.25262 4.22253 3.76890
# Velocity P-wave (km/s) = 5.15011 7.13308 6.22111
#
# Compressibility (1/GPa) = 0.03802336
#
# Stress axis : x y z
#
# Youngs Moduli (GPa) = 99.62750 95.81116 41.32021
#
# Poissons Ratio (x) = 0.22030 -0.00829
# Poissons Ratio (y) = 0.22908 0.05072
# Poissons Ratio (z) = -0.01999 0.11761
#
# Static dielectric constant tensor:
#      x y z
#    x 1.808880 -0.057270 0.007950 
#    y -0.057270 1.821650 0.053470 
#    z 0.007950 0.053470 1.777010 
# 
# From -- ./inp_files/90203.got.cif
#   From: 2010.05.17/outbox.cif.g08.bks.cpg/sg2_46_cif.got.tgz:90203.got - 2010.06.03 11:33:40.
