data_PCOD9086644
_publ_section_title
;
Structure prediction by ZEFSAII (Michael W. Deem and Ramdas Pophale) SiO2 
 PCOD9086644
Probable space group: P -1
;
_chemical_formula_sum "Si O2"
_cell_formula_units_Z 14
_cell_length_a 19.751442
_cell_length_b 12.845478
_cell_length_c 20.226736
_cell_angle_alpha 161.494921
_cell_angle_beta 21.280896
_cell_angle_gamma 152.099409
_cell_volume 591.155329
_symmetry_space_group_name_H-M "P -1"
_symmetry_group_IT_number 2
_symmetry_cell_setting 'triclinic'
loop_
_space_group_symop_operation_xyz
x,y,z
-x,-y,-z
loop_
_atom_site_type_symbol
_atom_site_label
_atom_site_fract_x
_atom_site_fract_y
_atom_site_fract_z
Si Si1 0.416726 0.082854 0.520676
Si Si2 0.741115 0.795904 0.130137
Si Si3 0.704953 0.605059 0.820318
Si Si4 0.052536 0.525507 0.359170
Si Si5 0.516498 0.115625 0.917361
Si Si6 0.248577 0.649297 0.931749
Si Si7 0.842218 0.758070 0.359143
O O1 0.258029 0.081986 0.722312
O O2 0.374087 0.396594 0.705113
O O3 0.616193 0.052009 0.356419
O O4 0.392168 0.749450 0.301166
O O5 0.922592 0.673097 0.851492
O O6 0.609757 0.466693 0.056663
O O7 0.808682 0.656592 0.825533
O O8 0.863206 0.569221 0.597996
O O9 0.563459 0.860175 0.070201
O O10 0.119089 0.897154 0.506627
O O11 0.350673 0.998195 0.044563
O O12 0.674888 0.840360 0.609658
O O13 0.217794 0.511374 0.802191
O O14 0.037285 0.667278 0.161102
#
# Coordination Sequence:
#
# PCOD9086644 Si02
#       7
#     2   2   2   2   2   2   2
#     4  10  21  39  57  85 114 157 184 241 288 332
#     4   9  22  39  59  82 117 147 202 232 277 347
#     4  10  20  35  63  83 114 152 192 237 294 325
#     4  10  19  36  59  89 112 148 199 239 274 352
#     4  10  21  37  59  83 115 153 191 234 287 340
#     4  11  21  37  58  84 122 150 183 242 288 336
#     4  10  21  35  56  90 118 146 190 241 279 352
#
# _framework density 23.68244
#
# number of rings (size 3 to 8) (size 9 to 14) (size 15 to 20)
#    0.000    2.000    2.857    0.429    2.000    2.857 
#    2.571    2.857    0.000    0.000    0.000    0.000 
#    0.000    0.000    0.000    0.000    0.000    0.000 
#
# Total GULP energy -78212.911569 kJ/mol
# GULP energy per Si atom -5586.636541 kJ/mol
# Density = 2.362854 g / cm^3
# Si number density = 23.682440 Si / 1000 Ang^3
#
#
#
# Elastic Constant Matrix: (Units=GPa)
#
#
# Indices 1 2 3 4 5 6 
#
# 1 24.9142 13.3232 7.1132 7.7458 1.9627 -0.2740
# 2 13.3232 60.2963 9.2440 1.1296 -9.5440 -8.1711
# 3 7.1132 9.2440 91.0061 -5.9683 -8.2569 -2.1543
# 4 7.7458 1.1296 -5.9683 35.3213 -8.9337 0.0061
# 5 1.9627 -9.5440 -8.2569 -8.9337 37.0776 2.9996
# 6 -0.2740 -8.1711 -2.1543 0.0061 2.9996 17.5728
#
#
#
# Elastic Compliance Matrix: (Units=1/GPa)
#
#
# Indices 1 2 3 4 5 6 
#
# 1 0.053996 -0.013123 -0.004925 -0.014935 -0.010604 -0.004049
# 2 -0.013123 0.021638 -0.000132 0.003791 0.006441 0.008740
# 3 -0.004925 -0.000132 0.012018 0.004084 0.003832 0.000680
# 4 -0.014935 0.003791 0.004084 0.034960 0.011089 0.000126
# 5 -0.010604 0.006441 0.003832 0.011089 0.032903 -0.002321
# 6 -0.004049 0.008740 0.000680 0.000126 -0.002321 0.061386
#
#
# Mechanical properties :
#
#
# Convention : Reuss Voigt Hill
#
# Bulk Modulus (GPa) = 19.49654 26.17526 22.83590
# Shear Modulus (GPa) = 18.49390 27.76341 23.12865
#
# Velocity S-wave (km/s) = 2.79751 3.42763 3.12848
# Velocity P-wave (km/s) = 4.32263 5.17122 4.76585
#
# Compressibility (1/GPa) = 0.05129115
#
# Stress axis : x y z
#
# Youngs Moduli (GPa) = 18.51991 46.21552 83.20684
#
# Poissons Ratio (x) = 0.60651 0.40978
# Poissons Ratio (y) = 0.24304 0.01100
# Poissons Ratio (z) = 0.09121 0.00611
#
# Static dielectric constant tensor:
#      x y z
#    x 1.866700 0.028700 0.016560 
#    y 0.028700 1.925100 -0.052960 
#    z 0.016560 -0.052960 1.912400 
# 
# From -- ./inp_files/180434.got.cif
#   From: 2010.05.17/outbox.cif.g08.bks.cpg/sg2_91_cif.got.tgz:180434.got - 2010.06.03 11:33:40.
