data_PCOD9086171
_publ_section_title
;
Structure prediction by ZEFSAII (Michael W. Deem and Ramdas Pophale) SiO2 
 PCOD9086171
Probable space group: P -1
;
_chemical_formula_sum "Si O2"
_cell_formula_units_Z 12
_cell_length_a 15.396316
_cell_length_b 23.091796
_cell_length_c 6.029555
_cell_angle_alpha 127.233963
_cell_angle_beta 121.566393
_cell_angle_gamma 17.454722
_cell_volume 498.816636
_symmetry_space_group_name_H-M "P -1"
_symmetry_group_IT_number 2
_symmetry_cell_setting 'triclinic'
loop_
_space_group_symop_operation_xyz
x,y,z
-x,-y,-z
loop_
_atom_site_type_symbol
_atom_site_label
_atom_site_fract_x
_atom_site_fract_y
_atom_site_fract_z
Si Si1 0.505089 0.238360 0.383648
Si Si2 0.254038 0.493780 0.023797
Si Si3 0.814822 0.304356 0.585547
Si Si4 0.294847 0.026968 0.220278
Si Si5 0.892896 0.685912 0.358574
Si Si6 0.780776 0.170214 0.299345
O O1 0.431367 0.316785 0.709138
O O2 0.735841 0.141704 0.363940
O O3 0.180788 0.461526 0.345691
O O4 0.632122 0.074456 0.120871
O O5 0.193996 0.612383 0.105716
O O6 0.456765 0.382375 0.242902
O O7 0.970585 0.646742 0.111171
O O8 0.500000 0.500000 0.500000
O O9 0.858574 0.200560 0.538847
O O10 0.057818 0.150852 0.359871
O O11 0.600312 0.833530 0.318019
O O12 0.186933 0.179160 0.356054
O O13 0.000000 0.000000 0.000000
#
# Coordination Sequence:
#
# PCOD9086171 Si02
#       6
#     2   2   2   2   2   2
#     4  11  21  37  60  87 113 147 191 236 283 331
#     4   9  21  37  56  85 115 142 190 242 273 333
#     4   9  18  37  57  77 116 149 183 232 279 332
#     4  10  19  38  62  81 112 157 187 229 286 341
#     4   9  21  40  58  81 117 150 187 232 288 335
#     4  10  19  36  56  81 112 151 186 224 281 338
#
# _framework density 24.056936
#
# number of rings (size 3 to 8) (size 9 to 14) (size 15 to 20)
#    0.000    2.333    1.667    1.500    0.000    2.000 
#    3.000    7.500    0.000    0.000    0.000    0.000 
#    0.000    0.000    0.000    0.000    0.000    0.000 
#
# Total GULP energy -67048.619242 kJ/mol
# GULP energy per Si atom -5587.384937 kJ/mol
# Density = 2.400218 g / cm^3
# Si number density = 24.056936 Si / 1000 Ang^3
#
#
#
# Elastic Constant Matrix: (Units=GPa)
#
#
# Indices 1 2 3 4 5 6 
#
# 1 77.1151 35.4401 39.8957 7.6666 12.9180 -19.6887
# 2 35.4401 101.5624 17.7259 10.0158 -3.3486 -29.5349
# 3 39.8957 17.7259 136.5228 16.5700 29.3987 -7.1462
# 4 7.6666 10.0158 16.5700 31.8829 -0.5937 -2.5211
# 5 12.9180 -3.3486 29.3987 -0.5937 27.0088 12.7007
# 6 -19.6887 -29.5349 -7.1462 -2.5211 12.7007 40.8661
#
#
#
# Elastic Compliance Matrix: (Units=1/GPa)
#
#
# Indices 1 2 3 4 5 6 
#
# 1 0.021180 -0.004073 -0.001793 -0.002260 -0.013978 0.011152
# 2 -0.004073 0.013830 0.000268 -0.002877 -0.000478 0.008051
# 3 -0.001793 0.000268 0.012059 -0.005745 -0.015076 0.005770
# 4 -0.002260 -0.002877 -0.005745 0.035581 0.010178 -0.005141
# 5 -0.013978 -0.000478 -0.015076 0.010178 0.075608 -0.032587
# 6 0.011152 0.008051 0.005770 -0.005141 -0.032587 0.046481
#
#
# Mechanical properties :
#
#
# Convention : Reuss Voigt Hill
#
# Bulk Modulus (GPa) = 27.87442 55.70266 41.78854
# Shear Modulus (GPa) = 21.94012 34.76079 28.35045
#
# Velocity S-wave (km/s) = 3.02322 3.80536 3.43661
# Velocity P-wave (km/s) = 4.87837 6.52016 5.75808
#
# Compressibility (1/GPa) = 0.03587518
#
# Stress axis : x y z
#
# Youngs Moduli (GPa) = 47.21354 72.30781 82.92231
#
# Poissons Ratio (x) = 0.29450 0.14864
# Poissons Ratio (y) = 0.19229 -0.02224
# Poissons Ratio (z) = 0.08463 -0.01939
#
# Static dielectric constant tensor:
#      x y z
#    x 1.989470 0.053950 0.017270 
#    y 0.053950 2.005210 -0.007930 
#    z 0.017270 -0.007930 1.892400 
# 
# From -- ./inp_files/18292.got.cif
#   From: 2010.05.17/outbox.cif.g08.bks.cpg/sg2_10_cif.got.tgz:18292.got - 2010.06.03 11:33:40.
