data_PCOD9086539
_publ_section_title
;
Structure prediction by ZEFSAII (Michael W. Deem and Ramdas Pophale) SiO2 
 PCOD9086539
Probable space group: P -1
;
_chemical_formula_sum "Si O2"
_cell_formula_units_Z 16
_cell_length_a 14.046289
_cell_length_b 14.891273
_cell_length_c 11.841220
_cell_angle_alpha 36.924092
_cell_angle_beta 42.516692
_cell_angle_gamma 28.575875
_cell_volume 706.410704
_symmetry_space_group_name_H-M "P -1"
_symmetry_group_IT_number 2
_symmetry_cell_setting 'triclinic'
loop_
_space_group_symop_operation_xyz
x,y,z
-x,-y,-z
loop_
_atom_site_type_symbol
_atom_site_label
_atom_site_fract_x
_atom_site_fract_y
_atom_site_fract_z
Si Si1 0.848535 0.521587 0.187712
Si Si2 0.680465 0.371158 0.558404
Si Si3 0.474744 0.358904 0.060396
Si Si4 0.938406 0.291420 0.817293
Si Si5 0.758095 0.737606 0.281342
Si Si6 0.494542 0.672222 0.634836
Si Si7 0.148826 0.977520 0.773390
Si Si8 0.471242 0.809327 0.062177
O O1 0.860134 0.332817 0.387550
O O2 0.862337 0.579034 0.243314
O O3 0.635106 0.696709 0.131632
O O4 0.000000 0.500000 0.000000
O O5 0.500000 0.500000 0.500000
O O6 0.577135 0.545229 0.573126
O O7 0.702545 0.182329 0.765820
O O8 0.274944 0.487095 0.178100
O O9 0.669201 0.148728 0.166280
O O10 0.508904 0.510781 0.859898
O O11 0.442916 0.316197 0.006231
O O12 0.097397 0.281135 0.743820
O O13 0.945429 0.116640 0.037797
O O14 0.988489 0.220603 0.712409
O O15 0.627220 0.719224 0.484588
O O16 0.615957 0.964624 0.116207
O O17 0.265141 0.897108 0.633901
#
# Coordination Sequence:
#
# PCOD9086539 Si02
#       8
#     2   2   2   2   2   2   2   2
#     4  10  20  36  57  82 114 144 183 237 284 331
#     4   8  17  34  57  81 103 149 194 217 279 342
#     4  10  19  39  61  81 110 156 195 226 280 333
#     4  10  20  34  58  82 113 144 195 233 274 332
#     4  11  21  36  55  87 114 147 185 235 292 330
#     4   9  19  33  57  79 115 148 183 236 284 328
#     4  10  20  38  59  82 110 154 198 228 277 333
#     4  10  19  36  59  80 110 152 190 223 277 349
#
# _framework density 22.649712999999998
#
# number of rings (size 3 to 8) (size 9 to 14) (size 15 to 20)
#    0.000    2.250    1.250    2.625    0.000    1.500 
#    0.000    5.625   11.000    0.000    0.000    0.000 
#    0.000    0.000    0.000    0.000    0.000    0.000 
#
# Total GULP energy -89214.819252 kJ/mol
# GULP energy per Si atom -5575.926203 kJ/mol
# Density = 2.259816 g / cm^3
# Si number density = 22.649713 Si / 1000 Ang^3
#
#
#
# Elastic Constant Matrix: (Units=GPa)
#
#
# Indices 1 2 3 4 5 6 
#
# 1 87.5877 -0.1635 27.7889 -2.6827 -21.4133 4.7430
# 2 -0.1635 39.4788 32.5969 9.3939 -12.9375 -8.8796
# 3 27.7889 32.5969 139.8302 20.0040 -24.4055 -2.1648
# 4 -2.6827 9.3939 20.0040 31.6014 -6.3588 1.4648
# 5 -21.4133 -12.9375 -24.4055 -6.3588 39.3869 0.9100
# 6 4.7430 -8.8796 -2.1648 1.4648 0.9100 22.0061
#
#
#
# Elastic Compliance Matrix: (Units=1/GPa)
#
#
# Indices 1 2 3 4 5 6 
#
# 1 0.014544 0.003617 -0.002919 0.003724 0.007947 -0.002539
# 2 0.003617 0.038701 -0.007159 -0.005504 0.009028 0.014125
# 3 -0.002919 -0.007159 0.010302 -0.004233 0.001785 -0.001038
# 4 0.003724 -0.005504 -0.004233 0.037314 0.003758 -0.006079
# 5 0.007947 0.009028 0.001785 0.003758 0.034378 0.000434
# 6 -0.002539 0.014125 -0.001038 -0.006079 0.000434 0.051973
#
#
# Mechanical properties :
#
#
# Convention : Reuss Voigt Hill
#
# Bulk Modulus (GPa) = 19.75259 43.03791 31.39525
# Shear Modulus (GPa) = 23.04050 32.37715 27.70883
#
# Velocity S-wave (km/s) = 3.19290 3.78494 3.50146
# Velocity P-wave (km/s) = 4.72574 6.17607 5.49893
#
# Compressibility (1/GPa) = 0.05062627
#
# Stress axis : x y z
#
# Youngs Moduli (GPa) = 68.75589 25.83886 97.07186
#
# Poissons Ratio (x) = -0.09347 0.28332
# Poissons Ratio (y) = -0.24871 0.69495
# Poissons Ratio (z) = 0.20068 0.18498
#
# Static dielectric constant tensor:
#      x y z
#    x 1.888460 0.025510 0.024150 
#    y 0.025510 1.934100 -0.003040 
#    z 0.024150 -0.003040 1.894570 
# 
# From -- ./inp_files/214240.got.cif
#   From: 2010.05.17/outbox.cif.g08.bks.cpg/sg2_108_cif.got.tgz:214240.got - 2010.06.03 11:33:40.
