data_PCOD9086696
_publ_section_title
;
Structure prediction by ZEFSAII (Michael W. Deem and Ramdas Pophale) SiO2 
 PCOD9086696
Probable space group: P -1
;
_chemical_formula_sum "Si O2"
_cell_formula_units_Z 14
_cell_length_a 21.379691
_cell_length_b 17.988480
_cell_length_c 8.173687
_cell_angle_alpha 145.230448
_cell_angle_beta 41.137146
_cell_angle_gamma 161.099942
_cell_volume 575.745181
_symmetry_space_group_name_H-M "P -1"
_symmetry_group_IT_number 2
_symmetry_cell_setting 'triclinic'
loop_
_space_group_symop_operation_xyz
x,y,z
-x,-y,-z
loop_
_atom_site_type_symbol
_atom_site_label
_atom_site_fract_x
_atom_site_fract_y
_atom_site_fract_z
Si Si1 0.562521 0.233339 0.383324
Si Si2 0.371055 0.165715 0.365422
Si Si3 0.847342 0.119324 0.044175
Si Si4 0.945797 0.041330 0.961683
Si Si5 0.175938 0.674247 0.274464
Si Si6 0.689043 0.637529 0.041099
Si Si7 0.022917 0.368244 0.632406
O O1 0.507090 0.228503 0.308628
O O2 0.769333 0.410280 0.299001
O O3 0.392578 0.937803 0.252012
O O4 0.571592 0.368313 0.735127
O O5 0.428391 0.381181 0.691539
O O6 0.159559 0.894893 0.377537
O O7 0.322357 0.084565 0.126098
O O8 0.857410 0.990460 0.877831
O O9 0.815531 0.206242 0.382499
O O10 0.065631 0.412842 0.076536
O O11 0.021777 0.265972 0.299044
O O12 0.796148 0.802947 0.957569
O O13 0.136935 0.180399 0.842635
O O14 0.030227 0.558812 0.214106
#
# Coordination Sequence:
#
# PCOD9086696 Si02
#       7
#     2   2   2   2   2   2   2
#     4  10  19  36  60  82 105 145 185 217 262 322
#     4  10  20  33  55  84 112 140 176 227 270 312
#     4  10  20  37  54  80 114 142 177 223 277 318
#     4   8  16  33  57  77 105 147 179 215 266 322
#     4   9  20  39  58  74 108 150 181 219 266 324
#     4   9  17  34  57  80 105 141 186 218 258 324
#     4   8  17  35  56  79 104 142 187 216 258 320
#
# _framework density 24.316312
#
# number of rings (size 3 to 8) (size 9 to 14) (size 15 to 20)
#    0.000    2.857    0.000    2.143    0.000    2.857 
#    0.000   21.429    0.000    0.000    0.000    0.000 
#    0.000    0.000    0.000    0.000    0.000    0.000 
#
# Total GULP energy -78256.039678 kJ/mol
# GULP energy per Si atom -5589.717120 kJ/mol
# Density = 2.426097 g / cm^3
# Si number density = 24.316312 Si / 1000 Ang^3
#
#
#
# Elastic Constant Matrix: (Units=GPa)
#
#
# Indices 1 2 3 4 5 6 
#
# 1 123.7441 60.9351 30.2315 2.0492 17.2228 21.5674
# 2 60.9351 86.1146 17.9551 24.6527 -5.7594 22.1252
# 3 30.2315 17.9551 101.6117 12.3022 5.6532 11.3168
# 4 2.0492 24.6527 12.3022 30.4927 -1.0722 -3.6298
# 5 17.2228 -5.7594 5.6532 -1.0722 48.3648 6.4262
# 6 21.5674 22.1252 11.3168 -3.6298 6.4262 37.1527
#
#
#
# Elastic Compliance Matrix: (Units=1/GPa)
#
#
# Indices 1 2 3 4 5 6 
#
# 1 0.018066 -0.017962 -0.004061 0.015173 -0.008342 0.004371
# 2 -0.017962 0.039002 0.004027 -0.033833 0.012408 -0.019478
# 3 -0.004061 0.004027 0.011797 -0.008257 0.000976 -0.004610
# 4 0.015173 -0.033833 -0.008257 0.064716 -0.009942 0.021897
# 5 -0.008342 0.012408 0.000976 -0.009942 0.025892 -0.008294
# 6 0.004371 -0.019478 -0.004610 0.021897 -0.008294 0.040956
#
#
# Mechanical properties :
#
#
# Convention : Reuss Voigt Hill
#
# Bulk Modulus (GPa) = 30.41852 58.85710 44.63781
# Shear Modulus (GPa) = 20.21200 36.69194 28.45197
#
# Velocity S-wave (km/s) = 2.88620 3.88873 3.42435
# Velocity P-wave (km/s) = 4.86246 6.66485 5.83369
#
# Compressibility (1/GPa) = 0.03287471
#
# Stress axis : x y z
#
# Youngs Moduli (GPa) = 55.35263 25.63951 84.76950
#
# Poissons Ratio (x) = 0.46053 0.34424
# Poissons Ratio (y) = 0.99422 -0.34139
# Poissons Ratio (z) = 0.22478 -0.10326
#
# Static dielectric constant tensor:
#      x y z
#    x 2.008750 -0.038650 0.018130 
#    y -0.038650 1.918160 -0.032440 
#    z 0.018130 -0.032440 2.006590 
# 
# From -- ./inp_files/348673.got.cif
#   From: 2010.05.17/outbox.cif.g08.bks.cpg/sg2_175_cif.got.tgz:348673.got - 2010.06.03 11:33:40.
