data_PCOD9086759
_publ_section_title
;
Structure prediction by ZEFSAII (Michael W. Deem and Ramdas Pophale) SiO2 
 PCOD9086759
Probable space group: P -1
;
_chemical_formula_sum "Si O2"
_cell_formula_units_Z 16
_cell_length_a 8.220233
_cell_length_b 11.815350
_cell_length_c 14.155988
_cell_angle_alpha 57.321577
_cell_angle_beta 59.718312
_cell_angle_gamma 41.819566
_cell_volume 758.835413
_symmetry_space_group_name_H-M "P -1"
_symmetry_group_IT_number 2
_symmetry_cell_setting 'triclinic'
loop_
_space_group_symop_operation_xyz
x,y,z
-x,-y,-z
loop_
_atom_site_type_symbol
_atom_site_label
_atom_site_fract_x
_atom_site_fract_y
_atom_site_fract_z
Si Si1 0.049045 0.114912 0.541148
Si Si2 0.355763 0.458724 0.900884
Si Si3 0.656294 0.241084 0.262172
Si Si4 0.231604 0.321263 0.463493
Si Si5 0.469332 0.014105 0.849561
Si Si6 0.746653 0.160930 0.053898
Si Si7 0.631959 0.143763 0.591812
Si Si8 0.829494 0.731112 0.020746
O O1 0.145020 0.209902 0.513678
O O2 0.759258 0.217996 0.563343
O O3 0.159239 0.943100 0.651661
O O4 0.158344 0.044906 0.435439
O O5 0.348730 0.599259 0.780616
O O6 0.113256 0.569472 0.989273
O O7 0.598528 0.332166 0.952097
O O8 0.324051 0.337548 0.904122
O O9 0.378389 0.313455 0.332861
O O10 0.748920 0.203059 0.143359
O O11 0.436747 0.244725 0.519479
O O12 0.000000 0.500000 0.500000
O O13 0.514454 0.113941 0.722355
O O14 0.418228 0.897870 0.866807
O O15 0.705744 0.878621 0.908330
O O16 0.230907 0.161323 0.915904
O O17 0.000000 0.000000 0.000000
#
# Coordination Sequence:
#
# PCOD9086759 Si02
#       8
#     2   2   2   2   2   2   2   2
#     4  10  22  42  65  88 119 159 208 255 307 365
#     4  10  21  37  56  85 120 156 200 248 305 366
#     4  11  22  40  63  84 119 162 199 254 312 359
#     4  11  25  42  62  93 127 158 204 258 309 369
#     4  10  19  36  60  86 118 159 204 248 303 367
#     4  11  23  36  58  88 122 161 205 247 300 371
#     4  10  21  39  65  90 116 161 208 250 303 366
#     4   9  20  36  56  86 121 154 198 254 303 361
#
# _framework density 21.08494
#
# number of rings (size 3 to 8) (size 9 to 14) (size 15 to 20)
#    0.000    1.750    0.000    4.875    0.000    6.500 
#    0.000    5.000    0.000    0.000    0.000    0.000 
#    0.000    0.000    0.000    0.000    0.000    0.000 
#
# Total GULP energy -89241.275195 kJ/mol
# GULP energy per Si atom -5577.579700 kJ/mol
# Density = 2.103695 g / cm^3
# Si number density = 21.084940 Si / 1000 Ang^3
#
#
#
# Elastic Constant Matrix: (Units=GPa)
#
#
# Indices 1 2 3 4 5 6 
#
# 1 92.8640 19.0302 23.8155 -8.6231 -13.6568 5.4262
# 2 19.0302 72.0466 11.6174 0.6260 1.6310 -3.1919
# 3 23.8155 11.6174 59.8899 0.9937 -9.0861 -1.0090
# 4 -8.6231 0.6260 0.9937 23.9279 7.3394 -8.9359
# 5 -13.6568 1.6310 -9.0861 7.3394 16.2551 4.9973
# 6 5.4262 -3.1919 -1.0090 -8.9359 4.9973 26.8780
#
#
#
# Elastic Compliance Matrix: (Units=1/GPa)
#
#
# Indices 1 2 3 4 5 6 
#
# 1 0.014610 -0.003928 -0.003123 -0.000937 0.013288 -0.006315
# 2 -0.003928 0.015826 -0.002944 0.003314 -0.009711 0.005469
# 3 -0.003123 -0.002944 0.020693 -0.007740 0.013999 -0.004118
# 4 -0.000937 0.003314 -0.007740 0.067194 -0.045334 0.031060
# 5 0.013288 -0.009711 0.013999 -0.045334 0.114126 -0.039601
# 6 -0.006315 0.005469 -0.004118 0.031060 -0.039601 0.056664
#
#
# Mechanical properties :
#
#
# Convention : Reuss Voigt Hill
#
# Bulk Modulus (GPa) = 32.11379 37.08073 34.59726
# Shear Modulus (GPa) = 15.65028 24.76803 20.20915
#
# Velocity S-wave (km/s) = 2.72738 3.43108 3.09927
# Velocity P-wave (km/s) = 5.01816 5.77243 5.40846
#
# Compressibility (1/GPa) = 0.03113927
#
# Stress axis : x y z
#
# Youngs Moduli (GPa) = 68.44401 63.18905 48.32530
#
# Poissons Ratio (x) = 0.24821 0.15091
# Poissons Ratio (y) = 0.26885 0.14227
# Poissons Ratio (z) = 0.21374 0.18603
#
# Static dielectric constant tensor:
#      x y z
#    x 1.927740 -0.062690 -0.042480 
#    y -0.062690 1.776640 0.023470 
#    z -0.042480 0.023470 1.769780 
# 
# From -- ./inp_files/314603.got.cif
#   From: 2010.05.17/outbox.cif.g08.bks.cpg/sg2_158_cif.got.tgz:314603.got - 2010.06.03 11:33:40.
