data_PCOD9086827
_publ_section_title
;
Structure prediction by ZEFSAII (Michael W. Deem and Ramdas Pophale) SiO2 
 PCOD9086827
Probable space group: P -1
;
_chemical_formula_sum "Si O2"
_cell_formula_units_Z 14
_cell_length_a 17.903126
_cell_length_b 6.134189
_cell_length_c 9.478445
_cell_angle_alpha 77.087147
_cell_angle_beta 40.403713
_cell_angle_gamma 77.938491
_cell_volume 656.398031
_symmetry_space_group_name_H-M "P -1"
_symmetry_group_IT_number 2
_symmetry_cell_setting 'triclinic'
loop_
_space_group_symop_operation_xyz
x,y,z
-x,-y,-z
loop_
_atom_site_type_symbol
_atom_site_label
_atom_site_fract_x
_atom_site_fract_y
_atom_site_fract_z
Si Si1 0.230212 0.874668 0.877651
Si Si2 0.470158 0.272098 0.156155
Si Si3 0.096535 0.182704 0.852397
Si Si4 0.654334 0.851669 0.906916
Si Si5 0.049862 0.511242 0.137518
Si Si6 0.113208 0.118757 0.282359
Si Si7 0.557160 0.430298 0.281477
O O1 0.349551 0.767488 0.779938
O O2 0.216540 0.051871 0.742396
O O3 0.154826 0.673333 0.963510
O O4 0.169406 0.998366 0.080665
O O5 0.365945 0.194162 0.222529
O O6 0.465089 0.339945 0.316746
O O7 0.500000 0.500000 0.000000
O O8 0.571379 0.073023 0.028586
O O9 0.070738 0.344626 0.732837
O O10 0.063250 0.338726 0.012757
O O11 0.000000 0.000000 0.000000
O O12 0.785733 0.889239 0.748100
O O13 0.615201 0.640297 0.089499
O O14 0.068555 0.369686 0.271305
O O15 0.000000 0.000000 0.500000
O O16 0.500000 0.500000 0.500000
#
# Coordination Sequence:
#
# PCOD9086827 Si02
#       7
#     2   2   2   2   2   2   2
#     4  10  19  36  60  89 123 160 202 263 317 371
#     4   9  20  40  69  88 126 169 212 268 328 365
#     4   8  16  31  60  77 115 164 195 241 315 373
#     4  10  20  41  68  90 128 169 209 270 323 368
#     4   9  17  34  57  83 118 162 197 250 309 362
#     4  11  22  36  64  93 123 166 217 256 308 384
#     4  11  22  38  68  98 125 161 215 267 324 383
#
# _framework density 21.328524000000002
#
# number of rings (size 3 to 8) (size 9 to 14) (size 15 to 20)
#    0.000    2.286    2.857    0.000    0.000    1.143 
#    0.000    0.000   75.429    0.000    0.000    0.000 
#    0.000    0.000    0.000    0.000    0.000    0.000 
#
# Total GULP energy -78025.372284 kJ/mol
# GULP energy per Si atom -5573.240877 kJ/mol
# Density = 2.127998 g / cm^3
# Si number density = 21.328524 Si / 1000 Ang^3
#
#
#
# Elastic Constant Matrix: (Units=GPa)
#
#
# Indices 1 2 3 4 5 6 
#
# 1 215.3606 63.8877 52.9249 5.4128 2.9033 -2.5386
# 2 63.8877 97.5485 17.0047 3.3073 0.3047 -20.7157
# 3 52.9249 17.0047 56.7569 10.3832 2.6364 -4.2469
# 4 5.4128 3.3073 10.3832 14.4191 11.6591 3.5680
# 5 2.9033 0.3047 2.6364 11.6591 20.9138 6.1767
# 6 -2.5386 -20.7157 -4.2469 3.5680 6.1767 61.4970
#
#
#
# Elastic Compliance Matrix: (Units=1/GPa)
#
#
# Indices 1 2 3 4 5 6 
#
# 1 0.007411 -0.004218 -0.006673 0.005657 -0.002800 -0.001623
# 2 -0.004218 0.014019 0.000857 -0.004572 0.001425 0.004730
# 3 -0.006673 0.000857 0.028518 -0.029278 0.012938 0.002382
# 4 0.005657 -0.004572 -0.029278 0.158394 -0.084128 -0.004069
# 5 -0.002800 0.001425 0.012938 -0.084128 0.094441 -0.003347
# 6 -0.001623 0.004730 0.002382 -0.004069 -0.003347 0.018524
#
#
# Mechanical properties :
#
#
# Convention : Reuss Voigt Hill
#
# Bulk Modulus (GPa) = 33.46640 70.81117 52.13879
# Shear Modulus (GPa) = 14.23141 35.08923 24.66032
#
# Velocity S-wave (km/s) = 2.58592 4.06048 3.40400
# Velocity P-wave (km/s) = 4.96396 7.43341 6.32046
#
# Compressibility (1/GPa) = 0.02988071
#
# Stress axis : x y z
#
# Youngs Moduli (GPa) = 134.93329 71.32933 35.06527
#
# Poissons Ratio (x) = 0.30088 0.23399
# Poissons Ratio (y) = 0.56917 -0.03006
# Poissons Ratio (z) = 0.90042 -0.06114
#
# Static dielectric constant tensor:
#      x y z
#    x 1.801320 0.011380 -0.006620 
#    y 0.011380 1.999930 -0.179290 
#    z -0.006620 -0.179290 1.880920 
# 
# From -- ./inp_files/80760.got.cif
#   From: 2010.05.17/outbox.cif.g08.bks.cpg/sg2_41_cif.got.tgz:80760.got - 2010.06.03 11:33:40.
