data_PCOD9086282
_publ_section_title
;
Structure prediction by ZEFSAII (Michael W. Deem and Ramdas Pophale) SiO2 
 PCOD9086282
Probable space group: P -1
;
_chemical_formula_sum "Si O2"
_cell_formula_units_Z 14
_cell_length_a 9.173114
_cell_length_b 15.429227
_cell_length_c 5.105496
_cell_angle_alpha 101.365581
_cell_angle_beta 113.922971
_cell_angle_gamma 105.817945
_cell_volume 595.373242
_symmetry_space_group_name_H-M "P -1"
_symmetry_group_IT_number 2
_symmetry_cell_setting 'triclinic'
loop_
_space_group_symop_operation_xyz
x,y,z
-x,-y,-z
loop_
_atom_site_type_symbol
_atom_site_label
_atom_site_fract_x
_atom_site_fract_y
_atom_site_fract_z
Si Si1 0.923624 0.932433 0.157598
Si Si2 0.671818 0.472371 0.872520
Si Si3 0.440340 0.065596 0.198476
Si Si4 0.771819 0.118309 0.762097
Si Si5 0.946251 0.278936 0.362998
Si Si6 0.897327 0.384668 0.887479
Si Si7 0.728584 0.589336 0.467014
O O1 0.037783 0.865607 0.205615
O O2 0.711337 0.898392 0.988705
O O3 0.000000 0.000000 0.500000
O O4 0.000000 0.000000 0.000000
O O5 0.706838 0.383179 0.734971
O O6 0.732965 0.557710 0.751215
O O7 0.468847 0.431454 0.736392
O O8 0.760333 0.516085 0.239692
O O9 0.625139 0.137892 0.497553
O O10 0.331947 0.992882 0.305668
O O11 0.500000 0.000000 0.000000
O O12 0.818434 0.176955 0.103618
O O13 0.925061 0.316664 0.651695
O O14 0.148357 0.303789 0.467553
O O15 0.924157 0.351555 0.173564
O O16 0.000000 0.500000 0.000000
#
# Coordination Sequence:
#
# PCOD9086282 Si02
#       7
#     2   2   2   2   2   2   2
#     4  10  20  38  66  92 119 164 206 248 313 386
#     4  10  20  35  60  80 111 155 211 234 301 373
#     4  10  20  41  71  89 128 170 210 251 320 394
#     4  10  24  40  61  98 128 167 212 267 315 377
#     4  12  24  38  61  89 127 156 208 267 307 354
#     4  12  22  39  62  87 118 167 208 253 311 376
#     4  10  19  36  57  83 112 156 194 255 298 361
#
# _framework density 23.514662999999999
#
# number of rings (size 3 to 8) (size 9 to 14) (size 15 to 20)
#    0.000    1.429    4.286    1.286    2.000    0.000 
#    2.571    0.000    0.000    0.000    0.000    0.000 
#    0.000    0.000    0.000    0.000    0.000    0.000 
#
# Total GULP energy -77952.944597 kJ/mol
# GULP energy per Si atom -5568.067471 kJ/mol
# Density = 2.346114 g / cm^3
# Si number density = 23.514663 Si / 1000 Ang^3
#
#
#
# Elastic Constant Matrix: (Units=GPa)
#
#
# Indices 1 2 3 4 5 6 
#
# 1 159.6178 18.5516 60.0660 0.4107 16.6933 -17.0245
# 2 18.5516 37.4962 16.5892 5.3236 8.7324 4.0669
# 3 60.0660 16.5892 163.1584 -2.9981 2.3197 -5.4540
# 4 0.4107 5.3236 -2.9981 23.9891 -0.0609 0.8028
# 5 16.6933 8.7324 2.3197 -0.0609 38.5251 -4.9227
# 6 -17.0245 4.0669 -5.4540 0.8028 -4.9227 31.1583
#
#
#
# Elastic Compliance Matrix: (Units=1/GPa)
#
#
# Indices 1 2 3 4 5 6 
#
# 1 0.008233 -0.002858 -0.002572 0.000030 -0.002245 0.004066
# 2 -0.002858 0.032635 -0.002541 -0.007289 -0.006934 -0.007174
# 3 -0.002572 -0.002541 0.007356 0.001518 0.001299 0.000380
# 4 0.000030 -0.007289 0.001518 0.043484 0.001664 0.000376
# 5 -0.002245 -0.006934 0.001299 0.001664 0.028994 0.004443
# 6 0.004066 -0.007174 0.000380 0.000376 0.004443 0.036011
#
#
# Mechanical properties :
#
#
# Convention : Reuss Voigt Hill
#
# Bulk Modulus (GPa) = 30.97632 61.18733 46.08182
# Shear Modulus (GPa) = 27.26016 36.40554 31.83285
#
# Velocity S-wave (km/s) = 3.40852 3.93899 3.68332
# Velocity P-wave (km/s) = 5.35653 6.83849 6.14237
#
# Compressibility (1/GPa) = 0.03228273
#
# Stress axis : x y z
#
# Youngs Moduli (GPa) = 121.45532 30.64154 135.93516
#
# Poissons Ratio (x) = 0.08757 0.34964
# Poissons Ratio (y) = 0.34711 0.34544
# Poissons Ratio (z) = 0.31240 0.07787
#
# Static dielectric constant tensor:
#      x y z
#    x 2.210580 -0.050980 0.073180 
#    y -0.050980 1.925320 -0.031220 
#    z 0.073180 -0.031220 1.993700 
# 
# From -- ./inp_files/45866.got.cif
#   From: 2010.05.17/outbox.cif.g08.bks.cpg/sg2_23_cif.got.tgz:45866.got - 2010.06.03 11:33:40.
