data_PCOD9086442
_publ_section_title
;
Structure prediction by ZEFSAII (Michael W. Deem and Ramdas Pophale) SiO2 
 PCOD9086442
Probable space group: P -1
;
_chemical_formula_sum "Si O2"
_cell_formula_units_Z 16
_cell_length_a 16.669776
_cell_length_b 22.480083
_cell_length_c 11.877465
_cell_angle_alpha 152.361642
_cell_angle_beta 28.164912
_cell_angle_gamma 159.081877
_cell_volume 696.765268
_symmetry_space_group_name_H-M "P -1"
_symmetry_group_IT_number 2
_symmetry_cell_setting 'triclinic'
loop_
_space_group_symop_operation_xyz
x,y,z
-x,-y,-z
loop_
_atom_site_type_symbol
_atom_site_label
_atom_site_fract_x
_atom_site_fract_y
_atom_site_fract_z
Si Si1 0.776902 0.834488 0.931149
Si Si2 0.577037 0.257370 0.619926
Si Si3 0.818623 0.547780 0.163697
Si Si4 0.784284 0.121632 0.226190
Si Si5 0.703456 0.612443 0.031027
Si Si6 0.514575 0.464237 0.609607
Si Si7 0.862027 0.092213 0.529392
Si Si8 0.259883 0.779660 0.309426
O O1 0.697806 0.652956 0.765216
O O2 0.896041 0.864623 0.714781
O O3 0.564340 0.810187 0.197890
O O4 0.000000 0.000000 0.000000
O O5 0.737262 0.217073 0.361868
O O6 0.715287 0.464010 0.790665
O O7 0.371583 0.121113 0.550996
O O8 0.670675 0.470140 0.335761
O O9 0.644641 0.522021 0.245019
O O10 0.053160 0.761475 0.236297
O O11 0.865670 0.424276 0.875241
O O12 0.787665 0.175496 0.439319
O O13 0.042979 0.205843 0.020991
O O14 0.545460 0.910928 0.159059
O O15 0.500000 0.500000 0.000000
O O16 0.639494 0.661271 0.304213
O O17 0.820145 0.168556 0.604712
#
# Coordination Sequence:
#
# PCOD9086442 Si02
#       8
#     2   2   2   2   2   2   2   2
#     4   8  14  27  51  79 106 137 179 236 276 323
#     4   9  18  35  55  81 113 151 192 232 293 341
#     4  10  19  36  58  85 118 156 191 241 280 354
#     4  10  22  37  59  87 119 152 192 247 296 350
#     4  11  23  39  60  86 116 154 194 248 292 342
#     4   9  20  36  55  82 113 151 203 226 295 347
#     4   9  18  31  55  85 114 151 190 237 280 348
#     4  10  20  35  58  90 118 148 195 243 303 332
#
# _framework density 22.963256999999999
#
# number of rings (size 3 to 8) (size 9 to 14) (size 15 to 20)
#    0.000    2.500    0.000    2.250    5.250    1.000 
#    9.000    0.625    0.000    2.250    0.000    0.000 
#    0.000    0.000    0.000    0.000    0.000    0.000 
#
# Total GULP energy -89089.698198 kJ/mol
# GULP energy per Si atom -5568.106137 kJ/mol
# Density = 2.291099 g / cm^3
# Si number density = 22.963257 Si / 1000 Ang^3
#
#
#
# Elastic Constant Matrix: (Units=GPa)
#
#
# Indices 1 2 3 4 5 6 
#
# 1 57.4737 11.1059 4.8783 -11.2133 -0.5345 4.8190
# 2 11.1059 96.3406 17.7252 -5.7783 3.1044 13.8870
# 3 4.8783 17.7252 41.4280 4.3818 10.0069 2.7169
# 4 -11.2133 -5.7783 4.3818 46.2051 1.5130 -3.4499
# 5 -0.5345 3.1044 10.0069 1.5130 26.0380 2.3268
# 6 4.8190 13.8870 2.7169 -3.4499 2.3268 26.6804
#
#
#
# Elastic Compliance Matrix: (Units=1/GPa)
#
#
# Indices 1 2 3 4 5 6 
#
# 1 0.018893 -0.001219 -0.002369 0.004457 0.001371 -0.002080
# 2 -0.001219 0.012313 -0.005111 0.001283 0.000895 -0.005581
# 3 -0.002369 -0.005111 0.029517 -0.003625 -0.010621 0.000540
# 4 0.004457 0.001283 -0.003625 0.023380 -0.000200 0.001937
# 5 0.001371 0.000895 -0.010621 -0.000200 0.042723 -0.003384
# 6 -0.002080 -0.005581 0.000540 0.001937 -0.003384 0.041252
#
#
# Mechanical properties :
#
#
# Convention : Reuss Voigt Hill
#
# Bulk Modulus (GPa) = 23.08114 29.18459 26.13286
# Shear Modulus (GPa) = 25.01042 30.55355 27.78199
#
# Velocity S-wave (km/s) = 3.30381 3.65161 3.48206
# Velocity P-wave (km/s) = 4.96253 5.52412 5.25084
#
# Compressibility (1/GPa) = 0.04332542
#
# Stress axis : x y z
#
# Youngs Moduli (GPa) = 52.93069 81.21412 33.87833
#
# Poissons Ratio (x) = 0.09900 0.08026
# Poissons Ratio (y) = 0.06453 0.17314
# Poissons Ratio (z) = 0.12540 0.41505
#
# Static dielectric constant tensor:
#      x y z
#    x 1.923380 0.018120 -0.027020 
#    y 0.018120 1.918930 -0.039500 
#    z -0.027020 -0.039500 1.969420 
# 
# From -- ./inp_files/436485.got.cif
#   From: 2010.05.17/outbox.cif.g08.bks.cpg/sg2_219_cif.got.tgz:436485.got - 2010.06.03 11:33:40.
