data_PCOD9086838
_publ_section_title
;
Structure prediction by ZEFSAII (Michael W. Deem and Ramdas Pophale) SiO2 
 PCOD9086838
Probable space group: P -1
;
_chemical_formula_sum "Si O2"
_cell_formula_units_Z 16
_cell_length_a 25.003759
_cell_length_b 25.320697
_cell_length_c 9.311026
_cell_angle_alpha 36.714888
_cell_angle_beta 28.304721
_cell_angle_gamma 16.331808
_cell_volume 743.409178
_symmetry_space_group_name_H-M "P -1"
_symmetry_group_IT_number 2
_symmetry_cell_setting 'triclinic'
loop_
_space_group_symop_operation_xyz
x,y,z
-x,-y,-z
loop_
_atom_site_type_symbol
_atom_site_label
_atom_site_fract_x
_atom_site_fract_y
_atom_site_fract_z
Si Si1 0.520845 0.504311 0.274220
Si Si2 0.909205 0.616424 0.598312
Si Si3 0.739107 0.378994 0.620096
Si Si4 0.876297 0.472806 0.164660
Si Si5 0.812672 0.469127 0.649766
Si Si6 0.560214 0.944548 0.214393
Si Si7 0.999255 0.903541 0.146277
Si Si8 0.317386 0.004301 0.441392
O O1 0.500000 0.500000 0.500000
O O2 0.279012 0.642781 0.451323
O O3 0.572845 0.572538 0.984863
O O4 0.757650 0.284229 0.122453
O O5 0.000000 0.500000 0.500000
O O6 0.137852 0.502247 0.394976
O O7 0.691093 0.840389 0.586507
O O8 0.799306 0.619387 0.960411
O O9 0.731986 0.489187 0.407516
O O10 0.968589 0.185522 0.599749
O O11 0.500000 0.500000 0.000000
O O12 0.849727 0.489190 0.364210
O O13 0.175086 0.250423 0.906543
O O14 0.045027 0.236629 0.622170
O O15 0.495987 0.898123 0.385440
O O16 0.606632 0.983530 0.893247
O O17 0.747794 0.048252 0.341696
O O18 0.000000 0.000000 0.000000
#
# Coordination Sequence:
#
# PCOD9086838 Si02
#       8
#     2   2   2   2   2   2   2   2
#     4  10  21  38  62  84 122 166 194 248 319 361
#     4  11  25  37  58  93 122 156 199 252 314 360
#     4  10  19  38  58  90 118 155 205 249 300 368
#     4  11  20  40  64  85 118 157 209 253 293 362
#     4   9  18  39  57  84 118 153 206 240 294 373
#     4   9  18  36  60  82 116 156 198 240 303 360
#     4  10  19  36  60  90 118 152 211 255 292 362
#     4   8  15  33  57  81 112 150 196 247 289 347
#
# _framework density 21.522466999999999
#
# number of rings (size 3 to 8) (size 9 to 14) (size 15 to 20)
#    0.000    2.250    5.000    1.125    1.750    2.500 
#    2.250    0.625    0.000    0.000    0.000    0.000 
#    0.000    0.000    0.000    0.000    0.000    0.000 
#
# Total GULP energy -89250.797712 kJ/mol
# GULP energy per Si atom -5578.174857 kJ/mol
# Density = 2.147348 g / cm^3
# Si number density = 21.522467 Si / 1000 Ang^3
#
#
#
# Elastic Constant Matrix: (Units=GPa)
#
#
# Indices 1 2 3 4 5 6 
#
# 1 169.8437 33.4480 47.7892 1.8307 -16.3906 22.7886
# 2 33.4480 67.8548 18.1423 -5.7720 -8.0992 10.4394
# 3 47.7892 18.1423 41.7897 -7.7742 -15.5750 4.9461
# 4 1.8307 -5.7720 -7.7742 22.3844 1.8422 -5.5729
# 5 -16.3906 -8.0992 -15.5750 1.8422 47.1585 -8.5681
# 6 22.7886 10.4394 4.9461 -5.5729 -8.5681 30.2452
#
#
#
# Elastic Compliance Matrix: (Units=1/GPa)
#
#
# Indices 1 2 3 4 5 6 
#
# 1 0.010639 -0.001582 -0.012649 -0.007331 -0.001784 -0.007258
# 2 -0.001582 0.017598 -0.004992 0.002013 0.000078 -0.003673
# 3 -0.012649 -0.004992 0.046883 0.017596 0.011369 0.010050
# 4 -0.007331 0.002013 0.017596 0.054861 0.003856 0.013153
# 5 -0.001784 0.000078 0.011369 0.003856 0.025548 0.007406
# 6 -0.007258 -0.003673 0.010050 0.013153 0.007406 0.042677
#
#
# Mechanical properties :
#
#
# Convention : Reuss Voigt Hill
#
# Bulk Modulus (GPa) = 27.26865 53.13857 40.20361
# Shear Modulus (GPa) = 20.09013 31.96486 26.02750
#
# Velocity S-wave (km/s) = 3.05855 3.85799 3.48130
# Velocity P-wave (km/s) = 5.01701 6.67749 5.90590
#
# Compressibility (1/GPa) = 0.03667215
#
# Stress axis : x y z
#
# Youngs Moduli (GPa) = 93.99179 56.82599 21.32959
#
# Poissons Ratio (x) = 0.08992 0.26981
# Poissons Ratio (y) = 0.14873 0.10648
# Poissons Ratio (z) = 1.18894 0.28369
#
# Static dielectric constant tensor:
#      x y z
#    x 1.850840 -0.015700 -0.026710 
#    y -0.015700 1.903600 0.065030 
#    z -0.026710 0.065030 1.825920 
# 
# From -- ./inp_files/355425.got.cif
#   From: 2010.05.17/outbox.cif.g08.bks.cpg/sg2_178_cif.got.tgz:355425.got - 2010.06.03 11:33:40.
