data_PCOD9086476
_publ_section_title
;
Structure prediction by ZEFSAII (Michael W. Deem and Ramdas Pophale) SiO2 
 PCOD9086476
Probable space group: P -1
;
_chemical_formula_sum "Si O2"
_cell_formula_units_Z 16
_cell_length_a 16.616436
_cell_length_b 5.413698
_cell_length_c 14.923665
_cell_angle_alpha 59.074985
_cell_angle_beta 38.207574
_cell_angle_gamma 77.413040
_cell_volume 667.147271
_symmetry_space_group_name_H-M "P -1"
_symmetry_group_IT_number 2
_symmetry_cell_setting 'triclinic'
loop_
_space_group_symop_operation_xyz
x,y,z
-x,-y,-z
loop_
_atom_site_type_symbol
_atom_site_label
_atom_site_fract_x
_atom_site_fract_y
_atom_site_fract_z
Si Si1 0.681260 0.870622 0.831627
Si Si2 0.056982 0.726286 0.094138
Si Si3 0.178008 0.796224 0.797414
Si Si4 0.389428 0.507361 0.219431
Si Si5 0.847348 0.861956 0.388215
Si Si6 0.542350 0.695241 0.517796
Si Si7 0.281440 0.260899 0.882617
Si Si8 0.090885 0.110873 0.245261
O O1 0.659448 0.729047 0.777377
O O2 0.834598 0.910704 0.724566
O O3 0.655578 0.192068 0.804329
O O4 0.556772 0.629174 0.043889
O O5 0.065276 0.425340 0.190754
O O6 0.937594 0.793925 0.241370
O O7 0.052600 0.742720 0.987003
O O8 0.212601 0.975008 0.930797
O O9 0.232491 0.528760 0.833178
O O10 0.154609 0.811596 0.708315
O O11 0.294419 0.138465 0.643669
O O12 0.306601 0.336597 0.410611
O O13 0.943996 0.866808 0.389011
O O14 0.500000 0.500000 0.500000
O O15 0.445426 0.433207 0.717829
O O16 0.500000 0.000000 0.500000
O O17 0.205436 0.127483 0.066146
#
# Coordination Sequence:
#
# PCOD9086476 Si02
#       8
#     2   2   2   2   2   2   2   2
#     4  10  24  50  75  98 133 170 215 290 344 396
#     4  10  21  40  60  94 135 182 222 267 322 398
#     4  10  21  38  60  90 140 181 219 274 323 384
#     4  10  25  48  74 103 130 168 224 278 348 399
#     4  11  25  40  63 101 133 178 226 269 331 404
#     4  10  19  36  58  87 123 170 225 268 315 373
#     4   9  20  37  59  93 129 176 226 268 324 391
#     4  10  24  40  67  95 133 174 224 269 336 399
#
# _framework density 23.982710999999998
#
# number of rings (size 3 to 8) (size 9 to 14) (size 15 to 20)
#    0.000    2.000    1.250    0.375    7.000    6.500 
#    0.000    0.000    0.000    0.000    0.000    0.000 
#    0.000    0.000    0.000    0.000    0.000    0.000 
#
# Total GULP energy -89180.402234 kJ/mol
# GULP energy per Si atom -5573.775140 kJ/mol
# Density = 2.392813 g / cm^3
# Si number density = 23.982711 Si / 1000 Ang^3
#
#
#
# Elastic Constant Matrix: (Units=GPa)
#
#
# Indices 1 2 3 4 5 6 
#
# 1 89.1836 6.5167 -6.6682 8.0272 -13.9851 -3.7035
# 2 6.5167 50.8638 -6.6226 3.5144 -1.8487 10.5894
# 3 -6.6682 -6.6226 116.2670 10.4347 -19.4989 -2.7835
# 4 8.0272 3.5144 10.4347 18.2447 1.4516 -4.2697
# 5 -13.9851 -1.8487 -19.4989 1.4516 34.0467 -0.9636
# 6 -3.7035 10.5894 -2.7835 -4.2697 -0.9636 13.5780
#
#
#
# Elastic Compliance Matrix: (Units=1/GPa)
#
#
# Indices 1 2 3 4 5 6 
#
# 1 0.013433 -0.001398 0.002626 -0.006872 0.007342 0.003652
# 2 -0.001398 0.025861 0.002155 -0.011251 0.001878 -0.023513
# 3 0.002626 0.002155 0.010939 -0.008656 0.007804 -0.000890
# 4 -0.006872 -0.011251 -0.008656 0.072134 -0.010701 0.027049
# 5 0.007342 0.001878 0.007804 -0.010701 0.037456 0.001431
# 6 0.003652 -0.023513 -0.000890 0.027049 0.001431 0.101408
#
#
# Mechanical properties :
#
#
# Convention : Reuss Voigt Hill
#
# Bulk Modulus (GPa) = 17.54408 26.97401 22.25904
# Shear Modulus (GPa) = 18.28404 30.71309 24.49857
#
# Velocity S-wave (km/s) = 2.76413 3.58248 3.19957
# Velocity P-wave (km/s) = 4.18550 5.32765 4.79073
#
# Compressibility (1/GPa) = 0.05699929
#
# Stress axis : x y z
#
# Youngs Moduli (GPa) = 74.44375 38.66854 91.41877
#
# Poissons Ratio (x) = 0.05405 -0.24010
# Poissons Ratio (y) = 0.10405 -0.19698
# Poissons Ratio (z) = -0.19552 -0.08332
#
# Static dielectric constant tensor:
#      x y z
#    x 2.031310 0.062690 -0.033520 
#    y 0.062690 1.968700 0.013760 
#    z -0.033520 0.013760 1.923020 
# 
# From -- ./inp_files/536245.got.cif
#   From: 2010.05.17/outbox.cif.g08.bks.cpg/sg2_269_cif.got.tgz:536245.got - 2010.06.03 11:33:40.
