data_PCOD9086751
_publ_section_title
;
Structure prediction by ZEFSAII (Michael W. Deem and Ramdas Pophale) SiO2 
 PCOD9086751
Probable space group: P -1
;
_chemical_formula_sum "Si O2"
_cell_formula_units_Z 16
_cell_length_a 12.034936
_cell_length_b 8.081625
_cell_length_c 12.274776
_cell_angle_alpha 65.625331
_cell_angle_beta 133.580038
_cell_angle_gamma 97.944539
_cell_volume 768.160380
_symmetry_space_group_name_H-M "P -1"
_symmetry_group_IT_number 2
_symmetry_cell_setting 'triclinic'
loop_
_space_group_symop_operation_xyz
x,y,z
-x,-y,-z
loop_
_atom_site_type_symbol
_atom_site_label
_atom_site_fract_x
_atom_site_fract_y
_atom_site_fract_z
Si Si1 0.373026 0.393775 0.485436
Si Si2 0.400316 0.255608 0.929815
Si Si3 0.088148 0.533112 0.391487
Si Si4 0.073770 0.215847 0.608963
Si Si5 0.564050 0.146865 0.860998
Si Si6 0.101861 0.846183 0.847355
Si Si7 0.785061 0.573846 0.045315
Si Si8 0.143979 0.316121 0.161529
O O1 0.500000 0.500000 0.500000
O O2 0.250641 0.525939 0.446034
O O3 0.469148 0.227427 0.669107
O O4 0.264303 0.341447 0.330821
O O5 0.236454 0.241677 0.765721
O O6 0.506774 0.279901 0.891616
O O7 0.350024 0.387398 0.964255
O O8 0.473531 0.051847 0.083044
O O9 0.075959 0.319536 0.467588
O O10 0.066722 0.651578 0.455075
O O11 0.941115 0.618713 0.193386
O O12 0.068807 0.004259 0.688273
O O13 0.752198 0.120131 0.990026
O O14 0.165475 0.642144 0.895161
O O15 0.949272 0.838322 0.819136
O O16 0.762530 0.694863 0.886480
O O17 0.000000 0.500000 0.000000
#
# Coordination Sequence:
#
# PCOD9086751 Si02
#       8
#     2   2   2   2   2   2   2   2
#     4  12  22  37  63  85 116 158 196 238 292 351
#     4   9  19  38  59  84 116 156 192 243 289 345
#     4  10  19  36  60  86 116 153 199 245 285 345
#     4   9  19  36  59  88 117 151 200 246 285 341
#     4  10  21  37  61  87 115 149 200 240 291 342
#     4  10  20  37  61  87 119 156 193 240 295 351
#     4  10  20  37  61  82 118 159 194 238 292 347
#     4  10  20  39  58  84 121 157 191 237 288 352
#
# _framework density 20.828982
#
# number of rings (size 3 to 8) (size 9 to 14) (size 15 to 20)
#    0.000    2.000    3.750    1.500    0.000    1.000 
#    2.250    2.500    2.750    0.000    0.000    0.000 
#    0.000    0.000    0.000    0.000    0.000    0.000 
#
# Total GULP energy -89175.696522 kJ/mol
# GULP energy per Si atom -5573.481033 kJ/mol
# Density = 2.078157 g / cm^3
# Si number density = 20.828982 Si / 1000 Ang^3
#
#
#
# Elastic Constant Matrix: (Units=GPa)
#
#
# Indices 1 2 3 4 5 6 
#
# 1 117.4527 25.8013 43.4868 -1.1016 -8.9894 16.5335
# 2 25.8013 41.9876 13.3534 -6.7622 -6.0556 3.8239
# 3 43.4868 13.3534 125.4477 4.3325 -10.8507 8.2459
# 4 -1.1016 -6.7622 4.3325 23.5773 3.0383 4.9068
# 5 -8.9894 -6.0556 -10.8507 3.0383 27.2655 3.4001
# 6 16.5335 3.8239 8.2459 4.9068 3.4001 24.4305
#
#
#
# Elastic Compliance Matrix: (Units=1/GPa)
#
#
# Indices 1 2 3 4 5 6 
#
# 1 0.011897 -0.005325 -0.002939 0.000659 0.002330 -0.006683
# 2 -0.005325 0.029627 -0.001083 0.008565 0.003803 -0.002917
# 3 -0.002939 -0.001083 0.009509 -0.002372 0.002962 -0.000987
# 4 0.000659 0.008565 -0.002372 0.047829 -0.002883 -0.010191
# 5 0.002330 0.003803 0.002962 -0.002883 0.040821 -0.008274
# 6 -0.006683 -0.002917 -0.000987 -0.010191 -0.008274 0.049443
#
#
# Mechanical properties :
#
#
# Convention : Reuss Voigt Hill
#
# Bulk Modulus (GPa) = 30.92341 50.01900 40.47121
# Shear Modulus (GPa) = 22.87281 28.53775 25.70528
#
# Velocity S-wave (km/s) = 3.31739 3.70550 3.51680
# Velocity P-wave (km/s) = 5.43618 6.50952 5.99691
#
# Compressibility (1/GPa) = 0.03233796
#
# Stress axis : x y z
#
# Youngs Moduli (GPa) = 84.05186 33.75326 105.16812
#
# Poissons Ratio (x) = 0.17975 0.30913
# Poissons Ratio (y) = 0.44760 0.11387
# Poissons Ratio (z) = 0.24706 0.03655
#
# Static dielectric constant tensor:
#      x y z
#    x 1.810180 -0.011360 -0.022240 
#    y -0.011360 1.802070 0.000450 
#    z -0.022240 0.000450 1.770940 
# 
# From -- ./inp_files/416687.got.cif
#   From: 2010.05.17/outbox.cif.g08.bks.cpg/sg2_209_cif.got.tgz:416687.got - 2010.06.03 11:33:40.
