data_PCOD9086393
_publ_section_title
;
Structure prediction by ZEFSAII (Michael W. Deem and Ramdas Pophale) SiO2 
 PCOD9086393
Probable space group: P -1
;
_chemical_formula_sum "Si O2"
_cell_formula_units_Z 16
_cell_length_a 20.568943
_cell_length_b 8.679198
_cell_length_c 16.594562
_cell_angle_alpha 80.242244
_cell_angle_beta 162.718270
_cell_angle_gamma 100.963711
_cell_volume 863.259732
_symmetry_space_group_name_H-M "P -1"
_symmetry_group_IT_number 2
_symmetry_cell_setting 'triclinic'
loop_
_space_group_symop_operation_xyz
x,y,z
-x,-y,-z
loop_
_atom_site_type_symbol
_atom_site_label
_atom_site_fract_x
_atom_site_fract_y
_atom_site_fract_z
Si Si1 0.143023 0.511689 0.748269
Si Si2 0.921754 0.091543 0.145003
Si Si3 0.556415 0.863117 0.676761
Si Si4 0.143293 0.985253 0.093464
Si Si5 0.855343 0.600332 0.541580
Si Si6 0.448138 0.669308 0.720843
Si Si7 0.558494 0.220774 0.992181
Si Si8 0.304477 0.898546 0.667875
O O1 0.000000 0.500000 0.500000
O O2 0.987669 0.507710 0.642000
O O3 0.319303 0.385137 0.969999
O O4 0.285336 0.680156 0.894214
O O5 0.981921 0.258689 0.241665
O O6 0.984941 0.104413 0.123811
O O7 0.069310 0.965425 0.370699
O O8 0.669407 0.014554 0.847891
O O9 0.346993 0.898274 0.374234
O O10 0.488595 0.730695 0.672796
O O11 0.751018 0.855669 0.841235
O O12 0.000000 0.000000 0.000000
O O13 0.734301 0.479087 0.472493
O O14 0.655848 0.684535 0.256846
O O15 0.371607 0.801440 0.678758
O O16 0.474455 0.052481 0.870794
O O17 0.678644 0.199801 0.221212
#
# Coordination Sequence:
#
# PCOD9086393 Si02
#       8
#     2   2   2   2   2   2   2   2
#     4  11  23  36  56  77 117 161 193 226 286 331
#     4   9  20  37  62  84 111 148 187 231 287 334
#     4   9  21  35  58  89 107 138 193 224 277 344
#     4   9  18  37  61  87 113 139 179 234 289 335
#     4  10  22  40  53  81 121 154 187 231 284 331
#     4  11  23  36  56  84 114 148 190 236 277 335
#     4   9  21  37  52  82 113 151 194 236 280 329
#     4  10  19  36  58  81 115 145 193 245 276 320
#
# _framework density 18.534400000000002
#
# number of rings (size 3 to 8) (size 9 to 14) (size 15 to 20)
#    0.750    1.500    0.000    2.250    5.250    2.000 
#    2.250    3.125    0.000    1.500    0.000    0.000 
#    0.000    0.000    0.000    0.000    0.000    0.000 
#
# Total GULP energy -89090.988657 kJ/mol
# GULP energy per Si atom -5568.186791 kJ/mol
# Density = 1.849222 g / cm^3
# Si number density = 18.534400 Si / 1000 Ang^3
#
#
#
# Elastic Constant Matrix: (Units=GPa)
#
#
# Indices 1 2 3 4 5 6 
#
# 1 68.8250 7.5220 -2.0813 -0.2814 9.7730 16.0008
# 2 7.5220 49.9324 -2.1615 0.3658 7.4959 4.9013
# 3 -2.0813 -2.1615 31.7088 8.1045 -5.7302 0.0782
# 4 -0.2814 0.3658 8.1045 13.6567 2.8193 -0.1918
# 5 9.7730 7.4959 -5.7302 2.8193 31.7417 -0.0939
# 6 16.0008 4.9013 0.0782 -0.1918 -0.0939 30.3529
#
#
#
# Elastic Compliance Matrix: (Units=1/GPa)
#
#
# Indices 1 2 3 4 5 6 
#
# 1 0.017507 -0.000962 -0.000252 0.001517 -0.005370 -0.009080
# 2 -0.000962 0.021176 0.000555 -0.000006 -0.004612 -0.002928
# 3 -0.000252 0.000555 0.039796 -0.025581 0.009402 -0.000192
# 4 0.001517 -0.000006 -0.025581 0.091155 -0.013181 -0.000198
# 5 -0.005370 -0.004612 0.009402 -0.013181 0.037126 0.003583
# 6 -0.009080 -0.002928 -0.000192 -0.000198 0.003583 0.038215
#
#
# Mechanical properties :
#
#
# Convention : Reuss Voigt Hill
#
# Bulk Modulus (GPa) = 12.95988 17.44719 15.20353
# Shear Modulus (GPa) = 18.38150 24.96272 21.67211
#
# Velocity S-wave (km/s) = 3.15262 3.67390 3.42320
# Velocity P-wave (km/s) = 4.50106 5.23742 4.88314
#
# Compressibility (1/GPa) = 0.07716124
#
# Stress axis : x y z
#
# Youngs Moduli (GPa) = 57.12066 47.22346 25.12807
#
# Poissons Ratio (x) = 0.04542 0.00634
# Poissons Ratio (y) = 0.05494 -0.01396
# Poissons Ratio (z) = 0.01442 -0.02623
#
# Static dielectric constant tensor:
#      x y z
#    x 1.638660 0.016130 0.008690 
#    y 0.016130 1.665810 0.008200 
#    z 0.008690 0.008200 1.629980 
# 
# From -- ./inp_files/537366.got.cif
#   From: 2010.05.17/outbox.cif.g08.bks.cpg/sg2_269_cif.got.tgz:537366.got - 2010.06.03 11:33:40.
