data_PCOD9086283
_publ_section_title
;
Structure prediction by ZEFSAII (Michael W. Deem and Ramdas Pophale) SiO2 
 PCOD9086283
Probable space group: P -1
;
_chemical_formula_sum "Si O2"
_cell_formula_units_Z 16
_cell_length_a 20.164550
_cell_length_b 17.354005
_cell_length_c 5.408607
_cell_angle_alpha 47.320471
_cell_angle_beta 131.336798
_cell_angle_gamma 152.468830
_cell_volume 633.264593
_symmetry_space_group_name_H-M "P -1"
_symmetry_group_IT_number 2
_symmetry_cell_setting 'triclinic'
loop_
_space_group_symop_operation_xyz
x,y,z
-x,-y,-z
loop_
_atom_site_type_symbol
_atom_site_label
_atom_site_fract_x
_atom_site_fract_y
_atom_site_fract_z
Si Si1 0.592434 0.925695 0.330624
Si Si2 0.272683 0.417165 0.416856
Si Si3 0.910977 0.944267 0.151766
Si Si4 0.009343 0.759425 0.170097
Si Si5 0.778484 0.123076 0.969547
Si Si6 0.338013 0.811320 0.752645
Si Si7 0.508118 0.266816 0.067842
Si Si8 0.214696 0.542820 0.401795
O O1 0.547423 0.778294 0.682352
O O2 0.589705 0.015894 0.330710
O O3 0.755448 0.091242 0.273130
O O4 0.468883 0.849875 0.998428
O O5 0.235063 0.263626 0.741634
O O6 0.247741 0.470672 0.473090
O O7 0.419044 0.577033 0.269785
O O8 0.140104 0.327092 0.107809
O O9 0.000000 0.000000 0.500000
O O10 0.899909 0.058559 0.889617
O O11 0.000000 0.000000 0.000000
O O12 0.939993 0.613296 0.510561
O O13 0.088775 0.785051 0.072753
O O14 0.646768 0.916044 0.029679
O O15 0.738771 0.206396 0.628627
O O16 0.225698 0.650546 0.009693
O O17 0.652744 0.331624 0.346006
#
# Coordination Sequence:
#
# PCOD9086283 Si02
#       8
#     2   2   2   2   2   2   2   2
#     4   9  18  34  53  77 115 158 201 235 288 353
#     4  10  20  37  64  84 113 149 202 246 296 360
#     4  10  20  41  67  94 119 160 206 252 305 377
#     4  10  23  37  57  90 116 150 194 247 311 361
#     4  11  21  36  55  83 123 154 192 242 307 350
#     4   9  19  32  54  79 110 158 204 239 282 357
#     4   9  19  34  56  84 108 151 196 242 286 355
#     4  10  19  36  57  83 113 150 202 244 287 356
#
# _framework density 25.265902000000001
#
# number of rings (size 3 to 8) (size 9 to 14) (size 15 to 20)
#    0.000    2.250    1.250    2.625    0.000    6.500 
#    0.000    1.875    0.000    1.500    0.000    0.000 
#    0.000    0.000    0.000    0.000    0.000    0.000 
#
# Total GULP energy -89127.792455 kJ/mol
# GULP energy per Si atom -5570.487028 kJ/mol
# Density = 2.520840 g / cm^3
# Si number density = 25.265902 Si / 1000 Ang^3
#
#
#
# Elastic Constant Matrix: (Units=GPa)
#
#
# Indices 1 2 3 4 5 6 
#
# 1 62.3305 10.2277 29.6957 -17.1772 -25.3372 18.4698
# 2 10.2277 92.0393 26.2086 -41.6429 -6.4783 14.8584
# 3 29.6957 26.2086 91.4551 -44.3733 -21.0679 27.1575
# 4 -17.1772 -41.6429 -44.3733 51.5987 16.5936 -18.5148
# 5 -25.3372 -6.4783 -21.0679 16.5936 38.9844 -16.8587
# 6 18.4698 14.8584 27.1575 -18.5148 -16.8587 42.0059
#
#
#
# Elastic Compliance Matrix: (Units=1/GPa)
#
#
# Indices 1 2 3 4 5 6 
#
# 1 0.023769 -0.000726 -0.004585 -0.001642 0.012232 -0.003045
# 2 -0.000726 0.018109 0.003371 0.017866 -0.004132 -0.002049
# 3 -0.004585 0.003371 0.021721 0.018142 -0.000801 -0.005545
# 4 -0.001642 0.017866 0.018142 0.052735 -0.009900 0.001944
# 5 0.012232 -0.004132 -0.000801 -0.009900 0.040340 0.008427
# 6 -0.003045 -0.002049 -0.005545 0.001944 0.008427 0.033694
#
#
# Mechanical properties :
#
#
# Convention : Reuss Voigt Hill
#
# Bulk Modulus (GPa) = 16.74479 42.00987 29.37733
# Shear Modulus (GPa) = 23.34768 38.49733 30.92251
#
# Velocity S-wave (km/s) = 3.04316 3.90768 3.50220
# Velocity P-wave (km/s) = 4.35771 6.08466 5.29210
#
# Compressibility (1/GPa) = 0.05972006
#
# Stress axis : x y z
#
# Youngs Moduli (GPa) = 42.07188 55.22144 46.03767
#
# Poissons Ratio (x) = 0.04011 0.21106
# Poissons Ratio (y) = 0.03056 -0.15521
# Poissons Ratio (z) = 0.19288 -0.18617
#
# Static dielectric constant tensor:
#      x y z
#    x 2.111110 -0.079440 -0.163550 
#    y -0.079440 2.184010 0.086410 
#    z -0.163550 0.086410 2.081400 
# 
# From -- ./inp_files/119987.got.cif
#   From: 2010.05.17/outbox.cif.g08.bks.cpg/sg2_60_cif.got.tgz:119987.got - 2010.06.03 11:33:40.
