data_PCOD9086680
_publ_section_title
;
Structure prediction by ZEFSAII (Michael W. Deem and Ramdas Pophale) SiO2 
 PCOD9086680
Probable space group: P -1
;
_chemical_formula_sum "Si O2"
_cell_formula_units_Z 14
_cell_length_a 11.391441
_cell_length_b 14.057028
_cell_length_c 7.357821
_cell_angle_alpha 128.947098
_cell_angle_beta 78.129308
_cell_angle_gamma 70.349744
_cell_volume 709.371034
_symmetry_space_group_name_H-M "P -1"
_symmetry_group_IT_number 2
_symmetry_cell_setting 'triclinic'
loop_
_space_group_symop_operation_xyz
x,y,z
-x,-y,-z
loop_
_atom_site_type_symbol
_atom_site_label
_atom_site_fract_x
_atom_site_fract_y
_atom_site_fract_z
Si Si1 0.420360 0.700451 0.744406
Si Si2 0.530946 0.940160 0.624795
Si Si3 0.959332 0.159828 0.280786
Si Si4 0.592973 0.623146 0.153210
Si Si5 0.289100 0.038568 0.105399
Si Si6 0.296743 0.535195 0.441862
Si Si7 0.294151 0.696623 0.161834
O O1 0.396349 0.597768 0.501972
O O2 0.598381 0.607526 0.623662
O O3 0.352224 0.861398 0.869206
O O4 0.318867 0.738342 0.004382
O O5 0.656303 0.938725 0.693662
O O6 0.500000 0.000000 0.500000
O O7 0.378257 0.048620 0.924759
O O8 0.583322 0.766313 0.395420
O O9 0.867586 0.299170 0.327670
O O10 0.856041 0.202269 0.545248
O O11 0.110581 0.138981 0.258155
O O12 0.000000 0.000000 0.000000
O O13 0.685738 0.553192 0.852206
O O14 0.671305 0.469544 0.063433
O O15 0.426277 0.679381 0.216149
#
# Coordination Sequence:
#
# PCOD9086680 Si02
#       7
#     2   2   2   2   2   2   2
#     4  10  19  36  59  95 121 155 201 244 296 374
#     4  11  24  44  62  84 118 170 215 252 288 365
#     4  11  20  37  56  92 131 157 187 255 316 364
#     4   9  18  35  60  85 114 159 202 243 293 354
#     4  11  25  40  64  91 123 162 207 248 308 363
#     4   9  19  33  58  88 125 151 192 245 303 353
#     4   9  19  32  58  92 120 151 191 247 311 357
#
# _framework density 19.735795
#
# number of rings (size 3 to 8) (size 9 to 14) (size 15 to 20)
#    0.000    2.000    1.429    3.429    8.000    0.571 
#    2.571    2.857    0.000   13.714    0.000    0.000 
#    0.000    0.000    0.000    0.000    0.000    0.000 
#
# Total GULP energy -77940.944824 kJ/mol
# GULP energy per Si atom -5567.210345 kJ/mol
# Density = 1.969088 g / cm^3
# Si number density = 19.735795 Si / 1000 Ang^3
#
#
#
# Elastic Constant Matrix: (Units=GPa)
#
#
# Indices 1 2 3 4 5 6 
#
# 1 82.1045 -0.8198 27.5844 9.2131 -14.9901 -7.9963
# 2 -0.8198 45.1965 10.6488 -0.2728 -12.9723 -9.9855
# 3 27.5844 10.6488 93.8967 2.1348 -2.9474 -3.6611
# 4 9.2131 -0.2728 2.1348 34.9290 -7.9894 2.6808
# 5 -14.9901 -12.9723 -2.9474 -7.9894 36.7143 11.0374
# 6 -7.9963 -9.9855 -3.6611 2.6808 11.0374 25.7592
#
#
#
# Elastic Compliance Matrix: (Units=1/GPa)
#
#
# Indices 1 2 3 4 5 6 
#
# 1 0.015423 0.003715 -0.004579 -0.002743 0.005605 0.003461
# 2 0.003715 0.027206 -0.003636 0.000917 0.008843 0.007298
# 3 -0.004579 -0.003636 0.012336 -0.000048 -0.002126 -0.000162
# 4 -0.002743 0.000917 -0.000048 0.031841 0.008353 -0.007396
# 5 0.005605 0.008843 -0.002126 0.008353 0.037990 -0.012281
# 6 0.003461 0.007298 -0.000162 -0.007396 -0.012281 0.048734
#
#
# Mechanical properties :
#
#
# Convention : Reuss Voigt Hill
#
# Bulk Modulus (GPa) = 21.75507 32.89161 27.32334
# Shear Modulus (GPa) = 25.27171 31.73278 28.50225
#
# Velocity S-wave (km/s) = 3.58229 4.01419 3.80437
# Velocity P-wave (km/s) = 5.30636 6.17957 5.75954
#
# Compressibility (1/GPa) = 0.04596629
#
# Stress axis : x y z
#
# Youngs Moduli (GPa) = 64.83691 36.75692 81.06627
#
# Poissons Ratio (x) = -0.13657 0.37121
# Poissons Ratio (y) = -0.24090 0.29472
# Poissons Ratio (z) = 0.29689 0.13363
#
# Static dielectric constant tensor:
#      x y z
#    x 1.681370 -0.034350 -0.002230 
#    y -0.034350 1.782150 -0.029100 
#    z -0.002230 -0.029100 1.746090 
# 
# From -- ./inp_files/301244.got.cif
#   From: 2010.05.17/outbox.cif.g08.bks.cpg/sg2_151_cif.got.tgz:301244.got - 2010.06.03 11:33:40.
