data_PCOD9086332
_publ_section_title
;
Structure prediction by ZEFSAII (Michael W. Deem and Ramdas Pophale) SiO2 
 PCOD9086332
Probable space group: P -1
;
_chemical_formula_sum "Si O2"
_cell_formula_units_Z 14
_cell_length_a 13.986533
_cell_length_b 11.180232
_cell_length_c 12.926564
_cell_angle_alpha 132.329394
_cell_angle_beta 34.061390
_cell_angle_gamma 148.021390
_cell_volume 596.639068
_symmetry_space_group_name_H-M "P -1"
_symmetry_group_IT_number 2
_symmetry_cell_setting 'triclinic'
loop_
_space_group_symop_operation_xyz
x,y,z
-x,-y,-z
loop_
_atom_site_type_symbol
_atom_site_label
_atom_site_fract_x
_atom_site_fract_y
_atom_site_fract_z
Si Si1 0.649002 0.911654 0.531067
Si Si2 0.462837 0.251984 0.076013
Si Si3 0.675496 0.489660 0.569731
Si Si4 0.120407 0.080043 0.099845
Si Si5 0.161395 0.945900 0.338914
Si Si6 0.243614 0.714183 0.464415
Si Si7 0.053753 0.299622 0.117713
O O1 0.460397 0.678494 0.502898
O O2 0.654321 0.907934 0.647076
O O3 0.621471 0.076861 0.612055
O O4 0.911552 0.020940 0.323458
O O5 0.420306 0.395237 0.255645
O O6 0.345982 0.194230 0.035183
O O7 0.311227 0.022784 0.144672
O O8 0.747237 0.431446 0.921345
O O9 0.634574 0.358516 0.634416
O O10 0.957785 0.685245 0.405389
O O11 0.162019 0.238516 0.064674
O O12 0.022763 0.852078 0.001851
O O13 0.000000 0.000000 0.500000
O O14 0.000000 0.500000 0.500000
O O15 0.169950 0.774325 0.664419
#
# Coordination Sequence:
#
# PCOD9086332 Si02
#       7
#     2   2   2   2   2   2   2
#     4  11  20  37  62  92 118 156 197 247 296 346
#     4  11  21  38  63  89 116 159 198 243 295 339
#     4  11  21  37  61  89 122 154 198 242 295 348
#     4  10  19  36  57  87 123 144 194 250 289 350
#     4  10  21  36  59  91 119 157 202 245 284 345
#     4  11  22  42  63  87 123 154 195 248 299 361
#     4  10  22  37  58  88 120 152 192 248 302 344
#
# _framework density 23.464772
#
# number of rings (size 3 to 8) (size 9 to 14) (size 15 to 20)
#    0.000    1.429    5.714    1.714    0.000    3.429 
#    2.571    0.714    0.000    1.714    0.000    0.000 
#    0.000    0.000    0.000    0.000    0.000    0.000 
#
# Total GULP energy -78367.375833 kJ/mol
# GULP energy per Si atom -5597.669702 kJ/mol
# Density = 2.341136 g / cm^3
# Si number density = 23.464772 Si / 1000 Ang^3
#
#
#
# Elastic Constant Matrix: (Units=GPa)
#
#
# Indices 1 2 3 4 5 6 
#
# 1 97.9094 32.0656 12.9993 7.2611 11.8321 7.7175
# 2 32.0656 68.9580 18.3762 10.3299 11.5504 19.9468
# 3 12.9993 18.3762 33.5917 -5.1325 -7.8205 -10.6800
# 4 7.2611 10.3299 -5.1325 18.3642 -2.1378 7.2068
# 5 11.8321 11.5504 -7.8205 -2.1378 32.3200 8.9257
# 6 7.7175 19.9468 -10.6800 7.2068 8.9257 34.8561
#
#
#
# Elastic Compliance Matrix: (Units=1/GPa)
#
#
# Indices 1 2 3 4 5 6 
#
# 1 0.012975 -0.002341 -0.006189 -0.005886 -0.005584 -0.000783
# 2 -0.002341 0.036880 -0.033392 -0.022282 -0.015752 -0.022177
# 3 -0.006189 -0.033392 0.070500 0.032584 0.025453 0.028826
# 4 -0.005886 -0.022282 0.032584 0.080487 0.022903 0.001532
# 5 -0.005584 -0.015752 0.025453 0.022903 0.045854 0.001572
# 6 -0.000783 -0.022177 0.028826 0.001532 0.001572 0.049667
#
#
# Mechanical properties :
#
#
# Convention : Reuss Voigt Hill
#
# Bulk Modulus (GPa) = 27.38828 36.37126 31.87977
# Shear Modulus (GPa) = 12.74293 26.24258 19.49275
#
# Velocity S-wave (km/s) = 2.33291 3.34785 2.88536
# Velocity P-wave (km/s) = 4.35362 5.52070 4.97153
#
# Compressibility (1/GPa) = 0.03651196
#
# Stress axis : x y z
#
# Youngs Moduli (GPa) = 77.07245 27.11520 14.18445
#
# Poissons Ratio (x) = 0.06347 0.08778
# Poissons Ratio (y) = 0.18040 0.47364
# Poissons Ratio (z) = 0.47698 0.90542
#
# Static dielectric constant tensor:
#      x y z
#    x 1.864410 -0.028350 -0.041030 
#    y -0.028350 1.922660 -0.024640 
#    z -0.041030 -0.024640 1.921560 
# 
# From -- ./inp_files/270035.got.cif
#   From: 2010.05.17/outbox.cif.g08.bks.cpg/sg2_136_cif.got.tgz:270035.got - 2010.06.03 11:33:40.
