data_PCOD9086617
_publ_section_title
;
Structure prediction by ZEFSAII (Michael W. Deem and Ramdas Pophale) SiO2 
 PCOD9086617
Probable space group: P -1
;
_chemical_formula_sum "Si O2"
_cell_formula_units_Z 16
_cell_length_a 8.000244
_cell_length_b 13.924069
_cell_length_c 9.061708
_cell_angle_alpha 56.743926
_cell_angle_beta 107.842094
_cell_angle_gamma 108.215945
_cell_volume 790.156854
_symmetry_space_group_name_H-M "P -1"
_symmetry_group_IT_number 2
_symmetry_cell_setting 'triclinic'
loop_
_space_group_symop_operation_xyz
x,y,z
-x,-y,-z
loop_
_atom_site_type_symbol
_atom_site_label
_atom_site_fract_x
_atom_site_fract_y
_atom_site_fract_z
Si Si1 0.727304 0.553325 0.240565
Si Si2 0.081191 0.135450 0.898631
Si Si3 0.087760 0.690850 0.135398
Si Si4 0.343868 0.871339 0.897099
Si Si5 0.707618 0.514767 0.589083
Si Si6 0.382532 0.136517 0.750070
Si Si7 0.610274 0.759354 0.897770
Si Si8 0.428376 0.333237 0.357166
O O1 0.797231 0.566844 0.416836
O O2 0.614245 0.424056 0.302969
O O3 0.899081 0.600992 0.146343
O O4 0.592133 0.641018 0.091048
O O5 0.206270 0.159161 0.769344
O O6 0.941460 0.221958 0.811607
O O7 0.213553 0.163313 0.050826
O O8 0.000000 0.000000 0.000000
O O9 0.159336 0.782681 0.949074
O O10 0.229644 0.606602 0.265632
O O11 0.467216 0.861722 0.084229
O O12 0.448171 0.825585 0.829372
O O13 0.336188 0.007642 0.775092
O O14 0.500000 0.500000 0.500000
O O15 0.712816 0.594569 0.667767
O O16 0.446473 0.234811 0.564479
O O17 0.629621 0.725212 0.764245
#
# Coordination Sequence:
#
# PCOD9086617 Si02
#       8
#     2   2   2   2   2   2   2   2
#     4  10  21  37  59  86 120 157 204 246 299 352
#     4  10  20  41  63  90 118 153 204 250 302 355
#     4  11  20  34  65  90 116 150 204 256 294 351
#     4  10  19  36  59  87 111 157 211 244 298 352
#     4  10  20  36  59  87 119 154 200 248 295 357
#     4  10  21  36  62  86 116 158 200 252 296 361
#     4  10  22  38  60  87 117 165 202 248 300 364
#     4  11  21  39  58  85 127 161 198 248 306 354
#
# _framework density 20.249144999999999
#
# number of rings (size 3 to 8) (size 9 to 14) (size 15 to 20)
#    0.000    1.750    1.250    6.000    0.000    0.500 
#    0.000    6.250    0.000    0.000    0.000    0.000 
#    0.000    0.000    0.000    0.000    0.000    0.000 
#
# Total GULP energy -89228.386279 kJ/mol
# GULP energy per Si atom -5576.774142 kJ/mol
# Density = 2.020306 g / cm^3
# Si number density = 20.249145 Si / 1000 Ang^3
#
#
#
# Elastic Constant Matrix: (Units=GPa)
#
#
# Indices 1 2 3 4 5 6 
#
# 1 84.1458 45.8981 16.5876 -11.4180 -10.5944 -14.8692
# 2 45.8981 139.9256 65.8648 -4.3139 -7.3202 -17.9514
# 3 16.5876 65.8648 59.5045 -13.4785 -8.9486 1.1514
# 4 -11.4180 -4.3139 -13.4785 41.4159 -5.9099 -3.1229
# 5 -10.5944 -7.3202 -8.9486 -5.9099 18.2394 -13.5215
# 6 -14.8692 -17.9514 1.1514 -3.1229 -13.5215 38.7146
#
#
#
# Elastic Compliance Matrix: (Units=1/GPa)
#
#
# Indices 1 2 3 4 5 6 
#
# 1 0.024061 -0.008430 0.011048 0.015696 0.034741 0.018403
# 2 -0.008430 0.021168 -0.024528 -0.009090 -0.008781 0.003507
# 3 0.011048 -0.024528 0.050422 0.021682 0.031354 0.004070
# 4 0.015696 -0.009090 0.021682 0.042522 0.044925 0.020289
# 5 0.034741 -0.008781 0.031354 0.044925 0.148823 0.063941
# 6 0.018403 0.003507 0.004070 0.020289 0.063941 0.058372
#
#
# Mechanical properties :
#
#
# Convention : Reuss Voigt Hill
#
# Bulk Modulus (GPa) = 19.29348 60.03077 39.66213
# Shear Modulus (GPa) = 12.30119 30.02236 21.16178
#
# Velocity S-wave (km/s) = 2.46741 3.85469 3.23626
# Velocity P-wave (km/s) = 4.20312 7.03719 5.79604
#
# Compressibility (1/GPa) = 0.05183098
#
# Stress axis : x y z
#
# Youngs Moduli (GPa) = 41.56182 47.24193 19.83242
#
# Poissons Ratio (x) = 0.39827 -0.21911
# Poissons Ratio (y) = 0.35038 0.48644
# Poissons Ratio (z) = -0.45918 1.15873
#
# Static dielectric constant tensor:
#      x y z
#    x 1.786590 -0.015690 -0.018380 
#    y -0.015690 1.747280 -0.006560 
#    z -0.018380 -0.006560 1.727980 
# 
# From -- ./inp_files/175227.got.cif
#   From: 2010.05.17/outbox.cif.g08.bks.cpg/sg2_88_cif.got.tgz:175227.got - 2010.06.03 11:33:40.
