data_PCOD9086384
_publ_section_title
;
Structure prediction by ZEFSAII (Michael W. Deem and Ramdas Pophale) SiO2 
 PCOD9086384
Probable space group: P -1
;
_chemical_formula_sum "Si O2"
_cell_formula_units_Z 16
_cell_length_a 12.159715
_cell_length_b 7.228371
_cell_length_c 8.189875
_cell_angle_alpha 67.538499
_cell_angle_beta 111.623714
_cell_angle_gamma 108.444872
_cell_volume 605.365239
_symmetry_space_group_name_H-M "P -1"
_symmetry_group_IT_number 2
_symmetry_cell_setting 'triclinic'
loop_
_space_group_symop_operation_xyz
x,y,z
-x,-y,-z
loop_
_atom_site_type_symbol
_atom_site_label
_atom_site_fract_x
_atom_site_fract_y
_atom_site_fract_z
Si Si1 0.379210 0.181944 0.705882
Si Si2 0.233543 0.757026 0.740143
Si Si3 0.785113 0.608997 0.602171
Si Si4 0.318074 0.228175 0.021672
Si Si5 0.978611 0.951585 0.699933
Si Si6 0.806389 0.219141 0.943765
Si Si7 0.474593 0.861536 0.689969
Si Si8 0.897628 0.628537 0.294912
O O1 0.351553 0.360581 0.514340
O O2 0.380739 0.243478 0.872560
O O3 0.255426 0.003953 0.670904
O O4 0.476049 0.044925 0.762861
O O5 0.264286 0.721313 0.956368
O O6 0.339697 0.729169 0.683637
O O7 0.107598 0.609048 0.670261
O O8 0.844042 0.628319 0.447125
O O9 0.853706 0.790358 0.695621
O O10 0.812675 0.403130 0.762033
O O11 0.204844 0.331517 0.900966
O O12 0.261218 0.990279 0.101613
O O13 0.427806 0.278246 0.188662
O O14 0.075646 0.838657 0.882590
O O15 0.995120 0.173092 0.722502
O O16 0.000000 0.000000 0.500000
O O17 0.500000 0.000000 0.500000
#
# Coordination Sequence:
#
# PCOD9086384 Si02
#       8
#     2   2   2   2   2   2   2   2
#     4   8  19  36  54  75 111 146 176 220 270 316
#     4   9  20  36  52  78 114 139 177 219 282 308
#     4  10  19  36  58  81 108 143 186 220 256 325
#     4   9  18  36  55  76 108 148 179 219 269 323
#     4   9  18  36  59  81 108 146 180 214 265 327
#     4  10  20  33  59  83 110 141 181 221 265 316
#     4  10  21  34  58  78 108 140 186 224 273 314
#     4   9  19  35  56  81 110 144 179 220 273 315
#
# _framework density 26.430326000000001
#
# number of rings (size 3 to 8) (size 9 to 14) (size 15 to 20)
#    0.750    2.000    0.000    3.000    1.750    1.500 
#    0.000    6.875    0.000    0.000    0.000    0.000 
#    0.000    0.000    0.000    0.000    0.000    0.000 
#
# Total GULP energy -89222.243778 kJ/mol
# GULP energy per Si atom -5576.390236 kJ/mol
# Density = 2.637017 g / cm^3
# Si number density = 26.430326 Si / 1000 Ang^3
#
#
#
# Elastic Constant Matrix: (Units=GPa)
#
#
# Indices 1 2 3 4 5 6 
#
# 1 34.1697 1.9175 31.9063 -5.4456 13.7540 7.9515
# 2 1.9175 105.9727 29.1924 -9.5288 -6.2286 1.4507
# 3 31.9063 29.1924 136.8093 -37.7703 30.6523 5.8491
# 4 -5.4456 -9.5288 -37.7703 31.4439 -7.3858 0.5705
# 5 13.7540 -6.2286 30.6523 -7.3858 39.7714 1.1771
# 6 7.9515 1.4507 5.8491 0.5705 1.1771 25.0465
#
#
#
# Elastic Compliance Matrix: (Units=1/GPa)
#
#
# Indices 1 2 3 4 5 6 
#
# 1 0.042975 0.001014 -0.009400 -0.005246 -0.008106 -0.011006
# 2 0.001014 0.010580 -0.003234 0.000417 0.003887 -0.000372
# 3 -0.009400 -0.003234 0.015798 0.014812 -0.006664 -0.000542
# 4 -0.005246 0.000417 0.014812 0.048774 -0.000393 -0.002910
# 5 -0.008106 0.003887 -0.006664 -0.000393 0.033550 0.002337
# 6 -0.011006 -0.000372 -0.000542 -0.002910 0.002337 0.043524
#
#
# Mechanical properties :
#
#
# Convention : Reuss Voigt Hill
#
# Bulk Modulus (GPa) = 21.68636 44.77603 33.23119
# Shear Modulus (GPa) = 21.38482 33.51472 27.44977
#
# Velocity S-wave (km/s) = 2.84756 3.56482 3.22618
# Velocity P-wave (km/s) = 4.36284 5.82425 5.14569
#
# Compressibility (1/GPa) = 0.04611194
#
# Stress axis : x y z
#
# Youngs Moduli (GPa) = 23.26955 94.51830 63.30096
#
# Poissons Ratio (x) = -0.09588 0.59506
# Poissons Ratio (y) = -0.02361 0.20472
# Poissons Ratio (z) = 0.21875 0.30568
#
# Static dielectric constant tensor:
#      x y z
#    x 2.175080 -0.031750 0.042970 
#    y -0.031750 2.121020 -0.032970 
#    z 0.042970 -0.032970 2.088730 
# 
# From -- ./inp_files/327220.got.cif
#   From: 2010.05.17/outbox.cif.g08.bks.cpg/sg2_164_cif.got.tgz:327220.got - 2010.06.03 11:33:40.
