data_PCOD9086449
_publ_section_title
;
Structure prediction by ZEFSAII (Michael W. Deem and Ramdas Pophale) SiO2 
 PCOD9086449
Probable space group: P -1
;
_chemical_formula_sum "Si O2"
_cell_formula_units_Z 12
_cell_length_a 6.161070
_cell_length_b 13.213574
_cell_length_c 10.657852
_cell_angle_alpha 39.241107
_cell_angle_beta 90.582574
_cell_angle_gamma 76.919958
_cell_volume 509.836928
_symmetry_space_group_name_H-M "P -1"
_symmetry_group_IT_number 2
_symmetry_cell_setting 'triclinic'
loop_
_space_group_symop_operation_xyz
x,y,z
-x,-y,-z
loop_
_atom_site_type_symbol
_atom_site_label
_atom_site_fract_x
_atom_site_fract_y
_atom_site_fract_z
Si Si1 0.878156 0.482295 0.887699
Si Si2 0.101893 0.295790 0.542036
Si Si3 0.358014 0.393211 0.662910
Si Si4 0.881093 0.066449 0.634317
Si Si5 0.305055 0.773918 0.773797
Si Si6 0.338248 0.190957 0.081268
O O1 0.317025 0.592304 0.004560
O O2 0.810821 0.648878 0.640819
O O3 0.000000 0.500000 0.000000
O O4 0.078881 0.333326 0.956297
O O5 0.871747 0.454134 0.433654
O O6 0.014823 0.141819 0.660739
O O7 0.286866 0.283919 0.661982
O O8 0.500000 0.500000 0.500000
O O9 0.460986 0.261288 0.905420
O O10 0.746098 0.206793 0.392894
O O11 0.704034 0.985096 0.769426
O O12 0.081274 0.917401 0.701342
O O13 0.526635 0.813321 0.784135
#
# Coordination Sequence:
#
# PCOD9086449 Si02
#       6
#     2   2   2   2   2   2
#     4  10  19  36  58  86 113 146 186 229 285 331
#     4  10  21  39  60  83 114 147 190 233 279 333
#     4  10  22  41  59  80 111 151 194 237 273 326
#     4  10  21  37  57  85 116 152 181 229 290 333
#     4  10  20  37  57  83 123 148 180 229 282 343
#     4  10  22  37  57  85 115 149 190 230 278 337
#
# _framework density 23.536937999999999
#
# number of rings (size 3 to 8) (size 9 to 14) (size 15 to 20)
#    0.000    2.000    1.667    1.500    0.000    4.000 
#    3.000    1.667    0.000    0.000    0.000    0.000 
#    0.000    0.000    0.000    0.000    0.000    0.000 
#
# Total GULP energy -67057.069209 kJ/mol
# GULP energy per Si atom -5588.089101 kJ/mol
# Density = 2.348337 g / cm^3
# Si number density = 23.536938 Si / 1000 Ang^3
#
#
#
# Elastic Constant Matrix: (Units=GPa)
#
#
# Indices 1 2 3 4 5 6 
#
# 1 94.3904 25.5512 35.6923 -1.7505 -29.1697 24.7067
# 2 25.5512 67.6187 19.3101 12.7379 -16.6900 19.7044
# 3 35.6923 19.3101 72.1604 10.2453 -27.4342 3.8388
# 4 -1.7505 12.7379 10.2453 23.7134 6.3329 0.7188
# 5 -29.1697 -16.6900 -27.4342 6.3329 38.5417 -9.7071
# 6 24.7067 19.7044 3.8388 0.7188 -9.7071 53.9604
#
#
#
# Elastic Compliance Matrix: (Units=1/GPa)
#
#
# Indices 1 2 3 4 5 6 
#
# 1 0.016570 -0.002410 -0.005705 0.003681 0.005481 -0.005364
# 2 -0.002410 0.022091 0.001544 -0.015248 0.010073 -0.005058
# 3 -0.005705 0.001544 0.025448 -0.017230 0.018240 0.003749
# 4 0.003681 -0.015248 -0.017230 0.065297 -0.026965 -0.000612
# 5 0.005481 0.010073 0.018240 -0.026965 0.052452 0.002310
# 6 -0.005364 -0.005058 0.003749 -0.000612 0.002310 0.022992
#
#
# Mechanical properties :
#
#
# Convention : Reuss Voigt Hill
#
# Bulk Modulus (GPa) = 19.62010 43.91963 31.76987
# Shear Modulus (GPa) = 21.27843 33.48417 27.38130
#
# Velocity S-wave (km/s) = 3.00999 3.77586 3.41447
# Velocity P-wave (km/s) = 4.52040 6.14084 5.39184
#
# Compressibility (1/GPa) = 0.05096814
#
# Stress axis : x y z
#
# Youngs Moduli (GPa) = 60.35101 45.26703 39.29558
#
# Poissons Ratio (x) = 0.10908 0.22417
# Poissons Ratio (y) = 0.14543 -0.06067
# Poissons Ratio (z) = 0.34428 -0.06989
#
# Static dielectric constant tensor:
#      x y z
#    x 1.893010 -0.031210 -0.026360 
#    y -0.031210 1.906280 -0.010070 
#    z -0.026360 -0.010070 1.906080 
# 
# From -- ./inp_files/365557.got.cif
#   From: 2010.05.17/outbox.cif.g08.bks.cpg/sg2_183_cif.got.tgz:365557.got - 2010.06.03 11:33:40.
