data_PCOD9086591
_publ_section_title
;
Structure prediction by ZEFSAII (Michael W. Deem and Ramdas Pophale) SiO2 
 PCOD9086591
Probable space group: P -1
;
_chemical_formula_sum "Si O2"
_cell_formula_units_Z 16
_cell_length_a 10.175025
_cell_length_b 9.664553
_cell_length_c 12.337784
_cell_angle_alpha 121.642159
_cell_angle_beta 130.745228
_cell_angle_gamma 79.468180
_cell_volume 758.199358
_symmetry_space_group_name_H-M "P -1"
_symmetry_group_IT_number 2
_symmetry_cell_setting 'triclinic'
loop_
_space_group_symop_operation_xyz
x,y,z
-x,-y,-z
loop_
_atom_site_type_symbol
_atom_site_label
_atom_site_fract_x
_atom_site_fract_y
_atom_site_fract_z
Si Si1 0.429072 0.030120 0.591039
Si Si2 0.182816 0.510238 0.880298
Si Si3 0.076635 0.125462 0.937153
Si Si4 0.854580 0.498677 0.826109
Si Si5 0.759734 0.092469 0.909054
Si Si6 0.148699 0.400824 0.574883
Si Si7 0.530143 0.413428 0.755710
Si Si8 0.960803 0.991633 0.603198
O O1 0.558567 0.991377 0.736065
O O2 0.458320 0.230907 0.694310
O O3 0.223141 0.951897 0.462474
O O4 0.500000 0.000000 0.500000
O O5 0.203505 0.438540 0.745245
O O6 0.970501 0.451734 0.771926
O O7 0.219747 0.712178 0.977439
O O8 0.327837 0.481648 0.036170
O O9 0.873073 0.085920 0.857119
O O10 0.160620 0.309402 0.106135
O O11 0.087916 0.109175 0.807465
O O12 0.159824 0.990571 0.984842
O O13 0.659662 0.397301 0.717729
O O14 0.000000 0.500000 0.000000
O O15 0.344068 0.460030 0.645339
O O16 0.068224 0.198930 0.444488
O O17 0.000000 0.500000 0.500000
O O18 0.000000 0.000000 0.500000
#
# Coordination Sequence:
#
# PCOD9086591 Si02
#       8
#     2   2   2   2   2   2   2   2
#     4  10  19  37  61  83 112 150 193 238 285 351
#     4   9  18  35  61  83 110 147 194 232 282 343
#     4  10  19  36  59  85 117 146 192 241 287 344
#     4   9  19  34  60  85 108 143 195 242 282 325
#     4   9  18  35  61  87 107 151 197 240 282 334
#     4  11  23  40  58  82 120 159 190 236 289 347
#     4   9  20  36  58  85 107 151 196 227 281 347
#     4  11  25  38  58  88 122 156 189 237 303 347
#
# _framework density 21.102630000000001
#
# number of rings (size 3 to 8) (size 9 to 14) (size 15 to 20)
#    0.000    2.250    1.250    1.875    3.500    0.000 
#    2.250    1.250    0.000    0.000    0.000    0.000 
#    0.000    0.000    0.000    0.000    0.000    0.000 
#
# Total GULP energy -89142.916644 kJ/mol
# GULP energy per Si atom -5571.432290 kJ/mol
# Density = 2.105460 g / cm^3
# Si number density = 21.102630 Si / 1000 Ang^3
#
#
#
# Elastic Constant Matrix: (Units=GPa)
#
#
# Indices 1 2 3 4 5 6 
#
# 1 97.8804 3.6788 19.0950 -6.0279 5.4313 -6.0455
# 2 3.6788 63.1116 12.8392 4.1158 17.7732 -7.9382
# 3 19.0950 12.8392 56.8519 0.8785 1.8919 -7.4079
# 4 -6.0279 4.1158 0.8785 5.7995 -3.2834 1.7903
# 5 5.4313 17.7732 1.8919 -3.2834 34.9319 -3.4786
# 6 -6.0455 -7.9382 -7.4079 1.7903 -3.4786 26.4111
#
#
#
# Elastic Compliance Matrix: (Units=1/GPa)
#
#
# Indices 1 2 3 4 5 6 
#
# 1 0.011865 -0.000694 -0.003970 0.013285 0.000021 0.000496
# 2 -0.000694 0.022602 -0.003300 -0.025404 -0.013032 0.005715
# 3 -0.003970 -0.003300 0.020279 -0.005560 0.001105 0.004310
# 4 0.013285 -0.025404 -0.005560 0.227988 0.030843 -0.017547
# 5 0.000021 -0.013032 0.001105 0.030843 0.038026 -0.000685
# 6 0.000496 0.005715 0.004310 -0.017547 -0.000685 0.042002
#
#
# Mechanical properties :
#
#
# Convention : Reuss Voigt Hill
#
# Bulk Modulus (GPa) = 25.76142 32.11887 28.94015
# Shear Modulus (GPa) = 12.76719 25.57721 19.17220
#
# Velocity S-wave (km/s) = 2.46235 3.48521 3.01744
# Velocity P-wave (km/s) = 4.50760 5.60794 5.08760
#
# Compressibility (1/GPa) = 0.03881773
#
# Stress axis : x y z
#
# Youngs Moduli (GPa) = 84.28415 44.24301 49.31221
#
# Poissons Ratio (x) = 0.03071 0.19575
# Poissons Ratio (y) = 0.05850 0.16275
# Poissons Ratio (z) = 0.33458 0.14602
#
# Static dielectric constant tensor:
#      x y z
#    x 1.829640 0.009170 0.040780 
#    y 0.009170 1.822570 -0.000160 
#    z 0.040780 -0.000160 1.822240 
# 
# From -- ./inp_files/175209.got.cif
#   From: 2010.05.17/outbox.cif.g08.bks.cpg/sg2_88_cif.got.tgz:175209.got - 2010.06.03 11:33:40.
