data_PCOD9086555
_publ_section_title
;
Structure prediction by ZEFSAII (Michael W. Deem and Ramdas Pophale) SiO2 
 PCOD9086555
Probable space group: P -1
;
_chemical_formula_sum "Si O2"
_cell_formula_units_Z 16
_cell_length_a 8.367934
_cell_length_b 14.474433
_cell_length_c 11.225484
_cell_angle_alpha 56.379578
_cell_angle_beta 45.167551
_cell_angle_gamma 86.491214
_cell_volume 666.627819
_symmetry_space_group_name_H-M "P -1"
_symmetry_group_IT_number 2
_symmetry_cell_setting 'triclinic'
loop_
_space_group_symop_operation_xyz
x,y,z
-x,-y,-z
loop_
_atom_site_type_symbol
_atom_site_label
_atom_site_fract_x
_atom_site_fract_y
_atom_site_fract_z
Si Si1 0.035401 0.867546 0.331195
Si Si2 0.661291 0.275896 0.438969
Si Si3 0.959290 0.732219 0.922173
Si Si4 0.279413 0.367191 0.635375
Si Si5 0.643128 0.430834 0.726170
Si Si6 0.994792 0.388694 0.410726
Si Si7 0.310626 0.028404 0.501357
Si Si8 0.499329 0.986701 0.824600
O O1 0.939091 0.722192 0.531580
O O2 0.270330 0.970745 0.227268
O O3 0.795627 0.890452 0.439274
O O4 0.201020 0.899958 0.098700
O O5 0.426266 0.301580 0.548732
O O6 0.885684 0.379072 0.343070
O O7 0.550344 0.126715 0.650899
O O8 0.819265 0.294259 0.221364
O O9 0.049403 0.878122 0.727288
O O10 0.927638 0.722869 0.087850
O O11 0.671334 0.632440 0.081940
O O12 0.500000 0.500000 0.500000
O O13 0.199199 0.427307 0.529384
O O14 0.738773 0.349665 0.659754
O O15 0.754974 0.471151 0.771434
O O16 0.450064 0.081661 0.262701
O O17 0.500000 0.000000 0.500000
#
# Coordination Sequence:
#
# PCOD9086555 Si02
#       8
#     2   2   2   2   2   2   2   2
#     4  10  21  39  66  86 121 162 196 243 304 359
#     4  10  19  37  61  90 118 152 200 241 292 363
#     4  10  22  38  64  84 118 161 193 241 303 353
#     4  10  19  36  59  82 116 159 197 240 289 347
#     4  10  22  39  60  85 122 156 199 249 293 348
#     4  10  21  39  59  91 119 152 202 250 289 347
#     4  11  24  40  61  94 125 150 199 254 296 357
#     4   9  21  38  64  93 117 159 199 240 303 365
#
# _framework density 24.0014
#
# number of rings (size 3 to 8) (size 9 to 14) (size 15 to 20)
#    0.000    2.000    2.500    1.125    3.500    6.000 
#    0.000    0.000    0.000    0.000    0.000    0.000 
#    0.000    0.000    0.000    0.000    0.000    0.000 
#
# Total GULP energy -89493.825392 kJ/mol
# GULP energy per Si atom -5593.364087 kJ/mol
# Density = 2.394677 g / cm^3
# Si number density = 24.001400 Si / 1000 Ang^3
#
#
#
# Elastic Constant Matrix: (Units=GPa)
#
#
# Indices 1 2 3 4 5 6 
#
# 1 61.8406 25.8171 25.9334 14.4577 -12.4671 -9.9782
# 2 25.8171 105.2615 43.6854 37.8572 -7.0377 -19.8806
# 3 25.9334 43.6854 92.8486 38.7322 -7.8029 -8.5374
# 4 14.4577 37.8572 38.7322 36.9063 4.5681 -6.5535
# 5 -12.4671 -7.0377 -7.8029 4.5681 21.8296 3.7205
# 6 -9.9782 -19.8806 -8.5374 -6.5535 3.7205 43.7594
#
#
#
# Elastic Compliance Matrix: (Units=1/GPa)
#
#
# Indices 1 2 3 4 5 6 
#
# 1 0.021764 -0.000822 -0.001229 -0.007623 0.012962 0.002106
# 2 -0.000822 0.017554 0.001115 -0.019172 0.008854 0.004381
# 3 -0.001229 0.001115 0.022500 -0.025981 0.013205 -0.000397
# 4 -0.007623 -0.019172 -0.025981 0.081546 -0.036857 -0.000171
# 5 0.012962 0.008854 0.013205 -0.036857 0.068809 -0.001816
# 6 0.002106 0.004381 -0.000397 -0.000171 -0.001816 0.025374
#
#
# Mechanical properties :
#
#
# Convention : Reuss Voigt Hill
#
# Bulk Modulus (GPa) = 16.68160 50.09138 33.38649
# Shear Modulus (GPa) = 19.27525 31.46669 25.37097
#
# Velocity S-wave (km/s) = 2.83696 3.62475 3.25478
# Velocity P-wave (km/s) = 4.20671 6.19951 5.29766
#
# Compressibility (1/GPa) = 0.05994627
#
# Stress axis : x y z
#
# Youngs Moduli (GPa) = 45.94657 56.96856 44.44474
#
# Poissons Ratio (x) = 0.04682 0.05463
# Poissons Ratio (y) = 0.03776 -0.04957
# Poissons Ratio (z) = 0.05648 -0.06354
#
# Static dielectric constant tensor:
#      x y z
#    x 1.932680 0.052700 0.005100 
#    y 0.052700 1.929480 -0.001120 
#    z 0.005100 -0.001120 1.942840 
# 
# From -- ./inp_files/398735.got.cif
#   From: 2010.05.17/outbox.cif.g08.bks.cpg/sg2_200_cif.got.tgz:398735.got - 2010.06.03 11:33:40.
