data_PCOD9086342
_publ_section_title
;
Structure prediction by ZEFSAII (Michael W. Deem and Ramdas Pophale) SiO2 
 PCOD9086342
Probable space group: P -1
;
_chemical_formula_sum "Si O2"
_cell_formula_units_Z 16
_cell_length_a 7.109249
_cell_length_b 19.398907
_cell_length_c 5.369929
_cell_angle_alpha 112.222963
_cell_angle_beta 76.065446
_cell_angle_gamma 78.174527
_cell_volume 628.241543
_symmetry_space_group_name_H-M "P -1"
_symmetry_group_IT_number 2
_symmetry_cell_setting 'triclinic'
loop_
_space_group_symop_operation_xyz
x,y,z
-x,-y,-z
loop_
_atom_site_type_symbol
_atom_site_label
_atom_site_fract_x
_atom_site_fract_y
_atom_site_fract_z
Si Si1 0.346625 0.560556 0.818531
Si Si2 0.386533 0.058930 0.902789
Si Si3 0.735840 0.301633 0.266913
Si Si4 0.648299 0.590263 0.163394
Si Si5 0.129226 0.966174 0.659256
Si Si6 0.977106 0.183834 0.442833
Si Si7 0.516005 0.795205 0.929710
Si Si8 0.766926 0.734000 0.259119
O O1 0.500000 0.500000 0.500000
O O2 0.194815 0.635054 0.824082
O O3 0.257833 0.502061 0.922863
O O4 0.496255 0.591999 0.983751
O O5 0.178522 0.124840 0.160693
O O6 0.527172 0.113021 0.880984
O O7 0.500000 0.000000 0.000000
O O8 0.307103 0.006336 0.667069
O O9 0.516256 0.359783 0.514697
O O10 0.674057 0.236611 0.044382
O O11 0.869728 0.256617 0.392707
O O12 0.798008 0.641214 0.155397
O O13 0.158373 0.873017 0.545548
O O14 0.000000 0.000000 0.500000
O O15 0.000000 0.000000 0.000000
O O16 0.064866 0.222378 0.695034
O O17 0.608418 0.774635 0.592160
O O18 0.671431 0.753430 0.042424
#
# Coordination Sequence:
#
# PCOD9086342 Si02
#       8
#     2   2   2   2   2   2   2   2
#     4   9  17  33  60  86 118 148 199 238 287 352
#     4  10  21  40  61  86 117 160 202 247 298 357
#     4  10  19  36  57  89 118 157 198 248 296 348
#     4   9  18  34  58  89 113 158 197 239 286 354
#     4  10  21  41  61  87 118 157 198 252 304 354
#     4  10  22  39  57  88 122 155 198 252 302 350
#     4  10  20  37  59  85 115 157 203 246 293 353
#     4  10  20  38  58  88 119 158 196 245 291 356
#
# _framework density 25.467908000000001
#
# number of rings (size 3 to 8) (size 9 to 14) (size 15 to 20)
#    0.000    2.250    1.250    1.500    0.000    0.000 
#    9.000   19.375    0.000    6.750    0.000    0.000 
#    0.000    0.000    0.000    0.000    0.000    0.000 
#
# Total GULP energy -89412.050271 kJ/mol
# GULP energy per Si atom -5588.253142 kJ/mol
# Density = 2.540994 g / cm^3
# Si number density = 25.467908 Si / 1000 Ang^3
#
#
#
# Elastic Constant Matrix: (Units=GPa)
#
#
# Indices 1 2 3 4 5 6 
#
# 1 114.4148 42.7416 14.3146 -0.7916 12.6791 37.5866
# 2 42.7416 166.3686 7.5905 -8.2686 4.8124 18.3386
# 3 14.3146 7.5905 88.3594 12.1332 12.4845 17.6208
# 4 -0.7916 -8.2686 12.1332 51.5264 -2.7466 16.6899
# 5 12.6791 4.8124 12.4845 -2.7466 43.9801 5.6734
# 6 37.5866 18.3386 17.6208 16.6899 5.6734 51.0173
#
#
#
# Elastic Compliance Matrix: (Units=1/GPa)
#
#
# Indices 1 2 3 4 5 6 
#
# 1 0.012856 -0.002063 -0.000132 0.002826 -0.002056 -0.009381
# 2 -0.002063 0.006774 -0.000215 0.001561 0.000189 -0.001372
# 3 -0.000132 -0.000215 0.012751 -0.002196 -0.003289 -0.003145
# 4 0.002826 0.001561 -0.002196 0.023535 0.002378 -0.009849
# 5 -0.002056 0.000189 -0.003289 0.002378 0.024511 -0.000920
# 6 -0.009381 -0.001372 -0.003145 -0.009849 -0.000920 0.031416
#
#
# Mechanical properties :
#
#
# Convention : Reuss Voigt Hill
#
# Bulk Modulus (GPa) = 36.28403 55.38179 45.83291
# Shear Modulus (GPa) = 39.72960 49.60449 44.66704
#
# Velocity S-wave (km/s) = 3.95395 4.41809 4.19245
# Velocity P-wave (km/s) = 5.92645 6.91513 6.43979
#
# Compressibility (1/GPa) = 0.02756033
#
# Stress axis : x y z
#
# Youngs Moduli (GPa) = 77.78228 147.62522 78.42653
#
# Poissons Ratio (x) = 0.30454 0.01039
# Poissons Ratio (y) = 0.16046 0.01686
# Poissons Ratio (z) = 0.01030 0.03174
#
# Static dielectric constant tensor:
#      x y z
#    x 2.121830 0.073520 -0.298360 
#    y 0.073520 2.011390 -0.053150 
#    z -0.298360 -0.053150 2.618890 
# 
# From -- ./inp_files/45472.got.cif
#   From: 2010.05.17/outbox.cif.g08.bks.cpg/sg2_23_cif.got.tgz:45472.got - 2010.06.03 11:33:40.
