data_PCOD9086258
_publ_section_title
;
Structure prediction by ZEFSAII (Michael W. Deem and Ramdas Pophale) SiO2 
 PCOD9086258
Probable space group: P -1
;
_chemical_formula_sum "Si O2"
_cell_formula_units_Z 15
_cell_length_a 8.776494
_cell_length_b 6.975971
_cell_length_c 16.281595
_cell_angle_alpha 86.514716
_cell_angle_beta 45.221026
_cell_angle_gamma 103.836740
_cell_volume 647.930133
_symmetry_space_group_name_H-M "P -1"
_symmetry_group_IT_number 2
_symmetry_cell_setting 'triclinic'
loop_
_space_group_symop_operation_xyz
x,y,z
-x,-y,-z
loop_
_atom_site_type_symbol
_atom_site_label
_atom_site_fract_x
_atom_site_fract_y
_atom_site_fract_z
Si Si1 0.249872 0.160985 0.574440
Si Si2 0.738509 0.194978 0.602706
Si Si3 0.357363 0.542775 0.854001
Si Si4 0.083902 0.782288 0.887058
Si Si5 0.290469 0.242117 0.735429
Si Si6 0.000000 0.000000 0.500000
Si Si7 0.772469 0.288390 0.345535
Si Si8 0.846292 0.560190 0.676483
O O1 0.187227 0.236701 0.684101
O O2 0.520450 0.299567 0.445347
O O3 0.082345 0.122269 0.560909
O O4 0.247751 0.934264 0.603765
O O5 0.540705 0.224936 0.624165
O O6 0.764616 0.345085 0.663740
O O7 0.991969 0.260867 0.455951
O O8 0.717733 0.963360 0.626786
O O9 0.250247 0.718669 0.886654
O O10 0.336073 0.433143 0.774810
O O11 0.619937 0.599980 0.784553
O O12 0.178257 0.355615 0.982559
O O13 0.134668 0.710767 0.780684
O O14 0.148066 0.028675 0.845758
O O15 0.978518 0.441839 0.320168
#
# Coordination Sequence:
#
# PCOD9086258 Si02
#       8
#     2   2   2   2   2   1   2   2
#     4  10  20  33  54  88 115 148 190 234 295 350
#     4  10  21  33  55  85 115 150 189 229 296 343
#     4  10  23  39  59  88 115 153 205 237 280 346
#     4  10  22  38  61  86 113 159 198 240 287 334
#     4  10  20  41  61  82 121 155 189 242 291 345
#     4  12  20  32  54  84 118 146 184 230 280 360
#     4  10  19  36  57  81 118 151 188 238 289 347
#     4  10  20  37  54  80 119 152 184 243 283 340
#
# _framework density 23.150644
#
# number of rings (size 3 to 8) (size 9 to 14) (size 15 to 20)
#    0.000    1.867    2.667    2.000    3.733    1.600 
#    0.000    1.333    0.000    0.000    0.000   16.800 
#    0.000    0.000    0.000    0.000    0.000    0.000 
#
# Total GULP energy -83605.853701 kJ/mol
# GULP energy per Si atom -5573.723580 kJ/mol
# Density = 2.309795 g / cm^3
# Si number density = 23.150644 Si / 1000 Ang^3
#
#
#
# Elastic Constant Matrix: (Units=GPa)
#
#
# Indices 1 2 3 4 5 6 
#
# 1 113.3149 29.0558 17.6944 -5.2955 1.6353 0.0421
# 2 29.0558 50.4579 -9.0066 -1.5758 13.1718 -5.8604
# 3 17.6944 -9.0066 85.4579 -15.2059 -9.0315 -7.5027
# 4 -5.2955 -1.5758 -15.2059 21.2993 9.0016 6.5802
# 5 1.6353 13.1718 -9.0315 9.0016 37.0850 8.9328
# 6 0.0421 -5.8604 -7.5027 6.5802 8.9328 41.8812
#
#
#
# Elastic Compliance Matrix: (Units=1/GPa)
#
#
# Indices 1 2 3 4 5 6 
#
# 1 0.011297 -0.007871 -0.003181 -0.000286 0.002094 -0.002084
# 2 -0.007871 0.029441 0.005289 0.007098 -0.012121 0.006545
# 3 -0.003181 0.005289 0.014756 0.009947 -0.001052 0.002048
# 4 -0.000286 0.007098 0.009947 0.061678 -0.014116 -0.003904
# 5 0.002094 -0.012121 -0.001052 -0.014116 0.036124 -0.007374
# 6 -0.002084 0.006545 0.002048 -0.003904 -0.007374 0.027348
#
#
# Mechanical properties :
#
#
# Convention : Reuss Voigt Hill
#
# Bulk Modulus (GPa) = 22.74349 36.07975 29.41162
# Shear Modulus (GPa) = 24.17488 34.15223 29.16356
#
# Velocity S-wave (km/s) = 3.23498 3.84502 3.55312
# Velocity P-wave (km/s) = 4.87841 5.94398 5.43736
#
# Compressibility (1/GPa) = 0.04396863
#
# Stress axis : x y z
#
# Youngs Moduli (GPa) = 88.51805 33.96625 67.76755
#
# Poissons Ratio (x) = 0.26734 0.21558
# Poissons Ratio (y) = 0.69671 -0.35843
# Poissons Ratio (z) = 0.28159 -0.17965
#
# Static dielectric constant tensor:
#      x y z
#    x 1.973890 -0.114170 0.017540 
#    y -0.114170 2.083670 -0.074040 
#    z 0.017540 -0.074040 1.886890 
# 
# From -- ./inp_files/492887.got.cif
#   From: 2010.05.17/outbox.cif.g08.bks.cpg/sg2_247_cif.got.tgz:492887.got - 2010.06.03 11:33:40.
