data_PCOD9086993
_publ_section_title
;
Structure prediction by ZEFSAII (Michael W. Deem and Ramdas Pophale) SiO2 
 PCOD9086993
Probable space group: P -1
;
_chemical_formula_sum "Si O2"
_cell_formula_units_Z 14
_cell_length_a 14.649030
_cell_length_b 8.651379
_cell_length_c 16.636395
_cell_angle_alpha 134.520369
_cell_angle_beta 25.403572
_cell_angle_gamma 119.414494
_cell_volume 570.923526
_symmetry_space_group_name_H-M "P -1"
_symmetry_group_IT_number 2
_symmetry_cell_setting 'triclinic'
loop_
_space_group_symop_operation_xyz
x,y,z
-x,-y,-z
loop_
_atom_site_type_symbol
_atom_site_label
_atom_site_fract_x
_atom_site_fract_y
_atom_site_fract_z
Si Si1 0.481423 0.435673 0.706003
Si Si2 0.682927 0.711104 0.756060
Si Si3 0.445421 0.065405 0.718172
Si Si4 0.589917 0.705998 0.002838
Si Si5 0.890851 0.829288 0.494089
Si Si6 0.031640 0.377039 0.814706
Si Si7 0.732997 0.312036 0.295603
O O1 0.547934 0.569733 0.773226
O O2 0.470933 0.205466 0.671412
O O3 0.786595 0.411545 0.062874
O O4 0.671252 0.378303 0.462773
O O5 0.889788 0.672598 0.514111
O O6 0.745324 0.653826 0.778771
O O7 0.500000 0.000000 0.000000
O O8 0.357413 0.244855 0.930636
O O9 0.718322 0.844428 0.434632
O O10 0.265650 0.946499 0.810710
O O11 0.375695 0.977233 0.250872
O O12 0.500000 0.500000 0.000000
O O13 0.005349 0.682295 0.269428
O O14 0.000000 0.000000 0.500000
O O15 0.064680 0.620538 0.872833
O O16 0.500000 0.500000 0.500000
#
# Coordination Sequence:
#
# PCOD9086993 Si02
#       7
#     2   2   2   2   2   2   2
#     4  12  22  42  71  89 126 172 205 259 326 368
#     4  10  20  35  65  91 121 168 208 252 321 377
#     4  10  23  40  64  95 128 163 213 264 304 379
#     4  10  19  36  61  87 125 158 200 257 316 364
#     4  10  20  37  61  90 124 160 212 258 308 382
#     4  10  22  41  66  93 125 167 209 259 315 373
#     4  10  23  43  65  92 129 164 214 264 308 374
#
# _framework density 24.521674000000001
#
# number of rings (size 3 to 8) (size 9 to 14) (size 15 to 20)
#    0.000    1.714    2.857    2.143    2.000    2.857 
#    0.000    3.571    9.429    0.000    0.000    0.000 
#    0.000    0.000    0.000    0.000    0.000    0.000 
#
# Total GULP energy -78258.744590 kJ/mol
# GULP energy per Si atom -5589.910328 kJ/mol
# Density = 2.446586 g / cm^3
# Si number density = 24.521674 Si / 1000 Ang^3
#
#
#
# Elastic Constant Matrix: (Units=GPa)
#
#
# Indices 1 2 3 4 5 6 
#
# 1 71.9559 12.4996 20.5602 12.6451 10.1530 -9.1799
# 2 12.4996 95.1365 7.1689 8.0367 6.9998 7.7769
# 3 20.5602 7.1689 73.5466 -4.2540 7.6687 -4.1443
# 4 12.6451 8.0367 -4.2540 37.5776 3.4837 5.0136
# 5 10.1530 6.9998 7.6687 3.4837 43.4850 1.2755
# 6 -9.1799 7.7769 -4.1443 5.0136 1.2755 54.8714
#
#
#
# Elastic Compliance Matrix: (Units=1/GPa)
#
#
# Indices 1 2 3 4 5 6 
#
# 1 0.017376 -0.001493 -0.004611 -0.006263 -0.002602 0.003403
# 2 -0.001493 0.011123 -0.000739 -0.001628 -0.001131 -0.001707
# 3 -0.004611 -0.000739 0.015366 0.003589 -0.001808 0.000208
# 4 -0.006263 -0.001628 0.003589 0.030021 -0.001218 -0.003261
# 5 -0.002602 -0.001131 -0.001808 -0.001218 0.024228 -0.000863
# 6 0.003403 -0.001707 0.000208 -0.003261 -0.000863 0.019369
#
#
# Mechanical properties :
#
#
# Convention : Reuss Voigt Hill
#
# Bulk Modulus (GPa) = 33.13673 35.67737 34.40705
# Shear Modulus (GPa) = 35.40313 40.54749 37.97531
#
# Velocity S-wave (km/s) = 3.80379 4.07078 3.93955
# Velocity P-wave (km/s) = 5.73013 6.05607 5.89535
#
# Compressibility (1/GPa) = 0.03017799
#
# Stress axis : x y z
#
# Youngs Moduli (GPa) = 57.55004 89.90089 65.07967
#
# Poissons Ratio (x) = 0.13424 0.30010
# Poissons Ratio (y) = 0.08594 0.04811
# Poissons Ratio (z) = 0.26538 0.06645
#
# Static dielectric constant tensor:
#      x y z
#    x 1.954740 -0.000270 -0.041940 
#    y -0.000270 1.899690 -0.010610 
#    z -0.041940 -0.010610 2.015540 
# 
# From -- ./inp_files/527798.got.cif
#   From: 2010.05.17/outbox.cif.g08.bks.cpg/sg2_264_cif.got.tgz:527798.got - 2010.06.03 11:33:40.
