data_PCOD9086212
_publ_section_title
;
Structure prediction by ZEFSAII (Michael W. Deem and Ramdas Pophale) SiO2 
 PCOD9086212
Probable space group: P -1
;
_chemical_formula_sum "Si O2"
_cell_formula_units_Z 14
_cell_length_a 25.502546
_cell_length_b 8.644453
_cell_length_c 14.425178
_cell_angle_alpha 140.195738
_cell_angle_beta 20.101782
_cell_angle_gamma 130.434336
_cell_volume 660.202163
_symmetry_space_group_name_H-M "P -1"
_symmetry_group_IT_number 2
_symmetry_cell_setting 'triclinic'
loop_
_space_group_symop_operation_xyz
x,y,z
-x,-y,-z
loop_
_atom_site_type_symbol
_atom_site_label
_atom_site_fract_x
_atom_site_fract_y
_atom_site_fract_z
Si Si1 0.439444 0.544290 0.226643
Si Si2 0.567453 0.651558 0.330466
Si Si3 0.647734 0.072658 0.744778
Si Si4 0.159087 0.291906 0.599863
Si Si5 0.292739 0.999851 0.818689
Si Si6 0.949127 0.175045 0.753595
Si Si7 0.353895 0.335980 0.578216
O O1 0.299979 0.415137 0.412194
O O2 0.368210 0.820345 0.521112
O O3 0.500000 0.500000 0.000000
O O4 0.592263 0.370863 0.953140
O O5 0.411245 0.877169 0.652568
O O6 0.506611 0.405841 0.313250
O O7 0.611433 0.671528 0.373915
O O8 0.707958 0.715200 0.070097
O O9 0.789965 0.941404 0.519227
O O10 0.668488 0.919316 0.542437
O O11 0.500000 0.000000 0.000000
O O12 0.106711 0.216317 0.553552
O O13 0.000000 0.500000 0.000000
O O14 0.126670 0.961040 0.105209
O O15 0.807139 0.436202 0.081194
O O16 0.000000 0.000000 0.500000
#
# Coordination Sequence:
#
# PCOD9086212 Si02
#       7
#     2   2   2   2   2   2   2
#     4  11  23  38  64  95 119 155 211 257 298 363
#     4   9  19  33  61  78 118 155 184 255 311 336
#     4  10  20  35  62  88 116 158 208 248 293 365
#     4  11  20  41  63  83 125 170 197 248 311 359
#     4  10  20  38  56  87 124 155 202 253 304 353
#     4  11  23  37  59  86 117 165 207 243 301 377
#     4  10  19  36  56  89 116 153 210 246 295 366
#
# _framework density 21.205624
#
# number of rings (size 3 to 8) (size 9 to 14) (size 15 to 20)
#    0.000    1.714    2.857    3.429    0.000   11.429 
#    0.000    2.857    0.000    0.000    0.000    0.000 
#    0.000    0.000    0.000    0.000    0.000    0.000 
#
# Total GULP energy -78072.221695 kJ/mol
# GULP energy per Si atom -5576.587264 kJ/mol
# Density = 2.115736 g / cm^3
# Si number density = 21.205624 Si / 1000 Ang^3
#
#
#
# Elastic Constant Matrix: (Units=GPa)
#
#
# Indices 1 2 3 4 5 6 
#
# 1 134.2762 18.0696 18.3497 4.9121 -3.1793 9.6502
# 2 18.0696 81.2676 13.7982 -3.5547 -0.9345 0.3536
# 3 18.3497 13.7982 65.3531 3.4007 5.0198 -0.4990
# 4 4.9121 -3.5547 3.4007 17.6748 3.9639 5.0880
# 5 -3.1793 -0.9345 5.0198 3.9639 33.6540 2.6342
# 6 9.6502 0.3536 -0.4990 5.0880 2.6342 41.8820
#
#
#
# Elastic Compliance Matrix: (Units=1/GPa)
#
#
# Indices 1 2 3 4 5 6 
#
# 1 0.008157 -0.001542 -0.001981 -0.002010 0.001396 -0.001734
# 2 -0.001542 0.013245 -0.002569 0.003611 0.000199 -0.000238
# 3 -0.001981 -0.002569 0.016756 -0.002973 -0.002501 0.001196
# 4 -0.002010 0.003611 -0.002973 0.061801 -0.006400 -0.006708
# 5 0.001396 0.000199 -0.002501 -0.006400 0.031098 -0.001531
# 6 -0.001734 -0.000238 0.001196 -0.006708 -0.001531 0.025204
#
#
# Mechanical properties :
#
#
# Convention : Reuss Voigt Hill
#
# Bulk Modulus (GPa) = 38.49694 42.37020 40.43357
# Shear Modulus (GPa) = 28.23257 34.02080 31.12668
#
# Velocity S-wave (km/s) = 3.65276 4.00975 3.83541
# Velocity P-wave (km/s) = 5.99864 6.43906 6.22275
#
# Compressibility (1/GPa) = 0.02597609
#
# Stress axis : x y z
#
# Youngs Moduli (GPa) = 122.60007 75.49925 59.68054
#
# Poissons Ratio (x) = 0.11639 0.11820
# Poissons Ratio (y) = 0.18900 0.15329
# Poissons Ratio (z) = 0.24282 0.19393
#
# Static dielectric constant tensor:
#      x y z
#    x 1.890840 0.033540 0.042500 
#    y 0.033540 1.821670 0.026960 
#    z 0.042500 0.026960 1.793960 
# 
# From -- ./inp_files/279113.got.cif
#   From: 2010.05.17/outbox.cif.g08.bks.cpg/sg2_140_cif.got.tgz:279113.got - 2010.06.03 11:33:40.
