data_PCOD9086152
_publ_section_title
;
Structure prediction by ZEFSAII (Michael W. Deem and Ramdas Pophale) SiO2 
 PCOD9086152
Probable space group: P -1
;
_chemical_formula_sum "Si O2"
_cell_formula_units_Z 16
_cell_length_a 7.727570
_cell_length_b 12.074871
_cell_length_c 11.026657
_cell_angle_alpha 58.235733
_cell_angle_beta 63.059248
_cell_angle_gamma 68.596826
_cell_volume 768.924989
_symmetry_space_group_name_H-M "P -1"
_symmetry_group_IT_number 2
_symmetry_cell_setting 'triclinic'
loop_
_space_group_symop_operation_xyz
x,y,z
-x,-y,-z
loop_
_atom_site_type_symbol
_atom_site_label
_atom_site_fract_x
_atom_site_fract_y
_atom_site_fract_z
Si Si1 0.719859 0.578527 0.961669
Si Si2 0.945092 0.288151 0.267152
Si Si3 0.069412 0.093052 0.528149
Si Si4 0.545556 0.615150 0.746720
Si Si5 0.529462 0.364683 0.495670
Si Si6 0.274657 0.877240 0.736917
Si Si7 0.347728 0.881902 0.239889
Si Si8 0.460396 0.864324 0.933350
O O1 0.687011 0.552233 0.844577
O O2 0.583032 0.717913 0.959561
O O3 0.939989 0.604756 0.885686
O O4 0.637441 0.465363 0.127557
O O5 0.091791 0.217023 0.366945
O O6 0.743919 0.330838 0.381798
O O7 0.899262 0.191190 0.228685
O O8 0.879947 0.123903 0.657312
O O9 0.000000 0.000000 0.500000
O O10 0.248291 0.014403 0.593235
O O11 0.614525 0.610044 0.589425
O O12 0.464281 0.769213 0.707386
O O13 0.500000 0.500000 0.500000
O O14 0.524390 0.239659 0.656581
O O15 0.291745 0.890733 0.867911
O O16 0.407029 0.019776 0.187288
O O17 0.383927 0.871772 0.090916
#
# Coordination Sequence:
#
# PCOD9086152 Si02
#       8
#     2   2   2   2   2   2   2   2
#     4  10  19  36  56  78 109 138 175 223 267 315
#     4   9  19  34  56  81 103 139 179 215 268 321
#     4   9  17  33  51  73 105 136 169 216 262 307
#     4   9  20  34  55  82 105 139 179 217 265 319
#     4  10  20  37  56  77 109 142 175 219 265 315
#     4   9  18  32  52  79 104 134 177 220 263 307
#     4  10  21  35  53  77 105 142 180 212 270 325
#     4  10  20  34  53  77 106 141 177 221 267 314
#
# _framework density 20.80827
#
# number of rings (size 3 to 8) (size 9 to 14) (size 15 to 20)
#    0.000    2.500    0.000    3.000    0.000    3.500 
#    0.000   13.750    0.000    4.500    0.000    0.000 
#    0.000    0.000    0.000    0.000    0.000    0.000 
#
# Total GULP energy -89140.177932 kJ/mol
# GULP energy per Si atom -5571.261121 kJ/mol
# Density = 2.076091 g / cm^3
# Si number density = 20.808270 Si / 1000 Ang^3
#
#
#
# Elastic Constant Matrix: (Units=GPa)
#
#
# Indices 1 2 3 4 5 6 
#
# 1 70.3012 9.5309 47.8335 -1.8447 16.1093 11.0486
# 2 9.5309 70.4887 45.8048 -6.8183 17.2651 4.6853
# 3 47.8335 45.8048 126.9140 -19.6488 33.1365 6.3756
# 4 -1.8447 -6.8183 -19.6488 36.6844 3.2704 11.1514
# 5 16.1093 17.2651 33.1365 3.2704 47.7356 -1.5692
# 6 11.0486 4.6853 6.3756 11.1514 -1.5692 22.6304
#
#
#
# Elastic Compliance Matrix: (Units=1/GPa)
#
#
# Indices 1 2 3 4 5 6 
#
# 1 0.021452 0.003838 -0.007960 0.000770 -0.003472 -0.009645
# 2 0.003838 0.019692 -0.006940 0.002096 -0.003918 -0.005300
# 3 -0.007960 -0.006940 0.017034 0.009520 -0.007435 -0.004683
# 4 0.000770 0.002096 0.009520 0.041272 -0.011263 -0.024610
# 5 -0.003472 -0.003918 -0.007435 -0.011263 0.029872 0.012222
# 6 -0.009645 -0.005300 -0.004683 -0.024610 0.012222 0.064289
#
#
# Mechanical properties :
#
#
# Convention : Reuss Voigt Hill
#
# Bulk Modulus (GPa) = 27.73582 52.67137 40.20360
# Shear Modulus (GPa) = 21.95357 32.37904 27.16630
#
# Velocity S-wave (km/s) = 3.25166 3.94898 3.61716
# Velocity P-wave (km/s) = 5.23984 6.79413 6.06697
#
# Compressibility (1/GPa) = 0.03605446
#
# Stress axis : x y z
#
# Youngs Moduli (GPa) = 46.61571 50.78175 58.70446
#
# Poissons Ratio (x) = -0.19490 0.46730
# Poissons Ratio (y) = -0.17891 0.40740
# Poissons Ratio (z) = 0.37107 0.35242
#
# Static dielectric constant tensor:
#      x y z
#    x 1.820380 -0.010290 0.035580 
#    y -0.010290 1.769210 -0.032640 
#    z 0.035580 -0.032640 1.748970 
# 
# From -- ./inp_files/386813.got.cif
#   From: 2010.05.17/outbox.cif.g08.bks.cpg/sg2_194_cif.got.tgz:386813.got - 2010.06.03 11:33:40.
