data_PCOD9086412
_publ_section_title
;
Structure prediction by ZEFSAII (Michael W. Deem and Ramdas Pophale) SiO2 
 PCOD9086412
Probable space group: P -1
;
_chemical_formula_sum "Si O2"
_cell_formula_units_Z 16
_cell_length_a 8.329262
_cell_length_b 11.961824
_cell_length_c 14.114074
_cell_angle_alpha 58.877238
_cell_angle_beta 78.316840
_cell_angle_gamma 38.742355
_cell_volume 698.542373
_symmetry_space_group_name_H-M "P -1"
_symmetry_group_IT_number 2
_symmetry_cell_setting 'triclinic'
loop_
_space_group_symop_operation_xyz
x,y,z
-x,-y,-z
loop_
_atom_site_type_symbol
_atom_site_label
_atom_site_fract_x
_atom_site_fract_y
_atom_site_fract_z
Si Si1 0.406780 0.249036 0.280041
Si Si2 0.169846 0.757644 0.573965
Si Si3 0.807728 0.828810 0.893379
Si Si4 0.982766 0.149245 0.658531
Si Si5 0.650930 0.003559 0.633454
Si Si6 0.957434 0.076033 0.078399
Si Si7 0.285603 0.462170 0.380685
Si Si8 0.356571 0.343677 0.032617
O O1 0.456600 0.063617 0.364674
O O2 0.227222 0.427399 0.305126
O O3 0.288554 0.353995 0.145667
O O4 0.723909 0.093204 0.308366
O O5 0.187187 0.724176 0.473459
O O6 0.480663 0.577428 0.650781
O O7 0.961921 0.803352 0.639317
O O8 0.000000 0.000000 0.500000
O O9 0.660226 0.993650 0.750325
O O10 0.635409 0.806878 0.949308
O O11 0.910465 0.866323 0.943321
O O12 0.096337 0.590113 0.919593
O O13 0.966150 0.302428 0.642860
O O14 0.916503 0.093057 0.777007
O O15 0.454578 0.247484 0.516464
O O16 0.626814 0.260541 0.042896
O O17 0.000000 0.000000 0.000000
#
# Coordination Sequence:
#
# PCOD9086412 Si02
#       8
#     2   2   2   2   2   2   2   2
#     4  10  21  40  61  88 125 159 204 257 306 365
#     4  10  19  36  58  83 119 161 193 245 304 358
#     4  10  21  41  66  89 126 160 210 258 304 375
#     4  11  23  39  59  91 126 160 203 252 311 369
#     4  10  21  38  62  91 119 166 205 246 312 368
#     4  11  24  39  63  93 125 161 208 257 312 371
#     4  11  22  35  63  86 125 164 200 252 303 372
#     4   9  22  41  65  92 117 167 208 256 317 360
#
# _framework density 22.904838999999999
#
# number of rings (size 3 to 8) (size 9 to 14) (size 15 to 20)
#    0.000    1.750    2.500    2.625    3.500    2.000 
#    0.000    0.000    2.750    0.000    0.000    0.000 
#    0.000    0.000    0.000    0.000    0.000    0.000 
#
# Total GULP energy -89119.476959 kJ/mol
# GULP energy per Si atom -5569.967310 kJ/mol
# Density = 2.285271 g / cm^3
# Si number density = 22.904839 Si / 1000 Ang^3
#
#
#
# Elastic Constant Matrix: (Units=GPa)
#
#
# Indices 1 2 3 4 5 6 
#
# 1 68.8527 17.7876 5.2939 16.3722 14.6855 29.5284
# 2 17.7876 77.9046 5.3195 9.6324 1.0697 28.1583
# 3 5.2939 5.3195 27.0301 -2.7269 -3.6947 11.0011
# 4 16.3722 9.6324 -2.7269 21.0030 5.5058 9.6987
# 5 14.6855 1.0697 -3.6947 5.5058 23.2607 3.5432
# 6 29.5284 28.1583 11.0011 9.6987 3.5432 40.0237
#
#
#
# Elastic Compliance Matrix: (Units=1/GPa)
#
#
# Indices 1 2 3 4 5 6 
#
# 1 0.026416 0.001524 -0.001472 -0.010736 -0.011927 -0.016499
# 2 0.001524 0.017542 0.001452 -0.003285 0.001247 -0.013179
# 3 -0.001472 0.001452 0.045797 0.011808 0.007790 -0.016075
# 4 -0.010736 -0.003285 0.011808 0.064104 -0.005136 -0.008093
# 5 -0.011927 0.001247 0.007790 -0.005136 0.052555 0.002373
# 6 -0.016499 -0.013179 -0.016075 -0.008093 0.002373 0.052599
#
#
# Mechanical properties :
#
#
# Convention : Reuss Voigt Hill
#
# Bulk Modulus (GPa) = 10.78027 25.62103 18.20065
# Shear Modulus (GPa) = 17.42614 26.54991 21.98803
#
# Velocity S-wave (km/s) = 2.76126 3.40831 3.10170
# Velocity P-wave (km/s) = 3.85783 5.16710 4.55970
#
# Compressibility (1/GPa) = 0.09276209
#
# Stress axis : x y z
#
# Youngs Moduli (GPa) = 37.85615 57.00698 21.83568
#
# Poissons Ratio (x) = -0.08687 0.03214
# Poissons Ratio (y) = -0.05768 -0.03171
# Poissons Ratio (z) = 0.05572 -0.08278
#
# Static dielectric constant tensor:
#      x y z
#    x 2.009230 -0.060650 -0.044130 
#    y -0.060650 1.889560 0.031460 
#    z -0.044130 0.031460 1.888380 
# 
# From -- ./inp_files/500169.got.cif
#   From: 2010.05.17/outbox.cif.g08.bks.cpg/sg2_251_cif.got.tgz:500169.got - 2010.06.03 11:33:40.
