data_PCOD9086079
_publ_section_title
;
Structure prediction by ZEFSAII (Michael W. Deem and Ramdas Pophale) SiO2 
 PCOD9086079
Probable space group: P -1
;
_chemical_formula_sum "Si O2"
_cell_formula_units_Z 16
_cell_length_a 10.536663
_cell_length_b 12.020866
_cell_length_c 16.103507
_cell_angle_alpha 128.068695
_cell_angle_beta 121.686462
_cell_angle_gamma 99.623614
_cell_volume 929.447387
_symmetry_space_group_name_H-M "P -1"
_symmetry_group_IT_number 2
_symmetry_cell_setting 'triclinic'
loop_
_space_group_symop_operation_xyz
x,y,z
-x,-y,-z
loop_
_atom_site_type_symbol
_atom_site_label
_atom_site_fract_x
_atom_site_fract_y
_atom_site_fract_z
Si Si1 0.646877 0.450765 0.356792
Si Si2 0.262109 0.205600 0.693527
Si Si3 0.662053 0.765432 0.450955
Si Si4 0.243392 0.348955 0.181324
Si Si5 0.318097 0.765017 0.859339
Si Si6 0.948331 0.911963 0.153164
Si Si7 0.067431 0.286358 0.273621
Si Si8 0.519539 0.674593 0.005058
O O1 0.734068 0.649201 0.427978
O O2 0.387552 0.303684 0.204678
O O3 0.717621 0.364540 0.290409
O O4 0.735714 0.520287 0.512137
O O5 0.355781 0.212974 0.641824
O O6 0.340870 0.423964 0.831362
O O7 0.371769 0.215304 0.817874
O O8 0.000000 0.000000 0.500000
O O9 0.427634 0.595375 0.337918
O O10 0.849632 0.974769 0.662989
O O11 0.142793 0.298323 0.213190
O O12 0.074243 0.217280 0.987492
O O13 0.410329 0.732248 0.949819
O O14 0.111466 0.715009 0.789976
O O15 0.500000 0.000000 0.000000
O O16 0.721495 0.761058 0.056809
O O17 0.986582 0.090110 0.204000
#
# Coordination Sequence:
#
# PCOD9086079 Si02
#       8
#     2   2   2   2   2   2   2   2
#     4   9  19  35  53  75 113 149 188 227 269 320
#     4  11  20  34  60  83 110 138 195 244 283 310
#     4   9  19  33  56  82 109 138 183 245 277 314
#     4  10  19  36  53  80 117 144 193 233 264 334
#     4  12  21  36  53  82 123 154 178 222 285 345
#     4  11  18  33  56  81 115 143 186 228 282 328
#     4  11  22  32  55  81 114 162 180 218 283 343
#     4  11  21  35  54  87 113 144 184 238 280 329
#
# _framework density 17.21453
#
# number of rings (size 3 to 8) (size 9 to 14) (size 15 to 20)
#    0.750    0.750    6.250    1.125    0.000    0.000 
#    2.250    0.000    0.000    0.750    0.000    1.750 
#    0.000    0.000    0.000    0.000    0.000    0.000 
#
# Total GULP energy -89099.154277 kJ/mol
# GULP energy per Si atom -5568.697142 kJ/mol
# Density = 1.717535 g / cm^3
# Si number density = 17.214530 Si / 1000 Ang^3
#
#
#
# Elastic Constant Matrix: (Units=GPa)
#
#
# Indices 1 2 3 4 5 6 
#
# 1 56.7001 25.2121 23.6915 -12.3057 -2.6813 21.4476
# 2 25.2121 41.3378 25.4782 -10.0248 -27.9547 13.5286
# 3 23.6915 25.4782 121.2347 -16.3271 -16.4529 9.0154
# 4 -12.3057 -10.0248 -16.3271 34.4695 15.3287 -3.1627
# 5 -2.6813 -27.9547 -16.4529 15.3287 -2.9783 -8.3745
# 6 21.4476 13.5286 9.0154 -3.1627 -8.3745 21.7659
#
#
#
# Elastic Compliance Matrix: (Units=1/GPa)
#
#
# Indices 1 2 3 4 5 6 
#
# 1 0.025433 0.003055 -0.001943 0.000112 0.015967 -0.019995
# 2 0.003055 0.018285 -0.004482 0.013363 -0.024544 -0.020020
# 3 -0.001943 -0.004482 0.009878 0.002704 0.000169 0.001067
# 4 0.000112 0.013363 0.002704 0.029031 0.011480 -0.000901
# 5 0.015967 -0.024544 0.000169 0.011480 -0.031107 -0.010849
# 6 -0.019995 -0.020020 0.001067 -0.000901 -0.010849 0.073343
#
#
# Mechanical properties :
#
#
# Convention : Reuss Voigt Hill
#
# Bulk Modulus (GPa) = 21.34230 40.89292 31.11761
# Shear Modulus (GPa) = 33.96211 20.31081 27.13646
#
# Velocity S-wave (km/s) = 4.44652 3.43864 3.97466
# Velocity P-wave (km/s) = 6.22791 6.29064 6.25935
#
# Compressibility (1/GPa) = 0.04685531
#
# Stress axis : x y z
#
# Youngs Moduli (GPa) = 39.31869 54.68933 101.23586
#
# Poissons Ratio (x) = -0.16707 0.19671
# Poissons Ratio (y) = -0.12011 0.45375
# Poissons Ratio (z) = 0.07640 0.24513
#
# Static dielectric constant tensor:
#      x y z
#    x 1.565450 0.006690 0.001320 
#    y 0.006690 1.600650 0.012390 
#    z 0.001320 0.012390 1.681860 
# 
# From -- ./inp_files/518108.got.cif
#   From: 2010.05.17/outbox.cif.g08.bks.cpg/sg2_260_cif.got.tgz:518108.got - 2010.06.03 11:33:40.
