data_PCOD9086156
_publ_section_title
;
Structure prediction by ZEFSAII (Michael W. Deem and Ramdas Pophale) SiO2 
 PCOD9086156
Probable space group: P -1
;
_chemical_formula_sum "Si O2"
_cell_formula_units_Z 14
_cell_length_a 17.131470
_cell_length_b 5.214933
_cell_length_c 9.705746
_cell_angle_alpha 63.305025
_cell_angle_beta 62.751988
_cell_angle_gamma 67.619463
_cell_volume 671.778691
_symmetry_space_group_name_H-M "P -1"
_symmetry_group_IT_number 2
_symmetry_cell_setting 'triclinic'
loop_
_space_group_symop_operation_xyz
x,y,z
-x,-y,-z
loop_
_atom_site_type_symbol
_atom_site_label
_atom_site_fract_x
_atom_site_fract_y
_atom_site_fract_z
Si Si1 0.942351 0.331735 0.990872
Si Si2 0.031250 0.474217 0.637775
Si Si3 0.398703 0.037066 0.133108
Si Si4 0.142932 0.824219 0.654750
Si Si5 0.656875 0.223516 0.489748
Si Si6 0.596232 0.915953 0.367568
Si Si7 0.398230 0.657167 0.996415
O O1 0.944185 0.471096 0.805490
O O2 0.857233 0.339126 0.156379
O O3 0.000000 0.500000 0.000000
O O4 0.000000 0.000000 0.000000
O O5 0.082602 0.699869 0.619430
O O6 0.000000 0.500000 0.500000
O O7 0.099772 0.157451 0.652541
O O8 0.399192 0.905415 0.316798
O O9 0.354987 0.380210 0.071456
O O10 0.500000 0.000000 0.000000
O O11 0.352602 0.842977 0.117281
O O12 0.243530 0.793100 0.530423
O O13 0.616462 0.567171 0.406253
O O14 0.661687 0.015418 0.403005
O O15 0.500000 0.000000 0.500000
O O16 0.597495 0.122083 0.184614
O O17 0.500000 0.500000 0.000000
#
# Coordination Sequence:
#
# PCOD9086156 Si02
#       7
#     2   2   2   2   2   2   2
#     4   8  16  32  56  79 109 149 183 216 273 350
#     4  10  19  36  63  90 116 153 193 229 280 366
#     4  10  19  36  56  78 110 155 195 235 298 357
#     4  10  21  38  57  87 121 152 188 241 302 345
#     4  12  24  39  61  88 120 156 201 261 303 342
#     4  12  23  39  61  86 111 156 214 253 290 362
#     4  10  20  36  56  78 106 141 191 249 295 344
#
# _framework density 20.840195000000001
#
# number of rings (size 3 to 8) (size 9 to 14) (size 15 to 20)
#    0.000    1.714    0.000    6.857    0.000    0.000 
#    0.000    4.286    0.000    0.000    0.000    0.000 
#    0.000    0.000    0.000    0.000    0.000    0.000 
#
# Total GULP energy -77978.369932 kJ/mol
# GULP energy per Si atom -5569.883567 kJ/mol
# Density = 2.079276 g / cm^3
# Si number density = 20.840195 Si / 1000 Ang^3
#
#
#
# Elastic Constant Matrix: (Units=GPa)
#
#
# Indices 1 2 3 4 5 6 
#
# 1 38.7418 -4.3893 20.0419 4.2962 -3.8393 9.4284
# 2 -4.3893 107.8394 10.4768 -8.6583 -2.5859 29.8494
# 3 20.0419 10.4768 138.1730 -5.1674 24.3626 -0.5362
# 4 4.2962 -8.6583 -5.1674 30.2436 5.1152 6.2931
# 5 -3.8393 -2.5859 24.3626 5.1152 28.4168 4.2492
# 6 9.4284 29.8494 -0.5362 6.2931 4.2492 30.2201
#
#
#
# Elastic Compliance Matrix: (Units=1/GPa)
#
#
# Indices 1 2 3 4 5 6 
#
# 1 0.040288 0.009581 -0.010154 -0.002901 0.019177 -0.024305
# 2 0.009581 0.016873 -0.004037 0.005948 0.008535 -0.022165
# 3 -0.010154 -0.004037 0.011514 0.002714 -0.013396 0.008679
# 4 -0.002901 0.005948 0.002714 0.039420 -0.007467 -0.012081
# 5 0.019177 0.008535 -0.013396 -0.007467 0.054491 -0.020758
# 6 -0.024305 -0.022165 0.008679 -0.012081 -0.020758 0.068156
#
#
# Mechanical properties :
#
#
# Convention : Reuss Voigt Hill
#
# Bulk Modulus (GPa) = 16.82033 37.44590 27.13311
# Shear Modulus (GPa) = 19.24705 35.01776 27.13240
#
# Velocity S-wave (km/s) = 3.04230 4.10359 3.61214
# Velocity P-wave (km/s) = 4.51989 6.36080 5.51766
#
# Compressibility (1/GPa) = 0.05945188
#
# Stress axis : x y z
#
# Youngs Moduli (GPa) = 24.82156 59.26722 86.85447
#
# Poissons Ratio (x) = -0.56782 0.88194
# Poissons Ratio (y) = -0.23781 0.35067
# Poissons Ratio (z) = 0.25204 0.23929
#
# Static dielectric constant tensor:
#      x y z
#    x 1.754030 0.048700 0.004710 
#    y 0.048700 1.832760 -0.038640 
#    z 0.004710 -0.038640 1.817300 
# 
# From -- ./inp_files/122999.got.cif
#   From: 2010.05.17/outbox.cif.g08.bks.cpg/sg2_62_cif.got.tgz:122999.got - 2010.06.03 11:33:40.
