data_PCOD9086033
_publ_section_title
;
Structure prediction by ZEFSAII (Michael W. Deem and Ramdas Pophale) SiO2 
 PCOD9086033
Probable space group: P -1
;
_chemical_formula_sum "Si O2"
_cell_formula_units_Z 16
_cell_length_a 24.415471
_cell_length_b 6.999422
_cell_length_c 10.749693
_cell_angle_alpha 128.283790
_cell_angle_beta 25.107510
_cell_angle_gamma 124.513156
_cell_volume 611.782324
_symmetry_space_group_name_H-M "P -1"
_symmetry_group_IT_number 2
_symmetry_cell_setting 'triclinic'
loop_
_space_group_symop_operation_xyz
x,y,z
-x,-y,-z
loop_
_atom_site_type_symbol
_atom_site_label
_atom_site_fract_x
_atom_site_fract_y
_atom_site_fract_z
Si Si1 0.206629 0.511056 0.380063
Si Si2 0.554913 0.261594 0.357389
Si Si3 0.328161 0.000644 0.631693
Si Si4 0.286397 0.404331 0.660208
Si Si5 0.802437 0.121622 0.676412
Si Si6 0.954406 0.750340 0.059898
Si Si7 0.147160 0.966715 0.204318
Si Si8 0.471756 0.746910 0.028167
O O1 0.176980 0.663117 0.377084
O O2 0.203233 0.227345 0.241900
O O3 0.351530 0.596528 0.154143
O O4 0.086755 0.601779 0.750771
O O5 0.500000 0.500000 0.500000
O O6 0.425344 0.109845 0.579894
O O7 0.640552 0.363360 0.334312
O O8 0.648456 0.113947 0.013777
O O9 0.290448 0.198094 0.680535
O O10 0.412813 0.808883 0.306959
O O11 0.207830 0.910082 0.922375
O O12 0.144404 0.391150 0.886984
O O13 0.386457 0.356073 0.322586
O O14 0.867677 0.873482 0.396263
O O15 0.853342 0.199194 0.738016
O O16 0.000000 0.000000 0.000000
O O17 0.000000 0.000000 0.500000
O O18 0.500000 0.000000 0.000000
#
# Coordination Sequence:
#
# PCOD9086033 Si02
#       8
#     2   2   2   2   2   2   2   2
#     4  11  24  46  73  99 141 189 236 296 349 411
#     4  10  20  38  70 102 135 177 224 284 354 419
#     4  10  20  39  63  96 141 172 225 289 342 408
#     4  10  19  35  69 102 129 176 237 281 348 417
#     4  11  24  45  70  99 142 181 236 289 352 419
#     4  10  22  39  68 101 136 183 234 284 349 412
#     4  12  30  44  66 103 145 191 239 281 350 425
#     4  10  19  38  75 103 132 181 235 286 353 416
#
# _framework density 26.153092000000001
#
# number of rings (size 3 to 8) (size 9 to 14) (size 15 to 20)
#    0.000    1.500    0.000    8.250    7.000    1.500 
#    0.000    0.000    0.000    6.750    0.000    0.000 
#    0.000    0.000    0.000    0.000    0.000    0.000 
#
# Total GULP energy -89370.596743 kJ/mol
# GULP energy per Si atom -5585.662296 kJ/mol
# Density = 2.609357 g / cm^3
# Si number density = 26.153092 Si / 1000 Ang^3
#
#
#
# Elastic Constant Matrix: (Units=GPa)
#
#
# Indices 1 2 3 4 5 6 
#
# 1 71.1762 13.1905 29.5420 -20.2402 11.4061 0.4403
# 2 13.1905 91.0636 10.7339 -21.6497 9.2933 2.3888
# 3 29.5420 10.7339 189.4195 -15.2533 18.1511 9.3341
# 4 -20.2402 -21.6497 -15.2533 39.3402 11.6135 -9.8448
# 5 11.4061 9.2933 18.1511 11.6135 47.2162 -1.1505
# 6 0.4403 2.3888 9.3341 -9.8448 -1.1505 47.3526
#
#
#
# Elastic Compliance Matrix: (Units=1/GPa)
#
#
# Indices 1 2 3 4 5 6 
#
# 1 0.019243 0.001104 -0.001453 0.012756 -0.007383 0.002524
# 2 0.001104 0.013750 0.000348 0.010225 -0.005592 0.001218
# 3 -0.001453 0.000348 0.005961 0.002333 -0.002601 -0.000757
# 4 0.012756 0.010225 0.002333 0.045522 -0.016994 0.007957
# 5 -0.007383 -0.005592 -0.002601 -0.016994 0.029195 -0.001960
# 6 0.002524 0.001218 -0.000757 0.007957 -0.001960 0.022789
#
#
# Mechanical properties :
#
#
# Convention : Reuss Voigt Hill
#
# Bulk Modulus (GPa) = 25.67363 50.95466 38.31415
# Shear Modulus (GPa) = 33.45661 46.66133 40.05897
#
# Velocity S-wave (km/s) = 3.58056 4.22852 3.91795
# Velocity P-wave (km/s) = 5.18959 6.58529 5.92865
#
# Compressibility (1/GPa) = 0.03895047
#
# Stress axis : x y z
#
# Youngs Moduli (GPa) = 51.96653 72.72630 167.76520
#
# Poissons Ratio (x) = -0.08027 0.24384
# Poissons Ratio (y) = -0.05736 -0.05838
# Poissons Ratio (z) = 0.07553 -0.02531
#
# Static dielectric constant tensor:
#      x y z
#    x 2.013170 0.059290 0.060480 
#    y 0.059290 1.947400 -0.002480 
#    z 0.060480 -0.002480 2.040280 
# 
# From -- ./inp_files/476395.got.cif
#   From: 2010.05.17/outbox.cif.g08.bks.cpg/sg2_239_cif.got.tgz:476395.got - 2010.06.03 11:33:40.
