data_PCOD9086748
_publ_section_title
;
Structure prediction by ZEFSAII (Michael W. Deem and Ramdas Pophale) SiO2 
 PCOD9086748
Probable space group: P -1
;
_chemical_formula_sum "Si O2"
_cell_formula_units_Z 16
_cell_length_a 18.301186
_cell_length_b 12.047746
_cell_length_c 8.826515
_cell_angle_alpha 79.635403
_cell_angle_beta 70.506308
_cell_angle_gamma 140.764881
_cell_volume 786.519306
_symmetry_space_group_name_H-M "P -1"
_symmetry_group_IT_number 2
_symmetry_cell_setting 'triclinic'
loop_
_space_group_symop_operation_xyz
x,y,z
-x,-y,-z
loop_
_atom_site_type_symbol
_atom_site_label
_atom_site_fract_x
_atom_site_fract_y
_atom_site_fract_z
Si Si1 0.403649 0.901758 0.792963
Si Si2 0.080959 0.181647 0.267510
Si Si3 0.186235 0.836610 0.595666
Si Si4 0.082083 0.886945 0.877671
Si Si5 0.826291 0.438558 0.395578
Si Si6 0.886086 0.544632 0.676374
Si Si7 0.475449 0.774061 0.602558
Si Si8 0.804248 0.770939 0.118278
O O1 0.372197 0.743772 0.760072
O O2 0.612901 0.173621 0.619335
O O3 0.391643 0.989685 0.663953
O O4 0.268156 0.730672 0.067008
O O5 0.163728 0.393939 0.251725
O O6 0.964514 0.097221 0.241791
O O7 0.183752 0.231530 0.070613
O O8 0.000000 0.000000 0.500000
O O9 0.134642 0.836809 0.782257
O O10 0.137651 0.641660 0.663798
O O11 0.074912 0.753320 0.562844
O O12 0.401112 0.120804 0.380533
O O13 0.225672 0.144240 0.814252
O O14 0.922044 0.649385 0.162717
O O15 0.893485 0.543610 0.492921
O O16 0.348885 0.520159 0.668345
O O17 0.000000 0.000000 0.000000
#
# Coordination Sequence:
#
# PCOD9086748 Si02
#       8
#     2   2   2   2   2   2   2   2
#     4  10  21  35  62  93 122 153 202 253 297 350
#     4  10  20  35  58  89 117 150 197 249 296 348
#     4  10  24  38  61  87 125 162 195 246 305 357
#     4  10  22  37  62  85 118 161 207 237 299 362
#     4  11  22  39  61  92 124 156 203 250 296 354
#     4  11  22  38  61  92 124 158 199 243 307 360
#     4  10  21  37  61  92 122 156 199 251 296 356
#     4  10  19  36  60  86 115 155 197 245 293 349
#
# _framework density 20.342794000000001
#
# number of rings (size 3 to 8) (size 9 to 14) (size 15 to 20)
#    0.000    1.750    1.250    3.375   10.500    1.500 
#    0.000    0.000    0.000    6.750    0.000    0.000 
#    0.000    0.000    0.000    0.000    0.000    0.000 
#
# Total GULP energy -89085.058380 kJ/mol
# GULP energy per Si atom -5567.816149 kJ/mol
# Density = 2.029649 g / cm^3
# Si number density = 20.342794 Si / 1000 Ang^3
#
#
#
# Elastic Constant Matrix: (Units=GPa)
#
#
# Indices 1 2 3 4 5 6 
#
# 1 65.3458 58.5551 39.8914 10.6530 6.8011 8.3658
# 2 58.5551 157.4510 45.6891 -1.9204 4.9757 -17.5321
# 3 39.8914 45.6891 98.4815 8.8257 21.3740 -2.3874
# 4 10.6530 -1.9204 8.8257 30.1877 0.1333 -5.7793
# 5 6.8011 4.9757 21.3740 0.1333 18.2936 -3.5844
# 6 8.3658 -17.5321 -2.3874 -5.7793 -3.5844 30.0496
#
#
#
# Elastic Compliance Matrix: (Units=1/GPa)
#
#
# Indices 1 2 3 4 5 6 
#
# 1 0.040851 -0.016267 -0.006099 -0.018598 -0.008585 -0.025949
# 2 -0.016267 0.014795 -0.002579 0.010450 0.008082 0.015930
# 3 -0.006099 -0.002579 0.018091 -0.003454 -0.018383 -0.001227
# 4 -0.018598 0.010450 -0.003454 0.045359 0.011921 0.021146
# 5 -0.008585 0.008082 -0.018383 0.011921 0.080486 0.017538
# 6 -0.025949 0.015930 -0.001227 0.021146 0.017538 0.055858
#
#
# Mechanical properties :
#
#
# Convention : Reuss Voigt Hill
#
# Bulk Modulus (GPa) = 41.93646 67.72770 54.83208
# Shear Modulus (GPa) = 15.96014 27.51571 21.73793
#
# Velocity S-wave (km/s) = 2.80404 3.68176 3.27246
# Velocity P-wave (km/s) = 5.58061 7.17212 6.42583
#
# Compressibility (1/GPa) = 0.02384560
#
# Stress axis : x y z
#
# Youngs Moduli (GPa) = 24.47919 67.58983 55.27583
#
# Poissons Ratio (x) = 1.09950 0.33715
# Poissons Ratio (y) = 0.39821 0.14256
# Poissons Ratio (z) = 0.14931 0.17432
#
# Static dielectric constant tensor:
#      x y z
#    x 1.805910 -0.015160 -0.021960 
#    y -0.015160 1.767620 -0.025240 
#    z -0.021960 -0.025240 1.758520 
# 
# From -- ./inp_files/279478.got.cif
#   From: 2010.05.17/outbox.cif.g08.bks.cpg/sg2_140_cif.got.tgz:279478.got - 2010.06.03 11:33:40.
