data_PCOD9086077
_publ_section_title
;
Structure prediction by ZEFSAII (Michael W. Deem and Ramdas Pophale) SiO2 
 PCOD9086077
Probable space group: P -1
;
_chemical_formula_sum "Si O2"
_cell_formula_units_Z 12
_cell_length_a 7.765510
_cell_length_b 9.785998
_cell_length_c 9.467009
_cell_angle_alpha 56.721500
_cell_angle_beta 67.790686
_cell_angle_gamma 46.462302
_cell_volume 436.005491
_symmetry_space_group_name_H-M "P -1"
_symmetry_group_IT_number 2
_symmetry_cell_setting 'triclinic'
loop_
_space_group_symop_operation_xyz
x,y,z
-x,-y,-z
loop_
_atom_site_type_symbol
_atom_site_label
_atom_site_fract_x
_atom_site_fract_y
_atom_site_fract_z
Si Si1 0.914406 0.809828 0.921807
Si Si2 0.335722 0.312052 0.327888
Si Si3 0.224900 0.721570 0.119089
Si Si4 0.097722 0.669109 0.499392
Si Si5 0.688031 0.593692 0.163404
Si Si6 0.315908 0.984405 0.394391
O O1 0.774763 0.732364 0.074399
O O2 0.032714 0.855969 0.979415
O O3 0.745409 0.998466 0.758770
O O4 0.111595 0.614718 0.870719
O O5 0.336458 0.487456 0.161113
O O6 0.072903 0.397171 0.401755
O O7 0.413737 0.117701 0.315014
O O8 0.495494 0.229588 0.464533
O O9 0.441953 0.721208 0.084228
O O10 0.133429 0.712235 0.306629
O O11 0.924402 0.890616 0.509284
O O12 0.309571 0.503385 0.633135
#
# Coordination Sequence:
#
# PCOD9086077 Si02
#       6
#     2   2   2   2   2   2
#     4  10  19  36  53  78 111 140 173 221 260 318
#     4   9  17  34  59  78 103 146 176 213 263 318
#     4  12  20  31  61  85 102 131 187 226 256 303
#     4   9  18  35  54  80 108 136 177 224 257 309
#     4  10  20  33  54  82 106 140 178 216 264 311
#     4   8  18  35  59  73 106 152 170 204 279 317
#
# _framework density 27.522590999999998
#
# number of rings (size 3 to 8) (size 9 to 14) (size 15 to 20)
#    1.000    1.333    1.667    2.500    0.000    0.000 
#    0.000    4.167    3.667    1.000    0.000    0.000 
#    0.000    0.000    0.000    0.000    0.000    0.000 
#
# Total GULP energy -67205.748348 kJ/mol
# GULP energy per Si atom -5600.479029 kJ/mol
# Density = 2.745995 g / cm^3
# Si number density = 27.522591 Si / 1000 Ang^3
#
#
#
# Elastic Constant Matrix: (Units=GPa)
#
#
# Indices 1 2 3 4 5 6 
#
# 1 139.1515 33.0116 70.5028 -7.5754 32.6034 -6.9568
# 2 33.0116 35.5936 24.8726 6.6818 17.7281 -4.0409
# 3 70.5028 24.8726 194.6891 -8.0416 42.7622 -20.5206
# 4 -7.5754 6.6818 -8.0416 29.0590 -10.5303 22.0075
# 5 32.6034 17.7281 42.7622 -10.5303 61.4192 -6.6878
# 6 -6.9568 -4.0409 -20.5206 22.0075 -6.6878 43.5467
#
#
#
# Elastic Compliance Matrix: (Units=1/GPa)
#
#
# Indices 1 2 3 4 5 6 
#
# 1 0.011383 -0.010492 -0.002910 0.008012 -0.000115 -0.004593
# 2 -0.010492 0.052651 0.000664 -0.033589 -0.013848 0.018371
# 3 -0.002910 0.000664 0.007242 -0.003447 -0.003827 0.004164
# 4 0.008012 -0.033589 -0.003447 0.081208 0.017208 -0.041859
# 5 -0.000115 -0.013848 -0.003827 0.017208 0.025089 -0.007950
# 6 -0.004593 0.018371 0.004164 -0.041859 -0.007950 0.045831
#
#
# Mechanical properties :
#
#
# Convention : Reuss Voigt Hill
#
# Bulk Modulus (GPa) = 21.83429 69.57869 45.70649
# Shear Modulus (GPa) = 18.92884 42.87480 30.90182
#
# Velocity S-wave (km/s) = 2.62536 3.95118 3.35443
# Velocity P-wave (km/s) = 4.14010 6.79347 5.62546
#
# Compressibility (1/GPa) = 0.04579952
#
# Stress axis : x y z
#
# Youngs Moduli (GPa) = 87.84844 18.99312 138.07587
#
# Poissons Ratio (x) = 0.19928 0.40176
# Poissons Ratio (y) = 0.92174 -0.09165
# Poissons Ratio (z) = 0.25561 -0.01261
#
# Static dielectric constant tensor:
#      x y z
#    x 2.148580 0.040050 0.029930 
#    y 0.040050 2.215540 0.043820 
#    z 0.029930 0.043820 2.068270 
# 
# From -- ./inp_files/191854.got.cif
#   From: 2010.05.17/outbox.cif.g08.bks.cpg/sg2_96_cif.got.tgz:191854.got - 2010.06.03 11:33:40.
