data_PCOD9086140
_publ_section_title
;
Structure prediction by ZEFSAII (Michael W. Deem and Ramdas Pophale) SiO2 
 PCOD9086140
Probable space group: P -1
;
_chemical_formula_sum "Si O2"
_cell_formula_units_Z 14
_cell_length_a 5.251377
_cell_length_b 29.869030
_cell_length_c 14.010765
_cell_angle_alpha 23.864077
_cell_angle_beta 101.557148
_cell_angle_gamma 113.283327
_cell_volume 735.916822
_symmetry_space_group_name_H-M "P -1"
_symmetry_group_IT_number 2
_symmetry_cell_setting 'triclinic'
loop_
_space_group_symop_operation_xyz
x,y,z
-x,-y,-z
loop_
_atom_site_type_symbol
_atom_site_label
_atom_site_fract_x
_atom_site_fract_y
_atom_site_fract_z
Si Si1 0.601503 0.475490 0.279382
Si Si2 0.217933 0.936158 0.470852
Si Si3 0.767298 0.196286 0.070998
Si Si4 0.712645 0.604400 0.395684
Si Si5 0.519600 0.801051 0.656598
Si Si6 0.101545 0.531914 0.054098
Si Si7 0.826595 0.386490 0.846308
O O1 0.446417 0.389063 0.532069
O O2 0.338207 0.488983 0.184959
O O3 0.798575 0.462546 0.235018
O O4 0.879943 0.606138 0.097478
O O5 0.195032 0.871680 0.699527
O O6 0.386821 0.889190 0.504606
O O7 0.882824 0.888513 0.498674
O O8 0.449478 0.090403 0.205001
O O9 0.775581 0.324318 0.860671
O O10 0.055671 0.256362 0.905038
O O11 0.500000 0.500000 0.500000
O O12 0.885598 0.529303 0.583190
O O13 0.303143 0.689437 0.781634
O O14 0.462893 0.712613 0.919072
O O15 0.000000 0.500000 0.000000
#
# Coordination Sequence:
#
# PCOD9086140 Si02
#       7
#     2   2   2   2   2   2   2
#     4  11  21  37  53  86 122 141 182 230 293 337
#     4  10  22  37  49  77 112 159 189 229 256 320
#     4  10  21  33  51  78 111 160 204 214 256 334
#     4  12  21  32  56  84 119 163 189 223 280 327
#     4  10  19  36  56  72 112 137 177 237 286 325
#     4  11  22  38  63  88 109 140 183 243 305 342
#     4  10  20  34  53  78 118 154 186 232 275 320
#
# _framework density 19.023890000000002
#
# number of rings (size 3 to 8) (size 9 to 14) (size 15 to 20)
#    0.000    1.429    4.286    4.286    0.000    6.286 
#    0.000    0.000    0.000    0.000    0.000    6.000 
#    0.000    0.000    0.000    0.000    0.000    0.000 
#
# Total GULP energy -78001.988694 kJ/mol
# GULP energy per Si atom -5571.570621 kJ/mol
# Density = 1.898059 g / cm^3
# Si number density = 19.023890 Si / 1000 Ang^3
#
#
#
# Elastic Constant Matrix: (Units=GPa)
#
#
# Indices 1 2 3 4 5 6 
#
# 1 140.9457 55.3578 28.4637 -2.1628 -26.0430 -1.7367
# 2 55.3578 135.3486 29.6487 -5.1241 -18.3307 -7.9961
# 3 28.4637 29.6487 54.4503 -6.1199 -24.8719 -7.4280
# 4 -2.1628 -5.1241 -6.1199 20.7102 2.2988 -3.5471
# 5 -26.0430 -18.3307 -24.8719 2.2988 25.3788 0.9050
# 6 -1.7367 -7.9961 -7.4280 -3.5471 0.9050 25.9338
#
#
#
# Elastic Compliance Matrix: (Units=1/GPa)
#
#
# Indices 1 2 3 4 5 6 
#
# 1 0.009699 -0.002959 -0.000030 -0.000712 0.007873 -0.000644
# 2 -0.002959 0.009508 -0.002753 0.001490 0.000923 0.002117
# 3 -0.000030 -0.002753 0.037545 0.008364 0.033666 0.009872
# 4 -0.000712 0.001490 0.008364 0.052355 0.003449 0.009848
# 5 0.007873 0.000923 0.033666 0.003449 0.080541 0.008116
# 6 -0.000644 0.002117 0.009872 0.009848 0.008116 0.043061
#
#
# Mechanical properties :
#
#
# Convention : Reuss Voigt Hill
#
# Bulk Modulus (GPa) = 22.09060 61.96498 42.02779
# Shear Modulus (GPa) = 19.28403 28.88954 24.08678
#
# Velocity S-wave (km/s) = 3.18728 3.90114 3.56214
# Velocity P-wave (km/s) = 5.01819 7.27563 6.24968
#
# Compressibility (1/GPa) = 0.04526813
#
# Stress axis : x y z
#
# Youngs Moduli (GPa) = 103.10150 105.17477 26.63477
#
# Poissons Ratio (x) = 0.31121 0.00081
# Poissons Ratio (y) = 0.30508 0.07331
# Poissons Ratio (z) = 0.00314 0.28950
#
# Static dielectric constant tensor:
#      x y z
#    x 1.813100 0.028230 0.033460 
#    y 0.028230 1.678510 0.032400 
#    z 0.033460 0.032400 1.709910 
# 
# From -- ./inp_files/486260.got.cif
#   From: 2010.05.17/outbox.cif.g08.bks.cpg/sg2_244_cif.got.tgz:486260.got - 2010.06.03 11:33:40.
