data_PCOD9087154
_publ_section_title
;
Structure prediction by ZEFSAII (Michael W. Deem and Ramdas Pophale) SiO2 
 PCOD9087154
Probable space group: P -1
;
_chemical_formula_sum "Si O2"
_cell_formula_units_Z 16
_cell_length_a 6.932162
_cell_length_b 12.318251
_cell_length_c 13.717663
_cell_angle_alpha 113.190831
_cell_angle_beta 45.082507
_cell_angle_gamma 99.759709
_cell_volume 751.784483
_symmetry_space_group_name_H-M "P -1"
_symmetry_group_IT_number 2
_symmetry_cell_setting 'triclinic'
loop_
_space_group_symop_operation_xyz
x,y,z
-x,-y,-z
loop_
_atom_site_type_symbol
_atom_site_label
_atom_site_fract_x
_atom_site_fract_y
_atom_site_fract_z
Si Si1 0.764343 0.285085 0.209430
Si Si2 0.210026 0.872964 0.263479
Si Si3 0.223484 0.152547 0.872015
Si Si4 0.728967 0.752477 0.314915
Si Si5 0.241135 0.468586 0.644902
Si Si6 0.119494 0.373715 0.460408
Si Si7 0.395378 0.887559 0.645868
Si Si8 0.966280 0.868777 0.557829
O O1 0.899948 0.403336 0.220163
O O2 0.447043 0.334457 0.308582
O O3 0.760007 0.211966 0.285803
O O4 0.929736 0.198188 0.041176
O O5 0.539682 0.850394 0.130726
O O6 0.029537 0.782161 0.250180
O O7 0.167991 0.874504 0.396915
O O8 0.076796 0.007227 0.324636
O O9 0.276715 0.239023 0.795442
O O10 0.248131 0.021216 0.768421
O O11 0.682642 0.625866 0.329828
O O12 0.506440 0.852699 0.485566
O O13 0.500000 0.500000 0.500000
O O14 0.083313 0.400636 0.598409
O O15 0.982968 0.256469 0.447951
O O16 0.000000 0.500000 0.500000
O O17 0.673601 0.872114 0.607494
#
# Coordination Sequence:
#
# PCOD9087154 Si02
#       8
#     2   2   2   2   2   2   2   2
#     4  10  21  40  57  85 123 155 194 245 295 353
#     4   9  18  35  56  84 123 150 181 241 305 345
#     4  11  23  35  62  91 122 158 188 238 315 353
#     4  11  20  39  61  89 119 150 206 250 278 356
#     4  10  19  39  59  80 116 153 194 253 285 339
#     4  10  19  36  62  85 108 159 210 241 284 348
#     4   9  17  37  63  83 115 161 198 238 293 348
#     4   8  15  32  57  82 112 148 194 250 277 336
#
# _framework density 21.282696000000001
#
# number of rings (size 3 to 8) (size 9 to 14) (size 15 to 20)
#    0.000    2.250    5.000    1.500    0.000    2.500 
#    4.500    0.625    0.000    3.000    0.000    0.000 
#    0.000    0.000    0.000    0.000    0.000    0.000 
#
# Total GULP energy -89252.183648 kJ/mol
# GULP energy per Si atom -5578.261478 kJ/mol
# Density = 2.123426 g / cm^3
# Si number density = 21.282696 Si / 1000 Ang^3
#
#
#
# Elastic Constant Matrix: (Units=GPa)
#
#
# Indices 1 2 3 4 5 6 
#
# 1 53.4980 9.5787 8.8164 -0.2242 -8.5708 1.1890
# 2 9.5787 143.0540 15.6395 0.5526 -8.6744 -7.6736
# 3 8.8164 15.6395 72.5636 8.5229 -8.5879 -10.2116
# 4 -0.2242 0.5526 8.5229 18.9509 -5.8907 4.8223
# 5 -8.5708 -8.6744 -8.5879 -5.8907 19.7208 1.4725
# 6 1.1890 -7.6736 -10.2116 4.8223 1.4725 29.9852
#
#
#
# Elastic Compliance Matrix: (Units=1/GPa)
#
#
# Indices 1 2 3 4 5 6 
#
# 1 0.020803 -0.000756 -0.002264 0.005000 0.009444 -0.003057
# 2 -0.000756 0.007384 -0.001100 0.000736 0.002563 0.001301
# 3 -0.002264 -0.001100 0.016522 -0.008251 0.002768 0.006626
# 4 0.005000 0.000736 -0.008251 0.066353 0.019804 -0.014463
# 5 0.009444 0.002563 0.002768 0.019804 0.063440 -0.005076
# 6 -0.003057 0.001301 0.006626 -0.014463 -0.005076 0.038636
#
#
# Mechanical properties :
#
#
# Convention : Reuss Voigt Hill
#
# Bulk Modulus (GPa) = 27.42077 37.46500 32.44289
# Shear Modulus (GPa) = 21.41026 29.40344 25.40685
#
# Velocity S-wave (km/s) = 3.17518 3.72097 3.45886
# Velocity P-wave (km/s) = 5.13365 6.00854 5.58825
#
# Compressibility (1/GPa) = 0.03646871
#
# Stress axis : x y z
#
# Youngs Moduli (GPa) = 48.07042 135.43628 60.52416
#
# Poissons Ratio (x) = 0.10239 0.13705
# Poissons Ratio (y) = 0.03634 0.06655
# Poissons Ratio (z) = 0.10885 0.14892
#
# Static dielectric constant tensor:
#      x y z
#    x 1.888740 0.026900 -0.019120 
#    y 0.026900 1.850000 0.015760 
#    z -0.019120 0.015760 1.771270 
# 
# From -- ./inp_files/449903.got.cif
#   From: 2010.05.17/outbox.cif.g08.bks.cpg/sg2_225_cif.got.tgz:449903.got - 2010.06.03 11:33:40.
