data_PCOD9087554
_publ_section_title
;
Structure prediction by ZEFSAII (Michael W. Deem and Ramdas Pophale) SiO2 
 PCOD9087554
Probable space group: P -1
;
_chemical_formula_sum "Si O2"
_cell_formula_units_Z 16
_cell_length_a 21.013137
_cell_length_b 20.074741
_cell_length_c 11.695748
_cell_angle_alpha 152.628710
_cell_angle_beta 152.767952
_cell_angle_gamma 20.718804
_cell_volume 748.685930
_symmetry_space_group_name_H-M "P -1"
_symmetry_group_IT_number 2
_symmetry_cell_setting 'triclinic'
loop_
_space_group_symop_operation_xyz
x,y,z
-x,-y,-z
loop_
_atom_site_type_symbol
_atom_site_label
_atom_site_fract_x
_atom_site_fract_y
_atom_site_fract_z
Si Si1 0.528707 0.517600 0.729574
Si Si2 0.317889 0.231497 0.033530
Si Si3 0.168176 0.763712 0.390914
Si Si4 0.091713 0.551919 0.350962
Si Si5 0.599314 0.848471 0.532803
Si Si6 0.990105 0.436918 0.210507
Si Si7 0.613727 0.521829 0.129516
Si Si8 0.586035 0.773919 0.072228
O O1 0.304269 0.645531 0.539990
O O2 0.673867 0.316610 0.578116
O O3 0.601950 0.465399 0.896704
O O4 0.544895 0.667466 0.926345
O O5 0.379531 0.269966 0.074412
O O6 0.126418 0.266968 0.765184
O O7 0.246706 0.400491 0.270702
O O8 0.500000 0.000000 0.000000
O O9 0.000000 0.000000 0.500000
O O10 0.071772 0.684331 0.074475
O O11 0.057229 0.428649 0.177863
O O12 0.184276 0.592149 0.654725
O O13 0.820634 0.666450 0.574445
O O14 0.528255 0.745781 0.310588
O O15 0.500000 0.000000 0.500000
O O16 0.570471 0.989827 0.799530
O O17 0.803061 0.666402 0.289450
O O18 0.500000 0.500000 0.000000
#
# Coordination Sequence:
#
# PCOD9087554 Si02
#       8
#     2   2   2   2   2   2   2   2
#     4  10  22  41  62  90 129 169 208 268 316 386
#     4  10  19  36  64  91 123 160 212 265 310 369
#     4  10  21  38  62  93 125 165 215 263 325 375
#     4   9  21  39  60  89 123 167 210 255 318 381
#     4  11  21  39  66  90 125 166 213 259 309 382
#     4   9  20  37  59  92 122 157 212 266 307 370
#     4  11  24  43  64  94 135 174 212 266 335 382
#     4  10  20  38  62  97 119 164 219 259 314 371
#
# _framework density 21.370778000000001
#
# number of rings (size 3 to 8) (size 9 to 14) (size 15 to 20)
#    0.000    2.000    1.250    2.250    0.000    5.500 
#    6.750    2.500    0.000   12.750    0.000    0.000 
#    0.000    0.000    0.000    0.000    0.000    0.000 
#
# Total GULP energy -89075.612339 kJ/mol
# GULP energy per Si atom -5567.225771 kJ/mol
# Density = 2.132214 g / cm^3
# Si number density = 21.370778 Si / 1000 Ang^3
#
#
#
# Elastic Constant Matrix: (Units=GPa)
#
#
# Indices 1 2 3 4 5 6 
#
# 1 115.6081 26.4137 35.1652 -9.6691 -10.0383 6.0321
# 2 26.4137 144.4019 28.5790 -14.3135 -2.3984 4.0141
# 3 35.1652 28.5790 67.3956 -16.7788 -7.6213 2.3078
# 4 -9.6691 -14.3135 -16.7788 30.9698 3.2100 -5.7339
# 5 -10.0383 -2.3984 -7.6213 3.2100 46.9035 0.8666
# 6 6.0321 4.0141 2.3078 -5.7339 0.8666 22.2930
#
#
#
# Elastic Compliance Matrix: (Units=1/GPa)
#
#
# Indices 1 2 3 4 5 6 
#
# 1 0.010593 -0.000899 -0.004999 -0.000405 0.001480 -0.002349
# 2 -0.000899 0.007757 -0.002345 0.001994 -0.000306 -0.000386
# 3 -0.004999 -0.002345 0.020736 0.008767 0.001546 0.001823
# 4 -0.000405 0.001994 0.008767 0.039669 -0.001443 0.009102
# 5 0.001480 -0.000306 0.001546 -0.001443 0.022003 -0.001732
# 6 -0.002349 -0.000386 0.001823 0.009102 -0.001732 0.047782
#
#
# Mechanical properties :
#
#
# Convention : Reuss Voigt Hill
#
# Bulk Modulus (GPa) = 44.24867 56.41348 50.33108
# Shear Modulus (GPa) = 28.97551 35.84978 32.41264
#
# Velocity S-wave (km/s) = 3.68618 4.10019 3.89868
# Velocity P-wave (km/s) = 6.23437 6.99072 6.62335
#
# Compressibility (1/GPa) = 0.02259955
#
# Stress axis : x y z
#
# Youngs Moduli (GPa) = 94.40188 128.91622 48.22600
#
# Poissons Ratio (x) = 0.11583 0.24109
# Poissons Ratio (y) = 0.08482 0.11311
# Poissons Ratio (z) = 0.47192 0.30237
#
# Static dielectric constant tensor:
#      x y z
#    x 1.824520 0.012700 -0.047610 
#    y 0.012700 1.823050 -0.060670 
#    z -0.047610 -0.060670 1.906000 
# 
# From -- ./inp_files/472784.got.cif
#   From: 2010.05.17/outbox.cif.g08.bks.cpg/sg2_237_cif.got.tgz:472784.got - 2010.06.03 11:33:40.
