data_PCOD9087568
_publ_section_title
;
Structure prediction by ZEFSAII (Michael W. Deem and Ramdas Pophale) SiO2 
 PCOD9087568
Probable space group: P -1
;
_chemical_formula_sum "Si O2"
_cell_formula_units_Z 14
_cell_length_a 18.124495
_cell_length_b 7.724385
_cell_length_c 6.451977
_cell_angle_alpha 61.340084
_cell_angle_beta 118.444212
_cell_angle_gamma 137.386404
_cell_volume 524.946289
_symmetry_space_group_name_H-M "P -1"
_symmetry_group_IT_number 2
_symmetry_cell_setting 'triclinic'
loop_
_space_group_symop_operation_xyz
x,y,z
-x,-y,-z
loop_
_atom_site_type_symbol
_atom_site_label
_atom_site_fract_x
_atom_site_fract_y
_atom_site_fract_z
Si Si1 0.663885 0.578233 0.041417
Si Si2 0.652699 0.224112 0.523556
Si Si3 0.889007 0.081160 0.460009
Si Si4 0.126211 0.553255 0.548395
Si Si5 0.525591 0.762575 0.320047
Si Si6 0.132165 0.244615 0.054219
Si Si7 0.693958 0.004060 0.041314
O O1 0.649663 0.443710 0.317572
O O2 0.635812 0.761563 0.941905
O O3 0.577372 0.342123 0.905055
O O4 0.784214 0.736317 0.003900
O O5 0.764531 0.317035 0.507598
O O6 0.550912 0.950909 0.432317
O O7 0.676636 0.188719 0.806757
O O8 0.891417 0.242071 0.562152
O O9 0.018739 0.282925 0.455802
O O10 0.845742 0.810154 0.656049
O O11 0.808984 0.061415 0.199424
O O12 0.141380 0.480269 0.840216
O O13 0.500000 0.500000 0.500000
O O14 0.633466 0.917707 0.228905
O O15 0.000000 0.000000 0.000000
#
# Coordination Sequence:
#
# PCOD9087568 Si02
#       7
#     2   2   2   2   2   2   2
#     4  11  24  42  66  98 131 170 216 269 321 375
#     4  11  24  44  64  95 133 166 221 264 319 391
#     4  10  19  36  64  92 126 170 210 259 323 372
#     4   9  19  38  63  91 124 170 214 257 315 386
#     4  12  24  46  69  91 131 176 214 265 326 385
#     4   9  19  39  65  91 125 169 211 257 316 385
#     4  12  25  42  65 101 130 167 218 270 319 381
#
# _framework density 26.669394
#
# number of rings (size 3 to 8) (size 9 to 14) (size 15 to 20)
#    0.000    1.429    2.857    2.571    0.000    2.286 
#    2.571    6.429    0.000    0.000    0.000    0.000 
#    0.000    0.000    0.000    0.000    0.000    0.000 
#
# Total GULP energy -78344.613773 kJ/mol
# GULP energy per Si atom -5596.043841 kJ/mol
# Density = 2.660869 g / cm^3
# Si number density = 26.669394 Si / 1000 Ang^3
#
#
#
# Elastic Constant Matrix: (Units=GPa)
#
#
# Indices 1 2 3 4 5 6 
#
# 1 65.7374 16.1497 2.6578 3.8572 6.7648 1.1963
# 2 16.1497 81.0400 52.7927 1.4958 -0.8210 9.2982
# 3 2.6578 52.7927 159.7017 -0.9030 29.1403 12.6051
# 4 3.8572 1.4958 -0.9030 53.6450 0.6152 5.3284
# 5 6.7648 -0.8210 29.1403 0.6152 32.9188 1.0634
# 6 1.1963 9.2982 12.6051 5.3284 1.0634 42.1333
#
#
#
# Elastic Compliance Matrix: (Units=1/GPa)
#
#
# Indices 1 2 3 4 5 6 
#
# 1 0.016990 -0.005008 0.002398 -0.000993 -0.005726 0.000175
# 2 -0.005008 0.018408 -0.007317 -0.000179 0.008031 -0.001911
# 3 0.002398 -0.007317 0.010581 0.000466 -0.010005 -0.001425
# 4 -0.000993 -0.000179 0.000466 0.018975 -0.000488 -0.002459
# 5 -0.005726 0.008031 -0.010005 -0.000488 0.040607 0.000420
# 6 0.000175 -0.001911 -0.001425 -0.002459 0.000420 0.024878
#
#
# Mechanical properties :
#
#
# Convention : Reuss Voigt Hill
#
# Bulk Modulus (GPa) = 38.27726 49.96438 44.12082
# Shear Modulus (GPa) = 31.44622 41.39803 36.42212
#
# Velocity S-wave (km/s) = 3.43755 3.94416 3.69953
# Velocity P-wave (km/s) = 5.48993 6.28627 5.90155
#
# Compressibility (1/GPa) = 0.02612517
#
# Stress axis : x y z
#
# Youngs Moduli (GPa) = 58.85932 54.32328 94.50574
#
# Poissons Ratio (x) = 0.27203 -0.22663
# Poissons Ratio (y) = 0.29475 0.69154
# Poissons Ratio (z) = -0.14115 0.39751
#
# Static dielectric constant tensor:
#      x y z
#    x 2.000060 0.030360 0.015040 
#    y 0.030360 2.196910 0.085080 
#    z 0.015040 0.085080 2.136280 
# 
# From -- ./inp_files/36906.got.cif
#   From: 2010.05.17/outbox.cif.g08.bks.cpg/sg2_19_cif.got.tgz:36906.got - 2010.06.03 11:33:40.
