data_PCOD9087348
_publ_section_title
;
Structure prediction by ZEFSAII (Michael W. Deem and Ramdas Pophale) SiO2 
 PCOD9087348
Probable space group: P -1
;
_chemical_formula_sum "Si O2"
_cell_formula_units_Z 16
_cell_length_a 8.629577
_cell_length_b 11.917139
_cell_length_c 7.461229
_cell_angle_alpha 91.321846
_cell_angle_beta 94.138785
_cell_angle_gamma 126.299572
_cell_volume 614.719345
_symmetry_space_group_name_H-M "P -1"
_symmetry_group_IT_number 2
_symmetry_cell_setting 'triclinic'
loop_
_space_group_symop_operation_xyz
x,y,z
-x,-y,-z
loop_
_atom_site_type_symbol
_atom_site_label
_atom_site_fract_x
_atom_site_fract_y
_atom_site_fract_z
Si Si1 0.173084 0.491505 0.054580
Si Si2 0.504513 0.876718 0.415594
Si Si3 0.824367 0.055163 0.199905
Si Si4 0.275886 0.434610 0.447964
Si Si5 0.573949 0.662745 0.994571
Si Si6 0.103030 0.737906 0.476834
Si Si7 0.973572 0.805085 0.141009
Si Si8 0.778963 0.831794 0.653439
O O1 0.240116 0.478771 0.257435
O O2 0.368726 0.632143 0.001298
O O3 0.000000 0.500000 0.000000
O O4 0.097491 0.344749 0.951881
O O5 0.285044 0.742753 0.424267
O O6 0.648091 0.862070 0.541594
O O7 0.500000 0.000000 0.500000
O O8 0.608060 0.928496 0.232697
O O9 0.853474 0.186052 0.320530
O O10 0.997478 0.045877 0.281442
O O11 0.881179 0.087457 0.997137
O O12 0.500000 0.500000 0.500000
O O13 0.200844 0.275260 0.452898
O O14 0.105261 0.415245 0.554002
O O15 0.665848 0.740299 0.817505
O O16 0.500000 0.500000 0.000000
O O17 0.757214 0.763874 0.141192
O O18 0.090836 0.829946 0.329119
#
# Coordination Sequence:
#
# PCOD9087348 Si02
#       8
#     2   2   2   2   2   2   2   2
#     4  11  22  35  57  87 125 165 200 256 313 358
#     4  10  22  37  61  89 121 157 206 262 310 356
#     4   9  19  40  62  84 116 158 205 250 306 358
#     4  11  22  39  59  88 128 166 207 248 303 383
#     4   9  17  34  57  84 111 159 203 232 297 369
#     4  10  21  36  60  89 120 152 204 254 303 361
#     4  10  19  38  61  83 117 161 198 249 300 373
#     4  10  19  36  63  86 117 168 202 243 310 370
#
# _framework density 26.028136
#
# number of rings (size 3 to 8) (size 9 to 14) (size 15 to 20)
#    0.000    2.000    5.000    1.125    3.500    1.500 
#    0.000    1.250    0.000   30.000    0.000    0.000 
#    0.000    0.000    0.000    0.000    0.000    0.000 
#
# Total GULP energy -89213.689079 kJ/mol
# GULP energy per Si atom -5575.855567 kJ/mol
# Density = 2.596890 g / cm^3
# Si number density = 26.028136 Si / 1000 Ang^3
#
#
#
# Elastic Constant Matrix: (Units=GPa)
#
#
# Indices 1 2 3 4 5 6 
#
# 1 167.9226 52.3456 36.2879 -14.0998 -6.0234 53.4539
# 2 52.3456 116.9990 14.1664 -6.9595 -11.5206 38.1221
# 3 36.2879 14.1664 117.5797 -13.9988 -7.7277 24.2242
# 4 -14.0998 -6.9595 -13.9988 24.9848 14.6774 -10.8303
# 5 -6.0234 -11.5206 -7.7277 14.6774 36.3433 -16.2806
# 6 53.4539 38.1221 24.2242 -10.8303 -16.2806 65.1777
#
#
#
# Elastic Compliance Matrix: (Units=1/GPa)
#
#
# Indices 1 2 3 4 5 6 
#
# 1 0.008886 -0.002028 -0.001100 0.003226 -0.003397 -0.006004
# 2 -0.002028 0.011036 0.000256 -0.000799 0.001454 -0.004657
# 3 -0.001100 0.000256 0.009768 0.004406 -0.000861 -0.002361
# 4 0.003226 -0.000799 0.004406 0.056918 -0.021665 0.000231
# 5 -0.003397 0.001454 -0.000861 -0.021665 0.039835 0.008606
# 6 -0.006004 -0.004657 -0.002361 0.000231 0.008606 0.026056
#
#
# Mechanical properties :
#
#
# Convention : Reuss Voigt Hill
#
# Bulk Modulus (GPa) = 41.76228 67.56678 54.66453
# Shear Modulus (GPa) = 30.07968 45.28126 37.68047
#
# Velocity S-wave (km/s) = 3.40319 4.17550 3.80897
# Velocity P-wave (km/s) = 5.61446 7.01868 6.35547
#
# Compressibility (1/GPa) = 0.02394505
#
# Stress axis : x y z
#
# Youngs Moduli (GPa) = 112.54289 90.60930 102.37628
#
# Poissons Ratio (x) = 0.18379 0.11262
# Poissons Ratio (y) = 0.22827 -0.02621
# Poissons Ratio (z) = 0.12380 -0.02320
#
# Static dielectric constant tensor:
#      x y z
#    x 2.217730 0.086600 -0.044770 
#    y 0.086600 2.238670 0.046660 
#    z -0.044770 0.046660 2.111840 
# 
# From -- ./inp_files/206424.got.cif
#   From: 2010.05.17/outbox.cif.g08.bks.cpg/sg2_104_cif.got.tgz:206424.got - 2010.06.03 11:33:40.
