data_PCOD9087288
_publ_section_title
;
Structure prediction by ZEFSAII (Michael W. Deem and Ramdas Pophale) SiO2 
 PCOD9087288
Probable space group: P -1
;
_chemical_formula_sum "Si O2"
_cell_formula_units_Z 16
_cell_length_a 5.342587
_cell_length_b 10.265198
_cell_length_c 18.487944
_cell_angle_alpha 75.099530
_cell_angle_beta 63.336285
_cell_angle_gamma 56.300634
_cell_volume 753.796740
_symmetry_space_group_name_H-M "P -1"
_symmetry_group_IT_number 2
_symmetry_cell_setting 'triclinic'
loop_
_space_group_symop_operation_xyz
x,y,z
-x,-y,-z
loop_
_atom_site_type_symbol
_atom_site_label
_atom_site_fract_x
_atom_site_fract_y
_atom_site_fract_z
Si Si1 0.328271 0.538632 0.401751
Si Si2 0.775253 0.411868 0.857467
Si Si3 0.346926 0.965270 0.429857
Si Si4 0.258280 0.254964 0.458280
Si Si5 0.787475 0.678190 0.324512
Si Si6 0.029248 0.572301 0.910080
Si Si7 0.304453 0.055775 0.093488
Si Si8 0.047210 0.078192 0.910851
O O1 0.427795 0.357773 0.414438
O O2 0.619865 0.572488 0.356626
O O3 0.115634 0.621637 0.489959
O O4 0.072065 0.614138 0.357601
O O5 0.414313 0.499639 0.859446
O O6 0.037938 0.334177 0.771260
O O7 0.859217 0.520814 0.879280
O O8 0.824505 0.264378 0.919216
O O9 0.597621 0.857865 0.475093
O O10 0.494463 0.852013 0.358300
O O11 0.315637 0.134300 0.404450
O O12 0.000000 0.000000 0.500000
O O13 0.865422 0.758596 0.907856
O O14 0.000000 0.500000 0.000000
O O15 0.576517 0.974535 0.130867
O O16 0.061466 0.989591 0.131149
O O17 0.500000 0.000000 0.000000
O O18 0.000000 0.000000 0.000000
#
# Coordination Sequence:
#
# PCOD9087288 Si02
#       8
#     2   2   2   2   2   2   2   2
#     4  10  21  38  63  89 123 167 212 262 311 366
#     4  12  25  42  64  94 130 170 210 264 338 384
#     4  10  19  36  62  93 126 165 218 260 305 371
#     4   9  20  34  61  96 119 161 222 267 298 357
#     4  11  24  41  60  87 133 170 204 262 324 381
#     4  12  23  41  68  94 119 161 217 265 310 394
#     4  10  20  36  60  89 117 145 193 259 309 356
#     4  10  19  37  61  89 119 155 203 254 310 379
#
# _framework density 21.225881000000001
#
# number of rings (size 3 to 8) (size 9 to 14) (size 15 to 20)
#    0.000    1.500    1.250    5.625    1.750    1.500 
#    0.000    3.750    2.750    0.000    0.000    0.000 
#    0.000    0.000    0.000    0.000    0.000    0.000 
#
# Total GULP energy -89354.354173 kJ/mol
# GULP energy per Si atom -5584.647136 kJ/mol
# Density = 2.117757 g / cm^3
# Si number density = 21.225881 Si / 1000 Ang^3
#
#
#
# Elastic Constant Matrix: (Units=GPa)
#
#
# Indices 1 2 3 4 5 6 
#
# 1 114.3643 33.7706 -1.0956 -8.6817 -17.0285 19.6458
# 2 33.7706 166.0442 11.3933 6.9333 -8.2922 21.6496
# 3 -1.0956 11.3933 55.9211 14.4135 -8.1698 10.7727
# 4 -8.6817 6.9333 14.4135 15.2503 -1.1254 1.8118
# 5 -17.0285 -8.2922 -8.1698 -1.1254 19.7632 -1.0033
# 6 19.6458 21.6496 10.7727 1.8118 -1.0033 36.6305
#
#
#
# Elastic Compliance Matrix: (Units=1/GPa)
#
#
# Indices 1 2 3 4 5 6 
#
# 1 0.012540 -0.001628 0.001226 0.008257 0.010782 -0.006237
# 2 -0.001628 0.006965 0.000360 -0.003968 0.001285 -0.003118
# 3 0.001226 0.000360 0.026735 -0.023086 0.010574 -0.007301
# 4 0.008257 -0.003968 -0.023086 0.093978 0.001262 0.000093
# 5 0.010782 0.001285 0.010574 0.001262 0.064468 -0.007948
# 6 -0.006237 -0.003118 -0.007301 0.000093 -0.007948 0.034413
#
#
# Mechanical properties :
#
#
# Convention : Reuss Voigt Hill
#
# Bulk Modulus (GPa) = 21.66531 47.16291 34.41411
# Shear Modulus (GPa) = 19.64119 33.81288 26.72704
#
# Velocity S-wave (km/s) = 3.04524 3.99557 3.55233
# Velocity P-wave (km/s) = 4.75330 6.59954 5.75099
#
# Compressibility (1/GPa) = 0.04615674
#
# Stress axis : x y z
#
# Youngs Moduli (GPa) = 79.74471 143.57033 37.40483
#
# Poissons Ratio (x) = 0.23368 -0.04585
# Poissons Ratio (y) = 0.12980 -0.01347
# Poissons Ratio (z) = -0.09776 -0.05172
#
# Static dielectric constant tensor:
#      x y z
#    x 1.738070 0.011010 -0.018970 
#    y 0.011010 1.780140 -0.009530 
#    z -0.018970 -0.009530 1.779440 
# 
# From -- ./inp_files/46813.got.cif
#   From: 2010.05.17/outbox.cif.g08.bks.cpg/sg2_24_cif.got.tgz:46813.got - 2010.06.03 11:33:40.
