data_PCOD9087039
_publ_section_title
;
Structure prediction by ZEFSAII (Michael W. Deem and Ramdas Pophale) SiO2 
 PCOD9087039
Probable space group: P -1
;
_chemical_formula_sum "Si O2"
_cell_formula_units_Z 12
_cell_length_a 9.885482
_cell_length_b 9.745530
_cell_length_c 13.377695
_cell_angle_alpha 87.471035
_cell_angle_beta 118.405316
_cell_angle_gamma 41.748165
_cell_volume 552.536137
_symmetry_space_group_name_H-M "P -1"
_symmetry_group_IT_number 2
_symmetry_cell_setting 'triclinic'
loop_
_space_group_symop_operation_xyz
x,y,z
-x,-y,-z
loop_
_atom_site_type_symbol
_atom_site_label
_atom_site_fract_x
_atom_site_fract_y
_atom_site_fract_z
Si Si1 0.128952 0.756266 0.919899
Si Si2 0.278989 0.706116 0.320320
Si Si3 0.434519 0.699682 0.170490
Si Si4 0.726996 0.742446 0.321305
Si Si5 0.844908 0.783395 0.167727
Si Si6 0.078973 0.367191 0.137545
O O1 0.164152 0.567076 0.929491
O O2 0.926624 0.992225 0.756359
O O3 0.894126 0.963966 0.928320
O O4 0.419801 0.617773 0.069178
O O5 0.500000 0.500000 0.500000
O O6 0.478438 0.576401 0.291806
O O7 0.013628 0.795959 0.204409
O O8 0.667142 0.646204 0.245217
O O9 0.816563 0.791956 0.275506
O O10 0.000000 0.500000 0.500000
O O11 0.414255 0.032499 0.258962
O O12 0.072177 0.489848 0.213072
O O13 0.500000 0.000000 0.000000
O O14 0.000000 0.500000 0.000000
#
# Coordination Sequence:
#
# PCOD9087039 Si02
#       6
#     2   2   2   2   2   2
#     4   8  17  34  61  80 114 169 201 241 312 375
#     4  10  19  36  61  89 126 168 200 259 328 370
#     4   8  16  35  61  80 119 169 200 246 321 366
#     4  11  23  41  64  95 129 165 213 268 318 374
#     4  12  24  39  68  98 123 167 223 259 312 387
#     4  11  22  41  67  93 129 165 213 266 318 373
#
# _framework density 21.718036999999999
#
# number of rings (size 3 to 8) (size 9 to 14) (size 15 to 20)
#    1.000    1.000    1.667    3.000    0.000    0.667 
#    0.000    3.333    0.000    3.000    0.000    0.000 
#    0.000    0.000    0.000    0.000    0.000    0.000 
#
# Total GULP energy -66847.825221 kJ/mol
# GULP energy per Si atom -5570.652102 kJ/mol
# Density = 2.166861 g / cm^3
# Si number density = 21.718037 Si / 1000 Ang^3
#
#
#
# Elastic Constant Matrix: (Units=GPa)
#
#
# Indices 1 2 3 4 5 6 
#
# 1 119.6913 8.7792 16.9999 -3.3164 -5.6034 19.8425
# 2 8.7792 44.5205 4.7125 -2.4128 9.2446 16.6218
# 3 16.9999 4.7125 106.2381 -12.4599 -16.9504 4.0165
# 4 -3.3164 -2.4128 -12.4599 16.1056 -0.0387 0.5060
# 5 -5.6034 9.2446 -16.9504 -0.0387 29.0060 5.0867
# 6 19.8425 16.6218 4.0165 0.5060 5.0867 37.6976
#
#
#
# Elastic Compliance Matrix: (Units=1/GPa)
#
#
# Indices 1 2 3 4 5 6 
#
# 1 0.009486 -0.000291 -0.000756 0.001492 0.002385 -0.005126
# 2 -0.000291 0.028813 -0.001745 0.003242 -0.008274 -0.011292
# 3 -0.000756 -0.001745 0.011909 0.008854 0.007600 -0.001246
# 4 0.001492 0.003242 0.008854 0.069897 0.005367 -0.004821
# 5 0.002385 -0.008274 0.007600 0.005367 0.042769 -0.004260
# 6 -0.005126 -0.011292 -0.001246 -0.004821 -0.004260 0.034976
#
#
# Mechanical properties :
#
#
# Convention : Reuss Voigt Hill
#
# Bulk Modulus (GPa) = 22.40842 36.82592 29.61717
# Shear Modulus (GPa) = 22.90325 32.55906 27.73116
#
# Velocity S-wave (km/s) = 3.25094 3.87611 3.57721
# Velocity P-wave (km/s) = 4.94285 6.08486 5.54334
#
# Compressibility (1/GPa) = 0.04462608
#
# Stress axis : x y z
#
# Youngs Moduli (GPa) = 105.41511 34.70596 83.96861
#
# Poissons Ratio (x) = 0.01010 0.06347
# Poissons Ratio (y) = 0.03069 0.14648
# Poissons Ratio (z) = 0.07968 0.06055
#
# Static dielectric constant tensor:
#      x y z
#    x 1.998660 0.013630 0.104830 
#    y 0.013630 1.842100 0.036730 
#    z 0.104830 0.036730 1.842470 
# 
# From -- ./inp_files/490935.got.cif
#   From: 2010.05.17/outbox.cif.g08.bks.cpg/sg2_246_cif.got.tgz:490935.got - 2010.06.03 11:33:40.
