data_PCOD9087746
_publ_section_title
;
Structure prediction by ZEFSAII (Michael W. Deem and Ramdas Pophale) SiO2 
 PCOD9087746
Probable space group: P -1
;
_chemical_formula_sum "Si O2"
_cell_formula_units_Z 15
_cell_length_a 19.133766
_cell_length_b 9.280129
_cell_length_c 12.515863
_cell_angle_alpha 41.939417
_cell_angle_beta 24.442464
_cell_angle_gamma 34.398163
_cell_volume 519.246014
_symmetry_space_group_name_H-M "P -1"
_symmetry_group_IT_number 2
_symmetry_cell_setting 'triclinic'
loop_
_space_group_symop_operation_xyz
x,y,z
-x,-y,-z
loop_
_atom_site_type_symbol
_atom_site_label
_atom_site_fract_x
_atom_site_fract_y
_atom_site_fract_z
Si Si1 0.277599 0.163305 0.271981
Si Si2 0.290850 0.680789 0.502510
Si Si3 0.176408 0.702088 0.416990
Si Si4 0.289570 0.728188 0.797182
Si Si5 0.282080 0.873647 0.968881
Si Si6 0.539703 0.959216 0.704161
Si Si7 0.000000 0.500000 0.000000
Si Si8 0.132851 0.429085 0.113872
O O1 0.193285 0.977182 0.500643
O O2 0.324708 0.225883 0.287282
O O3 0.142636 0.374987 0.257022
O O4 0.500000 0.000000 0.000000
O O5 0.307756 0.664627 0.358557
O O6 0.501723 0.546022 0.342635
O O7 0.192880 0.518416 0.754208
O O8 0.063355 0.548686 0.675366
O O9 0.000000 0.000000 0.500000
O O10 0.261036 0.707932 0.181573
O O11 0.338596 0.920413 0.571684
O O12 0.261245 0.787295 0.929190
O O13 0.140208 0.682183 0.962835
O O14 0.488670 0.845103 0.737061
O O15 0.127569 0.180834 0.013080
O O16 0.327677 0.175733 0.933462
#
# Coordination Sequence:
#
# PCOD9087746 Si02
#       8
#     2   2   2   2   2   2   1   2
#     4  10  19  36  67 101 128 173 234 275 322 406
#     4  12  23  41  70 105 132 178 233 281 334 411
#     4  12  22  43  71 102 134 185 235 274 340 415
#     4  12  27  42  68 108 143 175 231 294 342 394
#     4  12  26  45  70 100 141 179 236 288 342 414
#     4  11  21  40  69  99 136 180 229 280 333 410
#     4  12  24  42  70  92 132 186 220 278 348 412
#     4  11  22  42  71 103 138 184 232 281 336 414
#
# _framework density 28.888041000000001
#
# number of rings (size 3 to 8) (size 9 to 14) (size 15 to 20)
#    0.000    0.533    8.000    1.600    0.000    1.067 
#    0.000    0.000    0.000    6.400    0.000    0.000 
#    0.000    0.000    0.000    0.000    0.000    0.000 
#
# Total GULP energy -83935.850899 kJ/mol
# GULP energy per Si atom -5595.723393 kJ/mol
# Density = 2.882229 g / cm^3
# Si number density = 28.888041 Si / 1000 Ang^3
#
#
#
# Elastic Constant Matrix: (Units=GPa)
#
#
# Indices 1 2 3 4 5 6 
#
# 1 170.0518 25.0011 18.1060 9.9888 -6.0177 23.4839
# 2 25.0011 96.4814 34.5769 -17.5139 -14.9403 24.5205
# 3 18.1060 34.5769 131.3017 -28.8108 -30.1451 21.8875
# 4 9.9888 -17.5139 -28.8108 46.9167 10.6853 -20.2141
# 5 -6.0177 -14.9403 -30.1451 10.6853 43.3611 -4.8357
# 6 23.4839 24.5205 21.8875 -20.2141 -4.8357 44.4045
#
#
#
# Elastic Compliance Matrix: (Units=1/GPa)
#
#
# Indices 1 2 3 4 5 6 
#
# 1 0.007073 -0.001074 -0.000740 -0.004585 0.000692 -0.004794
# 2 -0.001074 0.013109 -0.001624 0.001462 0.002326 -0.004952
# 3 -0.000740 -0.001624 0.010559 0.004174 0.005492 -0.001418
# 4 -0.004585 0.001462 0.004174 0.032175 -0.003619 0.013813
# 5 0.000692 0.002326 0.005492 -0.003619 0.028344 -0.002918
# 6 -0.004794 -0.004952 -0.001418 0.013813 -0.002918 0.034459
#
#
# Mechanical properties :
#
#
# Convention : Reuss Voigt Hill
#
# Bulk Modulus (GPa) = 41.90337 61.46697 51.68517
# Shear Modulus (GPa) = 35.57433 48.27985 41.92709
#
# Velocity S-wave (km/s) = 3.51302 4.09256 3.81381
# Velocity P-wave (km/s) = 5.56704 6.60726 6.10933
#
# Compressibility (1/GPa) = 0.02386443
#
# Stress axis : x y z
#
# Youngs Moduli (GPa) = 141.37815 76.28344 94.70779
#
# Poissons Ratio (x) = 0.08194 0.07013
# Poissons Ratio (y) = 0.15186 0.15377
# Poissons Ratio (z) = 0.10469 0.12386
#
# Static dielectric constant tensor:
#      x y z
#    x 2.713460 0.166890 0.219500 
#    y 0.166890 2.534790 0.164210 
#    z 0.219500 0.164210 2.450070 
# 
# From -- ./inp_files/245501.got.cif
#   From: 2010.05.17/outbox.cif.g08.bks.cpg/sg2_123_cif.got.tgz:245501.got - 2010.06.03 11:33:40.
