data_PCOD9087212
_publ_section_title
;
Structure prediction by ZEFSAII (Michael W. Deem and Ramdas Pophale) SiO2 
 PCOD9087212
Probable space group: P -1
;
_chemical_formula_sum "Si O2"
_cell_formula_units_Z 16
_cell_length_a 16.150323
_cell_length_b 17.667863
_cell_length_c 8.949903
_cell_angle_alpha 42.434061
_cell_angle_beta 147.194225
_cell_angle_gamma 146.012728
_cell_volume 766.289074
_symmetry_space_group_name_H-M "P -1"
_symmetry_group_IT_number 2
_symmetry_cell_setting 'triclinic'
loop_
_space_group_symop_operation_xyz
x,y,z
-x,-y,-z
loop_
_atom_site_type_symbol
_atom_site_label
_atom_site_fract_x
_atom_site_fract_y
_atom_site_fract_z
Si Si1 0.781404 0.797036 0.883189
Si Si2 0.286485 0.912655 0.256716
Si Si3 0.027958 0.794021 0.767949
Si Si4 0.987646 0.645673 0.348724
Si Si5 0.953487 0.593672 0.707373
Si Si6 0.442001 0.575237 0.518217
Si Si7 0.724329 0.517836 0.892643
Si Si8 0.098855 0.068825 0.825521
O O1 0.582210 0.709542 0.629508
O O2 0.789346 0.816371 0.044984
O O3 0.903296 0.947991 0.777511
O O4 0.879727 0.720114 0.104486
O O5 0.179127 0.766313 0.390295
O O6 0.500000 0.000000 0.500000
O O7 0.214148 0.874602 0.031411
O O8 0.206296 0.999448 0.057969
O O9 0.056807 0.736028 0.744533
O O10 0.867324 0.664404 0.811801
O O11 0.944963 0.876980 0.466031
O O12 0.002662 0.601866 0.598563
O O13 0.853872 0.522146 0.212239
O O14 0.734289 0.525191 0.499701
O O15 0.000000 0.500000 0.000000
O O16 0.557622 0.514666 0.726655
O O17 0.363404 0.589263 0.220354
#
# Coordination Sequence:
#
# PCOD9087212 Si02
#       8
#     2   2   2   2   2   2   2   2
#     4   9  18  33  62  89 113 145 195 248 289 339
#     4  10  22  39  61  89 121 155 193 239 296 358
#     4  10  20  40  62  84 119 154 197 242 293 349
#     4   9  18  39  59  82 118 153 191 238 296 345
#     4  11  23  39  59  82 119 161 192 238 299 345
#     4   9  18  35  54  85 113 141 199 236 281 342
#     4   8  17  34  59  82 112 149 187 245 289 336
#     4  10  19  36  62  89 118 153 194 242 299 341
#
# _framework density 20.879850000000001
#
# number of rings (size 3 to 8) (size 9 to 14) (size 15 to 20)
#    0.000    2.500    1.250    1.125    0.000    3.000 
#    6.750    6.250    0.000    0.000    0.000    0.000 
#    0.000    0.000    0.000    0.000    0.000    0.000 
#
# Total GULP energy -89286.109790 kJ/mol
# GULP energy per Si atom -5580.381862 kJ/mol
# Density = 2.083233 g / cm^3
# Si number density = 20.879850 Si / 1000 Ang^3
#
#
#
# Elastic Constant Matrix: (Units=GPa)
#
#
# Indices 1 2 3 4 5 6 
#
# 1 72.4334 28.0328 46.3428 20.8830 -27.6340 -7.8288
# 2 28.0328 75.5889 66.6316 34.4518 -18.9680 -12.4487
# 3 46.3428 66.6316 150.3500 27.9843 -32.5509 7.1494
# 4 20.8830 34.4518 27.9843 49.8327 -8.8436 -9.8299
# 5 -27.6340 -18.9680 -32.5509 -8.8436 36.3051 4.5851
# 6 -7.8288 -12.4487 7.1494 -9.8299 4.5851 25.0688
#
#
#
# Elastic Compliance Matrix: (Units=1/GPa)
#
#
# Indices 1 2 3 4 5 6 
#
# 1 0.022629 0.001581 -0.004297 -0.005012 0.012365 0.004851
# 2 0.001581 0.032902 -0.013059 -0.012776 0.001647 0.015245
# 3 -0.004297 -0.013059 0.015489 0.000546 0.005575 -0.013049
# 4 -0.005012 -0.012776 0.000546 0.031080 -0.003020 0.004674
# 5 0.012365 0.001647 0.005575 -0.003020 0.042828 -0.005928
# 6 0.004851 0.015245 -0.013049 0.004674 -0.005928 0.055614
#
#
# Mechanical properties :
#
#
# Convention : Reuss Voigt Hill
#
# Bulk Modulus (GPa) = 25.33472 64.48740 44.91106
# Shear Modulus (GPa) = 20.38753 32.73233 26.55993
#
# Velocity S-wave (km/s) = 3.12816 3.96365 3.57043
# Velocity P-wave (km/s) = 5.02067 7.20413 6.20913
#
# Compressibility (1/GPa) = 0.03947152
#
# Stress axis : x y z
#
# Youngs Moduli (GPa) = 44.19020 30.39350 64.56262
#
# Poissons Ratio (x) = -0.04807 0.27740
# Poissons Ratio (y) = -0.06988 0.84312
# Poissons Ratio (z) = 0.18987 0.39691
#
# Static dielectric constant tensor:
#      x y z
#    x 1.844740 -0.049120 0.025360 
#    y -0.049120 1.762910 -0.014820 
#    z 0.025360 -0.014820 1.797770 
# 
# From -- ./inp_files/209106.got.cif
#   From: 2010.05.17/outbox.cif.g08.bks.cpg/sg2_105_cif.got.tgz:209106.got - 2010.06.03 11:33:40.
