data_PCOD9087389
_publ_section_title
;
Structure prediction by ZEFSAII (Michael W. Deem and Ramdas Pophale) SiO2 
 PCOD9087389
Probable space group: P -1
;
_chemical_formula_sum "Si O2"
_cell_formula_units_Z 16
_cell_length_a 16.034768
_cell_length_b 4.900645
_cell_length_c 11.200965
_cell_angle_alpha 114.643451
_cell_angle_beta 61.882266
_cell_angle_gamma 87.763739
_cell_volume 674.454320
_symmetry_space_group_name_H-M "P -1"
_symmetry_group_IT_number 2
_symmetry_cell_setting 'triclinic'
loop_
_space_group_symop_operation_xyz
x,y,z
-x,-y,-z
loop_
_atom_site_type_symbol
_atom_site_label
_atom_site_fract_x
_atom_site_fract_y
_atom_site_fract_z
Si Si1 0.786514 0.663186 0.919789
Si Si2 0.298900 0.597778 0.863294
Si Si3 0.941521 0.934234 0.142439
Si Si4 0.850189 0.765311 0.539783
Si Si5 0.337619 0.282618 0.201790
Si Si6 0.472364 0.610406 0.902851
Si Si7 0.815453 0.599341 0.282929
Si Si8 0.042379 0.166895 0.308970
O O1 0.723841 0.546350 0.838802
O O2 0.885640 0.692523 0.795321
O O3 0.780057 0.448641 0.995456
O O4 0.731444 0.024812 0.066296
O O5 0.404932 0.476059 0.836046
O O6 0.282621 0.406766 0.722949
O O7 0.851685 0.257547 0.257110
O O8 0.010879 0.915325 0.205945
O O9 0.891575 0.659630 0.143663
O O10 0.000000 0.000000 0.000000
O O11 0.745700 0.762738 0.663513
O O12 0.826163 0.824332 0.426828
O O13 0.900162 0.962817 0.630911
O O14 0.937441 0.437364 0.441992
O O15 0.419873 0.417314 0.229017
O O16 0.402892 0.961000 0.038524
O O17 0.500000 0.500000 0.000000
#
# Coordination Sequence:
#
# PCOD9087389 Si02
#       8
#     2   2   2   2   2   2   2   2
#     4  10  20  35  60  88 117 151 197 245 289 335
#     4  11  21  36  60  87 118 150 194 248 297 337
#     4  11  22  38  59  84 117 154 204 244 280 330
#     4   9  20  39  57  84 123 160 195 233 286 355
#     4   9  19  38  59  88 118 146 190 249 299 346
#     4  10  19  36  63  90 109 143 197 252 301 346
#     4  11  23  38  55  83 120 159 191 237 291 346
#     4   9  19  37  60  85 117 162 198 233 280 344
#
# _framework density 23.722885000000002
#
# number of rings (size 3 to 8) (size 9 to 14) (size 15 to 20)
#    0.000    2.000    1.250    2.625    0.000    3.500 
#    4.500    4.375    0.000    0.750    0.000    0.000 
#    0.000    0.000    0.000    0.000    0.000    0.000 
#
# Total GULP energy -89211.188303 kJ/mol
# GULP energy per Si atom -5575.699269 kJ/mol
# Density = 2.366889 g / cm^3
# Si number density = 23.722885 Si / 1000 Ang^3
#
#
#
# Elastic Constant Matrix: (Units=GPa)
#
#
# Indices 1 2 3 4 5 6 
#
# 1 251.5406 27.3721 60.3755 -13.6970 17.9509 22.3793
# 2 27.3721 77.5054 -5.6582 -4.5397 -0.8904 0.0907
# 3 60.3755 -5.6582 57.6960 -16.5516 1.6399 9.2083
# 4 -13.6970 -4.5397 -16.5516 18.9724 -1.7663 -4.5828
# 5 17.9509 -0.8904 1.6399 -1.7663 52.1707 -3.4467
# 6 22.3793 0.0907 9.2083 -4.5828 -3.4467 28.1453
#
#
#
# Elastic Compliance Matrix: (Units=1/GPa)
#
#
# Indices 1 2 3 4 5 6 
#
# 1 0.006353 -0.003015 -0.007354 -0.003619 -0.002361 -0.003514
# 2 -0.003015 0.014900 0.006488 0.007580 0.001453 0.001639
# 3 -0.007354 0.006488 0.032855 0.024997 0.002418 -0.000556
# 4 -0.003619 0.007580 0.024997 0.075861 0.003651 0.007475
# 5 -0.002361 0.001453 0.002418 0.003651 0.020328 0.004165
# 6 -0.003514 0.001639 -0.000556 0.007475 0.004165 0.040228
#
#
# Mechanical properties :
#
#
# Convention : Reuss Voigt Hill
#
# Bulk Modulus (GPa) = 21.57722 61.21341 41.39532
# Shear Modulus (GPa) = 23.39345 40.16787 31.78066
#
# Velocity S-wave (km/s) = 3.14365 4.11933 3.66411
# Velocity P-wave (km/s) = 4.72144 6.96310 5.94881
#
# Compressibility (1/GPa) = 0.04634516
#
# Stress axis : x y z
#
# Youngs Moduli (GPa) = 157.41152 67.11564 30.43682
#
# Poissons Ratio (x) = 0.20238 0.22383
# Poissons Ratio (y) = 0.47466 -0.19748
# Poissons Ratio (z) = 1.15758 -0.43546
#
# Static dielectric constant tensor:
#      x y z
#    x 1.983570 0.007080 0.028780 
#    y 0.007080 1.978370 0.063820 
#    z 0.028780 0.063820 2.030830 
# 
# From -- ./inp_files/442155.got.cif
#   From: 2010.05.17/outbox.cif.g08.bks.cpg/sg2_222_cif.got.tgz:442155.got - 2010.06.03 11:33:40.
