data_PCOD9087578
_publ_section_title
;
Structure prediction by ZEFSAII (Michael W. Deem and Ramdas Pophale) SiO2 
 PCOD9087578
Probable space group: P -1
;
_chemical_formula_sum "Si O2"
_cell_formula_units_Z 16
_cell_length_a 12.224884
_cell_length_b 18.562590
_cell_length_c 11.702654
_cell_angle_alpha 37.458520
_cell_angle_beta 135.597611
_cell_angle_gamma 148.134731
_cell_volume 845.923231
_symmetry_space_group_name_H-M "P -1"
_symmetry_group_IT_number 2
_symmetry_cell_setting 'triclinic'
loop_
_space_group_symop_operation_xyz
x,y,z
-x,-y,-z
loop_
_atom_site_type_symbol
_atom_site_label
_atom_site_fract_x
_atom_site_fract_y
_atom_site_fract_z
Si Si1 0.732405 0.357867 0.760405
Si Si2 0.197011 0.343423 0.658351
Si Si3 0.508090 0.716403 0.096780
Si Si4 0.175729 0.422173 0.777317
Si Si5 0.491172 0.875519 0.577293
Si Si6 0.788955 0.468580 0.099062
Si Si7 0.823251 0.000789 0.822566
Si Si8 0.296622 0.745419 0.368319
O O1 0.763852 0.509084 0.551313
O O2 0.596512 0.292934 0.854090
O O3 0.633833 0.236900 0.732539
O O4 0.964283 0.422505 0.872232
O O5 0.330173 0.310852 0.734137
O O6 0.254308 0.373316 0.799223
O O7 0.952762 0.186189 0.671952
O O8 0.334625 0.580721 0.048969
O O9 0.638292 0.887274 0.918308
O O10 0.244422 0.452767 0.922296
O O11 0.241011 0.584780 0.574145
O O12 0.923042 0.295191 0.746223
O O13 0.304328 0.699562 0.705676
O O14 0.455080 0.875035 0.416932
O O15 0.500000 0.000000 0.500000
O O16 0.706859 0.918131 0.719878
O O17 0.000000 0.000000 0.000000
#
# Coordination Sequence:
#
# PCOD9087578 Si02
#       8
#     2   2   2   2   2   2   2   2
#     4  10  18  32  51  69  97 127 155 191 231 284
#     4  10  18  31  51  70  91 124 164 196 226 272
#     4  10  20  31  47  72  99 127 153 188 240 285
#     4   8  14  27  46  69  94 118 153 200 235 264
#     4  10  16  27  50  74  90 116 164 201 224 270
#     4   9  18  30  47  72  98 123 153 194 241 277
#     4   9  19  32  46  67  96 125 153 193 237 272
#     4   8  15  26  45  72  93 117 154 197 236 266
#
# _framework density 18.914245000000001
#
# number of rings (size 3 to 8) (size 9 to 14) (size 15 to 20)
#    0.000    2.750    0.000    4.500    0.000    0.500 
#    0.000    1.250    0.000   18.000    0.000    0.000 
#    0.000    0.000    0.000    0.000    0.000    0.000 
#
# Total GULP energy -89082.396724 kJ/mol
# GULP energy per Si atom -5567.649795 kJ/mol
# Density = 1.887120 g / cm^3
# Si number density = 18.914245 Si / 1000 Ang^3
#
#
#
# Elastic Constant Matrix: (Units=GPa)
#
#
# Indices 1 2 3 4 5 6 
#
# 1 99.2469 44.0425 11.6186 19.6179 -33.8116 1.7631
# 2 44.0425 90.8032 25.3996 25.5478 -21.0355 -5.9586
# 3 11.6186 25.3996 38.3645 17.4170 -13.4799 1.6566
# 4 19.6179 25.5478 17.4170 29.8369 -8.5912 -5.6738
# 5 -33.8116 -21.0355 -13.4799 -8.5912 31.6540 3.9953
# 6 1.7631 -5.9586 1.6566 -5.6738 3.9953 17.1789
#
#
#
# Elastic Compliance Matrix: (Units=1/GPa)
#
#
# Indices 1 2 3 4 5 6 
#
# 1 0.021867 -0.006120 0.011599 -0.012159 0.022799 -0.014804
# 2 -0.006120 0.018180 -0.007767 -0.005946 -0.000102 0.005743
# 3 0.011599 -0.007767 0.049530 -0.027458 0.023805 -0.023266
# 4 -0.012159 -0.005946 -0.027458 0.063366 -0.014740 0.026190
# 5 0.022799 -0.000102 0.023805 -0.014740 0.065129 -0.024686
# 6 -0.014804 0.005743 -0.023266 0.026190 -0.024686 0.078357
#
#
# Mechanical properties :
#
#
# Convention : Reuss Voigt Hill
#
# Bulk Modulus (GPa) = 11.76447 43.39289 27.57868
# Shear Modulus (GPa) = 15.18192 25.55754 20.36973
#
# Velocity S-wave (km/s) = 2.83622 3.67990 3.28525
# Velocity P-wave (km/s) = 4.11812 6.40681 5.38545
#
# Compressibility (1/GPa) = 0.08500173
#
# Stress axis : x y z
#
# Youngs Moduli (GPa) = 45.73018 55.00566 20.18988
#
# Poissons Ratio (x) = 0.33662 -0.23419
# Poissons Ratio (y) = 0.27986 0.15682
# Poissons Ratio (z) = -0.53044 0.42724
#
# Static dielectric constant tensor:
#      x y z
#    x 1.676690 -0.028000 0.018700 
#    y -0.028000 1.685680 0.031080 
#    z 0.018700 0.031080 1.704840 
# 
# From -- ./inp_files/266823.got.cif
#   From: 2010.05.17/outbox.cif.g08.bks.cpg/sg2_134_cif.got.tgz:266823.got - 2010.06.03 11:33:40.
