data_PCOD9087566
_publ_section_title
;
Structure prediction by ZEFSAII (Michael W. Deem and Ramdas Pophale) SiO2 
 PCOD9087566
Probable space group: P -1
;
_chemical_formula_sum "Si O2"
_cell_formula_units_Z 14
_cell_length_a 11.156761
_cell_length_b 6.562796
_cell_length_c 8.367539
_cell_angle_alpha 78.388731
_cell_angle_beta 103.011144
_cell_angle_gamma 101.477174
_cell_volume 577.093295
_symmetry_space_group_name_H-M "P -1"
_symmetry_group_IT_number 2
_symmetry_cell_setting 'triclinic'
loop_
_space_group_symop_operation_xyz
x,y,z
-x,-y,-z
loop_
_atom_site_type_symbol
_atom_site_label
_atom_site_fract_x
_atom_site_fract_y
_atom_site_fract_z
Si Si1 0.172252 0.155707 0.321211
Si Si2 0.887773 0.625636 0.404833
Si Si3 0.462705 0.766077 0.837364
Si Si4 0.676435 0.140812 0.913134
Si Si5 0.758535 0.185650 0.400841
Si Si6 0.582226 0.508626 0.682708
Si Si7 0.906912 0.042147 0.162119
O O1 0.133367 0.247352 0.463404
O O2 0.301275 0.301687 0.297700
O O3 0.050959 0.147173 0.175792
O O4 0.197925 0.923665 0.411851
O O5 0.775187 0.436826 0.374079
O O6 0.000000 0.500000 0.500000
O O7 0.903589 0.794271 0.239468
O O8 0.386583 0.890630 0.668766
O O9 0.495317 0.558369 0.796405
O O10 0.586409 0.918274 0.906616
O O11 0.367300 0.744958 0.959556
O O12 0.642659 0.297465 0.744021
O O13 0.816161 0.098319 0.987040
O O14 0.845019 0.127752 0.289897
O O15 0.500000 0.500000 0.500000
#
# Coordination Sequence:
#
# PCOD9087566 Si02
#       7
#     2   2   2   2   2   2   2
#     4  11  22  36  59  96 132 162 208 264 321 379
#     4  11  18  35  63  94 124 165 214 257 314 378
#     4  10  23  44  68  92 124 175 219 264 317 378
#     4  10  24  45  67  92 132 171 218 266 313 386
#     4  10  19  36  64  92 126 162 211 268 305 373
#     4  12  26  43  65  97 132 171 215 265 326 383
#     4  10  21  38  60  94 126 162 213 262 316 376
#
# _framework density 24.259511
#
# number of rings (size 3 to 8) (size 9 to 14) (size 15 to 20)
#    0.000    1.429    2.857    3.000    0.000   10.857 
#    0.000    0.714    0.000    0.000    0.000    0.000 
#    0.000    0.000    0.000    0.000    0.000    0.000 
#
# Total GULP energy -78260.417515 kJ/mol
# GULP energy per Si atom -5590.029823 kJ/mol
# Density = 2.420430 g / cm^3
# Si number density = 24.259511 Si / 1000 Ang^3
#
#
#
# Elastic Constant Matrix: (Units=GPa)
#
#
# Indices 1 2 3 4 5 6 
#
# 1 139.0120 32.1661 54.4202 4.5514 40.0261 -4.1037
# 2 32.1661 91.3226 25.1091 -7.0962 7.0145 -15.6449
# 3 54.4202 25.1091 83.8161 -8.4876 34.2311 -17.4593
# 4 4.5514 -7.0962 -8.4876 33.5224 -10.7173 -1.7598
# 5 40.0261 7.0145 34.2311 -10.7173 49.1932 10.3393
# 6 -4.1037 -15.6449 -17.4593 -1.7598 10.3393 47.9651
#
#
#
# Elastic Compliance Matrix: (Units=1/GPa)
#
#
# Indices 1 2 3 4 5 6 
#
# 1 0.011921 -0.002874 -0.004476 -0.005731 -0.007390 -0.000164
# 2 -0.002874 0.013122 -0.001816 0.003457 0.001832 0.003105
# 3 -0.004476 -0.001816 0.023766 0.002194 -0.014444 0.010870
# 4 -0.005731 0.003457 0.002194 0.035184 0.010198 0.000528
# 5 -0.007390 0.001832 -0.014444 0.010198 0.041254 -0.013811
# 6 -0.000164 0.003105 0.010870 0.000528 -0.013811 0.028800
#
#
# Mechanical properties :
#
#
# Convention : Reuss Voigt Hill
#
# Bulk Modulus (GPa) = 32.81161 59.72685 46.26923
# Shear Modulus (GPa) = 27.39131 39.63316 33.51223
#
# Velocity S-wave (km/s) = 3.36385 4.04631 3.72076
# Velocity P-wave (km/s) = 5.35181 6.81935 6.12966
#
# Compressibility (1/GPa) = 0.03047702
#
# Stress axis : x y z
#
# Youngs Moduli (GPa) = 83.88235 76.20955 42.07660
#
# Poissons Ratio (x) = 0.21905 0.18833
# Poissons Ratio (y) = 0.24110 0.07641
# Poissons Ratio (z) = 0.37545 0.13840
#
# Static dielectric constant tensor:
#      x y z
#    x 1.981180 0.014390 0.011210 
#    y 0.014390 1.921710 0.017090 
#    z 0.011210 0.017090 2.005750 
# 
# From -- ./inp_files/229652.got.cif
#   From: 2010.05.17/outbox.cif.g08.bks.cpg/sg2_115_cif.got.tgz:229652.got - 2010.06.03 11:33:40.
