data_PCOD9087171
_publ_section_title
;
Structure prediction by ZEFSAII (Michael W. Deem and Ramdas Pophale) SiO2 
 PCOD9087171
Probable space group: P -1
;
_chemical_formula_sum "Si O2"
_cell_formula_units_Z 12
_cell_length_a 8.612795
_cell_length_b 23.080866
_cell_length_c 9.656447
_cell_angle_alpha 32.470116
_cell_angle_beta 136.057736
_cell_angle_gamma 149.119345
_cell_volume 528.881129
_symmetry_space_group_name_H-M "P -1"
_symmetry_group_IT_number 2
_symmetry_cell_setting 'triclinic'
loop_
_space_group_symop_operation_xyz
x,y,z
-x,-y,-z
loop_
_atom_site_type_symbol
_atom_site_label
_atom_site_fract_x
_atom_site_fract_y
_atom_site_fract_z
Si Si1 0.614676 0.946480 0.497618
Si Si2 0.258726 0.096207 0.647413
Si Si3 0.854831 0.336154 0.713968
Si Si4 0.063295 0.859681 0.223505
Si Si5 0.165243 0.418960 0.489180
Si Si6 0.602959 0.274986 0.951664
O O1 0.660636 0.915892 0.431667
O O2 0.358457 0.956699 0.314371
O O3 0.484418 0.816841 0.782666
O O4 0.965517 0.078473 0.498266
O O5 0.551563 0.240533 0.619080
O O6 0.160181 0.959301 0.949895
O O7 0.771492 0.268841 0.947721
O O8 0.000000 0.500000 0.500000
O O9 0.090936 0.355305 0.725800
O O10 0.030014 0.721547 0.449280
O O11 0.727957 0.791995 0.185649
O O12 0.500000 0.500000 0.500000
O O13 0.175786 0.551737 0.220211
#
# Coordination Sequence:
#
# PCOD9087171 Si02
#       6
#     2   2   2   2   2   2
#     4  10  20  35  60  92 114 149 197 242 279 340
#     4  10  21  37  61  88 116 152 197 236 288 340
#     4  10  20  39  60  82 120 159 184 236 299 345
#     4  10  19  36  62  86 116 153 193 241 282 338
#     4   9  18  35  62  85 109 154 196 232 283 343
#     4   9  21  37  58  88 119 153 190 235 294 339
#
# _framework density 22.689411
#
# number of rings (size 3 to 8) (size 9 to 14) (size 15 to 20)
#    0.000    2.333    1.667    0.500    0.000    3.333 
#    0.000    3.333    0.000    7.000    0.000    0.000 
#    0.000    0.000    0.000    0.000    0.000    0.000 
#
# Total GULP energy -66847.964630 kJ/mol
# GULP energy per Si atom -5570.663719 kJ/mol
# Density = 2.263777 g / cm^3
# Si number density = 22.689411 Si / 1000 Ang^3
#
#
#
# Elastic Constant Matrix: (Units=GPa)
#
#
# Indices 1 2 3 4 5 6 
#
# 1 75.1030 20.0301 29.5435 -0.8298 -26.6114 24.4552
# 2 20.0301 124.6098 38.1856 -20.5956 0.5646 7.0019
# 3 29.5435 38.1856 84.6699 -4.6670 -15.3362 12.2225
# 4 -0.8298 -20.5956 -4.6670 37.3953 6.7093 4.4178
# 5 -26.6114 0.5646 -15.3362 6.7093 33.7881 -4.0762
# 6 24.4552 7.0019 12.2225 4.4178 -4.0762 34.2662
#
#
#
# Elastic Compliance Matrix: (Units=1/GPa)
#
#
# Indices 1 2 3 4 5 6 
#
# 1 0.026559 -0.003298 -0.002430 -0.003141 0.018710 -0.014784
# 2 -0.003298 0.011069 -0.004620 0.006532 -0.006156 0.000165
# 3 -0.002430 -0.004620 0.015967 -0.001315 0.005406 -0.002204
# 4 -0.003141 0.006532 -0.001315 0.032388 -0.010094 -0.004000
# 5 0.018710 -0.006156 0.005406 -0.010094 0.048048 -0.007006
# 6 -0.014784 0.000165 -0.002204 -0.004000 -0.007006 0.040169
#
#
# Mechanical properties :
#
#
# Convention : Reuss Voigt Hill
#
# Bulk Modulus (GPa) = 30.39577 51.10011 40.74794
# Shear Modulus (GPa) = 24.28793 34.19817 29.24305
#
# Velocity S-wave (km/s) = 3.27533 3.88652 3.59394
# Velocity P-wave (km/s) = 5.26585 6.53533 5.93463
#
# Compressibility (1/GPa) = 0.03289931
#
# Stress axis : x y z
#
# Youngs Moduli (GPa) = 37.65158 90.34091 62.62876
#
# Poissons Ratio (x) = 0.29792 0.15219
# Poissons Ratio (y) = 0.12416 0.28937
# Poissons Ratio (z) = 0.09149 0.41741
#
# Static dielectric constant tensor:
#      x y z
#    x 1.929600 -0.025460 0.028750 
#    y -0.025460 1.948080 0.011390 
#    z 0.028750 0.011390 1.855730 
# 
# From -- ./inp_files/166481.got.cif
#   From: 2010.05.17/outbox.cif.g08.bks.cpg/sg2_84_cif.got.tgz:166481.got - 2010.06.03 11:33:40.
