data_PCOD9087260
_publ_section_title
;
Structure prediction by ZEFSAII (Michael W. Deem and Ramdas Pophale) SiO2 
 PCOD9087260
Probable space group: P -1
;
_chemical_formula_sum "Si O2"
_cell_formula_units_Z 16
_cell_length_a 9.290878
_cell_length_b 8.950755
_cell_length_c 12.987535
_cell_angle_alpha 68.521868
_cell_angle_beta 60.684055
_cell_angle_gamma 103.014848
_cell_volume 759.682640
_symmetry_space_group_name_H-M "P -1"
_symmetry_group_IT_number 2
_symmetry_cell_setting 'triclinic'
loop_
_space_group_symop_operation_xyz
x,y,z
-x,-y,-z
loop_
_atom_site_type_symbol
_atom_site_label
_atom_site_fract_x
_atom_site_fract_y
_atom_site_fract_z
Si Si1 0.056139 0.924722 0.372148
Si Si2 0.200524 0.662408 0.461946
Si Si3 0.010369 0.282421 0.749003
Si Si4 0.441189 0.625747 0.208645
Si Si5 0.331840 0.206721 0.365037
Si Si6 0.200167 0.115593 0.844253
Si Si7 0.558597 0.030669 0.279720
Si Si8 0.388493 0.828021 0.004867
O O1 0.076005 0.762316 0.464767
O O2 0.085556 0.890892 0.252915
O O3 0.842073 0.884912 0.469911
O O4 0.210822 0.111235 0.326394
O O5 0.099126 0.474336 0.607988
O O6 0.275451 0.631220 0.333641
O O7 0.391428 0.820353 0.408419
O O8 0.178279 0.267107 0.748808
O O9 0.838532 0.253363 0.889274
O O10 0.417784 0.424925 0.278089
O O11 0.634308 0.780920 0.155673
O O12 0.426581 0.675410 0.083350
O O13 0.495726 0.153029 0.338013
O O14 0.252874 0.986753 0.787754
O O15 0.000000 0.000000 0.000000
O O16 0.546662 0.099991 0.150644
O O17 0.500000 0.000000 0.000000
#
# Coordination Sequence:
#
# PCOD9087260 Si02
#       8
#     2   2   2   2   2   2   2   2
#     4  10  19  36  62  92 125 155 195 253 307 350
#     4  10  19  36  62  92 113 152 208 256 286 336
#     4  12  21  35  68  94 113 153 215 253 294 352
#     4  11  21  37  64  91 122 155 202 255 296 356
#     4  10  21  37  58  88 131 157 192 247 309 360
#     4  11  23  41  62  87 121 160 204 249 303 357
#     4  10  22  39  59  85 126 164 191 249 306 357
#     4  12  19  36  63  91 116 154 206 252 297 344
#
# _framework density 21.061426000000001
#
# number of rings (size 3 to 8) (size 9 to 14) (size 15 to 20)
#    0.000    1.250    6.250    1.875    0.000    2.500 
#    0.000    1.250    8.250    0.000    0.000    0.000 
#    0.000    0.000    0.000    0.000    0.000    0.000 
#
# Total GULP energy -89275.574746 kJ/mol
# GULP energy per Si atom -5579.723422 kJ/mol
# Density = 2.101349 g / cm^3
# Si number density = 21.061426 Si / 1000 Ang^3
#
#
#
# Elastic Constant Matrix: (Units=GPa)
#
#
# Indices 1 2 3 4 5 6 
#
# 1 77.6426 16.4204 20.7649 5.3278 -7.7007 -32.6918
# 2 16.4204 92.8133 20.6011 -8.1477 -15.0430 -23.6847
# 3 20.7649 20.6011 74.7514 -2.9077 -21.3769 -10.0352
# 4 5.3278 -8.1477 -2.9077 23.5358 -7.4998 -4.8704
# 5 -7.7007 -15.0430 -21.3769 -7.4998 31.6898 8.7706
# 6 -32.6918 -23.6847 -10.0352 -4.8704 8.7706 32.0979
#
#
#
# Elastic Compliance Matrix: (Units=1/GPa)
#
#
# Indices 1 2 3 4 5 6 
#
# 1 0.024366 0.002830 -0.005113 -0.000914 -0.003642 0.026163
# 2 0.002830 0.015909 -0.001277 0.009446 0.005713 0.014094
# 3 -0.005113 -0.001277 0.018798 0.006650 0.013200 -0.002871
# 4 -0.000914 0.009446 0.006650 0.055080 0.018632 0.011384
# 5 -0.003642 0.005713 0.013200 0.018632 0.048283 -0.005734
# 6 0.026163 0.014094 -0.002871 0.011384 -0.005734 0.070598
#
#
# Mechanical properties :
#
#
# Convention : Reuss Voigt Hill
#
# Bulk Modulus (GPa) = 19.24856 40.08668 29.66762
# Shear Modulus (GPa) = 19.41944 29.95943 24.68943
#
# Velocity S-wave (km/s) = 3.03980 3.77567 3.42754
# Velocity P-wave (km/s) = 4.63461 6.17107 5.45718
#
# Compressibility (1/GPa) = 0.05195195
#
# Stress axis : x y z
#
# Youngs Moduli (GPa) = 41.04063 62.85751 53.19644
#
# Poissons Ratio (x) = -0.17789 0.27201
# Poissons Ratio (y) = -0.11615 0.06795
# Poissons Ratio (z) = 0.20986 0.08029
#
# Static dielectric constant tensor:
#      x y z
#    x 1.819000 -0.020120 0.003570 
#    y -0.020120 1.777610 0.022660 
#    z 0.003570 0.022660 1.778900 
# 
# From -- ./inp_files/396444.got.cif
#   From: 2010.05.17/outbox.cif.g08.bks.cpg/sg2_199_cif.got.tgz:396444.got - 2010.06.03 11:33:40.
