data_PCOD9087014
_publ_section_title
;
Structure prediction by ZEFSAII (Michael W. Deem and Ramdas Pophale) SiO2 
 PCOD9087014
Probable space group: P -1
;
_chemical_formula_sum "Si O2"
_cell_formula_units_Z 16
_cell_length_a 9.985346
_cell_length_b 11.347562
_cell_length_c 12.298609
_cell_angle_alpha 60.242061
_cell_angle_beta 127.097922
_cell_angle_gamma 116.711996
_cell_volume 941.975357
_symmetry_space_group_name_H-M "P -1"
_symmetry_group_IT_number 2
_symmetry_cell_setting 'triclinic'
loop_
_space_group_symop_operation_xyz
x,y,z
-x,-y,-z
loop_
_atom_site_type_symbol
_atom_site_label
_atom_site_fract_x
_atom_site_fract_y
_atom_site_fract_z
Si Si1 0.052832 0.672299 0.826864
Si Si2 0.737443 0.645277 0.092193
Si Si3 0.070062 0.053534 0.393834
Si Si4 0.924622 0.913186 0.167654
Si Si5 0.054413 0.643611 0.099172
Si Si6 0.635322 0.322711 0.183116
Si Si7 0.575351 0.037788 0.400621
Si Si8 0.760011 0.085011 0.837013
O O1 0.233602 0.701793 0.836674
O O2 0.947773 0.788733 0.698066
O O3 0.952947 0.518601 0.813051
O O4 0.076583 0.670220 0.969495
O O5 0.829128 0.752824 0.178810
O O6 0.702816 0.482727 0.181081
O O7 0.870891 0.666800 0.045387
O O8 0.556904 0.681313 0.953365
O O9 0.260877 0.029667 0.493891
O O10 0.000000 0.000000 0.500000
O O11 0.960815 0.967629 0.281666
O O12 0.107329 0.934196 0.184853
O O13 0.812833 0.002365 0.003992
O O14 0.196892 0.753278 0.183148
O O15 0.627468 0.202608 0.323662
O O16 0.500000 0.000000 0.500000
O O17 0.430572 0.973904 0.270716
#
# Coordination Sequence:
#
# PCOD9087014 Si02
#       8
#     2   2   2   2   2   2   2   2
#     4  10  20  37  57  86 118 154 188 233 295 345
#     4   9  19  36  63  86 112 145 200 248 275 328
#     4  12  24  40  56  84 123 158 185 233 300 350
#     4  10  19  36  62  87 110 150 200 238 279 338
#     4   9  19  36  63  85 111 151 198 238 280 340
#     4  10  20  37  56  89 118 148 190 242 291 334
#     4  12  24  38  58  86 120 154 192 236 293 345
#     4  10  19  36  61  89 110 145 205 243 270 334
#
# _framework density 16.985581
#
# number of rings (size 3 to 8) (size 9 to 14) (size 15 to 20)
#    0.000    1.750    5.000    0.000    1.750    0.000 
#    2.250    4.375    0.000    0.000    0.000    0.000 
#    0.000    0.000    0.000    0.000    0.000    0.000 
#
# Total GULP energy -89227.906030 kJ/mol
# GULP energy per Si atom -5576.744127 kJ/mol
# Density = 1.694692 g / cm^3
# Si number density = 16.985581 Si / 1000 Ang^3
#
#
#
# Elastic Constant Matrix: (Units=GPa)
#
#
# Indices 1 2 3 4 5 6 
#
# 1 105.4691 55.5390 61.2705 -9.3879 -0.8614 -2.9357
# 2 55.5390 119.8249 62.9356 -6.3985 0.9846 -7.1658
# 3 61.2705 62.9356 100.9057 -4.7929 1.6568 -6.4230
# 4 -9.3879 -6.3985 -4.7929 33.6248 -2.0928 -0.4796
# 5 -0.8614 0.9846 1.6568 -2.0928 36.1733 -1.8598
# 6 -2.9357 -7.1658 -6.4230 -0.4796 -1.8598 25.3238
#
#
#
# Elastic Compliance Matrix: (Units=1/GPa)
#
#
# Indices 1 2 3 4 5 6 
#
# 1 0.015789 -0.003312 -0.007461 0.002759 0.000922 -0.000879
# 2 -0.003312 0.013227 -0.006086 0.000749 -0.000023 0.001828
# 3 -0.007461 -0.006086 0.018346 -0.000647 -0.000787 0.001996
# 4 0.002759 0.000749 -0.000647 0.030695 0.001907 0.001089
# 5 0.000922 -0.000023 -0.000787 0.001907 0.027916 0.001987
# 6 -0.000879 0.001828 0.001996 0.001089 0.001987 0.040577
#
#
# Mechanical properties :
#
#
# Convention : Reuss Voigt Hill
#
# Bulk Modulus (GPa) = 73.30085 76.18776 74.74430
# Shear Modulus (GPa) = 27.05399 28.78802 27.92101
#
# Velocity S-wave (km/s) = 3.99527 4.12132 4.05879
# Velocity P-wave (km/s) = 8.03314 8.22185 8.12804
#
# Compressibility (1/GPa) = 0.01364241
#
# Stress axis : x y z
#
# Youngs Moduli (GPa) = 63.33643 75.60395 54.50746
#
# Poissons Ratio (x) = 0.25040 0.40670
# Poissons Ratio (y) = 0.20977 0.33175
# Poissons Ratio (z) = 0.47257 0.46015
#
# Static dielectric constant tensor:
#      x y z
#    x 1.563630 0.007240 -0.007880 
#    y 0.007240 1.598580 -0.020930 
#    z -0.007880 -0.020930 1.546750 
# 
# From -- ./inp_files/253148.got.cif
#   From: 2010.05.17/outbox.cif.g08.bks.cpg/sg2_127_cif.got.tgz:253148.got - 2010.06.03 11:33:40.
