data_PCOD9087347
_publ_section_title
;
Structure prediction by ZEFSAII (Michael W. Deem and Ramdas Pophale) SiO2 
 PCOD9087347
Probable space group: P -1
;
_chemical_formula_sum "Si O2"
_cell_formula_units_Z 14
_cell_length_a 24.388917
_cell_length_b 30.279187
_cell_length_c 14.379958
_cell_angle_alpha 158.828483
_cell_angle_beta 20.603300
_cell_angle_gamma 170.238518
_cell_volume 624.583497
_symmetry_space_group_name_H-M "P -1"
_symmetry_group_IT_number 2
_symmetry_cell_setting 'triclinic'
loop_
_space_group_symop_operation_xyz
x,y,z
-x,-y,-z
loop_
_atom_site_type_symbol
_atom_site_label
_atom_site_fract_x
_atom_site_fract_y
_atom_site_fract_z
Si Si1 0.234666 0.614631 0.226291
Si Si2 0.590027 0.787429 0.552868
Si Si3 0.543253 0.496120 0.659443
Si Si4 0.640958 0.724235 0.671288
Si Si5 0.753990 0.931110 0.358947
Si Si6 0.532327 0.017426 0.094532
Si Si7 0.189980 0.466757 0.206252
O O1 0.279519 0.605930 0.244926
O O2 0.903583 0.314526 0.122370
O O3 0.124231 0.680890 0.537549
O O4 0.528691 0.763420 0.987503
O O5 0.387974 0.533311 0.415050
O O6 0.633144 0.825866 0.449215
O O7 0.962771 0.021884 0.460244
O O8 0.460076 0.830271 0.874076
O O9 0.511599 0.382378 0.399280
O O10 0.195719 0.331509 0.896809
O O11 0.845302 0.800759 0.754710
O O12 0.500000 0.500000 0.500000
O O13 0.701365 0.033264 0.606378
O O14 0.494312 0.676945 0.209499
O O15 0.500000 0.000000 0.000000
#
# Coordination Sequence:
#
# PCOD9087347 Si02
#       7
#     2   2   2   2   2   2   2
#     4  10  19  36  63  86 116 157 197 241 288 352
#     4  11  22  36  60  91 120 149 197 248 295 347
#     4  12  23  37  61  91 118 153 198 246 292 350
#     4  12  19  37  63  88 116 153 194 242 300 345
#     4  10  21  38  59  82 119 161 196 237 294 349
#     4   9  17  34  58  87 114 150 189 237 295 343
#     4  10  21  37  59  87 117 160 201 232 293 354
#
# _framework density 22.414936000000001
#
# number of rings (size 3 to 8) (size 9 to 14) (size 15 to 20)
#    0.000    1.429    4.286    1.714    0.000    1.143 
#    0.000    0.714    0.000    1.714    0.000    0.000 
#    0.000    0.000    0.000    0.000    0.000    0.000 
#
# Total GULP energy -78058.317033 kJ/mol
# GULP energy per Si atom -5575.594074 kJ/mol
# Density = 2.236392 g / cm^3
# Si number density = 22.414936 Si / 1000 Ang^3
#
#
#
# Elastic Constant Matrix: (Units=GPa)
#
#
# Indices 1 2 3 4 5 6 
#
# 1 94.4731 18.4686 15.7919 1.7624 -4.5835 2.6770
# 2 18.4686 32.7068 -21.8043 -2.9707 7.3580 2.0191
# 3 15.7919 -21.8043 100.8179 -23.2010 7.8038 -21.9572
# 4 1.7624 -2.9707 -23.2010 19.8261 -4.7351 -0.1894
# 5 -4.5835 7.3580 7.8038 -4.7351 9.1917 0.2473
# 6 2.6770 2.0191 -21.9572 -0.1894 0.2473 32.8352
#
#
#
# Elastic Compliance Matrix: (Units=1/GPa)
#
#
# Indices 1 2 3 4 5 6 
#
# 1 0.052003 -0.108037 -0.067054 -0.067243 0.135884 -0.043847
# 2 -0.108037 0.290695 0.168914 0.169299 -0.345662 0.107466
# 3 -0.067054 0.168914 0.116944 0.119006 -0.208666 0.075539
# 4 -0.067243 0.169299 0.119006 0.178776 -0.180069 0.077039
# 5 0.135884 -0.345662 -0.208666 -0.180069 0.541273 -0.134474
# 6 -0.043847 0.107466 0.075539 0.077039 -0.134474 0.079392
#
#
# Mechanical properties :
#
#
# Convention : Reuss Voigt Hill
#
# Bulk Modulus (GPa) = 2.23569 28.10111 15.16840
# Shear Modulus (GPa) = 3.51981 26.74003 15.12992
#
# Velocity S-wave (km/s) = 1.25447 3.45767 2.60088
# Velocity P-wave (km/s) = 1.76007 5.33897 3.97508
#
# Compressibility (1/GPa) = 0.44728822
#
# Stress axis : x y z
#
# Youngs Moduli (GPa) = 19.22952 3.44004 8.55112
#
# Poissons Ratio (x) = 0.37165 0.57338
# Poissons Ratio (y) = 2.07751 -1.44440
# Poissons Ratio (z) = 1.28941 -0.58107
#
# Static dielectric constant tensor:
#      x y z
#    x 1.808050 0.006580 0.004700 
#    y 0.006580 1.929010 0.034470 
#    z 0.004700 0.034470 1.927310 
# 
# From -- ./inp_files/260175.got.cif
#   From: 2010.05.17/outbox.cif.g08.bks.cpg/sg2_131_cif.got.tgz:260175.got - 2010.06.03 11:33:40.
