data_PCOD9087109
_publ_section_title
;
Structure prediction by ZEFSAII (Michael W. Deem and Ramdas Pophale) SiO2 
 PCOD9087109
Probable space group: P -1
;
_chemical_formula_sum "Si O2"
_cell_formula_units_Z 16
_cell_length_a 11.380132
_cell_length_b 13.121332
_cell_length_c 5.546544
_cell_angle_alpha 116.896686
_cell_angle_beta 83.359294
_cell_angle_gamma 60.026799
_cell_volume 573.875221
_symmetry_space_group_name_H-M "P -1"
_symmetry_group_IT_number 2
_symmetry_cell_setting 'triclinic'
loop_
_space_group_symop_operation_xyz
x,y,z
-x,-y,-z
loop_
_atom_site_type_symbol
_atom_site_label
_atom_site_fract_x
_atom_site_fract_y
_atom_site_fract_z
Si Si1 0.669607 0.322772 0.964022
Si Si2 0.061638 0.714256 0.239875
Si Si3 0.414424 0.350182 0.254076
Si Si4 0.886322 0.013260 0.838628
Si Si5 0.684640 0.904821 0.825033
Si Si6 0.941111 0.408238 0.384587
Si Si7 0.559227 0.203278 0.570759
Si Si8 0.680678 0.894780 0.306950
O O1 0.757115 0.383849 0.945039
O O2 0.642729 0.272608 0.665749
O O3 0.781965 0.178206 0.944487
O O4 0.511176 0.405229 0.224598
O O5 0.029450 0.674511 0.459754
O O6 0.990364 0.882754 0.481492
O O7 0.008436 0.687493 0.976038
O O8 0.240429 0.476683 0.462518
O O9 0.477829 0.255803 0.387175
O O10 0.450152 0.261755 0.897308
O O11 0.760855 0.985880 0.889594
O O12 0.000000 0.000000 0.000000
O O13 0.735968 0.821058 0.471539
O O14 0.500000 0.000000 0.000000
O O15 0.736661 0.811663 0.954719
O O16 0.000000 0.500000 0.500000
O O17 0.683880 0.030298 0.410547
O O18 0.500000 0.000000 0.500000
#
# Coordination Sequence:
#
# PCOD9087109 Si02
#       8
#     2   2   2   2   2   2   2   2
#     4  10  25  45  78 119 161 192 261 311 414 481
#     4  12  29  49  82 116 156 218 255 323 406 484
#     4  10  24  45  81 107 141 203 254 338 377 448
#     4  12  26  48  79 122 174 210 249 324 410 501
#     4  10  22  41  63  99 145 209 250 303 359 463
#     4  12  29  60  78 108 158 206 286 331 395 456
#     4  10  20  40  67 113 141 187 248 314 403 432
#     4  10  19  36  61  96 148 188 243 306 362 458
#
# _framework density 27.880625999999999
#
# number of rings (size 3 to 8) (size 9 to 14) (size 15 to 20)
#    0.750    0.500    1.250    3.750    5.250    3.000 
#   15.750    0.000    0.000    0.000    0.000    0.000 
#    0.000    0.000    0.000    0.000    0.000    0.000 
#
# Total GULP energy -89376.406971 kJ/mol
# GULP energy per Si atom -5586.025436 kJ/mol
# Density = 2.781717 g / cm^3
# Si number density = 27.880626 Si / 1000 Ang^3
#
#
#
# Elastic Constant Matrix: (Units=GPa)
#
#
# Indices 1 2 3 4 5 6 
#
# 1 170.7913 38.4513 60.8661 -17.3966 -8.7061 -13.6049
# 2 38.4513 100.3852 57.8984 -22.7279 14.9319 -24.4510
# 3 60.8661 57.8984 230.8530 -41.2710 20.3873 -7.6972
# 4 -17.3966 -22.7279 -41.2710 63.8129 -3.2762 2.8603
# 5 -8.7061 14.9319 20.3873 -3.2762 50.5735 -9.8814
# 6 -13.6049 -24.4510 -7.6972 2.8603 -9.8814 59.6678
#
#
#
# Elastic Compliance Matrix: (Units=1/GPa)
#
#
# Indices 1 2 3 4 5 6 
#
# 1 0.007077 -0.001880 -0.001526 0.000360 0.002620 0.001063
# 2 -0.001880 0.014018 -0.002154 0.002756 -0.002539 0.004485
# 3 -0.001526 -0.002154 0.005878 0.002557 -0.002012 -0.000928
# 4 0.000360 0.002756 0.002557 0.018353 -0.000480 0.000582
# 5 0.002620 -0.002539 -0.002012 -0.000480 0.022344 0.003020
# 6 0.001063 0.004485 -0.000928 0.000582 0.003020 0.019192
#
#
# Mechanical properties :
#
#
# Convention : Reuss Voigt Hill
#
# Bulk Modulus (GPa) = 63.07520 90.71788 76.89654
# Shear Modulus (GPa) = 48.41830 57.79841 53.10836
#
# Velocity S-wave (km/s) = 4.17181 4.55803 4.36919
# Velocity P-wave (km/s) = 6.77331 7.76592 7.28654
#
# Compressibility (1/GPa) = 0.01585409
#
# Stress axis : x y z
#
# Youngs Moduli (GPa) = 141.30257 71.33691 170.12310
#
# Poissons Ratio (x) = 0.13411 0.25961
# Poissons Ratio (y) = 0.26564 0.36637
# Poissons Ratio (z) = 0.21563 0.15363
#
# Static dielectric constant tensor:
#      x y z
#    x 2.339980 0.017070 0.010070 
#    y 0.017070 2.380380 0.034540 
#    z 0.010070 0.034540 2.250960 
# 
# From -- ./inp_files/76406.got.cif
#   From: 2010.05.17/outbox.cif.g08.bks.cpg/sg2_39_cif.got.tgz:76406.got - 2010.06.03 11:33:40.
