data_PCOD9087898
_publ_section_title
;
Structure prediction by ZEFSAII (Michael W. Deem and Ramdas Pophale) SiO2 
 PCOD9087898
Probable space group: P -1
;
_chemical_formula_sum "Si O2"
_cell_formula_units_Z 14
_cell_length_a 19.073106
_cell_length_b 6.629857
_cell_length_c 8.516507
_cell_angle_alpha 99.447828
_cell_angle_beta 106.365515
_cell_angle_gamma 127.257807
_cell_volume 739.208401
_symmetry_space_group_name_H-M "P -1"
_symmetry_group_IT_number 2
_symmetry_cell_setting 'triclinic'
loop_
_space_group_symop_operation_xyz
x,y,z
-x,-y,-z
loop_
_atom_site_type_symbol
_atom_site_label
_atom_site_fract_x
_atom_site_fract_y
_atom_site_fract_z
Si Si1 0.104791 0.139374 0.662874
Si Si2 0.368075 0.153870 0.795791
Si Si3 0.011819 0.716855 0.814193
Si Si4 0.553294 0.270676 0.959141
Si Si5 0.833920 0.135458 0.528568
Si Si6 0.142215 0.677214 0.100965
Si Si7 0.715309 0.260966 0.025033
O O1 0.189275 0.473202 0.780818
O O2 0.150986 0.044241 0.577703
O O3 0.000000 0.000000 0.500000
O O4 0.076573 0.006378 0.802165
O O5 0.400625 0.451545 0.878255
O O6 0.268021 0.955044 0.604053
O O7 0.341360 0.008710 0.931867
O O8 0.462526 0.203966 0.798150
O O9 0.933132 0.466169 0.608629
O O10 0.937343 0.627452 0.900770
O O11 0.083966 0.682031 0.926832
O O12 0.643685 0.315336 0.946053
O O13 0.500000 0.000000 0.000000
O O14 0.832709 0.117843 0.715233
O O15 0.238817 0.755971 0.101158
#
# Coordination Sequence:
#
# PCOD9087898 Si02
#       7
#     2   2   2   2   2   2   2
#     4  12  22  32  56  89 117 151 206 238 265 341
#     4  10  19  38  63  84 115 146 186 254 284 339
#     4   9  20  38  54  77 124 166 186 223 288 337
#     4   9  20  37  62  87 110 142 195 237 301 344
#     4  10  19  37  56  84 114 156 191 239 284 322
#     4   9  21  37  55  79 122 161 190 225 292 340
#     4  11  21  36  57  91 111 152 197 227 293 347
#
# _framework density 18.939178999999999
#
# number of rings (size 3 to 8) (size 9 to 14) (size 15 to 20)
#    0.857    1.143    1.429    3.000    0.000    0.571 
#    0.000    0.714    0.000    7.714    0.000    0.000 
#    0.000    0.000    0.000    0.000    0.000    0.000 
#
# Total GULP energy -77960.106071 kJ/mol
# GULP energy per Si atom -5568.579005 kJ/mol
# Density = 1.889607 g / cm^3
# Si number density = 18.939179 Si / 1000 Ang^3
#
#
#
# Elastic Constant Matrix: (Units=GPa)
#
#
# Indices 1 2 3 4 5 6 
#
# 1 109.8990 17.4549 34.5719 -18.4168 14.1135 10.2857
# 2 17.4549 87.2755 16.8714 5.5566 -5.0148 0.8009
# 3 34.5719 16.8714 55.1146 -5.1889 16.4442 0.5957
# 4 -18.4168 5.5566 -5.1889 12.8079 -2.9714 0.5886
# 5 14.1135 -5.0148 16.4442 -2.9714 31.7833 -0.6044
# 6 10.2857 0.8009 0.5957 0.5886 -0.6044 16.5901
#
#
#
# Elastic Compliance Matrix: (Units=1/GPa)
#
#
# Indices 1 2 3 4 5 6 
#
# 1 0.017004 -0.003723 -0.006351 0.023333 -0.002882 -0.011068
# 2 -0.003723 0.014187 -0.004761 -0.012331 0.005248 0.002423
# 3 -0.006351 -0.004761 0.027192 0.001076 -0.011847 0.002721
# 4 0.023333 -0.012331 0.001076 0.117738 -0.002202 -0.018167
# 5 -0.002882 0.005248 -0.011847 -0.002202 0.039561 0.003478
# 6 -0.011068 0.002423 0.002721 -0.018167 0.003478 0.067695
#
#
# Mechanical properties :
#
#
# Convention : Reuss Voigt Hill
#
# Bulk Modulus (GPa) = 34.82480 43.34283 39.08381
# Shear Modulus (GPa) = 15.49827 24.46232 19.98029
#
# Velocity S-wave (km/s) = 2.86373 3.59782 3.25156
# Velocity P-wave (km/s) = 5.41869 6.33987 5.89730
#
# Compressibility (1/GPa) = 0.02871517
#
# Stress axis : x y z
#
# Youngs Moduli (GPa) = 58.80825 70.48619 36.77603
#
# Poissons Ratio (x) = 0.26240 0.23355
# Poissons Ratio (y) = 0.21893 0.17508
# Poissons Ratio (z) = 0.37347 0.33556
#
# Static dielectric constant tensor:
#      x y z
#    x 1.690770 0.011380 0.015560 
#    y 0.011380 1.674240 0.008300 
#    z 0.015560 0.008300 1.650880 
# 
# From -- ./inp_files/322779.got.cif
#   From: 2010.05.17/outbox.cif.g08.bks.cpg/sg2_162_cif.got.tgz:322779.got - 2010.06.03 11:33:40.
