data_PCOD9087162
_publ_section_title
;
Structure prediction by ZEFSAII (Michael W. Deem and Ramdas Pophale) SiO2 
 PCOD9087162
Probable space group: P -1
;
_chemical_formula_sum "Si O2"
_cell_formula_units_Z 16
_cell_length_a 14.172754
_cell_length_b 8.407402
_cell_length_c 27.764060
_cell_angle_alpha 43.702028
_cell_angle_beta 157.931388
_cell_angle_gamma 124.006340
_cell_volume 776.785981
_symmetry_space_group_name_H-M "P -1"
_symmetry_group_IT_number 2
_symmetry_cell_setting 'triclinic'
loop_
_space_group_symop_operation_xyz
x,y,z
-x,-y,-z
loop_
_atom_site_type_symbol
_atom_site_label
_atom_site_fract_x
_atom_site_fract_y
_atom_site_fract_z
Si Si1 0.395781 0.428034 0.514812
Si Si2 0.389605 0.415204 0.158168
Si Si3 0.743018 0.633470 0.791325
Si Si4 0.254213 0.075267 0.632086
Si Si5 0.705960 0.226814 0.799072
Si Si6 0.602784 0.224100 0.996320
Si Si7 0.081673 0.703470 0.666802
Si Si8 0.753817 0.019932 0.644780
O O1 0.500000 0.500000 0.500000
O O2 0.625206 0.241621 0.701261
O O3 0.164537 0.327601 0.415759
O O4 0.266372 0.697542 0.422792
O O5 0.437912 0.371759 0.247407
O O6 0.568095 0.167726 0.265060
O O7 0.410989 0.656917 0.090090
O O8 0.069223 0.465296 0.991348
O O9 0.688423 0.494002 0.750215
O O10 0.719247 0.908466 0.704844
O O11 0.124248 0.960049 0.635762
O O12 0.470330 0.180470 0.726930
O O13 0.027806 0.274299 0.445744
O O14 0.000000 0.000000 0.000000
O O15 0.372763 0.462154 0.864041
O O16 0.922262 0.145231 0.181057
O O17 0.500000 0.000000 0.000000
O O18 0.500000 0.000000 0.500000
#
# Coordination Sequence:
#
# PCOD9087162 Si02
#       8
#     2   2   2   2   2   2   2   2
#     4  11  24  38  62  92 120 158 208 251 301 370
#     4   9  19  33  58  88 116 152 200 250 287 365
#     4  10  20  34  55  88 123 151 197 247 308 351
#     4   9  18  34  60  81 112 154 201 244 297 353
#     4  11  21  36  59  87 123 159 194 253 308 357
#     4  10  19  36  62  85 118 158 205 238 302 374
#     4   9  19  36  57  85 111 153 208 245 292 363
#     4  11  22  38  61  88 120 159 197 254 310 357
#
# _framework density 20.597693
#
# number of rings (size 3 to 8) (size 9 to 14) (size 15 to 20)
#    0.000    2.000    3.750    0.000    3.500    1.000 
#    0.000    0.000    2.750   21.000    0.000    0.000 
#    0.000    0.000    0.000    0.000    0.000    0.000 
#
# Total GULP energy -89091.108521 kJ/mol
# GULP energy per Si atom -5568.194283 kJ/mol
# Density = 2.055081 g / cm^3
# Si number density = 20.597693 Si / 1000 Ang^3
#
#
#
# Elastic Constant Matrix: (Units=GPa)
#
#
# Indices 1 2 3 4 5 6 
#
# 1 74.3169 18.0771 21.3646 7.2090 1.7192 28.8762
# 2 18.0771 84.5861 22.8301 6.4998 3.6543 36.8234
# 3 21.3646 22.8301 120.9122 7.4227 8.1924 12.1746
# 4 7.2090 6.4998 7.4227 33.5339 8.3446 5.5962
# 5 1.7192 3.6543 8.1924 8.3446 19.4433 2.9118
# 6 28.8762 36.8234 12.1746 5.5962 2.9118 34.3997
#
#
#
# Elastic Compliance Matrix: (Units=1/GPa)
#
#
# Indices 1 2 3 4 5 6 
#
# 1 0.022523 0.007000 -0.002803 -0.001982 0.002513 -0.025297
# 2 0.007000 0.024726 -0.002769 -0.000676 0.000882 -0.031329
# 3 -0.002803 -0.002769 0.009302 -0.000498 -0.003295 0.002385
# 4 -0.001982 -0.000676 -0.000498 0.034256 -0.013916 -0.001832
# 5 0.002513 0.000882 -0.003295 -0.013916 0.059097 -0.004626
# 6 -0.025297 -0.031329 0.002385 -0.001832 -0.004626 0.083687
#
#
# Mechanical properties :
#
#
# Convention : Reuss Voigt Hill
#
# Bulk Modulus (GPa) = 16.83321 44.92876 30.88099
# Shear Modulus (GPa) = 19.95707 31.97827 25.96767
#
# Velocity S-wave (km/s) = 3.11609 3.94447 3.55450
# Velocity P-wave (km/s) = 4.59748 6.52725 5.64543
#
# Compressibility (1/GPa) = 0.05940637
#
# Stress axis : x y z
#
# Youngs Moduli (GPa) = 44.39995 40.44313 107.50089
#
# Poissons Ratio (x) = -0.28309 0.30129
# Poissons Ratio (y) = -0.31079 0.29770
# Poissons Ratio (z) = 0.12444 0.11200
#
# Static dielectric constant tensor:
#      x y z
#    x 1.776870 0.030340 0.003710 
#    y 0.030340 1.760950 -0.010490 
#    z 0.003710 -0.010490 1.791060 
# 
# From -- ./inp_files/354421.got.cif
#   From: 2010.05.17/outbox.cif.g08.bks.cpg/sg2_178_cif.got.tgz:354421.got - 2010.06.03 11:33:40.
