data_PCOD9087381
_publ_section_title
;
Structure prediction by ZEFSAII (Michael W. Deem and Ramdas Pophale) SiO2 
 PCOD9087381
Probable space group: P -1
;
_chemical_formula_sum "Si O2"
_cell_formula_units_Z 16
_cell_length_a 11.270145
_cell_length_b 12.669918
_cell_length_c 7.058029
_cell_angle_alpha 131.192904
_cell_angle_beta 97.914401
_cell_angle_gamma 58.472134
_cell_volume 611.954930
_symmetry_space_group_name_H-M "P -1"
_symmetry_group_IT_number 2
_symmetry_cell_setting 'triclinic'
loop_
_space_group_symop_operation_xyz
x,y,z
-x,-y,-z
loop_
_atom_site_type_symbol
_atom_site_label
_atom_site_fract_x
_atom_site_fract_y
_atom_site_fract_z
Si Si1 0.557057 0.201330 0.009172
Si Si2 0.121720 0.200436 0.935399
Si Si3 0.104717 0.654717 0.267712
Si Si4 0.778626 0.598011 0.706393
Si Si5 0.665995 0.878451 0.468008
Si Si6 0.005529 0.985295 0.257946
Si Si7 0.299202 0.634605 0.776819
Si Si8 0.392295 0.399876 0.857799
O O1 0.394868 0.265827 0.119867
O O2 0.610048 0.307511 0.246957
O O3 0.530789 0.271189 0.867299
O O4 0.664419 0.995797 0.772094
O O5 0.234453 0.142872 0.714113
O O6 0.114167 0.053257 0.856561
O O7 0.970558 0.313094 0.914843
O O8 0.157160 0.295758 0.209239
O O9 0.114432 0.507245 0.215484
O O10 0.035260 0.828029 0.578863
O O11 0.276128 0.563703 0.155303
O O12 0.776865 0.451212 0.428900
O O13 0.680231 0.705300 0.326174
O O14 0.500000 0.000000 0.500000
O O15 0.000000 0.000000 0.500000
O O16 0.164302 0.822704 0.042481
O O17 0.403205 0.486539 0.778730
#
# Coordination Sequence:
#
# PCOD9087381 Si02
#       8
#     2   2   2   2   2   2   2   2
#     4  10  21  41  61  84 116 158 198 241 287 345
#     4  11  19  38  63  88 117 154 191 251 279 354
#     4  10  20  39  60  89 114 155 200 231 295 341
#     4  11  24  38  60  86 124 156 191 243 294 350
#     4  10  19  36  63  89 110 147 206 238 282 339
#     4  10  21  37  61  87 119 150 196 244 285 346
#     4  12  23  40  57  90 122 154 194 243 298 337
#     4  10  20  37  61  91 110 149 207 237 282 354
#
# _framework density 26.145714999999999
#
# number of rings (size 3 to 8) (size 9 to 14) (size 15 to 20)
#    0.000    1.500    6.250    2.625    0.000    1.000 
#    2.250    1.875    0.000    0.000    0.000    0.000 
#    0.000    0.000    0.000    0.000    0.000    0.000 
#
# Total GULP energy -89239.937477 kJ/mol
# GULP energy per Si atom -5577.496092 kJ/mol
# Density = 2.608621 g / cm^3
# Si number density = 26.145715 Si / 1000 Ang^3
#
#
#
# Elastic Constant Matrix: (Units=GPa)
#
#
# Indices 1 2 3 4 5 6 
#
# 1 108.6219 10.8492 40.2778 20.0244 32.9305 3.5114
# 2 10.8492 67.3631 15.8021 17.2096 1.7199 -3.5602
# 3 40.2778 15.8021 150.3410 32.5285 21.9694 -6.0086
# 4 20.0244 17.2096 32.5285 32.0192 -2.5354 4.4156
# 5 32.9305 1.7199 21.9694 -2.5354 49.1926 -1.0333
# 6 3.5114 -3.5602 -6.0086 4.4156 -1.0333 15.7466
#
#
#
# Elastic Compliance Matrix: (Units=1/GPa)
#
#
# Indices 1 2 3 4 5 6 
#
# 1 0.013981 0.000343 -0.000469 -0.009034 -0.009655 -0.001319
# 2 0.000343 0.018157 0.001315 -0.012556 -0.001933 0.007925
# 3 -0.000469 0.001315 0.010298 -0.012285 -0.004807 0.007461
# 4 -0.009034 -0.012556 -0.012285 0.060225 0.014627 -0.021440
# 5 -0.009655 -0.001933 -0.004807 0.014627 0.029712 -0.002270
# 6 -0.001319 0.007925 0.007461 -0.021440 -0.002270 0.074302
#
#
# Mechanical properties :
#
#
# Convention : Reuss Voigt Hill
#
# Bulk Modulus (GPa) = 22.31404 51.13157 36.72280
# Shear Modulus (GPa) = 22.80675 36.68480 29.74577
#
# Velocity S-wave (km/s) = 2.95667 3.74985 3.37663
# Velocity P-wave (km/s) = 4.49543 6.19252 5.41092
#
# Compressibility (1/GPa) = 0.04481483
#
# Stress axis : x y z
#
# Youngs Moduli (GPa) = 71.52541 55.07537 97.11022
#
# Poissons Ratio (x) = -0.01890 0.04553
# Poissons Ratio (y) = -0.02454 -0.12774
# Poissons Ratio (z) = 0.03353 -0.07245
#
# Static dielectric constant tensor:
#      x y z
#    x 2.118450 -0.017910 0.073160 
#    y -0.017910 2.094100 -0.079530 
#    z 0.073160 -0.079530 2.184770 
# 
# From -- ./inp_files/271230.got.cif
#   From: 2010.05.17/outbox.cif.g08.bks.cpg/sg2_136_cif.got.tgz:271230.got - 2010.06.03 11:33:40.
