data_PCOD9087243
_publ_section_title
;
Structure prediction by ZEFSAII (Michael W. Deem and Ramdas Pophale) SiO2 
 PCOD9087243
Probable space group: P -1
;
_chemical_formula_sum "Si O2"
_cell_formula_units_Z 14
_cell_length_a 7.814697
_cell_length_b 10.331278
_cell_length_c 10.837736
_cell_angle_alpha 126.344800
_cell_angle_beta 58.922917
_cell_angle_gamma 117.422472
_cell_volume 588.263428
_symmetry_space_group_name_H-M "P -1"
_symmetry_group_IT_number 2
_symmetry_cell_setting 'triclinic'
loop_
_space_group_symop_operation_xyz
x,y,z
-x,-y,-z
loop_
_atom_site_type_symbol
_atom_site_label
_atom_site_fract_x
_atom_site_fract_y
_atom_site_fract_z
Si Si1 0.228468 0.540752 0.883329
Si Si2 0.767571 0.267386 0.657057
Si Si3 0.853433 0.122353 0.090265
Si Si4 0.776133 0.623051 0.977216
Si Si5 0.490931 0.836490 0.077514
Si Si6 0.365355 0.688672 0.536939
Si Si7 0.234638 0.357449 0.523302
O O1 0.234836 0.475972 0.708417
O O2 0.320722 0.426712 0.880969
O O3 0.353174 0.724325 0.964130
O O4 0.000000 0.500000 0.000000
O O5 0.786199 0.453721 0.808381
O O6 0.653581 0.150260 0.742929
O O7 0.644979 0.252335 0.566027
O O8 0.002810 0.252503 0.538069
O O9 0.795867 0.227702 0.284648
O O10 0.999874 0.256462 0.026689
O O11 0.638646 0.001515 0.067375
O O12 0.000000 0.000000 0.000000
O O13 0.639883 0.724391 0.011745
O O14 0.292854 0.487913 0.462943
O O15 0.581798 0.728934 0.554138
#
# Coordination Sequence:
#
# PCOD9087243 Si02
#       7
#     2   2   2   2   2   2   2
#     4  11  18  36  62  88 122 153 202 261 292 352
#     4  11  20  39  66  91 121 160 208 258 302 356
#     4  10  22  41  61  89 126 163 204 247 311 377
#     4  10  19  36  62  91 117 158 209 251 303 356
#     4  10  21  36  62  90 121 162 204 245 310 365
#     4  11  23  40  62  92 125 161 205 256 308 362
#     4  11  22  37  65  95 122 155 209 260 302 354
#
# _framework density 23.798863000000001
#
# number of rings (size 3 to 8) (size 9 to 14) (size 15 to 20)
#    0.000    1.429    4.286    3.857    0.000    0.571 
#    2.571    3.571    3.143    0.000    0.000    0.000 
#    0.000    0.000    0.000    0.000    0.000    0.000 
#
# Total GULP energy -78204.425489 kJ/mol
# GULP energy per Si atom -5586.030392 kJ/mol
# Density = 2.374470 g / cm^3
# Si number density = 23.798863 Si / 1000 Ang^3
#
#
#
# Elastic Constant Matrix: (Units=GPa)
#
#
# Indices 1 2 3 4 5 6 
#
# 1 123.2605 35.1624 24.5046 -5.4565 -17.5400 12.1054
# 2 35.1624 143.6492 7.9567 -13.2169 -1.7493 23.2456
# 3 24.5046 7.9567 46.4073 -7.0805 -15.9307 -8.2353
# 4 -5.4565 -13.2169 -7.0805 19.6911 4.1959 -6.7229
# 5 -17.5400 -1.7493 -15.9307 4.1959 41.7226 -8.7906
# 6 12.1054 23.2456 -8.2353 -6.7229 -8.7906 44.5283
#
#
#
# Elastic Compliance Matrix: (Units=1/GPa)
#
#
# Indices 1 2 3 4 5 6 
#
# 1 0.010109 -0.001900 -0.005071 -0.001568 0.001851 -0.002565
# 2 -0.001900 0.008470 -0.001332 0.003774 -0.002177 -0.004012
# 3 -0.005071 -0.001332 0.032195 0.010901 0.011527 0.011950
# 4 -0.001568 0.003774 0.010901 0.060120 -0.000389 0.009472
# 5 0.001851 -0.002177 0.011527 -0.000389 0.030953 0.008817
# 6 -0.002565 -0.004012 0.011950 0.009472 0.008817 0.030630
#
#
# Mechanical properties :
#
#
# Convention : Reuss Voigt Hill
#
# Bulk Modulus (GPa) = 29.26808 49.84048 39.55428
# Shear Modulus (GPa) = 24.94097 37.56794 31.25446
#
# Velocity S-wave (km/s) = 3.24078 3.97742 3.62785
# Velocity P-wave (km/s) = 5.13111 6.48699 5.84848
#
# Compressibility (1/GPa) = 0.03416692
#
# Stress axis : x y z
#
# Youngs Moduli (GPa) = 98.92099 118.06055 31.06058
#
# Poissons Ratio (x) = 0.22434 0.15751
# Poissons Ratio (y) = 0.18797 0.04138
# Poissons Ratio (z) = 0.50165 0.15730
#
# Static dielectric constant tensor:
#      x y z
#    x 2.056570 -0.034010 -0.056030 
#    y -0.034010 1.928150 -0.014010 
#    z -0.056030 -0.014010 1.905290 
# 
# From -- ./inp_files/392972.got.cif
#   From: 2010.05.17/outbox.cif.g08.bks.cpg/sg2_197_cif.got.tgz:392972.got - 2010.06.03 11:33:40.
