data_PCOD9087751
_publ_section_title
;
Structure prediction by ZEFSAII (Michael W. Deem and Ramdas Pophale) SiO2 
 PCOD9087751
Probable space group: P -1
;
_chemical_formula_sum "Si O2"
_cell_formula_units_Z 16
_cell_length_a 24.605663
_cell_length_b 18.943453
_cell_length_c 8.512598
_cell_angle_alpha 35.663053
_cell_angle_beta 30.942709
_cell_angle_gamma 20.927335
_cell_volume 727.330798
_symmetry_space_group_name_H-M "P -1"
_symmetry_group_IT_number 2
_symmetry_cell_setting 'triclinic'
loop_
_space_group_symop_operation_xyz
x,y,z
-x,-y,-z
loop_
_atom_site_type_symbol
_atom_site_label
_atom_site_fract_x
_atom_site_fract_y
_atom_site_fract_z
Si Si1 0.304278 0.436604 0.345646
Si Si2 0.695613 0.340728 0.851989
Si Si3 0.470240 0.945848 0.326276
Si Si4 0.358666 0.271653 0.183444
Si Si5 0.162603 0.605108 0.854036
Si Si6 0.100069 0.255095 0.253973
Si Si7 0.829191 0.949057 0.257829
Si Si8 0.958274 0.594399 0.180874
O O1 0.311212 0.569965 0.136879
O O2 0.394685 0.277919 0.547378
O O3 0.388768 0.313185 0.197042
O O4 0.101137 0.595826 0.541539
O O5 0.794251 0.326605 0.496688
O O6 0.500000 0.500000 0.000000
O O7 0.774953 0.136738 0.042174
O O8 0.293285 0.029899 0.579931
O O9 0.471248 0.052176 0.261869
O O10 0.500000 0.000000 0.000000
O O11 0.168201 0.381431 0.460252
O O12 0.336482 0.390453 0.885903
O O13 0.061535 0.594568 0.026538
O O14 0.026760 0.762269 0.044005
O O15 0.092186 0.386042 0.135258
O O16 0.185801 0.081371 0.469473
O O17 0.157744 0.231618 0.977313
#
# Coordination Sequence:
#
# PCOD9087751 Si02
#       8
#     2   2   2   2   2   2   2   2
#     4  11  23  46  65  97 141 178 220 287 342 396
#     4  12  27  48  68  93 139 189 239 280 334 409
#     4  12  26  40  71 104 143 180 218 278 360 419
#     4  11  23  40  71 104 137 167 228 281 352 406
#     4  12  22  44  70 101 133 186 228 287 335 407
#     4  10  22  39  69 103 132 170 225 282 343 402
#     4  12  25  45  69 102 134 187 237 273 335 412
#     4  10  19  36  67 102 136 160 211 290 342 397
#
# _framework density 21.998244
#
# number of rings (size 3 to 8) (size 9 to 14) (size 15 to 20)
#    0.000    0.750    6.250    2.625    5.250    0.500 
#    0.000    0.625    0.000    0.000    0.000    0.000 
#    0.000    0.000    0.000    0.000    0.000    0.000 
#
# Total GULP energy -89430.767333 kJ/mol
# GULP energy per Si atom -5589.422958 kJ/mol
# Density = 2.194817 g / cm^3
# Si number density = 21.998244 Si / 1000 Ang^3
#
#
#
# Elastic Constant Matrix: (Units=GPa)
#
#
# Indices 1 2 3 4 5 6 
#
# 1 91.4361 26.5143 51.3368 -20.2535 -5.5423 9.8615
# 2 26.5143 69.2640 17.6115 -27.3821 -8.3962 2.1007
# 3 51.3368 17.6115 101.5621 -29.6575 2.2499 2.0549
# 4 -20.2535 -27.3821 -29.6575 40.1061 -4.0445 -4.1719
# 5 -5.5423 -8.3962 2.2499 -4.0445 37.1692 -8.0890
# 6 9.8615 2.1007 2.0549 -4.1719 -8.0890 37.9358
#
#
#
# Elastic Compliance Matrix: (Units=1/GPa)
#
#
# Indices 1 2 3 4 5 6 
#
# 1 0.017027 -0.004482 -0.007958 -0.000599 0.001167 -0.003564
# 2 -0.004482 0.022566 0.002894 0.016265 0.006670 0.002970
# 3 -0.007958 0.002894 0.016316 0.010255 0.000067 0.002167
# 4 -0.000599 0.016265 0.010255 0.044810 0.009049 0.005557
# 5 0.001167 0.006670 0.000067 0.009049 0.031077 0.006945
# 6 -0.003564 0.002970 0.002167 0.005557 0.006945 0.029097
#
#
# Mechanical properties :
#
#
# Convention : Reuss Voigt Hill
#
# Bulk Modulus (GPa) = 27.16126 50.35417 38.75771
# Shear Modulus (GPa) = 26.00704 34.16219 30.08461
#
# Velocity S-wave (km/s) = 3.44209 3.94502 3.70211
# Velocity P-wave (km/s) = 5.30765 6.60990 5.99424
#
# Compressibility (1/GPa) = 0.03681715
#
# Stress axis : x y z
#
# Youngs Moduli (GPa) = 58.73152 44.31504 61.28918
#
# Poissons Ratio (x) = 0.19860 0.48774
# Poissons Ratio (y) = 0.26321 -0.17737
# Poissons Ratio (z) = 0.46739 -0.12825
#
# Static dielectric constant tensor:
#      x y z
#    x 1.828500 0.022540 0.049940 
#    y 0.022540 1.908020 -0.004720 
#    z 0.049940 -0.004720 1.859080 
# 
# From -- ./inp_files/357708.got.cif
#   From: 2010.05.17/outbox.cif.g08.bks.cpg/sg2_179_cif.got.tgz:357708.got - 2010.06.03 11:33:40.
