data_PCOD9087574
_publ_section_title
;
Structure prediction by ZEFSAII (Michael W. Deem and Ramdas Pophale) SiO2 
 PCOD9087574
Probable space group: P -1
;
_chemical_formula_sum "Si O2"
_cell_formula_units_Z 15
_cell_length_a 6.738136
_cell_length_b 8.951294
_cell_length_c 10.132882
_cell_angle_alpha 65.045169
_cell_angle_beta 61.719968
_cell_angle_gamma 76.519144
_cell_volume 487.547529
_symmetry_space_group_name_H-M "P -1"
_symmetry_group_IT_number 2
_symmetry_cell_setting 'triclinic'
loop_
_space_group_symop_operation_xyz
x,y,z
-x,-y,-z
loop_
_atom_site_type_symbol
_atom_site_label
_atom_site_fract_x
_atom_site_fract_y
_atom_site_fract_z
Si Si1 0.564891 0.888444 0.342601
Si Si2 0.941254 0.124650 0.651692
Si Si3 0.531425 0.233662 0.829498
Si Si4 0.694462 0.825675 0.798439
Si Si5 0.052874 0.501433 0.186182
Si Si6 0.567641 0.422988 0.361876
Si Si7 0.981068 0.824502 0.136120
Si Si8 0.000000 0.500000 0.500000
O O1 0.837181 0.898652 0.302565
O O2 0.339424 0.838829 0.326497
O O3 0.494572 0.763116 0.527693
O O4 0.483135 0.080881 0.277282
O O5 0.015768 0.306464 0.507760
O O6 0.797327 0.170966 0.825411
O O7 0.920818 0.933566 0.680241
O O8 0.564878 0.435501 0.735953
O O9 0.302207 0.206848 0.802253
O O10 0.402400 0.169711 0.023884
O O11 0.751846 0.634532 0.829278
O O12 0.092272 0.682498 0.053986
O O13 0.971686 0.567330 0.333594
O O14 0.822529 0.432490 0.232065
O O15 0.500000 0.500000 0.500000
O O16 0.000000 0.000000 0.000000
#
# Coordination Sequence:
#
# PCOD9087574 Si02
#       8
#     2   2   2   2   2   2   2   1
#     4  10  20  38  66  90 130 172 217 258 313 381
#     4  10  22  36  66  92 129 168 214 255 320 389
#     4  10  19  37  62  95 128 171 216 256 319 382
#     4  11  23  40  66  98 126 165 217 275 312 377
#     4  11  23  40  69  92 126 165 217 268 323 376
#     4  10  19  36  64  93 120 165 218 262 302 380
#     4  11  21  39  62  93 128 170 212 253 319 388
#     4  10  22  40  60  94 122 168 208 256 324 392
#
# _framework density 30.76623
#
# number of rings (size 3 to 8) (size 9 to 14) (size 15 to 20)
#    0.000    1.600    2.667    5.600    1.867    2.667 
#    0.000    6.000    2.933    2.400    0.000    0.000 
#    0.000    0.000    0.000    0.000    0.000    0.000 
#
# Total GULP energy -83527.718040 kJ/mol
# GULP energy per Si atom -5568.514536 kJ/mol
# Density = 3.069620 g / cm^3
# Si number density = 30.766230 Si / 1000 Ang^3
#
#
#
# Elastic Constant Matrix: (Units=GPa)
#
#
# Indices 1 2 3 4 5 6 
#
# 1 256.6274 85.2339 38.3369 -19.1142 13.9369 -24.7157
# 2 85.2339 236.0443 45.0350 -46.3076 3.3818 -34.0270
# 3 38.3369 45.0350 106.8599 -30.6882 7.4854 16.6807
# 4 -19.1142 -46.3076 -30.6882 58.1011 8.0892 17.3398
# 5 13.9369 3.3818 7.4854 8.0892 31.9629 -8.8374
# 6 -24.7157 -34.0270 16.6807 17.3398 -8.8374 61.8615
#
#
#
# Elastic Compliance Matrix: (Units=1/GPa)
#
#
# Indices 1 2 3 4 5 6 
#
# 1 0.004712 -0.001288 -0.001513 -0.000626 -0.000957 0.001621
# 2 -0.001288 0.005887 -0.001703 0.002563 0.000386 0.002519
# 3 -0.001513 -0.001703 0.015809 0.010627 -0.008308 -0.009970
# 4 -0.000626 0.002563 0.010627 0.030138 -0.013453 -0.012075
# 5 -0.000957 0.000386 -0.008308 -0.013453 0.040217 0.011586
# 6 0.001621 0.002519 -0.009970 -0.012075 0.011586 0.025927
#
#
# Mechanical properties :
#
#
# Convention : Reuss Voigt Hill
#
# Bulk Modulus (GPa) = 57.47623 104.08256 80.77939
# Shear Modulus (GPa) = 36.36406 59.11350 47.73878
#
# Velocity S-wave (km/s) = 3.44168 4.38811 3.94339
# Velocity P-wave (km/s) = 5.87500 7.71865 6.85905
#
# Compressibility (1/GPa) = 0.01739850
#
# Stress axis : x y z
#
# Youngs Moduli (GPa) = 212.21932 169.86256 63.25565
#
# Poissons Ratio (x) = 0.21883 0.09574
# Poissons Ratio (y) = 0.27339 0.10773
# Poissons Ratio (z) = 0.32119 0.28928
#
# Static dielectric constant tensor:
#      x y z
#    x 1.301880 0.381810 0.834840 
#    y 0.381810 2.289210 -0.222830 
#    z 0.834840 -0.222830 1.806630 
# 
# From -- ./inp_files/381254.got.cif
#   From: 2010.05.17/outbox.cif.g08.bks.cpg/sg2_191_cif.got.tgz:381254.got - 2010.06.03 11:33:40.
