data_PCOD9087332
_publ_section_title
;
Structure prediction by ZEFSAII (Michael W. Deem and Ramdas Pophale) SiO2 
 PCOD9087332
Probable space group: P -1
;
_chemical_formula_sum "Si O2"
_cell_formula_units_Z 14
_cell_length_a 18.368428
_cell_length_b 5.986732
_cell_length_c 7.640605
_cell_angle_alpha 116.302400
_cell_angle_beta 62.935873
_cell_angle_gamma 127.005639
_cell_volume 580.331002
_symmetry_space_group_name_H-M "P -1"
_symmetry_group_IT_number 2
_symmetry_cell_setting 'triclinic'
loop_
_space_group_symop_operation_xyz
x,y,z
-x,-y,-z
loop_
_atom_site_type_symbol
_atom_site_label
_atom_site_fract_x
_atom_site_fract_y
_atom_site_fract_z
Si Si1 0.868659 0.644377 0.911178
Si Si2 0.498015 0.801272 0.097551
Si Si3 0.302553 0.723205 0.817441
Si Si4 0.171480 0.721349 0.678721
Si Si5 0.145191 0.907228 0.425916
Si Si6 0.977446 0.837237 0.231608
Si Si7 0.700263 0.522872 0.617681
O O1 0.888705 0.409635 0.716440
O O2 0.758119 0.472468 0.021686
O O3 0.923533 0.745887 0.071196
O O4 0.914047 0.937092 0.849690
O O5 0.396023 0.688030 0.256648
O O6 0.595424 0.017987 0.162041
O O7 0.500000 0.500000 0.000000
O O8 0.500000 0.000000 0.000000
O O9 0.235006 0.816920 0.817455
O O10 0.317791 0.532357 0.589492
O O11 0.170914 0.934140 0.613361
O O12 0.064124 0.477888 0.750397
O O13 0.222781 0.574332 0.466613
O O14 0.066364 0.001713 0.551258
O O15 0.241550 0.135146 0.300804
#
# Coordination Sequence:
#
# PCOD9087332 Si02
#       7
#     2   2   2   2   2   2   2
#     4  10  19  36  63  84 131 170 218 275 320 403
#     4  12  27  44  69 103 132 170 232 275 335 415
#     4   9  21  43  61  91 127 174 208 274 341 385
#     4   8  20  37  63  88 126 165 218 262 335 391
#     4  11  19  37  66  90 122 176 220 267 331 393
#     4   9  20  40  53  90 132 167 216 275 329 386
#     4   9  22  42  62  87 129 166 210 273 334 390
#
# _framework density 24.124162999999999
#
# number of rings (size 3 to 8) (size 9 to 14) (size 15 to 20)
#    0.857    1.429    1.429    1.714    4.000    1.714 
#    0.000   14.286    0.000    0.000    0.000    0.000 
#    0.000    0.000    0.000    0.000    0.000    0.000 
#
# Total GULP energy -78065.731826 kJ/mol
# GULP energy per Si atom -5576.123702 kJ/mol
# Density = 2.406926 g / cm^3
# Si number density = 24.124163 Si / 1000 Ang^3
#
#
#
# Elastic Constant Matrix: (Units=GPa)
#
#
# Indices 1 2 3 4 5 6 
#
# 1 104.5195 72.0100 26.8992 -7.3321 7.6927 16.5776
# 2 72.0100 201.1989 60.0658 -29.1370 -1.9475 33.2267
# 3 26.8992 60.0658 88.6333 -10.5335 0.1923 6.5866
# 4 -7.3321 -29.1370 -10.5335 60.2428 10.6570 -5.9009
# 5 7.6927 -1.9475 0.1923 10.6570 24.6404 -1.1633
# 6 16.5776 33.2267 6.5866 -5.9009 -1.1633 37.1325
#
#
#
# Elastic Compliance Matrix: (Units=1/GPa)
#
#
# Indices 1 2 3 4 5 6 
#
# 1 0.013396 -0.004146 -0.001076 0.000037 -0.004622 -0.002218
# 2 -0.004146 0.008849 -0.004083 0.002449 0.000734 -0.004931
# 3 -0.001076 -0.004083 0.014325 0.000614 -0.000285 0.001682
# 4 0.000037 0.002449 0.000614 0.019394 -0.008187 0.000509
# 5 -0.004622 0.000734 -0.000285 -0.008187 0.045703 0.001588
# 6 -0.002218 -0.004931 0.001682 0.000509 0.001588 0.032166
#
#
# Mechanical properties :
#
#
# Convention : Reuss Voigt Hill
#
# Bulk Modulus (GPa) = 55.68254 79.14463 67.41358
# Shear Modulus (GPa) = 31.56007 40.09493 35.82750
#
# Velocity S-wave (km/s) = 3.62088 4.08122 3.85792
# Velocity P-wave (km/s) = 6.37281 7.42205 6.91735
#
# Compressibility (1/GPa) = 0.01795895
#
# Stress axis : x y z
#
# Youngs Moduli (GPa) = 74.65044 113.00785 69.81013
#
# Poissons Ratio (x) = 0.46853 0.07514
# Poissons Ratio (y) = 0.30950 0.28502
# Poissons Ratio (z) = 0.08036 0.46138
#
# Static dielectric constant tensor:
#      x y z
#    x 1.961450 -0.063180 0.021360 
#    y -0.063180 1.952970 -0.006790 
#    z 0.021360 -0.006790 1.997950 
# 
# From -- ./inp_files/339959.got.cif
#   From: 2010.05.17/outbox.cif.g08.bks.cpg/sg2_170_cif.got.tgz:339959.got - 2010.06.03 11:33:40.
