data_PCOD9087317
_publ_section_title
;
Structure prediction by ZEFSAII (Michael W. Deem and Ramdas Pophale) SiO2 
 PCOD9087317
Probable space group: P -1
;
_chemical_formula_sum "Si O2"
_cell_formula_units_Z 16
_cell_length_a 14.747210
_cell_length_b 10.307327
_cell_length_c 7.004241
_cell_angle_alpha 67.622965
_cell_angle_beta 51.782030
_cell_angle_gamma 43.422484
_cell_volume 570.308264
_symmetry_space_group_name_H-M "P -1"
_symmetry_group_IT_number 2
_symmetry_cell_setting 'triclinic'
loop_
_space_group_symop_operation_xyz
x,y,z
-x,-y,-z
loop_
_atom_site_type_symbol
_atom_site_label
_atom_site_fract_x
_atom_site_fract_y
_atom_site_fract_z
Si Si1 0.294291 0.222228 0.313839
Si Si2 0.124081 0.005746 0.443146
Si Si3 0.717749 0.472369 0.299782
Si Si4 0.678437 0.338342 0.815934
Si Si5 0.420976 0.929220 0.763084
Si Si6 0.387347 0.834425 0.459099
Si Si7 0.825985 0.676286 0.178273
Si Si8 0.886343 0.362541 0.787489
O O1 0.371547 0.005766 0.292601
O O2 0.188707 0.274114 0.608328
O O3 0.182268 0.422562 0.235831
O O4 0.439730 0.203308 0.195484
O O5 0.227001 0.894105 0.565709
O O6 0.028479 0.219296 0.530840
O O7 0.265746 0.866642 0.183554
O O8 0.000000 0.000000 0.500000
O O9 0.286207 0.615909 0.456661
O O10 0.731550 0.615042 0.290572
O O11 0.549677 0.618890 0.326274
O O12 0.871884 0.327916 0.047223
O O13 0.769196 0.346194 0.854945
O O14 0.500000 0.500000 0.000000
O O15 0.390914 0.846466 0.676934
O O16 0.261039 0.131462 0.930566
O O17 0.500000 0.000000 0.500000
O O18 0.000000 0.500000 0.000000
#
# Coordination Sequence:
#
# PCOD9087317 Si02
#       8
#     2   2   2   2   2   2   2   2
#     4  10  19  42  65  99 153 185 226 290 353 442
#     4  10  25  46  65 100 144 182 246 301 355 411
#     4  12  23  43  73 108 139 186 246 288 361 433
#     4  11  25  51  75  96 137 186 252 310 350 412
#     4   8  15  34  63  91 140 181 223 282 337 421
#     4  10  19  39  68 100 139 187 239 281 347 437
#     4  10  19  36  63 103 147 185 223 288 362 425
#     4  11  25  42  71 103 145 186 228 304 363 426
#
# _framework density 28.055004
#
# number of rings (size 3 to 8) (size 9 to 14) (size 15 to 20)
#    0.000    2.000    5.000    0.750    3.500    3.500 
#    0.000    6.250    0.000    0.000    0.000    0.000 
#    0.000    0.000    0.000    0.000    0.000    0.000 
#
# Total GULP energy -89276.706942 kJ/mol
# GULP energy per Si atom -5579.794184 kJ/mol
# Density = 2.799115 g / cm^3
# Si number density = 28.055004 Si / 1000 Ang^3
#
#
#
# Elastic Constant Matrix: (Units=GPa)
#
#
# Indices 1 2 3 4 5 6 
#
# 1 99.1167 23.5754 11.1203 1.4263 4.9987 0.6151
# 2 23.5754 98.2524 34.4260 6.9209 1.0057 24.8752
# 3 11.1203 34.4260 126.5988 32.1157 31.2235 4.6740
# 4 1.4263 6.9209 32.1157 58.6281 -4.4446 -3.6154
# 5 4.9987 1.0057 31.2235 -4.4446 39.6653 16.5609
# 6 0.6151 24.8752 4.6740 -3.6154 16.5609 49.0059
#
#
#
# Elastic Compliance Matrix: (Units=1/GPa)
#
#
# Indices 1 2 3 4 5 6 
#
# 1 0.010970 -0.003454 0.000675 -0.000294 -0.002908 0.002512
# 2 -0.003454 0.015665 -0.006417 0.001839 0.009646 -0.010420
# 3 0.000675 -0.006417 0.015351 -0.008456 -0.015646 0.006448
# 4 -0.000294 0.001839 -0.008456 0.022116 0.009891 -0.001834
# 5 -0.002908 0.009646 -0.015646 0.009891 0.046406 -0.018320
# 6 0.002512 -0.010420 0.006448 -0.001834 -0.018320 0.031104
#
#
# Mechanical properties :
#
#
# Convention : Reuss Voigt Hill
#
# Bulk Modulus (GPa) = 42.38614 51.35679 46.87147
# Shear Modulus (GPa) = 29.78492 46.44960 38.11726
#
# Velocity S-wave (km/s) = 3.26185 4.07340 3.69000
# Velocity P-wave (km/s) = 5.41546 6.36152 5.90746
#
# Compressibility (1/GPa) = 0.02359262
#
# Stress axis : x y z
#
# Youngs Moduli (GPa) = 91.15487 63.83591 65.14384
#
# Poissons Ratio (x) = 0.22051 -0.04396
# Poissons Ratio (y) = 0.31488 0.41805
# Poissons Ratio (z) = -0.06152 0.40965
#
# Static dielectric constant tensor:
#      x y z
#    x 2.236300 0.075380 -0.179520 
#    y 0.075380 2.224280 0.159920 
#    z -0.179520 0.159920 2.203340 
# 
# From -- ./inp_files/267454.got.cif
#   From: 2010.05.17/outbox.cif.g08.bks.cpg/sg2_134_cif.got.tgz:267454.got - 2010.06.03 11:33:40.
