data_PCOD9087223
_publ_section_title
;
Structure prediction by ZEFSAII (Michael W. Deem and Ramdas Pophale) SiO2 
 PCOD9087223
Probable space group: P -1
;
_chemical_formula_sum "Si O2"
_cell_formula_units_Z 16
_cell_length_a 9.571833
_cell_length_b 11.994222
_cell_length_c 10.254161
_cell_angle_alpha 138.982287
_cell_angle_beta 122.572800
_cell_angle_gamma 60.942341
_cell_volume 644.331967
_symmetry_space_group_name_H-M "P -1"
_symmetry_group_IT_number 2
_symmetry_cell_setting 'triclinic'
loop_
_space_group_symop_operation_xyz
x,y,z
-x,-y,-z
loop_
_atom_site_type_symbol
_atom_site_label
_atom_site_fract_x
_atom_site_fract_y
_atom_site_fract_z
Si Si1 0.651150 0.009006 0.784339
Si Si2 0.335986 0.191855 0.640231
Si Si3 0.482560 0.795766 0.696189
Si Si4 0.005195 0.426267 0.640481
Si Si5 0.875292 0.280239 0.188237
Si Si6 0.824911 0.449756 0.831519
Si Si7 0.533018 0.420848 0.255355
Si Si8 0.818580 0.081136 0.524182
O O1 0.506698 0.156461 0.780239
O O2 0.635150 0.853515 0.537473
O O3 0.613457 0.919772 0.824223
O O4 0.819077 0.098044 0.959699
O O5 0.190634 0.353282 0.722275
O O6 0.243376 0.035991 0.502953
O O7 0.526395 0.608439 0.484038
O O8 0.455085 0.737320 0.777308
O O9 0.311172 0.896355 0.640302
O O10 0.018165 0.618809 0.767937
O O11 0.966185 0.303443 0.392983
O O12 0.856108 0.424134 0.668342
O O13 0.692827 0.394763 0.220323
O O14 0.655851 0.570939 0.883600
O O15 0.815744 0.272071 0.740988
O O16 0.000000 0.500000 0.000000
O O17 0.000000 0.000000 0.500000
#
# Coordination Sequence:
#
# PCOD9087223 Si02
#       8
#     2   2   2   2   2   2   2   2
#     4  10  23  41  62  98 123 170 220 263 322 385
#     4  10  22  40  64  89 132 165 212 271 323 383
#     4   9  19  38  65  87 124 163 214 257 316 378
#     4  11  24  44  63  95 133 171 211 273 326 378
#     4  11  25  41  67  95 131 170 221 264 323 387
#     4  11  25  41  65  97 130 167 218 266 324 382
#     4  10  21  41  66  91 127 174 211 262 319 390
#     4  10  19  36  62  89 123 164 207 261 324 371
#
# _framework density 24.831921999999999
#
# number of rings (size 3 to 8) (size 9 to 14) (size 15 to 20)
#    0.000    1.750    1.250    3.000    3.500    3.500 
#    2.250    0.000    0.000    0.000    0.000    0.000 
#    0.000    0.000    0.000    0.000    0.000    0.000 
#
# Total GULP energy -89360.340831 kJ/mol
# GULP energy per Si atom -5585.021302 kJ/mol
# Density = 2.477540 g / cm^3
# Si number density = 24.831922 Si / 1000 Ang^3
#
#
#
# Elastic Constant Matrix: (Units=GPa)
#
#
# Indices 1 2 3 4 5 6 
#
# 1 60.8581 17.0494 -5.2741 7.4511 0.3439 -2.3688
# 2 17.0494 93.2516 22.5340 6.7664 10.8605 8.6105
# 3 -5.2741 22.5340 87.9957 -3.0333 20.1891 15.7258
# 4 7.4511 6.7664 -3.0333 15.4305 -3.8326 15.3459
# 5 0.3439 10.8605 20.1891 -3.8326 35.6277 12.5687
# 6 -2.3688 8.6105 15.7258 15.3459 12.5687 56.0355
#
#
#
# Elastic Compliance Matrix: (Units=1/GPa)
#
#
# Indices 1 2 3 4 5 6 
#
# 1 0.019338 -0.002901 0.001209 -0.014296 -0.003510 0.005626
# 2 -0.002901 0.012803 -0.003201 -0.007217 -0.003382 0.001543
# 3 0.001209 -0.003201 0.014374 0.006534 -0.005012 -0.004156
# 4 -0.014296 -0.007217 0.006534 0.123610 0.026435 -0.041110
# 5 -0.003510 -0.003382 -0.005012 0.026435 0.039901 -0.014412
# 6 0.005626 0.001543 -0.004156 -0.041110 -0.014412 0.033504
#
#
# Mechanical properties :
#
#
# Convention : Reuss Voigt Hill
#
# Bulk Modulus (GPa) = 27.22667 34.52490 30.87578
# Shear Modulus (GPa) = 18.82812 35.27181 27.04996
#
# Velocity S-wave (km/s) = 2.75657 3.77294 3.30407
# Velocity P-wave (km/s) = 4.59562 5.73705 5.19776
#
# Compressibility (1/GPa) = 0.03672870
#
# Stress axis : x y z
#
# Youngs Moduli (GPa) = 51.71076 78.10860 69.56812
#
# Poissons Ratio (x) = 0.22661 -0.08411
# Poissons Ratio (y) = 0.15003 0.22270
# Poissons Ratio (z) = -0.06252 0.25004
#
# Static dielectric constant tensor:
#      x y z
#    x 2.061610 -0.064630 -0.109690 
#    y -0.064630 1.982600 -0.047320 
#    z -0.109690 -0.047320 2.092200 
# 
# From -- ./inp_files/429136.got.cif
#   From: 2010.05.17/outbox.cif.g08.bks.cpg/sg2_215_cif.got.tgz:429136.got - 2010.06.03 11:33:40.
