data_PCOD9087345
_publ_section_title
;
Structure prediction by ZEFSAII (Michael W. Deem and Ramdas Pophale) SiO2 
 PCOD9087345
Probable space group: P -1
;
_chemical_formula_sum "Si O2"
_cell_formula_units_Z 14
_cell_length_a 11.646579
_cell_length_b 11.780805
_cell_length_c 11.395983
_cell_angle_alpha 142.541795
_cell_angle_beta 143.058355
_cell_angle_gamma 45.580695
_cell_volume 562.283342
_symmetry_space_group_name_H-M "P -1"
_symmetry_group_IT_number 2
_symmetry_cell_setting 'triclinic'
loop_
_space_group_symop_operation_xyz
x,y,z
-x,-y,-z
loop_
_atom_site_type_symbol
_atom_site_label
_atom_site_fract_x
_atom_site_fract_y
_atom_site_fract_z
Si Si1 0.806712 0.907439 0.758154
Si Si2 0.637721 0.507502 0.880341
Si Si3 0.603929 0.166437 0.174239
Si Si4 0.983398 0.074447 0.709367
Si Si5 0.595959 0.072246 0.484939
Si Si6 0.986020 0.609529 0.811452
Si Si7 0.198512 0.614144 0.332162
O O1 0.620971 0.966839 0.742748
O O2 0.888918 0.688563 0.676842
O O3 0.699165 0.962746 0.593078
O O4 0.000000 0.000000 0.000000
O O5 0.486710 0.698386 0.894548
O O6 0.568259 0.303724 0.667011
O O7 0.755432 0.493639 0.840912
O O8 0.796573 0.508677 0.112686
O O9 0.615021 0.301977 0.406524
O O10 0.827859 0.082099 0.261308
O O11 0.500000 0.000000 0.000000
O O12 0.769763 0.019538 0.490397
O O13 0.973718 0.213545 0.704120
O O14 0.992592 0.205313 0.939771
O O15 0.856883 0.501178 0.698235
#
# Coordination Sequence:
#
# PCOD9087345 Si02
#       7
#     2   2   2   2   2   2   2
#     4  11  18  36  64  91 111 147 208 253 288 336
#     4  10  20  37  58  89 118 152 200 241 289 358
#     4  12  23  34  54  86 127 163 192 237 296 357
#     4  10  21  37  56  88 125 150 196 243 301 353
#     4   9  21  37  61  90 115 153 199 250 290 349
#     4  10  19  36  63  86 112 154 196 248 292 347
#     4  10  20  37  56  82 119 157 200 237 290 354
#
# _framework density 24.898475999999999
#
# number of rings (size 3 to 8) (size 9 to 14) (size 15 to 20)
#    0.000    2.000    2.857    5.143    0.000    3.429 
#    0.000    0.000    0.000   11.143    0.000    0.000 
#    0.000    0.000    0.000    0.000    0.000    0.000 
#
# Total GULP energy -78162.145895 kJ/mol
# GULP energy per Si atom -5583.010421 kJ/mol
# Density = 2.484181 g / cm^3
# Si number density = 24.898476 Si / 1000 Ang^3
#
#
#
# Elastic Constant Matrix: (Units=GPa)
#
#
# Indices 1 2 3 4 5 6 
#
# 1 54.1889 49.7094 31.7105 0.2182 35.2024 1.6702
# 2 49.7094 222.2792 45.2258 -40.0670 17.7892 15.6832
# 3 31.7105 45.2258 106.6067 -16.2161 33.8962 -1.1133
# 4 0.2182 -40.0670 -16.2161 39.0511 -7.5815 6.7027
# 5 35.2024 17.7892 33.8962 -7.5815 37.5605 -4.5051
# 6 1.6702 15.6832 -1.1133 6.7027 -4.5051 52.0491
#
#
#
# Elastic Compliance Matrix: (Units=1/GPa)
#
#
# Indices 1 2 3 4 5 6 
#
# 1 0.094180 -0.021722 0.003595 -0.038739 -0.088937 0.000891
# 2 -0.021722 0.011141 -0.002337 0.014937 0.019855 -0.002915
# 3 0.003595 -0.002337 0.014152 0.000637 -0.014964 -0.000486
# 4 -0.038739 0.014937 0.000637 0.049879 0.037960 -0.006382
# 5 -0.088937 0.019855 -0.014964 0.037960 0.122006 0.002223
# 6 0.000891 -0.002915 -0.000486 -0.006382 0.002223 0.021066
#
#
# Mechanical properties :
#
#
# Convention : Reuss Voigt Hill
#
# Bulk Modulus (GPa) = 12.73119 70.70734 41.71927
# Shear Modulus (GPa) = 13.17409 42.82740 28.00075
#
# Velocity S-wave (km/s) = 2.30274 4.15189 3.35714
# Velocity P-wave (km/s) = 3.49206 7.17246 5.64086
#
# Compressibility (1/GPa) = 0.07854727
#
# Stress axis : x y z
#
# Youngs Moduli (GPa) = 10.61796 89.75777 70.66229
#
# Poissons Ratio (x) = 1.94968 -0.25406
# Poissons Ratio (y) = 0.23064 0.16512
# Poissons Ratio (z) = -0.03818 0.20974
#
# Static dielectric constant tensor:
#      x y z
#    x 2.053350 -0.011500 -0.026190 
#    y -0.011500 2.055270 0.010480 
#    z -0.026190 0.010480 2.074840 
# 
# From -- ./inp_files/531351.got.cif
#   From: 2010.05.17/outbox.cif.g08.bks.cpg/sg2_266_cif.got.tgz:531351.got - 2010.06.03 11:33:40.
