data_PCOD9087961
_publ_section_title
;
Structure prediction by ZEFSAII (Michael W. Deem and Ramdas Pophale) SiO2 
 PCOD9087961
Probable space group: P -1
;
_chemical_formula_sum "Si O2"
_cell_formula_units_Z 14
_cell_length_a 7.602672
_cell_length_b 9.100567
_cell_length_c 10.696097
_cell_angle_alpha 106.672393
_cell_angle_beta 98.566119
_cell_angle_gamma 66.478520
_cell_volume 649.531834
_symmetry_space_group_name_H-M "P -1"
_symmetry_group_IT_number 2
_symmetry_cell_setting 'triclinic'
loop_
_space_group_symop_operation_xyz
x,y,z
-x,-y,-z
loop_
_atom_site_type_symbol
_atom_site_label
_atom_site_fract_x
_atom_site_fract_y
_atom_site_fract_z
Si Si1 0.246028 0.715583 0.959558
Si Si2 0.340815 0.828946 0.244348
Si Si3 0.250729 0.360122 0.880503
Si Si4 0.527852 0.611087 0.419303
Si Si5 0.585764 0.811786 0.918552
Si Si6 0.074598 0.583857 0.722583
Si Si7 0.298073 0.191220 0.357053
O O1 0.215572 0.816800 0.109168
O O2 0.296190 0.523907 0.952722
O O3 0.421718 0.740327 0.913630
O O4 0.078398 0.736761 0.846856
O O5 0.560730 0.770205 0.199086
O O6 0.359935 0.694372 0.321064
O O7 0.282913 0.014705 0.331753
O O8 0.076734 0.437608 0.782937
O O9 0.235655 0.282911 0.992833
O O10 0.500000 0.500000 0.500000
O O11 0.718319 0.495988 0.338631
O O12 0.567133 0.764829 0.521602
O O13 0.632876 0.802544 0.776307
O O14 0.500000 0.000000 0.000000
O O15 0.906273 0.656855 0.625421
#
# Coordination Sequence:
#
# PCOD9087961 Si02
#       7
#     2   2   2   2   2   2   2
#     4   9  18  37  63  77 121 148 189 229 279 342
#     4  10  19  37  57  89 108 151 188 236 283 325
#     4   8  18  35  59  79 117 151 183 227 275 342
#     4  11  24  40  64  79 106 159 204 226 269 350
#     4  11  18  32  57  92 111 144 196 231 270 334
#     4   9  22  39  58  83 118 152 183 230 298 328
#     4  12  23  35  60  87 121 144 186 241 288 331
#
# _framework density 21.553985999999998
#
# number of rings (size 3 to 8) (size 9 to 14) (size 15 to 20)
#    0.857    1.143    2.857    3.429    2.000    1.143 
#    0.000    0.714    0.000    0.000    0.000    0.000 
#    0.000    0.000    0.000    0.000    0.000    0.000 
#
# Total GULP energy -78021.443337 kJ/mol
# GULP energy per Si atom -5572.960238 kJ/mol
# Density = 2.150493 g / cm^3
# Si number density = 21.553986 Si / 1000 Ang^3
#
#
#
# Elastic Constant Matrix: (Units=GPa)
#
#
# Indices 1 2 3 4 5 6 
#
# 1 17.4776 9.8612 7.1416 -2.8244 -3.9660 4.1408
# 2 9.8612 88.5889 15.3910 -1.2164 -7.7544 9.7981
# 3 7.1416 15.3910 81.0728 2.2643 -3.9664 6.4775
# 4 -2.8244 -1.2164 2.2643 42.5256 2.0429 -3.1728
# 5 -3.9660 -7.7544 -3.9664 2.0429 20.9280 -5.4639
# 6 4.1408 9.7981 6.4775 -3.1728 -5.4639 20.2680
#
#
#
# Elastic Compliance Matrix: (Units=1/GPa)
#
#
# Indices 1 2 3 4 5 6 
#
# 1 0.065706 -0.005127 -0.003976 0.003536 0.007608 -0.007070
# 2 -0.005127 0.012780 -0.001524 -0.000312 0.002453 -0.004031
# 3 -0.003976 -0.001524 0.013256 -0.001245 0.000606 -0.002719
# 4 0.003536 -0.000312 -0.001245 0.024109 -0.001178 0.003283
# 5 0.007608 0.002453 0.000606 -0.001178 0.053301 0.011251
# 6 -0.007070 -0.004031 -0.002719 0.003283 0.011251 0.057148
#
#
# Mechanical properties :
#
#
# Convention : Reuss Voigt Hill
#
# Bulk Modulus (GPa) = 14.18676 27.99188 21.08932
# Shear Modulus (GPa) = 18.44680 27.06068 22.75374
#
# Velocity S-wave (km/s) = 2.92865 3.54712 3.25262
# Velocity P-wave (km/s) = 4.24644 5.45813 4.88996
#
# Compressibility (1/GPa) = 0.07048825
#
# Stress axis : x y z
#
# Youngs Moduli (GPa) = 15.21921 78.24847 75.43863
#
# Poissons Ratio (x) = 0.40116 0.29998
# Poissons Ratio (y) = 0.07803 0.11495
# Poissons Ratio (z) = 0.06052 0.11923
#
# Static dielectric constant tensor:
#      x y z
#    x 1.819390 -0.010740 0.012730 
#    y -0.010740 1.792530 -0.047200 
#    z 0.012730 -0.047200 1.839590 
# 
# From -- ./inp_files/377171.got.cif
#   From: 2010.05.17/outbox.cif.g08.bks.cpg/sg2_189_cif.got.tgz:377171.got - 2010.06.03 11:33:40.
