data_PCOD9087475
_publ_section_title
;
Structure prediction by ZEFSAII (Michael W. Deem and Ramdas Pophale) SiO2 
 PCOD9087475
Probable space group: P -1
;
_chemical_formula_sum "Si O2"
_cell_formula_units_Z 14
_cell_length_a 9.919579
_cell_length_b 8.954916
_cell_length_c 27.134889
_cell_angle_alpha 36.860330
_cell_angle_beta 34.644148
_cell_angle_gamma 61.700326
_cell_volume 691.796284
_symmetry_space_group_name_H-M "P -1"
_symmetry_group_IT_number 2
_symmetry_cell_setting 'triclinic'
loop_
_space_group_symop_operation_xyz
x,y,z
-x,-y,-z
loop_
_atom_site_type_symbol
_atom_site_label
_atom_site_fract_x
_atom_site_fract_y
_atom_site_fract_z
Si Si1 0.042113 0.806694 0.887636
Si Si2 0.764893 0.281804 0.236800
Si Si3 0.154285 0.949816 0.922268
Si Si4 0.808006 0.291893 0.656414
Si Si5 0.455513 0.680536 0.089728
Si Si6 0.197590 0.299892 0.173285
Si Si7 0.255540 0.331168 0.345699
O O1 0.272952 0.924846 0.743980
O O2 0.092527 0.991731 0.873473
O O3 0.000000 0.500000 0.000000
O O4 0.758101 0.746524 0.965440
O O5 0.495548 0.312056 0.308909
O O6 0.904233 0.227971 0.255770
O O7 0.030280 0.605674 0.057251
O O8 0.483103 0.143550 0.779306
O O9 0.000000 0.000000 0.000000
O O10 0.847337 0.487401 0.640775
O O11 0.000000 0.500000 0.500000
O O12 0.844612 0.018862 0.723826
O O13 0.244542 0.476372 0.163846
O O14 0.381356 0.502896 0.210732
O O15 0.500000 0.000000 0.000000
O O16 0.500000 0.500000 0.000000
O O17 0.000000 0.000000 0.500000
#
# Coordination Sequence:
#
# PCOD9087475 Si02
#       7
#     2   2   2   2   2   2   2
#     4  10  19  36  63  97 132 172 223 276 335 394
#     4  11  23  41  70  98 134 178 234 280 336 412
#     4  11  20  38  70 101 131 180 238 279 334 421
#     4  12  26  44  70 104 143 182 226 288 361 411
#     4  12  24  40  68 106 139 173 230 288 340 408
#     4  12  23  42  70 106 139 177 232 289 342 411
#     4  12  27  47  69  96 140 188 230 282 352 418
#
# _framework density 20.237171
#
# number of rings (size 3 to 8) (size 9 to 14) (size 15 to 20)
#    0.000    0.571    7.143    2.571    4.000    0.000 
#    0.000    5.000    0.000    0.000    0.000    0.000 
#    0.000    0.000    0.000    0.000    0.000    0.000 
#
# Total GULP energy -78041.107049 kJ/mol
# GULP energy per Si atom -5574.364789 kJ/mol
# Density = 2.019111 g / cm^3
# Si number density = 20.237171 Si / 1000 Ang^3
#
#
#
# Elastic Constant Matrix: (Units=GPa)
#
#
# Indices 1 2 3 4 5 6 
#
# 1 135.8282 67.3266 20.0162 -9.0733 -7.3663 -1.7470
# 2 67.3266 149.3448 35.2912 -6.6031 5.2020 6.8640
# 3 20.0162 35.2912 80.6290 -18.9867 -5.1823 -15.5287
# 4 -9.0733 -6.6031 -18.9867 29.1136 2.8777 -0.2867
# 5 -7.3663 5.2020 -5.1823 2.8777 26.2118 1.1335
# 6 -1.7470 6.8640 -15.5287 -0.2867 1.1335 39.5042
#
#
#
# Elastic Compliance Matrix: (Units=1/GPa)
#
#
# Indices 1 2 3 4 5 6 
#
# 1 0.009971 -0.004730 0.000584 0.002077 0.003568 0.001405
# 2 -0.004730 0.010158 -0.004679 -0.001873 -0.003904 -0.003715
# 3 0.000584 -0.004679 0.018695 0.011075 0.003220 0.008176
# 4 0.002077 -0.001873 0.011075 0.042011 -0.001689 0.005124
# 5 0.003568 -0.003904 0.003220 -0.001689 0.040710 0.000921
# 6 0.001405 -0.003715 0.008176 0.005124 0.000921 0.029246
#
#
# Mechanical properties :
#
#
# Convention : Reuss Voigt Hill
#
# Bulk Modulus (GPa) = 47.22904 67.89666 57.56285
# Shear Modulus (GPa) = 28.49002 35.17713 31.83357
#
# Velocity S-wave (km/s) = 3.75615 4.17375 3.97044
# Velocity P-wave (km/s) = 6.49615 7.53991 7.03740
#
# Compressibility (1/GPa) = 0.02117341
#
# Stress axis : x y z
#
# Youngs Moduli (GPa) = 100.29026 98.44452 53.48975
#
# Poissons Ratio (x) = 0.46565 -0.03124
# Poissons Ratio (y) = 0.47438 0.25029
# Poissons Ratio (z) = -0.05857 0.46065
#
# Static dielectric constant tensor:
#      x y z
#    x 1.796750 0.076270 0.053380 
#    y 0.076270 1.836910 0.035460 
#    z 0.053380 0.035460 1.686210 
# 
# From -- ./inp_files/244920.got.cif
#   From: 2010.05.17/outbox.cif.g08.bks.cpg/sg2_123_cif.got.tgz:244920.got - 2010.06.03 11:33:40.
