data_PCOD9087715
_publ_section_title
;
Structure prediction by ZEFSAII (Michael W. Deem and Ramdas Pophale) SiO2 
 PCOD9087715
Probable space group: P -1
;
_chemical_formula_sum "Si O2"
_cell_formula_units_Z 16
_cell_length_a 16.333461
_cell_length_b 8.244749
_cell_length_c 5.541422
_cell_angle_alpha 88.005944
_cell_angle_beta 117.205431
_cell_angle_gamma 95.069223
_cell_volume 661.074137
_symmetry_space_group_name_H-M "P -1"
_symmetry_group_IT_number 2
_symmetry_cell_setting 'triclinic'
loop_
_space_group_symop_operation_xyz
x,y,z
-x,-y,-z
loop_
_atom_site_type_symbol
_atom_site_label
_atom_site_fract_x
_atom_site_fract_y
_atom_site_fract_z
Si Si1 0.443016 0.383291 0.241973
Si Si2 0.085069 0.557636 0.367985
Si Si3 0.301133 0.964909 0.667603
Si Si4 0.888520 0.368830 0.101092
Si Si5 0.016794 0.103860 0.767676
Si Si6 0.608132 0.334152 0.105409
Si Si7 0.464792 0.130689 0.622073
Si Si8 0.800468 0.997307 0.974506
O O1 0.500000 0.500000 0.500000
O O2 0.525048 0.331513 0.185194
O O3 0.402987 0.240678 0.367181
O O4 0.376234 0.483311 0.983968
O O5 0.140090 0.553057 0.690914
O O6 0.000334 0.416761 0.253002
O O7 0.039916 0.735308 0.306666
O O8 0.140108 0.555153 0.193604
O O9 0.311940 0.771012 0.692968
O O10 0.260637 0.013484 0.865485
O O11 0.402551 0.054337 0.756504
O O12 0.244938 0.002812 0.350517
O O13 0.854927 0.178909 0.061563
O O14 0.126911 0.138976 0.912336
O O15 0.000000 0.000000 0.500000
O O16 0.000000 0.000000 0.000000
O O17 0.557832 0.230448 0.828036
O O18 0.500000 0.000000 0.500000
#
# Coordination Sequence:
#
# PCOD9087715 Si02
#       8
#     2   2   2   2   2   2   2   2
#     4   9  20  37  67  94 116 155 228 268 311 366
#     4  10  19  36  66  91 112 154 210 265 296 358
#     4  12  26  39  64  93 138 171 209 266 340 385
#     4  10  20  37  62  91 117 154 209 254 307 375
#     4  12  21  39  67  92 121 161 210 263 309 376
#     4  10  21  40  65  94 122 170 224 269 313 383
#     4  11  21  39  67  94 125 169 226 272 309 385
#     4  12  25  40  59  96 133 171 207 262 339 389
#
# _framework density 24.203033999999999
#
# number of rings (size 3 to 8) (size 9 to 14) (size 15 to 20)
#    0.000    1.250    3.750    2.625    3.500    0.000 
#    0.000    1.250    0.000    0.000    0.000    0.000 
#    0.000    0.000    0.000    0.000    0.000    0.000 
#
# Total GULP energy -89352.910561 kJ/mol
# GULP energy per Si atom -5584.556910 kJ/mol
# Density = 2.414795 g / cm^3
# Si number density = 24.203034 Si / 1000 Ang^3
#
#
#
# Elastic Constant Matrix: (Units=GPa)
#
#
# Indices 1 2 3 4 5 6 
#
# 1 87.9075 21.1672 30.5192 -17.4050 -29.3489 0.8004
# 2 21.1672 62.9888 20.1831 -10.0819 -11.2011 7.0353
# 3 30.5192 20.1831 145.4723 -4.3610 -29.3356 -10.2447
# 4 -17.4050 -10.0819 -4.3610 52.8664 1.9734 -2.3905
# 5 -29.3489 -11.2011 -29.3356 1.9734 46.7924 -5.2641
# 6 0.8004 7.0353 -10.2447 -2.3905 -5.2641 41.6438
#
#
#
# Elastic Compliance Matrix: (Units=1/GPa)
#
#
# Indices 1 2 3 4 5 6 
#
# 1 0.016252 -0.003017 -0.000988 0.004424 0.008814 0.001322
# 2 -0.003017 0.018367 -0.001911 0.002172 0.000845 -0.003283
# 3 -0.000988 -0.001911 0.008481 -0.000025 0.004579 0.003006
# 4 0.004424 0.002172 -0.000025 0.020738 0.002523 0.001051
# 5 0.008814 0.000845 0.004579 0.002523 0.030406 0.004803
# 6 0.001322 -0.003283 0.003006 0.001051 0.004803 0.025949
#
#
# Mechanical properties :
#
#
# Convention : Reuss Voigt Hill
#
# Bulk Modulus (GPa) = 31.98185 48.90085 40.44135
# Shear Modulus (GPa) = 35.10097 43.22713 39.16405
#
# Velocity S-wave (km/s) = 3.81237 4.23072 4.02698
# Velocity P-wave (km/s) = 5.71153 6.64181 6.19416
#
# Compressibility (1/GPa) = 0.03126773
#
# Stress axis : x y z
#
# Youngs Moduli (GPa) = 61.53248 54.44649 117.91298
#
# Poissons Ratio (x) = 0.16426 0.11647
# Poissons Ratio (y) = 0.18564 0.22533
# Poissons Ratio (z) = 0.06078 0.10405
#
# Static dielectric constant tensor:
#      x y z
#    x 1.917700 0.051950 0.019910 
#    y 0.051950 1.989210 -0.082650 
#    z 0.019910 -0.082650 1.957350 
# 
# From -- ./inp_files/46283.got.cif
#   From: 2010.05.17/outbox.cif.g08.bks.cpg/sg2_24_cif.got.tgz:46283.got - 2010.06.03 11:33:40.
