data_PCOD9087800
_publ_section_title
;
Structure prediction by ZEFSAII (Michael W. Deem and Ramdas Pophale) SiO2 
 PCOD9087800
Probable space group: P -1
;
_chemical_formula_sum "Si O2"
_cell_formula_units_Z 16
_cell_length_a 11.935741
_cell_length_b 8.050198
_cell_length_c 14.255743
_cell_angle_alpha 49.531630
_cell_angle_beta 64.299447
_cell_angle_gamma 97.771679
_cell_volume 745.593023
_symmetry_space_group_name_H-M "P -1"
_symmetry_group_IT_number 2
_symmetry_cell_setting 'triclinic'
loop_
_space_group_symop_operation_xyz
x,y,z
-x,-y,-z
loop_
_atom_site_type_symbol
_atom_site_label
_atom_site_fract_x
_atom_site_fract_y
_atom_site_fract_z
Si Si1 0.104935 0.650536 0.573353
Si Si2 0.246436 0.856588 0.138194
Si Si3 0.305072 0.621195 0.356943
Si Si4 0.187147 0.693791 0.841938
Si Si5 0.360181 0.109730 0.797409
Si Si6 0.137637 0.992586 0.595890
Si Si7 0.114494 0.170441 0.119449
Si Si8 0.129487 0.222320 0.799734
O O1 0.198180 0.666754 0.442805
O O2 0.779480 0.687788 0.534972
O O3 0.134854 0.486441 0.697231
O O4 0.921428 0.444282 0.693785
O O5 0.351929 0.816596 0.179016
O O6 0.212568 0.054137 0.126892
O O7 0.297803 0.961955 0.975226
O O8 0.147459 0.916796 0.513782
O O9 0.454212 0.709584 0.331284
O O10 0.283590 0.886331 0.824494
O O11 0.211851 0.883182 0.676617
O O12 0.208514 0.454711 0.922689
O O13 0.000000 0.500000 0.000000
O O14 0.290733 0.275937 0.742852
O O15 0.955443 0.822239 0.758871
O O16 0.951783 0.940253 0.208216
O O17 0.000000 0.000000 0.000000
#
# Coordination Sequence:
#
# PCOD9087800 Si02
#       8
#     2   2   2   2   2   2   2   2
#     4  11  23  42  71  96 127 174 223 269 323 382
#     4  11  23  44  69  91 129 183 226 264 306 394
#     4  12  27  46  58  97 143 176 216 260 330 391
#     4  10  19  37  65 102 123 152 223 271 322 386
#     4  12  23  41  69  94 134 176 207 278 336 381
#     4  11  22  40  67 100 131 165 210 278 330 383
#     4  10  19  36  68  99 123 157 220 282 303 372
#     4  11  18  36  66 100 121 158 217 268 328 376
#
# _framework density 21.459427999999999
#
# number of rings (size 3 to 8) (size 9 to 14) (size 15 to 20)
#    0.000    1.000    7.500    3.000    0.000    2.500 
#    4.500    1.875    0.000    0.000    0.000    0.000 
#    0.000    0.000    0.000    0.000    0.000    0.000 
#
# Total GULP energy -89334.267816 kJ/mol
# GULP energy per Si atom -5583.391739 kJ/mol
# Density = 2.141059 g / cm^3
# Si number density = 21.459428 Si / 1000 Ang^3
#
#
#
# Elastic Constant Matrix: (Units=GPa)
#
#
# Indices 1 2 3 4 5 6 
#
# 1 62.4121 18.3198 5.3899 -7.2760 19.9984 -7.9025
# 2 18.3198 133.4657 25.3900 7.5877 5.1404 -16.8994
# 3 5.3899 25.3900 63.5617 4.5225 10.9214 -9.5984
# 4 -7.2760 7.5877 4.5225 21.0830 -7.4493 5.3041
# 5 19.9984 5.1404 10.9214 -7.4493 31.7304 -7.0459
# 6 -7.9025 -16.8994 -9.5984 5.3041 -7.0459 14.0160
#
#
#
# Elastic Compliance Matrix: (Units=1/GPa)
#
#
# Indices 1 2 3 4 5 6 
#
# 1 0.021236 -0.002562 0.001514 0.002941 -0.012207 0.002673
# 2 -0.002562 0.010147 -0.001685 -0.006824 0.001870 0.013159
# 3 0.001514 -0.001685 0.019927 -0.008659 -0.006840 0.012307
# 4 0.002941 -0.006824 -0.008659 0.064372 0.010311 -0.031677
# 5 -0.012207 0.001870 -0.006840 0.010311 0.045867 0.009844
# 6 0.002673 0.013159 0.012307 -0.031677 0.009844 0.114084
#
#
# Mechanical properties :
#
#
# Convention : Reuss Voigt Hill
#
# Bulk Modulus (GPa) = 21.81214 39.73764 30.77489
# Shear Modulus (GPa) = 16.87027 27.38856 22.12941
#
# Velocity S-wave (km/s) = 2.80687 3.57640 3.21475
# Velocity P-wave (km/s) = 4.54875 5.96758 5.30580
#
# Compressibility (1/GPa) = 0.04584602
#
# Stress axis : x y z
#
# Youngs Moduli (GPa) = 47.08935 98.55376 50.18276
#
# Poissons Ratio (x) = 0.25246 -0.07599
# Poissons Ratio (y) = 0.12062 0.08454
# Poissons Ratio (z) = -0.07130 0.16603
#
# Static dielectric constant tensor:
#      x y z
#    x 1.783980 -0.027150 0.030640 
#    y -0.027150 1.825230 0.041610 
#    z 0.030640 0.041610 1.839280 
# 
# From -- ./inp_files/414247.got.cif
#   From: 2010.05.17/outbox.cif.g08.bks.cpg/sg2_208_cif.got.tgz:414247.got - 2010.06.03 11:33:40.
