data_PCOD9087789
_publ_section_title
;
Structure prediction by ZEFSAII (Michael W. Deem and Ramdas Pophale) SiO2 
 PCOD9087789
Probable space group: P -1
;
_chemical_formula_sum "Si O2"
_cell_formula_units_Z 16
_cell_length_a 15.226907
_cell_length_b 5.754519
_cell_length_c 8.315199
_cell_angle_alpha 66.523531
_cell_angle_beta 71.133713
_cell_angle_gamma 70.984394
_cell_volume 615.886042
_symmetry_space_group_name_H-M "P -1"
_symmetry_group_IT_number 2
_symmetry_cell_setting 'triclinic'
loop_
_space_group_symop_operation_xyz
x,y,z
-x,-y,-z
loop_
_atom_site_type_symbol
_atom_site_label
_atom_site_fract_x
_atom_site_fract_y
_atom_site_fract_z
Si Si1 0.076393 0.428373 0.274239
Si Si2 0.808619 0.754305 0.025430
Si Si3 0.075210 0.091395 0.814469
Si Si4 0.820774 0.082872 0.482945
Si Si5 0.642283 0.501232 0.084924
Si Si6 0.471947 0.247553 0.657200
Si Si7 0.752026 0.328691 0.766441
Si Si8 0.355755 0.014698 0.565206
O O1 0.102821 0.136812 0.406846
O O2 0.158143 0.569158 0.249779
O O3 0.978301 0.632456 0.306976
O O4 0.095359 0.381026 0.087203
O O5 0.838321 0.842636 0.154691
O O6 0.734602 0.578573 0.085892
O O7 0.763139 0.027035 0.889206
O O8 0.117256 0.871413 0.719091
O O9 0.000000 0.000000 0.000000
O O10 0.766724 0.309087 0.570525
O O11 0.739527 0.952260 0.490978
O O12 0.553019 0.712096 0.151711
O O13 0.636432 0.235134 0.252580
O O14 0.662351 0.471841 0.890031
O O15 0.500000 0.500000 0.500000
O O16 0.559666 0.023975 0.607445
O O17 0.379143 0.220352 0.619609
#
# Coordination Sequence:
#
# PCOD9087789 Si02
#       8
#     2   2   2   2   2   2   2   2
#     4  10  23  42  59  87 126 170 206 265 319 375
#     4  10  21  39  64  89 121 163 218 261 311 370
#     4  12  23  41  65  90 122 165 224 270 311 363
#     4  11  25  40  60  90 131 168 201 260 324 377
#     4  10  19  36  68  92 123 166 210 257 312 372
#     4   9  19  36  64 100 127 158 209 262 305 365
#     4  10  21  40  59  86 126 168 207 253 317 377
#     4  10  21  39  64  97 129 161 211 257 312 376
#
# _framework density 25.978833000000002
#
# number of rings (size 3 to 8) (size 9 to 14) (size 15 to 20)
#    0.000    1.750    1.250    3.000    1.750    3.500 
#    2.250    0.625    0.000   19.500    0.000    0.000 
#    0.000    0.000    0.000    0.000    0.000    0.000 
#
# Total GULP energy -89435.105071 kJ/mol
# GULP energy per Si atom -5589.694067 kJ/mol
# Density = 2.591970 g / cm^3
# Si number density = 25.978833 Si / 1000 Ang^3
#
#
#
# Elastic Constant Matrix: (Units=GPa)
#
#
# Indices 1 2 3 4 5 6 
#
# 1 51.7848 14.1394 35.1236 -0.4970 -7.9658 10.4071
# 2 14.1394 87.1551 62.6196 25.5894 1.2756 9.9766
# 3 35.1236 62.6196 156.9621 64.6657 -17.9110 -5.8941
# 4 -0.4970 25.5894 64.6657 74.3094 -8.8849 -5.2544
# 5 -7.9658 1.2756 -17.9110 -8.8849 26.0323 -1.0028
# 6 10.4071 9.9766 -5.8941 -5.2544 -1.0028 48.1939
#
#
#
# Elastic Compliance Matrix: (Units=1/GPa)
#
#
# Indices 1 2 3 4 5 6 
#
# 1 0.027731 0.000614 -0.009671 0.008478 0.004453 -0.006281
# 2 0.000614 0.017965 -0.008146 -0.000233 -0.006570 -0.005010
# 3 -0.009671 -0.008146 0.017245 -0.011254 0.005648 0.004774
# 4 0.008478 -0.000233 -0.011254 0.023702 0.002933 -0.000514
# 5 0.004453 -0.006570 0.005648 0.002933 0.045076 0.002347
# 6 -0.006281 -0.005010 0.004774 -0.000514 0.002347 0.023720
#
#
# Mechanical properties :
#
#
# Convention : Reuss Voigt Hill
#
# Bulk Modulus (GPa) = 35.04477 57.74080 46.39278
# Shear Modulus (GPa) = 25.08060 41.97508 33.52784
#
# Velocity S-wave (km/s) = 3.11050 4.02399 3.59637
# Velocity P-wave (km/s) = 5.13997 6.62302 5.92805
#
# Compressibility (1/GPa) = 0.02853493
#
# Stress axis : x y z
#
# Youngs Moduli (GPa) = 36.06046 55.66272 57.98742
#
# Poissons Ratio (x) = -0.03419 0.56080
# Poissons Ratio (y) = -0.02215 0.47239
# Poissons Ratio (z) = 0.34874 0.45345
#
# Static dielectric constant tensor:
#      x y z
#    x 1.994130 -0.061330 0.000350 
#    y -0.061330 2.063410 0.025710 
#    z 0.000350 0.025710 2.165150 
# 
# From -- ./inp_files/124599.got.cif
#   From: 2010.05.17/outbox.cif.g08.bks.cpg/sg2_63_cif.got.tgz:124599.got - 2010.06.03 11:33:40.
