data_PCOD9087938
_publ_section_title
;
Structure prediction by ZEFSAII (Michael W. Deem and Ramdas Pophale) SiO2 
 PCOD9087938
Probable space group: P -1
;
_chemical_formula_sum "Si O2"
_cell_formula_units_Z 16
_cell_length_a 5.418861
_cell_length_b 10.721197
_cell_length_c 18.842002
_cell_angle_alpha 64.090507
_cell_angle_beta 63.556728
_cell_angle_gamma 81.904099
_cell_volume 879.647034
_symmetry_space_group_name_H-M "P -1"
_symmetry_group_IT_number 2
_symmetry_cell_setting 'triclinic'
loop_
_space_group_symop_operation_xyz
x,y,z
-x,-y,-z
loop_
_atom_site_type_symbol
_atom_site_label
_atom_site_fract_x
_atom_site_fract_y
_atom_site_fract_z
Si Si1 0.371868 0.043400 0.266855
Si Si2 0.457437 0.660396 0.983459
Si Si3 0.052741 0.651779 0.921718
Si Si4 0.474412 0.829665 0.544831
Si Si5 0.923009 0.129668 0.528698
Si Si6 0.172532 0.825722 0.079192
Si Si7 0.163431 0.791761 0.738995
Si Si8 0.581567 0.931290 0.119251
O O1 0.633943 0.106617 0.263467
O O2 0.133589 0.149438 0.253939
O O3 0.215392 0.931929 0.367253
O O4 0.470980 0.979434 0.196859
O O5 0.259322 0.682442 0.069314
O O6 0.500000 0.500000 0.000000
O O7 0.764170 0.725152 0.946650
O O8 0.303907 0.717505 0.920215
O O9 0.120902 0.657753 0.828593
O O10 0.000000 0.500000 0.000000
O O11 0.292090 0.790227 0.509681
O O12 0.319222 0.778241 0.648525
O O13 0.786748 0.788255 0.513613
O O14 0.500000 0.000000 0.500000
O O15 0.000000 0.000000 0.500000
O O16 0.333966 0.856149 0.123995
O O17 0.847049 0.841550 0.119374
O O18 0.301185 0.939595 0.977214
#
# Coordination Sequence:
#
# PCOD9087938 Si02
#       8
#     2   2   2   2   2   2   2   2
#     4  12  20  29  46  70  92 131 181 190 231 296
#     4  10  20  36  55  69  90 127 166 213 261 281
#     4  10  21  33  46  71  95 120 161 207 248 288
#     4  10  16  28  40  63  89 126 163 188 245 275
#     4  10  16  29  41  61  96 122 160 202 233 274
#     4  10  19  35  46  65  97 124 168 203 241 284
#     4  12  19  28  48  64  94 134 170 195 233 306
#     4  10  21  30  46  67  96 134 160 200 231 292
#
# _framework density 18.189114
#
# number of rings (size 3 to 8) (size 9 to 14) (size 15 to 20)
#    0.000    1.500    5.000    3.750    0.000    2.000 
#    0.000    0.000    0.000    0.000    0.000    0.000 
#    0.000    0.000    0.000   90.000    3.000    0.000 
#
# Total GULP energy -89168.920072 kJ/mol
# GULP energy per Si atom -5573.057504 kJ/mol
# Density = 1.814772 g / cm^3
# Si number density = 18.189114 Si / 1000 Ang^3
#
#
#
# Elastic Constant Matrix: (Units=GPa)
#
#
# Indices 1 2 3 4 5 6 
#
# 1 174.9200 19.7146 32.8785 7.0613 7.2166 -19.8486
# 2 19.7146 41.5763 19.8634 10.3688 0.8758 -0.8482
# 3 32.8785 19.8634 129.2413 5.2076 14.6030 -5.9104
# 4 7.0613 10.3688 5.2076 17.7553 -2.2184 0.8475
# 5 7.2166 0.8758 14.6030 -2.2184 31.0176 6.2052
# 6 -19.8486 -0.8482 -5.9104 0.8475 6.2052 12.9485
#
#
#
# Elastic Compliance Matrix: (Units=1/GPa)
#
#
# Indices 1 2 3 4 5 6 
#
# 1 0.008012 -0.002521 -0.000342 -0.002892 -0.004722 0.014413
# 2 -0.002521 0.030846 -0.003709 -0.015665 0.000934 -0.002960
# 3 -0.000342 -0.003709 0.009371 -0.001445 -0.005588 0.006284
# 4 -0.002892 -0.015665 -0.001445 0.068999 0.009797 -0.015330
# 5 -0.004722 0.000934 -0.005588 0.009797 0.042824 -0.030892
# 6 0.014413 -0.002960 0.006284 -0.015330 -0.030892 0.117804
#
#
# Mechanical properties :
#
#
# Convention : Reuss Voigt Hill
#
# Bulk Modulus (GPa) = 28.50117 54.51672 41.50894
# Shear Modulus (GPa) = 16.51820 30.56305 23.54062
#
# Velocity S-wave (km/s) = 3.01680 4.10359 3.60142
# Velocity P-wave (km/s) = 5.27619 7.24498 6.33750
#
# Compressibility (1/GPa) = 0.03508628
#
# Stress axis : x y z
#
# Youngs Moduli (GPa) = 124.80715 32.41859 106.70760
#
# Poissons Ratio (x) = 0.08174 0.03644
# Poissons Ratio (y) = 0.31469 0.39579
# Poissons Ratio (z) = 0.04263 0.12024
#
# Static dielectric constant tensor:
#      x y z
#    x 1.858790 0.011500 -0.046010 
#    y 0.011500 1.634570 -0.031980 
#    z -0.046010 -0.031980 1.660930 
# 
# From -- ./inp_files/77139.got.cif
#   From: 2010.05.17/outbox.cif.g08.bks.cpg/sg2_39_cif.got.tgz:77139.got - 2010.06.03 11:33:40.
