data_PCOD9087050
_publ_section_title
;
Structure prediction by ZEFSAII (Michael W. Deem and Ramdas Pophale) SiO2 
 PCOD9087050
Probable space group: P -1
;
_chemical_formula_sum "Si O2"
_cell_formula_units_Z 13
_cell_length_a 25.957377
_cell_length_b 16.852496
_cell_length_c 16.212409
_cell_angle_alpha 153.385934
_cell_angle_beta 17.225044
_cell_angle_gamma 162.861155
_cell_volume 604.525997
_symmetry_space_group_name_H-M "P -1"
_symmetry_group_IT_number 2
_symmetry_cell_setting 'triclinic'
loop_
_space_group_symop_operation_xyz
x,y,z
-x,-y,-z
loop_
_atom_site_type_symbol
_atom_site_label
_atom_site_fract_x
_atom_site_fract_y
_atom_site_fract_z
Si Si1 0.972588 0.723233 0.600859
Si Si2 0.668331 0.765350 0.874893
Si Si3 0.112742 0.585482 0.115212
Si Si4 0.625925 0.323895 0.508223
Si Si5 0.955408 0.084303 0.902996
Si Si6 0.000000 0.500000 0.500000
Si Si7 0.595125 0.045344 0.146295
O O1 0.006543 0.690560 0.612008
O O2 0.119831 0.694753 0.291615
O O3 0.652582 0.475422 0.835523
O O4 0.074467 0.999370 0.681531
O O5 0.706677 0.592860 0.629101
O O6 0.847865 0.951265 0.852492
O O7 0.711260 0.947888 0.909702
O O8 0.813850 0.379482 0.341136
O O9 0.148448 0.404260 0.902762
O O10 0.305775 0.824387 0.974510
O O11 0.670969 0.254390 0.290353
O O12 0.312867 0.073070 0.780741
O O13 0.725817 0.228737 0.618434
#
# Coordination Sequence:
#
# PCOD9087050 Si02
#       7
#     2   2   2   2   2   1   2
#     4  10  21  40  61  87 116 158 203 240 287 352
#     4  10  19  36  61  90 122 158 192 235 297 357
#     4  12  22  35  61  96 124 149 189 252 305 345
#     4  11  20  36  60  94 124 152 191 240 301 354
#     4  11  19  35  62  93 122 152 192 238 304 356
#     4  10  24  48  62  74 118 168 208 240 284 352
#     4  11  25  39  58  89 123 160 198 240 292 353
#
# _framework density 21.504453000000002
#
# number of rings (size 3 to 8) (size 9 to 14) (size 15 to 20)
#    0.000    1.231    4.615    3.692    0.000    2.462 
#    0.000   13.077    0.000    0.000    0.000    0.000 
#    0.000    0.000    0.000    0.000    0.000    0.000 
#
# Total GULP energy -72445.105732 kJ/mol
# GULP energy per Si atom -5572.700441 kJ/mol
# Density = 2.145551 g / cm^3
# Si number density = 21.504453 Si / 1000 Ang^3
#
#
#
# Elastic Constant Matrix: (Units=GPa)
#
#
# Indices 1 2 3 4 5 6 
#
# 1 29.7537 12.0473 34.2800 25.5707 -18.8898 -2.1108
# 2 12.0473 100.5346 60.2548 46.6853 6.0830 -28.9931
# 3 34.2800 60.2548 -3.8154 9.6966 -14.6158 -21.9658
# 4 25.5707 46.6853 9.6966 32.9976 -19.3700 -19.7159
# 5 -18.8898 6.0830 -14.6158 -19.3700 14.2950 -5.2003
# 6 -2.1108 -28.9931 -21.9658 -19.7159 -5.2003 13.8275
#
#
#
# Elastic Compliance Matrix: (Units=1/GPa)
#
#
# Indices 1 2 3 4 5 6 
#
# 1 -0.027841 -0.016153 0.055448 -0.062121 -0.082768 -0.069740
# 2 -0.016153 0.026236 0.001984 0.000939 -0.009801 0.053350
# 3 0.055448 0.001984 -0.014842 -0.001321 0.058841 0.009292
# 4 -0.062121 0.000939 -0.001321 0.006424 -0.087234 -0.033260
# 5 -0.082768 -0.009801 0.058841 -0.087234 -0.135087 -0.114898
# 6 -0.069740 0.053350 0.009292 -0.033260 -0.114898 0.097664
#
#
# Mechanical properties :
#
#
# Convention : Reuss Voigt Hill
#
# Bulk Modulus (GPa) = 15.12625 37.73743 26.43184
# Shear Modulus (GPa) = -46.31040 13.55006 -16.38017
#
# Velocity S-wave (km/s) = -4.64564 2.51291 -2.76290
# Velocity P-wave (km/s) = 4.66120 5.09965 1.46281
#
# Compressibility (1/GPa) = 0.06611023
#
# Stress axis : x y z
#
# Youngs Moduli (GPa) = -35.91857 38.11583 -67.37549
#
# Poissons Ratio (x) = 0.61570 3.73584
# Poissons Ratio (y) = -0.58021 0.13368
# Poissons Ratio (z) = 1.99161 -0.07563
#
# Static dielectric constant tensor:
#      x y z
#    x 1.692410 -0.069900 0.026460 
#    y -0.069900 1.783560 -0.014540 
#    z 0.026460 -0.014540 1.781860 
# 
# From -- ./inp_files/173710.got.cif
#   From: 2010.05.17/outbox.cif.g08.bks.cpg/sg2_87_cif.got.tgz:173710.got - 2010.06.03 11:33:40.
