data_PCOD9087483
_publ_section_title
;
Structure prediction by ZEFSAII (Michael W. Deem and Ramdas Pophale) SiO2 
 PCOD9087483
Probable space group: P -1
;
_chemical_formula_sum "Si O2"
_cell_formula_units_Z 16
_cell_length_a 5.515809
_cell_length_b 9.085971
_cell_length_c 15.600469
_cell_angle_alpha 84.883007
_cell_angle_beta 95.907470
_cell_angle_gamma 65.315114
_cell_volume 699.025077
_symmetry_space_group_name_H-M "P -1"
_symmetry_group_IT_number 2
_symmetry_cell_setting 'triclinic'
loop_
_space_group_symop_operation_xyz
x,y,z
-x,-y,-z
loop_
_atom_site_type_symbol
_atom_site_label
_atom_site_fract_x
_atom_site_fract_y
_atom_site_fract_z
Si Si1 0.651359 0.695202 0.799015
Si Si2 0.104812 0.952843 0.198853
Si Si3 0.857781 0.316647 0.257386
Si Si4 0.592921 0.008079 0.362270
Si Si5 0.469972 0.976350 0.900498
Si Si6 0.327965 0.857691 0.486583
Si Si7 0.096092 0.406596 0.418209
Si Si8 0.893160 0.281999 0.653579
O O1 0.456191 0.608392 0.781857
O O2 0.967868 0.613401 0.795965
O O3 0.539077 0.842524 0.715206
O O4 0.589816 0.787391 0.882765
O O5 0.341493 0.957032 0.148334
O O6 0.217246 0.795712 0.272986
O O7 0.846693 0.951903 0.139904
O O8 0.977799 0.123943 0.241228
O O9 0.908310 0.347878 0.357096
O O10 0.382159 0.968545 0.411635
O O11 0.789226 0.841864 0.331330
O O12 0.788743 0.042521 0.435329
O O13 0.500000 0.000000 0.000000
O O14 0.625982 0.742471 0.539945
O O15 0.225374 0.741019 0.440672
O O16 0.149635 0.534205 0.353452
O O17 0.000000 0.500000 0.500000
#
# Coordination Sequence:
#
# PCOD9087483 Si02
#       8
#     2   2   2   2   2   2   2   2
#     4  10  20  36  63  83 116 153 199 239 301 373
#     4  10  22  38  64  88 124 159 202 235 312 383
#     4  10  21  39  57  80 115 162 200 245 291 362
#     4  11  21  36  58  82 112 158 213 250 307 347
#     4  10  19  36  64 101 122 140 186 263 313 364
#     4  11  24  37  56  79 115 167 216 260 302 348
#     4  12  26  38  52  85 123 163 220 267 301 331
#     4  12  24  37  57  84 119 163 206 265 304 353
#
# _framework density 22.889023000000002
#
# number of rings (size 3 to 8) (size 9 to 14) (size 15 to 20)
#    0.000    1.250    5.000    2.625    3.500    1.000 
#    0.000    0.000    0.000    0.000    0.000   21.000 
#    0.000    0.000    0.000    0.000    0.000    0.000 
#
# Total GULP energy -89386.694002 kJ/mol
# GULP energy per Si atom -5586.668375 kJ/mol
# Density = 2.283693 g / cm^3
# Si number density = 22.889023 Si / 1000 Ang^3
#
#
#
# Elastic Constant Matrix: (Units=GPa)
#
#
# Indices 1 2 3 4 5 6 
#
# 1 157.8232 18.2497 48.8773 10.1823 2.6497 27.1731
# 2 18.2497 58.6894 24.4446 7.7512 -1.5135 23.6303
# 3 48.8773 24.4446 136.7741 37.6910 8.8517 18.0448
# 4 10.1823 7.7512 37.6910 27.3146 6.1706 1.7575
# 5 2.6497 -1.5135 8.8517 6.1706 39.9827 7.4247
# 6 27.1731 23.6303 18.0448 1.7575 7.4247 25.0220
#
#
#
# Elastic Compliance Matrix: (Units=1/GPa)
#
#
# Indices 1 2 3 4 5 6 
#
# 1 0.008564 0.002844 -0.001930 -0.001118 0.002215 -0.011173
# 2 0.002844 0.031862 0.000124 -0.010058 0.009090 -0.035259
# 3 -0.001930 0.000124 0.013873 -0.018274 0.001200 -0.007099
# 4 -0.001118 -0.010058 -0.018274 0.066054 -0.010615 0.022402
# 5 0.002215 0.009090 0.001200 -0.010615 0.030314 -0.020104
# 6 -0.011173 -0.035259 -0.007099 0.022402 -0.020104 0.094907
#
#
# Mechanical properties :
#
#
# Convention : Reuss Voigt Hill
#
# Bulk Modulus (GPa) = 17.73787 59.60331 38.67059
# Shear Modulus (GPa) = 19.06294 35.91152 27.48723
#
# Velocity S-wave (km/s) = 2.88903 3.96528 3.46915
# Velocity P-wave (km/s) = 4.34684 6.86012 5.74266
#
# Compressibility (1/GPa) = 0.05637655
#
# Stress axis : x y z
#
# Youngs Moduli (GPa) = 116.77394 31.38545 72.08006
#
# Poissons Ratio (x) = -0.08926 0.13910
# Poissons Ratio (y) = -0.33212 -0.00897
# Poissons Ratio (z) = 0.22535 -0.00391
#
# Static dielectric constant tensor:
#      x y z
#    x 2.013020 -0.026760 -0.010970 
#    y -0.026760 1.923740 0.089070 
#    z -0.010970 0.089070 1.882130 
# 
# From -- ./inp_files/80414.got.cif
#   From: 2010.05.17/outbox.cif.g08.bks.cpg/sg2_41_cif.got.tgz:80414.got - 2010.06.03 11:33:40.
