data_PCOD9087435
_publ_section_title
;
Structure prediction by ZEFSAII (Michael W. Deem and Ramdas Pophale) SiO2 
 PCOD9087435
Probable space group: P -1
;
_chemical_formula_sum "Si O2"
_cell_formula_units_Z 16
_cell_length_a 9.553408
_cell_length_b 8.610154
_cell_length_c 15.935916
_cell_angle_alpha 63.685638
_cell_angle_beta 59.932794
_cell_angle_gamma 110.944019
_cell_volume 675.957775
_symmetry_space_group_name_H-M "P -1"
_symmetry_group_IT_number 2
_symmetry_cell_setting 'triclinic'
loop_
_space_group_symop_operation_xyz
x,y,z
-x,-y,-z
loop_
_atom_site_type_symbol
_atom_site_label
_atom_site_fract_x
_atom_site_fract_y
_atom_site_fract_z
Si Si1 0.465984 0.535908 0.709892
Si Si2 0.386155 0.878401 0.862058
Si Si3 0.036971 0.057564 0.616657
Si Si4 0.139821 0.749499 0.459565
Si Si5 0.662615 0.346089 0.781070
Si Si6 0.974861 0.830070 0.975533
Si Si7 0.324530 0.510624 0.078997
Si Si8 0.770593 0.707751 0.329759
O O1 0.723575 0.812000 0.536161
O O2 0.553618 0.407378 0.735921
O O3 0.291682 0.434675 0.705672
O O4 0.303498 0.451685 0.859125
O O5 0.570857 0.047622 0.686563
O O6 0.552850 0.085067 0.838619
O O7 0.153696 0.814125 0.939341
O O8 0.299145 0.624813 0.983839
O O9 0.087392 0.219348 0.644987
O O10 0.887043 0.070419 0.601991
O O11 0.907904 0.782072 0.750928
O O12 0.000000 0.500000 0.500000
O O13 0.957253 0.582834 0.632840
O O14 0.578615 0.320927 0.905652
O O15 0.076868 0.006130 0.820185
O O16 0.000000 0.000000 0.000000
O O17 0.500000 0.500000 0.000000
O O18 0.500000 0.500000 0.500000
#
# Coordination Sequence:
#
# PCOD9087435 Si02
#       8
#     2   2   2   2   2   2   2   2
#     4   9  19  37  65  91 117 164 215 258 311 368
#     4  11  21  42  64  95 129 163 222 262 314 384
#     4  10  21  40  58  91 132 165 206 259 324 380
#     4   9  20  37  62  95 126 161 212 267 315 378
#     4  10  21  41  67  92 126 164 217 264 315 381
#     4  10  19  36  63  93 119 160 215 263 307 363
#     4  12  26  40  60  99 134 171 202 266 335 380
#     4   9  18  34  61  89 118 158 203 259 303 364
#
# _framework density 23.670120000000001
#
# number of rings (size 3 to 8) (size 9 to 14) (size 15 to 20)
#    0.000    2.000    3.750    0.375    3.500    2.000 
#    9.000    1.250    0.000    0.000    0.000    0.000 
#    0.000    0.000    0.000    0.000    0.000    0.000 
#
# Total GULP energy -89069.057763 kJ/mol
# GULP energy per Si atom -5566.816110 kJ/mol
# Density = 2.361625 g / cm^3
# Si number density = 23.670120 Si / 1000 Ang^3
#
#
#
# Elastic Constant Matrix: (Units=GPa)
#
#
# Indices 1 2 3 4 5 6 
#
# 1 56.5795 18.3832 43.8176 5.9171 -8.2970 -20.0682
# 2 18.3832 54.7200 31.9792 13.9147 3.7298 4.2139
# 3 43.8176 31.9792 213.2975 -2.0929 -20.3986 -28.4787
# 4 5.9171 13.9147 -2.0929 41.2717 0.6310 4.9907
# 5 -8.2970 3.7298 -20.3986 0.6310 37.4529 12.8178
# 6 -20.0682 4.2139 -28.4787 4.9907 12.8178 30.9347
#
#
#
# Elastic Compliance Matrix: (Units=1/GPa)
#
#
# Indices 1 2 3 4 5 6 
#
# 1 0.029408 -0.009147 -0.002192 -0.003533 -0.000197 0.018957
# 2 -0.009147 0.026247 -0.003841 -0.006381 -0.002928 -0.010802
# 3 -0.002192 -0.003841 0.006453 0.001425 0.002028 0.003971
# 4 -0.003533 -0.006381 0.001425 0.027581 0.002010 -0.005393
# 5 -0.000197 -0.002928 0.002028 0.002010 0.031925 -0.011414
# 6 0.018957 -0.010802 0.003971 -0.005393 -0.011414 0.055351
#
#
# Mechanical properties :
#
#
# Convention : Reuss Voigt Hill
#
# Bulk Modulus (GPa) = 31.49824 56.99521 44.24672
# Shear Modulus (GPa) = 22.94550 37.29302 30.11926
#
# Velocity S-wave (km/s) = 3.11688 3.97360 3.57102
# Velocity P-wave (km/s) = 5.12731 6.72190 5.97801
#
# Compressibility (1/GPa) = 0.03174780
#
# Stress axis : x y z
#
# Youngs Moduli (GPa) = 34.00378 38.10028 154.97402
#
# Poissons Ratio (x) = 0.34848 0.33977
# Poissons Ratio (y) = 0.31102 0.59526
# Poissons Ratio (z) = 0.07455 0.14634
#
# Static dielectric constant tensor:
#      x y z
#    x 1.888430 0.014670 -0.105360 
#    y 0.014670 1.900500 -0.260560 
#    z -0.105360 -0.260560 1.509350 
# 
# From -- ./inp_files/565810.got.cif
#   From: 2010.05.17/outbox.cif.g08.bks.cpg/sg2_283_cif.got.tgz:565810.got - 2010.06.03 11:33:40.
