data_PCOD9087919
_publ_section_title
;
Structure prediction by ZEFSAII (Michael W. Deem and Ramdas Pophale) SiO2 
 PCOD9087919
Probable space group: P -1
;
_chemical_formula_sum "Si O2"
_cell_formula_units_Z 16
_cell_length_a 11.932875
_cell_length_b 9.464527
_cell_length_c 7.706447
_cell_angle_alpha 113.186698
_cell_angle_beta 108.935620
_cell_angle_gamma 65.356508
_cell_volume 713.672587
_symmetry_space_group_name_H-M "P -1"
_symmetry_group_IT_number 2
_symmetry_cell_setting 'triclinic'
loop_
_space_group_symop_operation_xyz
x,y,z
-x,-y,-z
loop_
_atom_site_type_symbol
_atom_site_label
_atom_site_fract_x
_atom_site_fract_y
_atom_site_fract_z
Si Si1 0.491060 0.611171 0.770329
Si Si2 0.246666 0.681887 0.461568
Si Si3 0.669974 0.416151 0.028732
Si Si4 0.844200 0.900233 0.892766
Si Si5 0.719308 0.658698 0.757713
Si Si6 0.336244 0.930938 0.418815
Si Si7 0.904262 0.196264 0.206754
Si Si8 0.375230 0.249663 0.627129
O O1 0.388996 0.599967 0.573512
O O2 0.401110 0.671574 0.920207
O O3 0.579098 0.708593 0.792513
O O4 0.593578 0.450856 0.828348
O O5 0.217098 0.535062 0.278642
O O6 0.258937 0.834141 0.435221
O O7 0.152373 0.736655 0.602892
O O8 0.813637 0.309933 0.069213
O O9 0.650541 0.596820 0.183975
O O10 0.797324 0.771559 0.909863
O O11 0.955731 0.813222 0.772007
O O12 0.730312 0.010628 0.770539
O O13 0.893705 0.017146 0.092312
O O14 0.703464 0.683562 0.554707
O O15 0.480654 0.825948 0.400906
O O16 0.338864 0.094697 0.597557
#
# Coordination Sequence:
#
# PCOD9087919 Si02
#       8
#     2   2   2   2   2   2   2   2
#     4  10  20  33  58  92 120 146 187 239 301 344
#     4  11  21  36  63  90 118 150 193 246 287 351
#     4  10  21  36  61  88 118 159 192 241 290 348
#     4  10  25  42  61  81 118 164 195 239 291 347
#     4  11  20  38  60  91 116 150 197 240 292 349
#     4  10  22  35  61  89 124 153 185 242 302 346
#     4  10  23  44  60  80 119 159 204 236 289 342
#     4  10  19  37  56  94 123 147 191 242 297 350
#
# _framework density 22.419246999999999
#
# number of rings (size 3 to 8) (size 9 to 14) (size 15 to 20)
#    0.000    1.750    3.750    1.125    7.000    2.000 
#    0.000    3.750    0.000    0.000    0.000    0.000 
#    0.000    0.000    0.000    0.000    0.000    0.000 
#
# Total GULP energy -89285.912730 kJ/mol
# GULP energy per Si atom -5580.369546 kJ/mol
# Density = 2.236822 g / cm^3
# Si number density = 22.419247 Si / 1000 Ang^3
#
#
#
# Elastic Constant Matrix: (Units=GPa)
#
#
# Indices 1 2 3 4 5 6 
#
# 1 82.5245 35.5896 4.6107 24.8291 0.4632 12.4695
# 2 35.5896 94.9018 21.2843 21.1916 -0.9914 28.9360
# 3 4.6107 21.2843 43.4880 12.6739 -0.8263 10.4123
# 4 24.8291 21.1916 12.6739 32.0467 2.4370 -2.1357
# 5 0.4632 -0.9914 -0.8263 2.4370 22.2939 9.5879
# 6 12.4695 28.9360 10.4123 -2.1357 9.5879 32.0020
#
#
#
# Elastic Compliance Matrix: (Units=1/GPa)
#
#
# Indices 1 2 3 4 5 6 
#
# 1 0.019593 -0.000774 0.006951 -0.018816 0.007310 -0.012642
# 2 -0.000774 0.022476 0.000455 -0.017195 0.013866 -0.025471
# 3 0.006951 0.000455 0.032733 -0.020729 0.011332 -0.018548
# 4 -0.018816 -0.017195 -0.020729 0.070236 -0.027063 0.042419
# 5 0.007310 0.013866 0.011332 -0.027063 0.066209 -0.040715
# 6 -0.012642 -0.025471 -0.018548 0.042419 -0.040715 0.080269
#
#
# Mechanical properties :
#
#
# Convention : Reuss Voigt Hill
#
# Bulk Modulus (GPa) = 11.35523 38.20929 24.78226
# Shear Modulus (GPa) = 16.25443 27.89719 22.07581
#
# Velocity S-wave (km/s) = 2.69554 3.53135 3.14137
# Velocity P-wave (km/s) = 3.84238 5.80580 4.92297
#
# Compressibility (1/GPa) = 0.08806512
#
# Stress axis : x y z
#
# Youngs Moduli (GPa) = 51.03750 44.49134 30.55041
#
# Poissons Ratio (x) = 0.03445 -0.21235
# Poissons Ratio (y) = 0.03952 -0.01389
# Poissons Ratio (z) = -0.35475 -0.02023
#
# Static dielectric constant tensor:
#      x y z
#    x 1.847280 0.032960 -0.014590 
#    y 0.032960 1.888840 0.028460 
#    z -0.014590 0.028460 1.905750 
# 
# From -- ./inp_files/245091.got.cif
#   From: 2010.05.17/outbox.cif.g08.bks.cpg/sg2_123_cif.got.tgz:245091.got - 2010.06.03 11:33:40.
