data_PCOD9087922
_publ_section_title
;
Structure prediction by ZEFSAII (Michael W. Deem and Ramdas Pophale) SiO2 
 PCOD9087922
Probable space group: P -1
;
_chemical_formula_sum "Si O2"
_cell_formula_units_Z 12
_cell_length_a 8.399967
_cell_length_b 13.023516
_cell_length_c 12.364919
_cell_angle_alpha 130.986780
_cell_angle_beta 132.752206
_cell_angle_gamma 88.206162
_cell_volume 498.664174
_symmetry_space_group_name_H-M "P -1"
_symmetry_group_IT_number 2
_symmetry_cell_setting 'triclinic'
loop_
_space_group_symop_operation_xyz
x,y,z
-x,-y,-z
loop_
_atom_site_type_symbol
_atom_site_label
_atom_site_fract_x
_atom_site_fract_y
_atom_site_fract_z
Si Si1 0.670739 0.939952 0.999998
Si Si2 0.596500 0.776896 0.410880
Si Si3 0.053961 0.523894 0.388367
Si Si4 0.523267 0.563463 0.931275
Si Si5 0.596505 0.182273 0.429059
Si Si6 0.586263 0.879782 0.236103
O O1 0.019074 0.076889 0.304540
O O2 0.500000 0.000000 0.000000
O O3 0.397797 0.693121 0.724655
O O4 0.687000 0.946884 0.881589
O O5 0.405478 0.542302 0.171038
O O6 0.504000 0.824583 0.503155
O O7 0.548336 0.828040 0.309356
O O8 0.149297 0.597285 0.358104
O O9 0.840482 0.554081 0.347390
O O10 0.784985 0.281948 0.095588
O O11 0.500000 0.500000 0.000000
O O12 0.709768 0.796719 0.180536
O O13 0.739884 0.097207 0.435751
#
# Coordination Sequence:
#
# PCOD9087922 Si02
#       6
#     2   2   2   2   2   2
#     4  10  19  37  57  78 114 151 178 221 282 328
#     4  11  18  34  61  83 111 145 178 235 274 314
#     4   8  19  35  58  73 116 142 182 216 281 318
#     4   8  16  34  56  76 110 146 176 224 269 317
#     4  10  21  34  62  82 108 146 187 221 279 322
#     4   9  19  38  59  79 114 143 184 224 270 327
#
# _framework density 24.064291999999998
#
# number of rings (size 3 to 8) (size 9 to 14) (size 15 to 20)
#    2.000    0.667    1.667    1.000    0.000    0.667 
#    0.000   11.667   11.000    0.000    0.000    0.000 
#    0.000    0.000    0.000    0.000    0.000    0.000 
#
# Total GULP energy -66831.557450 kJ/mol
# GULP energy per Si atom -5569.296454 kJ/mol
# Density = 2.400952 g / cm^3
# Si number density = 24.064292 Si / 1000 Ang^3
#
#
#
# Elastic Constant Matrix: (Units=GPa)
#
#
# Indices 1 2 3 4 5 6 
#
# 1 85.0073 28.3794 19.3336 -2.1082 -20.5620 10.4452
# 2 28.3794 60.0209 21.4468 7.7848 -6.9995 7.5616
# 3 19.3336 21.4468 84.9002 -6.9873 -10.5953 -5.3025
# 4 -2.1082 7.7848 -6.9873 14.6771 0.9217 -4.5955
# 5 -20.5620 -6.9995 -10.5953 0.9217 31.1263 -6.1671
# 6 10.4452 7.5616 -5.3025 -4.5955 -6.1671 29.0970
#
#
#
# Elastic Compliance Matrix: (Units=1/GPa)
#
#
# Indices 1 2 3 4 5 6 
#
# 1 0.016708 -0.007056 -0.000641 0.004764 0.008760 -0.001672
# 2 -0.007056 0.026530 -0.007823 -0.021704 -0.002653 -0.009777
# 3 -0.000641 -0.007823 0.016155 0.014091 0.004563 0.008400
# 4 0.004764 -0.021704 0.014091 0.093724 0.004706 0.022298
# 5 0.008760 -0.002653 0.004563 0.004706 0.040247 0.007650
# 6 -0.001672 -0.009777 0.008400 0.022298 0.007650 0.044183
#
#
# Mechanical properties :
#
#
# Convention : Reuss Voigt Hill
#
# Bulk Modulus (GPa) = 35.27204 40.91644 38.09424
# Shear Modulus (GPa) = 17.98317 25.69798 21.84057
#
# Velocity S-wave (km/s) = 2.73664 3.27140 3.01590
# Velocity P-wave (km/s) = 4.96738 5.59547 5.29075
#
# Compressibility (1/GPa) = 0.02835107
#
# Stress axis : x y z
#
# Youngs Moduli (GPa) = 59.85262 37.69319 61.90215
#
# Poissons Ratio (x) = 0.26598 0.03970
# Poissons Ratio (y) = 0.42234 0.48425
# Poissons Ratio (z) = 0.03839 0.29487
#
# Static dielectric constant tensor:
#      x y z
#    x 1.871320 0.011810 -0.002790 
#    y 0.011810 1.916380 0.017050 
#    z -0.002790 0.017050 2.013160 
# 
# From -- ./inp_files/219096.got.cif
#   From: 2010.05.17/outbox.cif.g08.bks.cpg/sg2_110_cif.got.tgz:219096.got - 2010.06.03 11:33:40.
