data_PCOD9087683
_publ_section_title
;
Structure prediction by ZEFSAII (Michael W. Deem and Ramdas Pophale) SiO2 
 PCOD9087683
Probable space group: P -1
;
_chemical_formula_sum "Si O2"
_cell_formula_units_Z 14
_cell_length_a 14.000147
_cell_length_b 8.718178
_cell_length_c 13.309040
_cell_angle_alpha 128.469918
_cell_angle_beta 149.824664
_cell_angle_gamma 54.008667
_cell_volume 634.133484
_symmetry_space_group_name_H-M "P -1"
_symmetry_group_IT_number 2
_symmetry_cell_setting 'triclinic'
loop_
_space_group_symop_operation_xyz
x,y,z
-x,-y,-z
loop_
_atom_site_type_symbol
_atom_site_label
_atom_site_fract_x
_atom_site_fract_y
_atom_site_fract_z
Si Si1 0.944315 0.612254 0.141645
Si Si2 0.349668 0.865231 0.852052
Si Si3 0.865779 0.015294 0.492382
Si Si4 0.901490 0.558824 0.308735
Si Si5 0.311005 0.389505 0.286354
Si Si6 0.471604 0.968551 0.220248
Si Si7 0.321529 0.440089 0.703721
O O1 0.864256 0.571382 0.161955
O O2 0.206912 0.414927 0.093374
O O3 0.147342 0.480207 0.251657
O O4 0.000026 0.834299 0.280393
O O5 0.395123 0.628163 0.795051
O O6 0.184702 0.919893 0.641816
O O7 0.348522 0.916749 0.990175
O O8 0.500000 0.000000 0.000000
O O9 0.663960 0.042947 0.379930
O O10 0.923953 0.780939 0.457170
O O11 0.106843 0.431305 0.461020
O O12 0.731736 0.508198 0.206036
O O13 0.500000 0.500000 0.500000
O O14 0.366165 0.155569 0.258758
O O15 0.544515 0.766828 0.263003
#
# Coordination Sequence:
#
# PCOD9087683 Si02
#       7
#     2   2   2   2   2   2   2
#     4  11  22  40  67  94 129 174 229 273 318 381
#     4  10  20  35  62  97 127 162 210 272 332 393
#     4  10  19  36  65  94 126 164 218 274 330 385
#     4  10  21  37  62  99 131 171 209 270 335 398
#     4  11  24  42  64  95 128 180 233 274 310 375
#     4  10  21  38  60  94 133 171 211 268 330 388
#     4  10  21  37  60  98 140 165 206 263 347 403
#
# _framework density 22.077372
#
# number of rings (size 3 to 8) (size 9 to 14) (size 15 to 20)
#    0.000    1.714    2.857    1.714    2.000    1.143 
#    0.000    0.714    0.000    1.714    0.000    0.000 
#    0.000    0.000    0.000    0.000    0.000    0.000 
#
# Total GULP energy -78190.153238 kJ/mol
# GULP energy per Si atom -5585.010946 kJ/mol
# Density = 2.202712 g / cm^3
# Si number density = 22.077372 Si / 1000 Ang^3
#
#
#
# Elastic Constant Matrix: (Units=GPa)
#
#
# Indices 1 2 3 4 5 6 
#
# 1 71.7699 41.8911 18.4817 8.0957 8.3012 8.8579
# 2 41.8911 199.5061 38.8772 -1.0284 10.2781 -0.8073
# 3 18.4817 38.8772 106.9980 -5.9415 11.7410 3.6103
# 4 8.0957 -1.0284 -5.9415 36.3584 0.4309 2.6122
# 5 8.3012 10.2781 11.7410 0.4309 25.1912 2.7025
# 6 8.8579 -0.8073 3.6103 2.6122 2.7025 40.6450
#
#
#
# Elastic Compliance Matrix: (Units=1/GPa)
#
#
# Indices 1 2 3 4 5 6 
#
# 1 0.017450 -0.003218 -0.001596 -0.003965 -0.003277 -0.003252
# 2 -0.003218 0.006038 -0.001552 0.000573 -0.000794 0.000975
# 3 -0.001596 -0.001552 0.010743 0.002150 -0.003829 -0.000521
# 4 -0.003965 0.000573 0.002150 0.028840 -0.000299 -0.001149
# 5 -0.003277 -0.000794 -0.003829 -0.000299 0.043084 -0.001807
# 6 -0.003252 0.000975 -0.000521 -0.001149 -0.001807 0.025572
#
#
# Mechanical properties :
#
#
# Convention : Reuss Voigt Hill
#
# Bulk Modulus (GPa) = 46.51244 64.08601 55.29923
# Shear Modulus (GPa) = 32.97602 39.04051 36.00827
#
# Velocity S-wave (km/s) = 3.86898 4.20974 4.04295
# Velocity P-wave (km/s) = 6.40877 7.26086 6.84808
#
# Compressibility (1/GPa) = 0.02149962
#
# Stress axis : x y z
#
# Youngs Moduli (GPa) = 57.30560 165.60869 93.08712
#
# Poissons Ratio (x) = 0.53292 0.14855
# Poissons Ratio (y) = 0.18440 0.14448
# Poissons Ratio (z) = 0.09145 0.25704
#
# Static dielectric constant tensor:
#      x y z
#    x 1.880890 -0.030330 0.072380 
#    y -0.030330 1.958660 -0.050600 
#    z 0.072380 -0.050600 1.881670 
# 
# From -- ./inp_files/253595.got.cif
#   From: 2010.05.17/outbox.cif.g08.bks.cpg/sg2_127_cif.got.tgz:253595.got - 2010.06.03 11:33:40.
