data_PCOD9087612
_publ_section_title
;
Structure prediction by ZEFSAII (Michael W. Deem and Ramdas Pophale) SiO2 
 PCOD9087612
Probable space group: P -1
;
_chemical_formula_sum "Si O2"
_cell_formula_units_Z 12
_cell_length_a 12.476147
_cell_length_b 7.247506
_cell_length_c 7.954503
_cell_angle_alpha 56.020656
_cell_angle_beta 125.287668
_cell_angle_gamma 124.429724
_cell_volume 454.520433
_symmetry_space_group_name_H-M "P -1"
_symmetry_group_IT_number 2
_symmetry_cell_setting 'triclinic'
loop_
_space_group_symop_operation_xyz
x,y,z
-x,-y,-z
loop_
_atom_site_type_symbol
_atom_site_label
_atom_site_fract_x
_atom_site_fract_y
_atom_site_fract_z
Si Si1 0.771933 0.270847 0.813442
Si Si2 0.382627 0.513230 0.071806
Si Si3 0.175951 0.069238 0.251232
Si Si4 0.505046 0.888974 0.746389
Si Si5 0.083332 0.982921 0.749909
Si Si6 0.682178 0.707084 0.406933
O O1 0.748472 0.505707 0.612671
O O2 0.800591 0.122170 0.756177
O O3 0.619616 0.108491 0.831508
O O4 0.886193 0.255954 0.058898
O O5 0.232350 0.342706 0.093991
O O6 0.426458 0.308302 0.128998
O O7 0.516297 0.610963 0.270878
O O8 0.382164 0.725902 0.840819
O O9 0.273727 0.113169 0.485987
O O10 0.015181 0.983240 0.209741
O O11 0.500000 0.000000 0.500000
O O12 0.234810 0.176257 0.746235
O O13 0.000000 0.000000 0.500000
#
# Coordination Sequence:
#
# PCOD9087612 Si02
#       6
#     2   2   2   2   2   2
#     4  11  22  41  68  91 129 171 217 262 323 381
#     4  10  20  38  64  93 131 167 210 269 319 374
#     4  10  24  40  64  99 133 161 221 267 314 385
#     4  10  19  36  64  97 124 166 212 260 322 379
#     4  10  23  44  65  92 133 173 214 269 317 378
#     4  11  22  42  69  92 129 176 210 265 325 378
#
# _framework density 26.401454000000001
#
# number of rings (size 3 to 8) (size 9 to 14) (size 15 to 20)
#    0.000    1.667    3.333    1.000    0.000    3.333 
#    0.000   14.167    0.000    0.000    0.000    0.000 
#    0.000    0.000    0.000    0.000    0.000    0.000 
#
# Total GULP energy -66976.804937 kJ/mol
# GULP energy per Si atom -5581.400411 kJ/mol
# Density = 2.634136 g / cm^3
# Si number density = 26.401454 Si / 1000 Ang^3
#
#
#
# Elastic Constant Matrix: (Units=GPa)
#
#
# Indices 1 2 3 4 5 6 
#
# 1 133.9725 48.9257 57.2044 -21.7839 -14.6137 -10.3696
# 2 48.9257 72.5009 72.4123 -7.8779 2.2459 1.1879
# 3 57.2044 72.4123 237.9302 -27.2936 8.0689 -3.0784
# 4 -21.7839 -7.8779 -27.2936 62.8931 6.8675 -7.8780
# 5 -14.6137 2.2459 8.0689 6.8675 47.6871 -14.4357
# 6 -10.3696 1.1879 -3.0784 -7.8780 -14.4357 30.6869
#
#
#
# Elastic Compliance Matrix: (Units=1/GPa)
#
#
# Indices 1 2 3 4 5 6 
#
# 1 0.012422 -0.008113 -0.000213 0.003557 0.006236 0.008337
# 2 -0.008113 0.025186 -0.005959 -0.002645 -0.004425 -0.007075
# 3 -0.000213 -0.005959 0.006357 0.002152 -0.000888 0.000931
# 4 0.003557 -0.002645 0.002152 0.018516 0.000097 0.006319
# 5 0.006236 -0.004425 -0.000888 0.000097 0.027864 0.015322
# 6 0.008337 -0.007075 0.000931 0.006319 0.015322 0.044602
#
#
# Mechanical properties :
#
#
# Convention : Reuss Voigt Hill
#
# Bulk Modulus (GPa) = 64.96266 89.05427 77.00847
# Shear Modulus (GPa) = 29.64741 45.97750 37.81245
#
# Velocity S-wave (km/s) = 3.35467 4.17763 3.78856
# Velocity P-wave (km/s) = 6.29796 7.55474 6.95480
#
# Compressibility (1/GPa) = 0.01539346
#
# Stress axis : x y z
#
# Youngs Moduli (GPa) = 80.50203 39.70503 157.31200
#
# Poissons Ratio (x) = 0.32214 0.03349
# Poissons Ratio (y) = 0.65315 0.93746
# Poissons Ratio (z) = 0.01714 0.23661
#
# Static dielectric constant tensor:
#      x y z
#    x 2.271910 0.040440 -0.088130 
#    y 0.040440 2.135940 0.058140 
#    z -0.088130 0.058140 2.170650 
# 
# From -- ./inp_files/124472.got.cif
#   From: 2010.05.17/outbox.cif.g08.bks.cpg/sg2_63_cif.got.tgz:124472.got - 2010.06.03 11:33:40.
