data_PCOD9087759
_publ_section_title
;
Structure prediction by ZEFSAII (Michael W. Deem and Ramdas Pophale) SiO2 
 PCOD9087759
Probable space group: P -1
;
_chemical_formula_sum "Si O2"
_cell_formula_units_Z 16
_cell_length_a 14.916351
_cell_length_b 8.781330
_cell_length_c 7.951485
_cell_angle_alpha 116.163740
_cell_angle_beta 59.409309
_cell_angle_gamma 77.774256
_cell_volume 664.223984
_symmetry_space_group_name_H-M "P -1"
_symmetry_group_IT_number 2
_symmetry_cell_setting 'triclinic'
loop_
_space_group_symop_operation_xyz
x,y,z
-x,-y,-z
loop_
_atom_site_type_symbol
_atom_site_label
_atom_site_fract_x
_atom_site_fract_y
_atom_site_fract_z
Si Si1 0.451006 0.359436 0.556166
Si Si2 0.802926 0.753869 0.801836
Si Si3 0.417238 0.738887 0.116887
Si Si4 0.153327 0.766878 0.794060
Si Si5 0.212592 0.726577 0.099621
Si Si6 0.303217 0.962941 0.648680
Si Si7 0.957336 0.261418 0.440617
Si Si8 0.635076 0.720087 0.709935
O O1 0.500000 0.500000 0.500000
O O2 0.558327 0.210788 0.506652
O O3 0.439316 0.220812 0.364176
O O4 0.316703 0.487988 0.839427
O O5 0.878600 0.508966 0.627437
O O6 0.702657 0.814050 0.779886
O O7 0.901895 0.809133 0.683470
O O8 0.748003 0.848496 0.084146
O O9 0.317763 0.765372 0.083002
O O10 0.326626 0.938083 0.417191
O O11 0.500000 0.500000 0.000000
O O12 0.531597 0.746125 0.948509
O O13 0.217241 0.879001 0.724742
O O14 0.048721 0.810794 0.777264
O O15 0.258784 0.522521 0.545086
O O16 0.138040 0.800929 0.027420
O O17 0.116404 0.779081 0.368432
#
# Coordination Sequence:
#
# PCOD9087759 Si02
#       8
#     2   2   2   2   2   2   2   2
#     4  11  18  34  62  94 122 152 195 252 308 369
#     4  10  25  41  59  85 126 170 202 248 310 358
#     4  12  17  31  61  92 120 156 195 246 309 360
#     4  10  19  36  67  92 113 155 215 254 295 354
#     4  11  19  36  68  97 110 160 211 250 298 369
#     4  12  21  34  62  98 125 153 204 259 303 364
#     4  10  22  47  65  77 122 176 208 246 303 366
#     4  10  19  37  57  85 126 164 192 236 311 375
#
# _framework density 24.088258
#
# number of rings (size 3 to 8) (size 9 to 14) (size 15 to 20)
#    0.000    1.250    7.500    0.750    0.000    1.500 
#    0.000   10.625    8.250    0.000    0.000    0.000 
#    0.000    0.000    0.000    0.000    0.000    0.000 
#
# Total GULP energy -89270.032336 kJ/mol
# GULP energy per Si atom -5579.377021 kJ/mol
# Density = 2.403343 g / cm^3
# Si number density = 24.088258 Si / 1000 Ang^3
#
#
#
# Elastic Constant Matrix: (Units=GPa)
#
#
# Indices 1 2 3 4 5 6 
#
# 1 200.2676 40.7253 55.4582 -15.2559 20.8108 8.5365
# 2 40.7253 39.7000 24.7489 0.2033 4.7475 7.1211
# 3 55.4582 24.7489 152.0341 -9.2846 27.9094 11.3270
# 4 -15.2559 0.2033 -9.2846 36.3215 9.7988 -0.3665
# 5 20.8108 4.7475 27.9094 9.7988 47.9777 6.7117
# 6 8.5365 7.1211 11.3270 -0.3665 6.7117 29.9346
#
#
#
# Elastic Compliance Matrix: (Units=1/GPa)
#
#
# Indices 1 2 3 4 5 6 
#
# 1 0.007085 -0.006526 -0.000843 0.003539 -0.002731 0.000506
# 2 -0.006526 0.034910 -0.003789 -0.004879 0.003392 -0.005830
# 3 -0.000843 -0.003789 0.008651 0.003162 -0.004795 -0.001018
# 4 0.003539 -0.004879 0.003162 0.032498 -0.009744 0.001538
# 5 -0.002731 0.003392 -0.004795 -0.009744 0.027088 -0.004406
# 6 0.000506 -0.005830 -0.001018 0.001538 -0.004406 0.036041
#
#
# Mechanical properties :
#
#
# Convention : Reuss Voigt Hill
#
# Bulk Modulus (GPa) = 35.29496 70.42962 52.86229
# Shear Modulus (GPa) = 28.08491 40.91804 34.50148
#
# Velocity S-wave (km/s) = 3.41826 4.12597 3.78867
# Velocity P-wave (km/s) = 5.50122 7.21109 6.41339
#
# Compressibility (1/GPa) = 0.02833266
#
# Stress axis : x y z
#
# Youngs Moduli (GPa) = 141.13374 28.64503 115.59618
#
# Poissons Ratio (x) = 0.18692 0.09740
# Poissons Ratio (y) = 0.92098 0.43796
# Poissons Ratio (z) = 0.11891 0.10853
#
# Static dielectric constant tensor:
#      x y z
#    x 1.866030 -0.086360 0.039600 
#    y -0.086360 2.020710 0.055110 
#    z 0.039600 0.055110 1.977150 
# 
# From -- ./inp_files/305868.got.cif
#   From: 2010.05.17/outbox.cif.g08.bks.cpg/sg2_153_cif.got.tgz:305868.got - 2010.06.03 11:33:40.
