data_PCOD9087127
_publ_section_title
;
Structure prediction by ZEFSAII (Michael W. Deem and Ramdas Pophale) SiO2 
 PCOD9087127
Probable space group: P -1
;
_chemical_formula_sum "Si O2"
_cell_formula_units_Z 14
_cell_length_a 11.597335
_cell_length_b 10.003046
_cell_length_c 14.301408
_cell_angle_alpha 66.099928
_cell_angle_beta 27.996725
_cell_angle_gamma 84.089076
_cell_volume 573.021910
_symmetry_space_group_name_H-M "P -1"
_symmetry_group_IT_number 2
_symmetry_cell_setting 'triclinic'
loop_
_space_group_symop_operation_xyz
x,y,z
-x,-y,-z
loop_
_atom_site_type_symbol
_atom_site_label
_atom_site_fract_x
_atom_site_fract_y
_atom_site_fract_z
Si Si1 0.351043 0.585173 0.218363
Si Si2 0.258387 0.524708 0.034201
Si Si3 0.344522 0.561045 0.444107
Si Si4 0.357303 0.643758 0.726064
Si Si5 0.361698 0.110605 0.712032
Si Si6 0.171151 0.909891 0.527484
Si Si7 0.724286 0.976251 0.790096
O O1 0.446163 0.638108 0.244494
O O2 0.000000 0.500000 0.500000
O O3 0.432622 0.450666 0.164706
O O4 0.526523 0.759778 0.977366
O O5 0.018764 0.537642 0.259254
O O6 0.046640 0.303932 0.228030
O O7 0.351772 0.644600 0.841136
O O8 0.448287 0.431484 0.419539
O O9 0.507672 0.716572 0.361648
O O10 0.499251 0.819465 0.510777
O O11 0.000000 0.500000 0.000000
O O12 0.505180 0.014524 0.680733
O O13 0.000000 0.000000 0.000000
O O14 0.010234 0.009156 0.632810
O O15 0.194787 0.921173 0.394605
O O16 0.500000 0.000000 0.000000
#
# Coordination Sequence:
#
# PCOD9087127 Si02
#       7
#     2   2   2   2   2   2   2
#     4  10  22  38  60  89 121 156 208 259 299 369
#     4   9  19  37  60  87 118 156 208 247 301 365
#     4  10  21  39  65  86 120 168 205 248 314 362
#     4  11  20  37  67  87 120 165 209 245 301 372
#     4  11  23  40  62  94 131 161 204 259 305 367
#     4   9  19  35  57  84 116 155 194 251 298 357
#     4  10  19  36  62  81 111 157 202 246 311 353
#
# _framework density 24.431874000000001
#
# number of rings (size 3 to 8) (size 9 to 14) (size 15 to 20)
#    0.000    2.000    2.857    2.143    0.000    2.857 
#    0.000    2.143    0.000    0.000    0.000    0.000 
#    0.000    0.000    0.000    0.000    0.000    0.000 
#
# Total GULP energy -78212.963512 kJ/mol
# GULP energy per Si atom -5586.640251 kJ/mol
# Density = 2.437627 g / cm^3
# Si number density = 24.431874 Si / 1000 Ang^3
#
#
#
# Elastic Constant Matrix: (Units=GPa)
#
#
# Indices 1 2 3 4 5 6 
#
# 1 120.8475 40.2990 72.8920 7.0147 7.4023 -29.0628
# 2 40.2990 110.2234 40.0059 36.5050 -7.0312 -26.0365
# 3 72.8920 40.0059 163.0924 36.0870 -1.7098 -20.9041
# 4 7.0147 36.5050 36.0870 59.0111 -11.8225 -12.4774
# 5 7.4023 -7.0312 -1.7098 -11.8225 55.4029 19.7392
# 6 -29.0628 -26.0365 -20.9041 -12.4774 19.7392 36.0820
#
#
#
# Elastic Compliance Matrix: (Units=1/GPa)
#
#
# Indices 1 2 3 4 5 6 
#
# 1 0.015809 -0.002699 -0.005963 0.004834 -0.005981 0.012275
# 2 -0.002699 0.013791 0.000243 -0.007367 -0.001698 0.006300
# 3 -0.005963 0.000243 0.009853 -0.005624 0.000297 -0.001027
# 4 0.004834 -0.007367 -0.005624 0.025474 0.002746 0.002626
# 5 -0.005981 -0.001698 0.000297 0.002746 0.026061 -0.019178
# 6 0.012275 0.006300 -0.001027 0.002626 -0.019178 0.052953
#
#
# Mechanical properties :
#
#
# Convention : Reuss Voigt Hill
#
# Bulk Modulus (GPa) = 44.21581 77.83967 61.02774
# Shear Modulus (GPa) = 29.70608 46.16364 37.93486
#
# Velocity S-wave (km/s) = 3.49072 4.35154 3.94468
# Velocity P-wave (km/s) = 5.86376 7.56154 6.76611
#
# Compressibility (1/GPa) = 0.02261635
#
# Stress axis : x y z
#
# Youngs Moduli (GPa) = 63.25428 72.51296 101.49385
#
# Poissons Ratio (x) = 0.19569 0.60517
# Poissons Ratio (y) = 0.17070 -0.02468
# Poissons Ratio (z) = 0.37716 -0.01763
#
# Static dielectric constant tensor:
#      x y z
#    x 2.034640 0.034950 -0.064880 
#    y 0.034950 2.028300 -0.002350 
#    z -0.064880 -0.002350 1.949750 
# 
# From -- ./inp_files/382275.got.cif
#   From: 2010.05.17/outbox.cif.g08.bks.cpg/sg2_192_cif.got.tgz:382275.got - 2010.06.03 11:33:40.
