data_PCOD9087082
_publ_section_title
;
Structure prediction by ZEFSAII (Michael W. Deem and Ramdas Pophale) SiO2 
 PCOD9087082
Probable space group: P -1
;
_chemical_formula_sum "Si O2"
_cell_formula_units_Z 16
_cell_length_a 9.083794
_cell_length_b 15.462137
_cell_length_c 14.754938
_cell_angle_alpha 134.556265
_cell_angle_beta 133.949747
_cell_angle_gamma 32.485922
_cell_volume 764.327883
_symmetry_space_group_name_H-M "P -1"
_symmetry_group_IT_number 2
_symmetry_cell_setting 'triclinic'
loop_
_space_group_symop_operation_xyz
x,y,z
-x,-y,-z
loop_
_atom_site_type_symbol
_atom_site_label
_atom_site_fract_x
_atom_site_fract_y
_atom_site_fract_z
Si Si1 0.939514 0.668750 0.092177
Si Si2 0.854412 0.033656 0.805897
Si Si3 0.672489 0.127635 0.484450
Si Si4 0.374577 0.030029 0.187033
Si Si5 0.822461 0.846666 0.990601
Si Si6 0.425390 0.174067 0.594986
Si Si7 0.310670 0.626209 0.382063
Si Si8 0.118844 0.716441 0.563828
O O1 0.620421 0.840933 0.112278
O O2 0.145336 0.650672 0.239896
O O3 0.967657 0.705670 0.027359
O O4 0.000000 0.500000 0.000000
O O5 0.009197 0.880376 0.688511
O O6 0.836237 0.967595 0.843335
O O7 0.527900 0.181907 0.740654
O O8 0.011890 0.095379 0.910240
O O9 0.618558 0.156210 0.588942
O O10 0.545134 0.303001 0.518947
O O11 0.528744 0.064360 0.341905
O O12 0.000000 0.000000 0.500000
O O13 0.224505 0.170524 0.146902
O O14 0.500000 0.000000 0.000000
O O15 0.096189 0.306204 0.524441
O O16 0.500000 0.000000 0.500000
O O17 0.111865 0.724758 0.457790
O O18 0.560989 0.433581 0.376714
#
# Coordination Sequence:
#
# PCOD9087082 Si02
#       8
#     2   2   2   2   2   2   2   2
#     4  11  25  45  66  95 136 177 225 272 330 394
#     4  11  21  42  69  95 136 169 227 270 333 396
#     4  12  21  37  65  98 130 165 223 269 331 399
#     4  11  23  42  70  98 130 178 224 277 324 392
#     4  10  25  41  66  97 124 179 229 268 315 397
#     4  10  19  36  61  92 128 165 206 269 327 388
#     4  11  24  38  66  97 135 176 212 273 342 388
#     4  10  23  39  63 101 134 169 212 274 339 395
#
# _framework density 20.933423000000001
#
# number of rings (size 3 to 8) (size 9 to 14) (size 15 to 20)
#    0.000    1.250    3.750    3.375    8.750    1.500 
#    0.000    0.625    0.000    0.000    0.000    0.000 
#    0.000    0.000    0.000    0.000    0.000    0.000 
#
# Total GULP energy -89199.757910 kJ/mol
# GULP energy per Si atom -5574.984869 kJ/mol
# Density = 2.088578 g / cm^3
# Si number density = 20.933423 Si / 1000 Ang^3
#
#
#
# Elastic Constant Matrix: (Units=GPa)
#
#
# Indices 1 2 3 4 5 6 
#
# 1 122.3785 26.9495 26.0651 -9.7528 -3.9826 27.5662
# 2 26.9495 69.4240 33.7985 -10.5705 -10.1339 17.9500
# 3 26.0651 33.7985 67.8414 -12.2795 -1.2711 13.6247
# 4 -9.7528 -10.5705 -12.2795 35.1124 7.2907 -0.3461
# 5 -3.9826 -10.1339 -1.2711 7.2907 37.9045 -6.7470
# 6 27.5662 17.9500 13.6247 -0.3461 -6.7470 31.0374
#
#
#
# Elastic Compliance Matrix: (Units=1/GPa)
#
#
# Indices 1 2 3 4 5 6 
#
# 1 0.010797 -0.001070 -0.001504 0.002309 -0.001166 -0.008538
# 2 -0.001070 0.021665 -0.008459 0.002434 0.003675 -0.007040
# 3 -0.001504 -0.008459 0.021138 0.005087 -0.003352 -0.003723
# 4 0.002309 0.002434 0.005087 0.032909 -0.006464 -0.006730
# 5 -0.001166 0.003675 -0.003352 -0.006464 0.029572 0.006738
# 6 -0.008538 -0.007040 -0.003723 -0.006730 0.006738 0.046897
#
#
# Mechanical properties :
#
#
# Convention : Reuss Voigt Hill
#
# Bulk Modulus (GPa) = 31.71282 48.14113 39.92697
# Shear Modulus (GPa) = 25.56804 32.33291 28.95048
#
# Velocity S-wave (km/s) = 3.49864 3.93435 3.72288
# Velocity P-wave (km/s) = 5.61275 6.60954 6.13143
#
# Compressibility (1/GPa) = 0.03153299
#
# Stress axis : x y z
#
# Youngs Moduli (GPa) = 92.62206 46.15703 47.30755
#
# Poissons Ratio (x) = 0.04938 0.07117
# Poissons Ratio (y) = 0.09909 0.40018
# Poissons Ratio (z) = 0.13935 0.39045
#
# Static dielectric constant tensor:
#      x y z
#    x 1.786740 -0.011880 -0.019320 
#    y -0.011880 1.811220 -0.044700 
#    z -0.019320 -0.044700 1.781970 
# 
# From -- ./inp_files/504293.got.cif
#   From: 2010.05.17/outbox.cif.g08.bks.cpg/sg2_253_cif.got.tgz:504293.got - 2010.06.03 11:33:40.
