data_PCOD9087000
_publ_section_title
;
Structure prediction by ZEFSAII (Michael W. Deem and Ramdas Pophale) SiO2 
 PCOD9087000
Probable space group: P -1
;
_chemical_formula_sum "Si O2"
_cell_formula_units_Z 16
_cell_length_a 17.607663
_cell_length_b 4.940809
_cell_length_c 19.330201
_cell_angle_alpha 85.635292
_cell_angle_beta 29.750146
_cell_angle_gamma 69.735537
_cell_volume 685.673040
_symmetry_space_group_name_H-M "P -1"
_symmetry_group_IT_number 2
_symmetry_cell_setting 'triclinic'
loop_
_space_group_symop_operation_xyz
x,y,z
-x,-y,-z
loop_
_atom_site_type_symbol
_atom_site_label
_atom_site_fract_x
_atom_site_fract_y
_atom_site_fract_z
Si Si1 0.112209 0.632808 0.767391
Si Si2 0.541527 0.667975 0.139921
Si Si3 0.464125 0.531385 0.444760
Si Si4 0.791824 0.627059 0.751229
Si Si5 0.686621 0.802378 0.249469
Si Si6 0.420796 0.825425 0.982207
Si Si7 0.871839 0.937358 0.554852
Si Si8 0.876832 0.390162 0.975102
O O1 0.259833 0.611490 0.597715
O O2 0.228429 0.356374 0.739959
O O3 0.970684 0.544354 0.855047
O O4 0.006903 0.995563 0.877506
O O5 0.620476 0.409517 0.019406
O O6 0.547615 0.973647 0.104628
O O7 0.331621 0.771168 0.315368
O O8 0.680740 0.501747 0.095961
O O9 0.500000 0.500000 0.500000
O O10 0.505594 0.793171 0.383056
O O11 0.617878 0.178942 0.296855
O O12 0.614536 0.614925 0.875968
O O13 0.819651 0.754345 0.654046
O O14 0.989783 0.288161 0.611399
O O15 0.732038 0.900756 0.850796
O O16 0.832898 0.565926 0.080662
O O17 0.000000 0.000000 0.500000
#
# Coordination Sequence:
#
# PCOD9087000 Si02
#       8
#     2   2   2   2   2   2   2   2
#     4  11  21  39  63  88 119 157 207 248 297 361
#     4  11  24  40  57  82 125 158 195 241 302 352
#     4  10  20  37  62  91 119 149 195 260 305 345
#     4   9  20  34  61  92 111 147 198 246 292 344
#     4  11  21  38  64  93 117 155 207 253 298 352
#     4  10  21  38  61  86 116 151 196 245 291 353
#     4  10  19  36  61  88 115 150 193 246 294 346
#     4  12  24  39  59  87 124 165 198 249 304 358
#
# _framework density 23.334735999999999
#
# number of rings (size 3 to 8) (size 9 to 14) (size 15 to 20)
#    0.000    1.500    1.250    6.000    1.750    1.500 
#    0.000    3.750    2.750    0.000    0.000    0.000 
#    0.000    0.000    0.000    0.000    0.000    0.000 
#
# Total GULP energy -89415.457918 kJ/mol
# GULP energy per Si atom -5588.466120 kJ/mol
# Density = 2.328163 g / cm^3
# Si number density = 23.334736 Si / 1000 Ang^3
#
#
#
# Elastic Constant Matrix: (Units=GPa)
#
#
# Indices 1 2 3 4 5 6 
#
# 1 57.9803 8.2444 24.6126 8.8146 -17.4684 13.5039
# 2 8.2444 74.8587 7.1523 4.8927 -5.2028 20.8064
# 3 24.6126 7.1523 121.3165 13.3566 -15.6798 7.2658
# 4 8.8146 4.8927 13.3566 41.8411 9.1919 -0.1703
# 5 -17.4684 -5.2028 -15.6798 9.1919 28.2518 -4.5551
# 6 13.5039 20.8064 7.2658 -0.1703 -4.5551 24.7000
#
#
#
# Elastic Compliance Matrix: (Units=1/GPa)
#
#
# Indices 1 2 3 4 5 6 
#
# 1 0.027426 0.002775 -0.001608 -0.009478 0.017450 -0.013706
# 2 0.002775 0.018000 0.000226 -0.003651 0.003751 -0.016079
# 3 -0.001608 0.000226 0.009799 -0.004054 0.005613 -0.001186
# 4 -0.009478 -0.003651 -0.004054 0.031607 -0.018044 0.006340
# 5 0.017450 0.003751 0.005613 -0.018044 0.055169 -0.004302
# 6 -0.013706 -0.016079 -0.001186 0.006340 -0.004302 0.061123
#
#
# Mechanical properties :
#
#
# Convention : Reuss Voigt Hill
#
# Bulk Modulus (GPa) = 17.23857 37.13044 27.18450
# Shear Modulus (GPa) = 22.76091 33.23499 27.99795
#
# Velocity S-wave (km/s) = 3.12654 3.77805 3.46763
# Velocity P-wave (km/s) = 4.52076 5.91423 5.26381
#
# Compressibility (1/GPa) = 0.05800945
#
# Stress axis : x y z
#
# Youngs Moduli (GPa) = 36.46193 55.55633 102.05505
#
# Poissons Ratio (x) = -0.15416 0.16410
# Poissons Ratio (y) = -0.10118 -0.02303
# Poissons Ratio (z) = 0.05863 -0.01253
#
# Static dielectric constant tensor:
#      x y z
#    x 1.893800 0.000650 -0.026150 
#    y 0.000650 1.906040 -0.027140 
#    z -0.026150 -0.027140 1.978610 
# 
# From -- ./inp_files/585730.got.cif
#   From: 2010.05.17/outbox.cif.g08.bks.cpg/sg2_293_cif.got.tgz:585730.got - 2010.06.03 11:33:40.
