data_PCOD9087276
_publ_section_title
;
Structure prediction by ZEFSAII (Michael W. Deem and Ramdas Pophale) SiO2 
 PCOD9087276
Probable space group: P -1
;
_chemical_formula_sum "Si O2"
_cell_formula_units_Z 16
_cell_length_a 8.045419
_cell_length_b 5.575874
_cell_length_c 22.057655
_cell_angle_alpha 130.159243
_cell_angle_beta 119.600903
_cell_angle_gamma 77.193117
_cell_volume 650.512782
_symmetry_space_group_name_H-M "P -1"
_symmetry_group_IT_number 2
_symmetry_cell_setting 'triclinic'
loop_
_space_group_symop_operation_xyz
x,y,z
-x,-y,-z
loop_
_atom_site_type_symbol
_atom_site_label
_atom_site_fract_x
_atom_site_fract_y
_atom_site_fract_z
Si Si1 0.078825 0.770097 0.026042
Si Si2 0.793851 0.073132 0.489030
Si Si3 0.148611 0.384821 0.210224
Si Si4 0.460579 0.273140 0.716412
Si Si5 0.287177 0.632063 0.849790
Si Si6 0.669853 0.632768 0.994061
Si Si7 0.288910 0.251628 0.456312
Si Si8 0.625680 0.697670 0.647780
O O1 0.264921 0.657493 0.003798
O O2 0.135243 0.015289 0.130818
O O3 0.858289 0.590029 0.978206
O O4 0.000000 0.000000 0.000000
O O5 0.640343 0.827525 0.382968
O O6 0.785461 0.992432 0.545592
O O7 0.796897 0.424439 0.518859
O O8 0.000000 0.000000 0.500000
O O9 0.323708 0.541995 0.224495
O O10 0.222029 0.398433 0.294515
O O11 0.932810 0.480540 0.185245
O O12 0.333058 0.469742 0.767704
O O13 0.491559 0.928307 0.692690
O O14 0.468561 0.561691 0.912133
O O15 0.304526 0.019254 0.915795
O O16 0.499520 0.394899 0.544344
O O17 0.287700 0.114285 0.366112
#
# Coordination Sequence:
#
# PCOD9087276 Si02
#       8
#     2   2   2   2   2   2   2   2
#     4   7  15  33  64  87 125 181 208 271 342 410
#     4  11  24  44  68 105 141 183 237 294 354 425
#     4  11  21  40  64  92 131 176 221 285 344 408
#     4  11  25  39  62 100 129 169 233 282 351 415
#     4  10  19  36  62  92 129 172 216 290 334 415
#     4   7  15  34  60  88 129 170 218 267 349 404
#     4  10  23  42  71  97 135 191 233 288 358 423
#     4  10  23  40  65  90 135 175 228 287 350 419
#
# _framework density 24.595980000000001
#
# number of rings (size 3 to 8) (size 9 to 14) (size 15 to 20)
#    0.750    1.500    1.250    1.125    3.500    1.500 
#    0.000    8.750    0.000    0.000    0.000    0.000 
#    0.000    0.000    0.000    0.000    0.000    0.000 
#
# Total GULP energy -89176.946519 kJ/mol
# GULP energy per Si atom -5573.559157 kJ/mol
# Density = 2.454000 g / cm^3
# Si number density = 24.595980 Si / 1000 Ang^3
#
#
#
# Elastic Constant Matrix: (Units=GPa)
#
#
# Indices 1 2 3 4 5 6 
#
# 1 109.2670 43.4806 12.2986 1.2266 -2.7710 -24.2850
# 2 43.4806 138.3787 26.8279 -1.8305 -15.0496 -39.1287
# 3 12.2986 26.8279 76.9209 2.0443 -17.8636 -14.7344
# 4 1.2266 -1.8305 2.0443 47.4458 -6.0763 -1.4010
# 5 -2.7710 -15.0496 -17.8636 -6.0763 39.6978 -2.8203
# 6 -24.2850 -39.1287 -14.7344 -1.4010 -2.8203 48.3457
#
#
#
# Elastic Compliance Matrix: (Units=1/GPa)
#
#
# Indices 1 2 3 4 5 6 
#
# 1 0.010907 -0.002418 -0.000251 -0.000272 -0.000066 0.003433
# 2 -0.002418 0.010767 -0.000997 0.001278 0.004191 0.007477
# 3 -0.000251 -0.000997 0.015855 0.000321 0.007096 0.004323
# 4 -0.000272 0.001278 0.000321 0.021695 0.004063 0.001862
# 5 -0.000066 0.004191 0.007096 0.004063 0.031119 0.007455
# 6 0.003433 0.007477 0.004323 0.001862 0.007455 0.030267
#
#
# Mechanical properties :
#
#
# Convention : Reuss Voigt Hill
#
# Bulk Modulus (GPa) = 33.11623 54.42011 43.76817
# Shear Modulus (GPa) = 36.22996 43.22848 39.72922
#
# Velocity S-wave (km/s) = 3.84214 4.19685 4.02341
# Velocity P-wave (km/s) = 5.75986 6.75710 6.27831
#
# Compressibility (1/GPa) = 0.03019667
#
# Stress axis : x y z
#
# Youngs Moduli (GPa) = 91.68493 92.87926 63.06967
#
# Poissons Ratio (x) = 0.22463 0.01582
# Poissons Ratio (y) = 0.22174 0.06287
# Poissons Ratio (z) = 0.02300 0.09259
#
# Static dielectric constant tensor:
#      x y z
#    x 2.063430 0.098120 -0.065990 
#    y 0.098120 2.068400 0.029650 
#    z -0.065990 0.029650 2.092030 
# 
# From -- ./inp_files/605948.got.cif
#   From: 2010.05.17/outbox.cif.g08.bks.cpg/sg2_303_cif.got.tgz:605948.got - 2010.06.03 11:33:40.
