data_PCOD9087391
_publ_section_title
;
Structure prediction by ZEFSAII (Michael W. Deem and Ramdas Pophale) SiO2 
 PCOD9087391
Probable space group: P -1
;
_chemical_formula_sum "Si O2"
_cell_formula_units_Z 15
_cell_length_a 17.411059
_cell_length_b 11.239835
_cell_length_c 7.024127
_cell_angle_alpha 115.017527
_cell_angle_beta 116.237063
_cell_angle_gamma 28.331199
_cell_volume 583.289713
_symmetry_space_group_name_H-M "P -1"
_symmetry_group_IT_number 2
_symmetry_cell_setting 'triclinic'
loop_
_space_group_symop_operation_xyz
x,y,z
-x,-y,-z
loop_
_atom_site_type_symbol
_atom_site_label
_atom_site_fract_x
_atom_site_fract_y
_atom_site_fract_z
Si Si1 0.040560 0.745402 0.224037
Si Si2 0.207486 0.785339 0.553431
Si Si3 0.000000 0.500000 0.500000
Si Si4 0.446870 0.582722 0.220527
Si Si5 0.694585 0.725414 0.291449
Si Si6 0.817974 0.272238 0.065543
Si Si7 0.333353 0.182788 0.229020
Si Si8 0.215803 0.082306 0.162539
O O1 0.149744 0.735560 0.335536
O O2 0.171927 0.459613 0.157318
O O3 0.930811 0.919015 0.412074
O O4 0.891849 0.893517 0.025965
O O5 0.386372 0.614210 0.613509
O O6 0.197143 0.745453 0.736185
O O7 0.176973 0.330715 0.653521
O O8 0.087731 0.345697 0.295177
O O9 0.338490 0.856309 0.294472
O O10 0.500000 0.500000 0.000000
O O11 0.320611 0.628613 0.132878
O O12 0.772804 0.484742 0.151013
O O13 0.675071 0.751056 0.518213
O O14 0.507999 0.992860 0.207059
O O15 0.000000 0.000000 0.000000
O O16 0.320452 0.040997 0.115056
#
# Coordination Sequence:
#
# PCOD9087391 Si02
#       8
#     2   2   1   2   2   2   2   2
#     4  11  21  37  60  89 122 152 196 247 302 334
#     4  10  22  37  62  90 118 153 197 251 291 346
#     4  10  24  38  58  86 122 154 190 240 296 362
#     4  10  19  36  63  90 110 151 205 247 280 340
#     4  10  21  37  60  88 114 153 205 240 289 346
#     4  11  20  36  63  88 116 151 199 247 290 344
#     4  10  21  36  61  87 115 153 200 249 278 349
#     4  11  21  38  62  89 119 153 198 240 296 349
#
# _framework density 25.716208999999999
#
# number of rings (size 3 to 8) (size 9 to 14) (size 15 to 20)
#    0.000    1.600    4.000    2.800    3.733    0.000 
#    0.000    0.667    0.000    3.200    0.000    0.000 
#    0.000    0.000    0.000    0.000    0.000    0.000 
#
# Total GULP energy -83522.292115 kJ/mol
# GULP energy per Si atom -5568.152808 kJ/mol
# Density = 2.565768 g / cm^3
# Si number density = 25.716209 Si / 1000 Ang^3
#
#
#
# Elastic Constant Matrix: (Units=GPa)
#
#
# Indices 1 2 3 4 5 6 
#
# 1 58.8790 40.6465 33.8318 -8.0915 11.5627 -27.5081
# 2 40.6465 195.9362 48.7094 -29.6336 32.4215 -35.5435
# 3 33.8318 48.7094 139.1639 -25.5708 27.7478 -9.4688
# 4 -8.0915 -29.6336 -25.5708 42.7150 -7.5780 12.9197
# 5 11.5627 32.4215 27.7478 -7.5780 42.9281 -10.5571
# 6 -27.5081 -35.5435 -9.4688 12.9197 -10.5571 48.1420
#
#
#
# Elastic Compliance Matrix: (Units=1/GPa)
#
#
# Indices 1 2 3 4 5 6 
#
# 1 0.028069 -0.002542 -0.005916 -0.004148 0.000974 0.014325
# 2 -0.002542 0.007155 -0.000542 0.002899 -0.003311 0.002219
# 3 -0.005916 -0.000542 0.010448 0.005157 -0.004867 -0.004177
# 4 -0.004148 0.002899 0.005157 0.029797 -0.000972 -0.007425
# 5 0.000974 -0.003311 -0.004867 -0.000972 0.029460 0.003876
# 6 0.014325 0.002219 -0.004177 -0.007425 0.003876 0.032617
#
#
# Mechanical properties :
#
#
# Convention : Reuss Voigt Hill
#
# Bulk Modulus (GPa) = 36.13890 71.15049 53.64469
# Shear Modulus (GPa) = 30.34525 44.80980 37.57752
#
# Velocity S-wave (km/s) = 3.43885 4.17882 3.82676
# Velocity P-wave (km/s) = 5.46361 7.14220 6.35854
#
# Compressibility (1/GPa) = 0.02767101
#
# Stress axis : x y z
#
# Youngs Moduli (GPa) = 35.62593 139.76771 95.71538
#
# Poissons Ratio (x) = 0.35531 0.56623
# Poissons Ratio (y) = 0.09057 0.05192
# Poissons Ratio (z) = 0.21075 0.07582
#
# Static dielectric constant tensor:
#      x y z
#    x 1.977140 0.140850 -0.099960 
#    y 0.140850 2.039870 -0.003540 
#    z -0.099960 -0.003540 2.048410 
# 
# From -- ./inp_files/381249.got.cif
#   From: 2010.05.17/outbox.cif.g08.bks.cpg/sg2_191_cif.got.tgz:381249.got - 2010.06.03 11:33:40.
