data_PCOD9087942
_publ_section_title
;
Structure prediction by ZEFSAII (Michael W. Deem and Ramdas Pophale) SiO2 
 PCOD9087942
Probable space group: P -1
;
_chemical_formula_sum "Si O2"
_cell_formula_units_Z 15
_cell_length_a 6.848871
_cell_length_b 11.738545
_cell_length_c 13.328250
_cell_angle_alpha 31.912307
_cell_angle_beta 95.763246
_cell_angle_gamma 93.568840
_cell_volume 563.033643
_symmetry_space_group_name_H-M "P -1"
_symmetry_group_IT_number 2
_symmetry_cell_setting 'triclinic'
loop_
_space_group_symop_operation_xyz
x,y,z
-x,-y,-z
loop_
_atom_site_type_symbol
_atom_site_label
_atom_site_fract_x
_atom_site_fract_y
_atom_site_fract_z
Si Si1 0.721335 0.899953 0.193249
Si Si2 0.540902 0.724839 0.494524
Si Si3 0.125885 0.671999 0.933955
Si Si4 0.124253 0.880387 0.425850
Si Si5 0.006412 0.579368 0.205482
Si Si6 0.683975 0.059315 0.398582
Si Si7 0.000000 0.000000 0.000000
Si Si8 0.408994 0.265511 0.903675
O O1 0.637578 0.719384 0.393578
O O2 0.950672 0.932277 0.168278
O O3 0.689484 0.866254 0.096131
O O4 0.582366 0.102604 0.069882
O O5 0.332939 0.861192 0.392839
O O6 0.686377 0.853436 0.478186
O O7 0.492434 0.486015 0.703795
O O8 0.002994 0.900343 0.760524
O O9 0.141661 0.578416 0.115870
O O10 0.312964 0.734901 0.829746
O O11 0.000000 0.500000 0.000000
O O12 0.029843 0.650308 0.576444
O O13 0.166677 0.888066 0.543561
O O14 0.076455 0.751169 0.161181
O O15 0.784704 0.665863 0.095240
O O16 0.500000 0.000000 0.500000
#
# Coordination Sequence:
#
# PCOD9087942 Si02
#       8
#     2   2   2   2   2   2   1   2
#     4  10  19  37  57  84 119 151 204 239 301 353
#     4  10  20  38  60  85 118 156 199 248 302 360
#     4  12  23  39  67  89 117 167 211 242 304 374
#     4  10  22  41  61  88 122 162 199 256 305 356
#     4  10  21  40  61  88 123 153 207 244 306 359
#     4  10  22  40  56  86 123 151 199 251 299 353
#     4  10  22  38  60  90 122 156 192 262 294 356
#     4   9  20  36  59  84 115 160 192 249 294 362
#
# _framework density 26.641393000000001
#
# number of rings (size 3 to 8) (size 9 to 14) (size 15 to 20)
#    0.000    1.867    1.333    2.400    0.000    1.067 
#    2.400    2.667    0.000    0.000    0.000    0.000 
#    0.000    0.000    0.000    0.000    0.000    0.000 
#
# Total GULP energy -83580.982464 kJ/mol
# GULP energy per Si atom -5572.065498 kJ/mol
# Density = 2.658076 g / cm^3
# Si number density = 26.641393 Si / 1000 Ang^3
#
#
#
# Elastic Constant Matrix: (Units=GPa)
#
#
# Indices 1 2 3 4 5 6 
#
# 1 76.8486 9.4482 30.5602 8.4556 -1.5648 -28.1131
# 2 9.4482 87.6865 21.1665 -4.7285 -17.4263 -1.1942
# 3 30.5602 21.1665 166.2522 -10.0465 -36.5298 -14.0522
# 4 8.4556 -4.7285 -10.0465 62.9325 -9.9230 -23.0898
# 5 -1.5648 -17.4263 -36.5298 -9.9230 40.3703 3.9734
# 6 -28.1131 -1.1942 -14.0522 -23.0898 3.9734 45.3591
#
#
#
# Elastic Compliance Matrix: (Units=1/GPa)
#
#
# Indices 1 2 3 4 5 6 
#
# 1 0.018301 -0.001836 -0.003038 0.000291 -0.003827 0.010836
# 2 -0.001836 0.012907 0.000171 0.002151 0.006202 -0.000194
# 3 -0.003038 0.000171 0.008909 0.004022 0.008794 0.002159
# 4 0.000291 0.002151 0.004022 0.022525 0.008918 0.012168
# 5 -0.003827 0.006202 0.008794 0.008918 0.037273 0.001790
# 6 0.010836 -0.000194 0.002159 0.012168 0.001790 0.035463
#
#
# Mechanical properties :
#
#
# Convention : Reuss Voigt Hill
#
# Bulk Modulus (GPa) = 32.56176 50.34857 41.45516
# Shear Modulus (GPa) = 32.25371 47.70654 39.98013
#
# Velocity S-wave (km/s) = 3.48323 4.23625 3.87806
# Velocity P-wave (km/s) = 5.33160 6.54732 5.97048
#
# Compressibility (1/GPa) = 0.03071087
#
# Stress axis : x y z
#
# Youngs Moduli (GPa) = 54.64313 77.47837 112.24160
#
# Poissons Ratio (x) = 0.14224 0.34095
# Poissons Ratio (y) = 0.10032 -0.01915
# Poissons Ratio (z) = 0.16599 -0.01322
#
# Static dielectric constant tensor:
#      x y z
#    x 1.732270 -0.130180 0.183720 
#    y -0.130180 2.063580 0.069530 
#    z 0.183720 0.069530 2.018910 
# 
# From -- ./inp_files/89905.got.cif
#   From: 2010.05.17/outbox.cif.g08.bks.cpg/sg2_45_cif.got.tgz:89905.got - 2010.06.03 11:33:40.
