data_PCOD9087513
_publ_section_title
;
Structure prediction by ZEFSAII (Michael W. Deem and Ramdas Pophale) SiO2 
 PCOD9087513
Probable space group: P -1
;
_chemical_formula_sum "Si O2"
_cell_formula_units_Z 14
_cell_length_a 5.308607
_cell_length_b 9.594798
_cell_length_c 20.216846
_cell_angle_alpha 33.975858
_cell_angle_beta 81.730198
_cell_angle_gamma 94.054568
_cell_volume 534.824351
_symmetry_space_group_name_H-M "P -1"
_symmetry_group_IT_number 2
_symmetry_cell_setting 'triclinic'
loop_
_space_group_symop_operation_xyz
x,y,z
-x,-y,-z
loop_
_atom_site_type_symbol
_atom_site_label
_atom_site_fract_x
_atom_site_fract_y
_atom_site_fract_z
Si Si1 0.945475 0.753959 0.873337
Si Si2 0.936404 0.583186 0.259369
Si Si3 0.268684 0.487562 0.458176
Si Si4 0.798965 0.360160 0.214991
Si Si5 0.642985 0.822976 0.969895
Si Si6 0.540916 0.133418 0.518400
Si Si7 0.611477 0.890051 0.191278
O O1 0.011338 0.740377 0.800539
O O2 0.674931 0.757679 0.916678
O O3 0.160852 0.003252 0.803480
O O4 0.000000 0.500000 0.000000
O O5 0.950060 0.438707 0.248141
O O6 0.833593 0.369434 0.407272
O O7 0.670355 0.670088 0.231194
O O8 0.173773 0.869899 0.141726
O O9 0.500000 0.500000 0.500000
O O10 0.311527 0.256313 0.501191
O O11 0.357932 0.738617 0.306367
O O12 0.000000 0.500000 0.500000
O O13 0.517796 0.112968 0.332624
O O14 0.717844 0.606748 0.093067
O O15 0.358739 0.867537 0.955937
O O16 0.500000 0.000000 0.500000
#
# Coordination Sequence:
#
# PCOD9087513 Si02
#       7
#     2   2   2   2   2   2   2
#     4   9  20  37  57  85 124 159 208 269 327 389
#     4   9  20  39  61  87 123 172 218 272 328 408
#     4  11  25  42  72 102 135 182 240 281 339 419
#     4  10  19  36  64  87 128 167 215 277 339 401
#     4  10  21  37  63  89 125 169 216 268 334 406
#     4   9  20  40  67  94 138 174 227 287 347 400
#     4  10  22  38  62  90 127 167 223 274 335 400
#
# _framework density 26.176818000000001
#
# number of rings (size 3 to 8) (size 9 to 14) (size 15 to 20)
#    0.000    2.286    0.000    1.286    8.000    2.857 
#    0.000    2.143   12.571    0.000    0.000    0.000 
#    0.000    0.000    0.000    0.000    0.000    0.000 
#
# Total GULP energy -77982.516620 kJ/mol
# GULP energy per Si atom -5570.179759 kJ/mol
# Density = 2.611724 g / cm^3
# Si number density = 26.176818 Si / 1000 Ang^3
#
#
#
# Elastic Constant Matrix: (Units=GPa)
#
#
# Indices 1 2 3 4 5 6 
#
# 1 71.2090 14.1020 22.7526 -1.7896 7.2117 -5.3756
# 2 14.1020 157.8018 20.9778 6.4664 -11.7705 -20.1514
# 3 22.7526 20.9778 131.2975 -13.5175 8.4229 8.2180
# 4 -1.7896 6.4664 -13.5175 42.0310 -1.3570 -7.6161
# 5 7.2117 -11.7705 8.4229 -1.3570 34.9516 -4.6751
# 6 -5.3756 -20.1514 8.2180 -7.6161 -4.6751 19.5750
#
#
#
# Elastic Compliance Matrix: (Units=1/GPa)
#
#
# Indices 1 2 3 4 5 6 
#
# 1 0.015600 -0.000658 -0.002671 0.000644 -0.002175 0.004459
# 2 -0.000658 0.008406 -0.002202 0.000048 0.004916 0.010590
# 3 -0.002671 -0.002202 0.009267 0.001838 -0.003283 -0.006960
# 4 0.000644 0.000048 0.001838 0.026295 0.001815 0.010119
# 5 -0.002175 0.004916 -0.003283 0.001815 0.033524 0.014554
# 6 0.004459 0.010590 -0.006960 0.010119 0.014554 0.073546
#
#
# Mechanical properties :
#
#
# Convention : Reuss Voigt Hill
#
# Bulk Modulus (GPa) = 45.02717 52.88591 48.95654
# Shear Modulus (GPa) = 27.01189 39.47658 33.24423
#
# Velocity S-wave (km/s) = 3.21581 3.88761 3.56755
# Velocity P-wave (km/s) = 5.57019 6.35598 5.97602
#
# Compressibility (1/GPa) = 0.02220882
#
# Stress axis : x y z
#
# Youngs Moduli (GPa) = 64.10174 118.96842 107.91525
#
# Poissons Ratio (x) = 0.07830 0.28829
# Poissons Ratio (y) = 0.04219 0.23764
# Poissons Ratio (z) = 0.17124 0.26198
#
# Static dielectric constant tensor:
#      x y z
#    x 2.338250 0.037760 -0.095380 
#    y 0.037760 2.092640 0.044330 
#    z -0.095380 0.044330 2.257440 
# 
# From -- ./inp_files/582171.got.cif
#   From: 2010.05.17/outbox.cif.g08.bks.cpg/sg2_292_cif.got.tgz:582171.got - 2010.06.03 11:33:40.
