data_PCOD9087926
_publ_section_title
;
Structure prediction by ZEFSAII (Michael W. Deem and Ramdas Pophale) SiO2 
 PCOD9087926
Probable space group: P -1
;
_chemical_formula_sum "Si O2"
_cell_formula_units_Z 16
_cell_length_a 9.514640
_cell_length_b 17.282611
_cell_length_c 13.462035
_cell_angle_alpha 119.025568
_cell_angle_beta 136.015996
_cell_angle_gamma 94.797317
_cell_volume 942.991039
_symmetry_space_group_name_H-M "P -1"
_symmetry_group_IT_number 2
_symmetry_cell_setting 'triclinic'
loop_
_space_group_symop_operation_xyz
x,y,z
-x,-y,-z
loop_
_atom_site_type_symbol
_atom_site_label
_atom_site_fract_x
_atom_site_fract_y
_atom_site_fract_z
Si Si1 0.737282 0.215497 0.453262
Si Si2 0.254393 0.955935 0.977708
Si Si3 0.361057 0.425942 0.985607
Si Si4 0.389217 0.826060 0.851858
Si Si5 0.316235 0.240977 0.325036
Si Si6 0.344146 0.613346 0.745421
Si Si7 0.252282 0.512343 0.166053
Si Si8 0.670092 0.614448 0.735806
O O1 0.813911 0.248079 0.395160
O O2 0.534316 0.235174 0.390366
O O3 0.023322 0.301202 0.716353
O O4 0.525772 0.064678 0.253928
O O5 0.328318 0.040349 0.971814
O O6 0.263973 0.858009 0.884681
O O7 0.955426 0.883426 0.832903
O O8 0.500000 0.500000 0.000000
O O9 0.522801 0.393090 0.095264
O O10 0.376967 0.507522 0.127107
O O11 0.435132 0.744019 0.867554
O O12 0.502907 0.359003 0.568883
O O13 0.201456 0.267777 0.193852
O O14 0.463182 0.598848 0.700013
O O15 0.000000 0.500000 0.500000
O O16 0.149502 0.398661 0.113792
O O17 0.000000 0.500000 0.000000
O O18 0.500000 0.500000 0.500000
#
# Coordination Sequence:
#
# PCOD9087926 Si02
#       8
#     2   2   2   2   2   2   2   2
#     4  10  19  37  57  80 114 146 192 238 278 334
#     4   9  21  35  64  84 110 155 196 234 274 336
#     4  11  24  36  56  84 117 152 189 232 298 343
#     4   9  20  38  58  82 115 145 201 235 275 332
#     4  11  19  35  62  85 113 148 199 229 284 340
#     4  11  22  36  59  84 113 152 190 236 291 335
#     4  10  21  36  53  82 120 147 178 241 294 329
#     4   9  20  33  54  83 112 143 186 237 273 341
#
# _framework density 16.967286000000001
#
# number of rings (size 3 to 8) (size 9 to 14) (size 15 to 20)
#    0.750    1.250    2.500    1.125    7.000    0.000 
#    0.000    0.625    2.750    2.250    0.000    0.000 
#    0.000    0.000    0.000    0.000    0.000    0.000 
#
# Total GULP energy -89080.264695 kJ/mol
# GULP energy per Si atom -5567.516543 kJ/mol
# Density = 1.692867 g / cm^3
# Si number density = 16.967286 Si / 1000 Ang^3
#
#
#
# Elastic Constant Matrix: (Units=GPa)
#
#
# Indices 1 2 3 4 5 6 
#
# 1 70.5429 46.7433 41.0393 -1.4879 -13.4600 -12.5019
# 2 46.7433 112.5887 31.4808 -16.4325 6.4111 -15.0964
# 3 41.0393 31.4808 69.9498 -6.2099 -1.9659 -6.5522
# 4 -1.4879 -16.4325 -6.2099 23.6102 -1.6137 -1.4643
# 5 -13.4600 6.4111 -1.9659 -1.6137 33.7898 1.3727
# 6 -12.5019 -15.0964 -6.5522 -1.4643 1.3727 28.0412
#
#
#
# Elastic Compliance Matrix: (Units=1/GPa)
#
#
# Indices 1 2 3 4 5 6 
#
# 1 0.033206 -0.011185 -0.014386 -0.008256 0.013943 0.004308
# 2 -0.011185 0.015896 0.000552 0.010301 -0.007134 0.004587
# 3 -0.014386 0.000552 0.022797 0.005164 -0.004250 -0.000312
# 4 -0.008256 0.010301 0.005164 0.050535 -0.002767 0.005846
# 5 0.013943 -0.007134 -0.004250 -0.002767 0.036145 -0.000531
# 6 0.004308 0.004587 -0.000312 0.005846 -0.000531 0.040310
#
#
# Mechanical properties :
#
#
# Convention : Reuss Voigt Hill
#
# Bulk Modulus (GPa) = 45.74165 54.62315 50.18240
# Shear Modulus (GPa) = 19.51492 26.00946 22.76219
#
# Velocity S-wave (km/s) = 3.39506 3.91950 3.66667
# Velocity P-wave (km/s) = 6.51044 7.26267 6.89682
#
# Compressibility (1/GPa) = 0.02186191
#
# Stress axis : x y z
#
# Youngs Moduli (GPa) = 30.11493 62.90922 43.86477
#
# Poissons Ratio (x) = 0.70364 0.63102
# Poissons Ratio (y) = 0.33684 -0.02421
# Poissons Ratio (z) = 0.43322 -0.03472
#
# Static dielectric constant tensor:
#      x y z
#    x 1.587030 0.006340 -0.010900 
#    y 0.006340 1.595910 0.008440 
#    z -0.010900 0.008440 1.572940 
# 
# From -- ./inp_files/222083.got.cif
#   From: 2010.05.17/outbox.cif.g08.bks.cpg/sg2_112_cif.got.tgz:222083.got - 2010.06.03 11:33:40.
