data_PCOD9087701
_publ_section_title
;
Structure prediction by ZEFSAII (Michael W. Deem and Ramdas Pophale) SiO2 
 PCOD9087701
Probable space group: P -1
;
_chemical_formula_sum "Si O2"
_cell_formula_units_Z 14
_cell_length_a 9.124244
_cell_length_b 12.322911
_cell_length_c 10.701973
_cell_angle_alpha 70.529934
_cell_angle_beta 89.942985
_cell_angle_gamma 142.955890
_cell_volume 603.203588
_symmetry_space_group_name_H-M "P -1"
_symmetry_group_IT_number 2
_symmetry_cell_setting 'triclinic'
loop_
_space_group_symop_operation_xyz
x,y,z
-x,-y,-z
loop_
_atom_site_type_symbol
_atom_site_label
_atom_site_fract_x
_atom_site_fract_y
_atom_site_fract_z
Si Si1 0.730599 0.072189 0.417953
Si Si2 0.304489 0.642794 0.421669
Si Si3 0.819131 0.664370 0.320462
Si Si4 0.368528 0.886213 0.174501
Si Si5 0.069054 0.675675 0.896851
Si Si6 0.095144 0.995075 0.377657
Si Si7 0.395663 0.509842 0.882207
O O1 0.966552 0.293614 0.252720
O O2 0.857166 0.097800 0.528686
O O3 0.500000 0.000000 0.500000
O O4 0.554412 0.860376 0.422233
O O5 0.304924 0.510086 0.512600
O O6 0.355823 0.739816 0.251814
O O7 0.000000 0.500000 0.500000
O O8 0.650944 0.569874 0.227684
O O9 0.091316 0.773098 0.236928
O O10 0.893337 0.632678 0.011406
O O11 0.601993 0.090634 0.187281
O O12 0.500000 0.000000 0.000000
O O13 0.000000 0.500000 0.000000
O O14 0.897351 0.835534 0.322510
O O15 0.373728 0.238391 0.234054
O O16 0.000000 0.000000 0.500000
O O17 0.500000 0.500000 0.000000
#
# Coordination Sequence:
#
# PCOD9087701 Si02
#       7
#     2   2   2   2   2   2   2
#     4  11  21  40  69 102 140 180 234 293 352 424
#     4   9  19  35  62 100 134 178 225 284 352 416
#     4  11  23  45  72 101 144 188 238 300 358 426
#     4  10  19  36  66 106 144 177 227 292 362 426
#     4  11  23  39  68 104 144 182 231 297 361 420
#     4  12  27  48  71 101 139 188 249 297 353 433
#     4  12  26  48  71 100 146 192 241 294 363 435
#
# _framework density 23.209409999999998
#
# number of rings (size 3 to 8) (size 9 to 14) (size 15 to 20)
#    0.000    1.143    2.857    5.143    0.000    2.286 
#    0.000    1.429    0.000    0.000    0.000    0.000 
#    0.000    0.000    0.000    0.000    0.000    0.000 
#
# Total GULP energy -78064.438698 kJ/mol
# GULP energy per Si atom -5576.031336 kJ/mol
# Density = 2.315658 g / cm^3
# Si number density = 23.209410 Si / 1000 Ang^3
#
#
#
# Elastic Constant Matrix: (Units=GPa)
#
#
# Indices 1 2 3 4 5 6 
#
# 1 47.4766 26.3370 18.1885 13.4660 -9.0602 -0.2151
# 2 26.3370 130.4027 42.6574 7.2543 12.4602 -11.0061
# 3 18.1885 42.6574 180.5992 6.6525 11.4410 -6.1806
# 4 13.4660 7.2543 6.6525 35.8865 3.5977 0.7117
# 5 -9.0602 12.4602 11.4410 3.5977 32.6397 1.2480
# 6 -0.2151 -11.0061 -6.1806 0.7117 1.2480 34.9225
#
#
#
# Elastic Compliance Matrix: (Units=1/GPa)
#
#
# Indices 1 2 3 4 5 6 
#
# 1 0.031146 -0.006437 -0.002120 -0.011266 0.013181 -0.002453
# 2 -0.006437 0.010122 -0.001334 0.001099 -0.005422 0.003086
# 3 -0.002120 -0.001334 0.006233 0.000126 -0.002307 0.000749
# 4 -0.011266 0.001099 0.000126 0.032569 -0.007177 -0.000108
# 5 0.013181 -0.005422 -0.002307 -0.007177 0.038090 -0.003251
# 6 -0.002453 0.003086 0.000749 -0.000108 -0.003251 0.029843
#
#
# Mechanical properties :
#
#
# Convention : Reuss Voigt Hill
#
# Bulk Modulus (GPa) = 36.07664 59.20493 47.64078
# Shear Modulus (GPa) = 28.24453 38.77610 33.51032
#
# Velocity S-wave (km/s) = 3.49226 4.09186 3.80389
# Velocity P-wave (km/s) = 5.64259 6.92018 6.31378
#
# Compressibility (1/GPa) = 0.02771877
#
# Stress axis : x y z
#
# Youngs Moduli (GPa) = 32.10717 98.79120 160.43903
#
# Poissons Ratio (x) = 0.63588 0.34020
# Poissons Ratio (y) = 0.20666 0.21403
# Poissons Ratio (z) = 0.06808 0.13179
#
# Static dielectric constant tensor:
#      x y z
#    x 1.865550 -0.109260 -0.146610 
#    y -0.109260 1.821320 -0.420400 
#    z -0.146610 -0.420400 1.198640 
# 
# From -- ./inp_files/341936.got.cif
#   From: 2010.05.17/outbox.cif.g08.bks.cpg/sg2_171_cif.got.tgz:341936.got - 2010.06.03 11:33:40.
