data_PCOD9087608
_publ_section_title
;
Structure prediction by ZEFSAII (Michael W. Deem and Ramdas Pophale) SiO2 
 PCOD9087608
Probable space group: P -1
;
_chemical_formula_sum "Si O2"
_cell_formula_units_Z 16
_cell_length_a 11.685496
_cell_length_b 8.370392
_cell_length_c 15.532279
_cell_angle_alpha 98.644505
_cell_angle_beta 154.891507
_cell_angle_gamma 84.692700
_cell_volume 633.891828
_symmetry_space_group_name_H-M "P -1"
_symmetry_group_IT_number 2
_symmetry_cell_setting 'triclinic'
loop_
_space_group_symop_operation_xyz
x,y,z
-x,-y,-z
loop_
_atom_site_type_symbol
_atom_site_label
_atom_site_fract_x
_atom_site_fract_y
_atom_site_fract_z
Si Si1 0.717571 0.369380 0.126137
Si Si2 0.429492 0.874490 0.144237
Si Si3 0.802301 0.360197 0.534507
Si Si4 0.102684 0.018830 0.188999
Si Si5 0.084488 0.324754 0.899200
Si Si6 0.361307 0.779616 0.760318
Si Si7 0.419848 0.129536 0.573734
Si Si8 0.651668 0.482669 0.692707
O O1 0.734197 0.252292 0.210386
O O2 0.013257 0.468045 0.327180
O O3 0.500000 0.500000 0.000000
O O4 0.618530 0.271187 0.966038
O O5 0.636422 0.869325 0.363537
O O6 0.514724 0.037177 0.160655
O O7 0.142042 0.884510 0.999321
O O8 0.917663 0.284418 0.693158
O O9 0.833395 0.272315 0.457518
O O10 0.485288 0.385023 0.334230
O O11 0.173113 0.089305 0.337452
O O12 0.978462 0.833830 0.098586
O O13 0.380669 0.009637 0.326428
O O14 0.963320 0.474261 0.876588
O O15 0.396899 0.337876 0.090707
O O16 0.555946 0.306950 0.653213
O O17 0.500000 0.500000 0.500000
#
# Coordination Sequence:
#
# PCOD9087608 Si02
#       8
#     2   2   2   2   2   2   2   2
#     4  12  26  46  66  91 134 177 224 284 322 375
#     4  11  24  42  67  95 129 173 222 267 331 388
#     4  11  22  41  68  93 130 173 222 268 334 388
#     4   9  19  37  62  95 134 168 207 266 327 390
#     4   9  19  39  61  95 134 164 208 270 325 395
#     4  11  24  44  67  94 128 175 222 274 329 385
#     4  10  19  36  64  96 133 170 215 260 325 401
#     4   9  20  36  61  97 131 168 205 263 328 391
#
# _framework density 25.2409
#
# number of rings (size 3 to 8) (size 9 to 14) (size 15 to 20)
#    0.000    1.750    1.250    2.625    1.750    1.500 
#    2.250   10.625    0.000    0.000    0.000    0.000 
#    0.000    0.000    0.000    0.000    0.000    0.000 
#
# Total GULP energy -89458.800041 kJ/mol
# GULP energy per Si atom -5591.175003 kJ/mol
# Density = 2.518345 g / cm^3
# Si number density = 25.240900 Si / 1000 Ang^3
#
#
#
# Elastic Constant Matrix: (Units=GPa)
#
#
# Indices 1 2 3 4 5 6 
#
# 1 70.9871 27.0840 25.6367 0.3523 -22.5166 9.8914
# 2 27.0840 78.6523 21.1106 -0.0627 -10.9658 12.7958
# 3 25.6367 21.1106 100.8911 10.3987 -25.0538 -15.5728
# 4 0.3523 -0.0627 10.3987 33.2826 -7.2744 4.0166
# 5 -22.5166 -10.9658 -25.0538 -7.2744 43.7245 9.4597
# 6 9.8914 12.7958 -15.5728 4.0166 9.4597 30.6064
#
#
#
# Elastic Compliance Matrix: (Units=1/GPa)
#
#
# Indices 1 2 3 4 5 6 
#
# 1 0.022313 -0.002683 -0.004715 0.005356 0.011783 -0.012833
# 2 -0.002683 0.016621 -0.003774 0.003063 0.003163 -0.009382
# 3 -0.004715 -0.003774 0.014537 -0.005404 0.001748 0.010667
# 4 0.005356 0.003063 -0.005404 0.035281 0.009160 -0.013222
# 5 0.011783 0.003163 0.001748 0.009160 0.035831 -0.016518
# 6 -0.012833 -0.009382 0.010667 -0.013222 -0.016518 0.053011
#
#
# Mechanical properties :
#
#
# Convention : Reuss Voigt Hill
#
# Bulk Modulus (GPa) = 32.12736 44.24369 38.18553
# Shear Modulus (GPa) = 23.77402 33.30264 28.53833
#
# Velocity S-wave (km/s) = 3.07234 3.63628 3.36614
# Velocity P-wave (km/s) = 5.03405 5.93268 5.50174
#
# Compressibility (1/GPa) = 0.03112612
#
# Stress axis : x y z
#
# Youngs Moduli (GPa) = 44.81750 60.16545 68.78910
#
# Poissons Ratio (x) = 0.16142 0.32435
# Poissons Ratio (y) = 0.12024 0.25963
# Poissons Ratio (z) = 0.21132 0.22708
#
# Static dielectric constant tensor:
#      x y z
#    x 2.054350 -0.051530 0.003440 
#    y -0.051530 1.978300 -0.061150 
#    z 0.003440 -0.061150 1.990240 
# 
# From -- ./inp_files/516036.got.cif
#   From: 2010.05.17/outbox.cif.g08.bks.cpg/sg2_259_cif.got.tgz:516036.got - 2010.06.03 11:33:40.
