data_PCOD9087169
_publ_section_title
;
Structure prediction by ZEFSAII (Michael W. Deem and Ramdas Pophale) SiO2 
 PCOD9087169
Probable space group: P -1
;
_chemical_formula_sum "Si O2"
_cell_formula_units_Z 14
_cell_length_a 8.945904
_cell_length_b 17.307432
_cell_length_c 5.740613
_cell_angle_alpha 45.543512
_cell_angle_beta 51.508950
_cell_angle_gamma 55.939569
_cell_volume 484.150080
_symmetry_space_group_name_H-M "P -1"
_symmetry_group_IT_number 2
_symmetry_cell_setting 'triclinic'
loop_
_space_group_symop_operation_xyz
x,y,z
-x,-y,-z
loop_
_atom_site_type_symbol
_atom_site_label
_atom_site_fract_x
_atom_site_fract_y
_atom_site_fract_z
Si Si1 0.919066 0.154882 0.859476
Si Si2 0.813413 0.386043 0.901573
Si Si3 0.077398 0.378345 0.282399
Si Si4 0.109308 0.875783 0.540103
Si Si5 0.468598 0.129585 0.314061
Si Si6 0.433885 0.410311 0.025514
Si Si7 0.447788 0.187205 0.721033
O O1 0.987561 0.272358 0.536322
O O2 0.989426 0.095014 0.674980
O O3 0.982488 0.097304 0.171277
O O4 0.680269 0.166443 0.057042
O O5 0.021218 0.394684 0.577806
O O6 0.695386 0.471622 0.020924
O O7 0.852059 0.259546 0.209098
O O8 0.659279 0.412581 0.775727
O O9 0.310589 0.362870 0.052212
O O10 0.000000 0.500000 0.000000
O O11 0.332505 0.889481 0.306963
O O12 0.374931 0.150757 0.619682
O O13 0.500000 0.000000 0.500000
O O14 0.359366 0.178631 0.077826
O O15 0.449142 0.316099 0.408427
#
# Coordination Sequence:
#
# PCOD9087169 Si02
#       7
#     2   2   2   2   2   2   2
#     4   9  18  32  52  80 111 143 190 239 281 340
#     4   9  19  35  54  81 119 161 208 241 283 349
#     4  11  22  34  55  86 123 166 205 238 291 354
#     4   8  15  31  51  74 110 147 182 232 278 331
#     4  10  19  36  62  86 112 151 196 247 308 365
#     4  10  20  35  56  83 120 162 200 251 296 343
#     4   9  19  33  54  86 115 145 192 244 300 358
#
# _framework density 28.916656
#
# number of rings (size 3 to 8) (size 9 to 14) (size 15 to 20)
#    0.000    2.571    0.000    2.571    0.000    4.000 
#    0.000    2.857    0.000    1.714    0.000    0.000 
#    0.000    0.000    0.000    0.000    0.000    0.000 
#
# Total GULP energy -78156.463798 kJ/mol
# GULP energy per Si atom -5582.604557 kJ/mol
# Density = 2.885084 g / cm^3
# Si number density = 28.916656 Si / 1000 Ang^3
#
#
#
# Elastic Constant Matrix: (Units=GPa)
#
#
# Indices 1 2 3 4 5 6 
#
# 1 123.9733 22.6769 59.6792 28.2333 -7.8533 21.1323
# 2 22.6769 156.7927 34.2738 18.2620 8.1980 66.8457
# 3 59.6792 34.2738 137.3063 1.8451 15.7170 24.5082
# 4 28.2333 18.2620 1.8451 46.2108 8.6166 3.8219
# 5 -7.8533 8.1980 15.7170 8.6166 69.6546 22.1597
# 6 21.1323 66.8457 24.5082 3.8219 22.1597 46.7080
#
#
#
# Elastic Compliance Matrix: (Units=1/GPa)
#
#
# Indices 1 2 3 4 5 6 
#
# 1 0.017467 0.009368 -0.007145 -0.014376 0.011153 -0.021675
# 2 0.009368 0.026555 -0.004012 -0.015108 0.015406 -0.046209
# 3 -0.007145 -0.004012 0.010979 0.006055 -0.005211 0.005191
# 4 -0.014376 -0.015108 0.006055 0.036540 -0.014975 0.029064
# 5 0.011153 0.015406 -0.005211 -0.014975 0.028489 -0.036651
# 6 -0.021675 -0.046209 0.005191 0.029064 -0.036651 0.109634
#
#
# Mechanical properties :
#
#
# Convention : Reuss Voigt Hill
#
# Bulk Modulus (GPa) = 19.44732 72.37026 45.90879
# Shear Modulus (GPa) = 19.96928 52.61083 36.29005
#
# Velocity S-wave (km/s) = 2.63074 4.27006 3.54642
# Velocity P-wave (km/s) = 3.99595 7.02800 5.71666
#
# Compressibility (1/GPa) = 0.05142098
#
# Stress axis : x y z
#
# Youngs Moduli (GPa) = 57.24975 37.65800 91.08631
#
# Poissons Ratio (x) = -0.35276 0.65081
# Poissons Ratio (y) = -0.53629 0.36548
# Poissons Ratio (z) = 0.40905 0.15110
#
# Static dielectric constant tensor:
#      x y z
#    x 2.365350 0.061260 0.028630 
#    y 0.061260 2.302710 -0.012640 
#    z 0.028630 -0.012640 2.222480 
# 
# From -- ./inp_files/46133.got.cif
#   From: 2010.05.17/outbox.cif.g08.bks.cpg/sg2_24_cif.got.tgz:46133.got - 2010.06.03 11:33:40.
