data_PCOD9087490
_publ_section_title
;
Structure prediction by ZEFSAII (Michael W. Deem and Ramdas Pophale) SiO2 
 PCOD9087490
Probable space group: P -1
;
_chemical_formula_sum "Si O2"
_cell_formula_units_Z 16
_cell_length_a 7.893088
_cell_length_b 23.115612
_cell_length_c 9.049939
_cell_angle_alpha 77.646543
_cell_angle_beta 131.230714
_cell_angle_gamma 63.617335
_cell_volume 732.967767
_symmetry_space_group_name_H-M "P -1"
_symmetry_group_IT_number 2
_symmetry_cell_setting 'triclinic'
loop_
_space_group_symop_operation_xyz
x,y,z
-x,-y,-z
loop_
_atom_site_type_symbol
_atom_site_label
_atom_site_fract_x
_atom_site_fract_y
_atom_site_fract_z
Si Si1 0.666845 0.120999 0.343478
Si Si2 0.704988 0.095875 0.061689
Si Si3 0.525675 0.740317 0.282040
Si Si4 0.601553 0.590107 0.308724
Si Si5 0.807293 0.891562 0.304136
Si Si6 0.553377 0.738509 0.651945
Si Si7 0.962305 0.544159 0.104170
Si Si8 0.672999 0.398383 0.141612
O O1 0.502846 0.135740 0.085348
O O2 0.418436 0.203891 0.280601
O O3 0.951435 0.114041 0.454113
O O4 0.914551 0.019167 0.621283
O O5 0.752379 0.151373 0.994895
O O6 0.436346 0.113919 0.788463
O O7 0.504034 0.678893 0.237676
O O8 0.536371 0.737243 0.467291
O O9 0.934015 0.680313 0.509165
O O10 0.000000 0.500000 0.500000
O O11 0.689930 0.539285 0.541717
O O12 0.310001 0.622436 0.010385
O O13 0.140695 0.804215 0.433043
O O14 0.500000 0.000000 0.000000
O O15 0.862215 0.631514 0.957906
O O16 0.601709 0.591199 0.950031
O O17 0.000000 0.500000 0.000000
O O18 0.500000 0.500000 0.000000
#
# Coordination Sequence:
#
# PCOD9087490 Si02
#       8
#     2   2   2   2   2   2   2   2
#     4   8  20  37  58  86 113 145 197 243 290 352
#     4  10  19  36  64  82 109 153 197 238 292 355
#     4  12  23  38  58  89 117 154 199 241 294 351
#     4  10  22  39  61  82 122 156 192 245 295 339
#     4   8  17  38  60  81 111 152 189 239 291 348
#     4  10  21  38  58  84 123 152 191 247 292 342
#     4  11  20  39  63  84 120 156 191 247 293 342
#     4  11  22  40  61  84 116 157 201 236 288 358
#
# _framework density 21.829063000000001
#
# number of rings (size 3 to 8) (size 9 to 14) (size 15 to 20)
#    0.750    1.250    3.750    0.750    3.500    0.500 
#    2.250    2.500    0.000    2.250    0.000    0.000 
#    0.000    0.000    0.000    0.000    0.000    0.000 
#
# Total GULP energy -89114.162751 kJ/mol
# GULP energy per Si atom -5569.635172 kJ/mol
# Density = 2.177938 g / cm^3
# Si number density = 21.829063 Si / 1000 Ang^3
#
#
#
# Elastic Constant Matrix: (Units=GPa)
#
#
# Indices 1 2 3 4 5 6 
#
# 1 44.4106 23.6087 22.6826 -7.1785 -21.2169 10.7568
# 2 23.6087 151.5070 40.5815 -12.1102 -29.4325 18.1281
# 3 22.6826 40.5815 66.3623 4.8810 -17.7501 16.8046
# 4 -7.1785 -12.1102 4.8810 36.1757 9.0290 -9.4621
# 5 -21.2169 -29.4325 -17.7501 9.0290 32.8060 -4.0514
# 6 10.7568 18.1281 16.8046 -9.4621 -4.0514 26.5611
#
#
#
# Elastic Compliance Matrix: (Units=1/GPa)
#
#
# Indices 1 2 3 4 5 6 
#
# 1 0.036801 0.000773 -0.005622 0.001100 0.020110 -0.008415
# 2 0.000773 0.009047 -0.003623 0.001471 0.005910 -0.002770
# 3 -0.005622 -0.003623 0.026122 -0.011863 0.008699 -0.014676
# 4 0.001100 0.001471 -0.011863 0.037690 -0.012592 0.017562
# 5 0.020110 0.005910 0.008699 -0.012592 0.055266 -0.013738
# 6 -0.008415 -0.002770 -0.014676 0.017562 -0.013738 0.056394
#
#
# Mechanical properties :
#
#
# Convention : Reuss Voigt Hill
#
# Bulk Modulus (GPa) = 18.17324 48.44726 33.31025
# Shear Modulus (GPa) = 19.48499 30.80236 25.14367
#
# Velocity S-wave (km/s) = 2.99091 3.76050 3.39756
# Velocity P-wave (km/s) = 4.50230 6.41071 5.53931
#
# Compressibility (1/GPa) = 0.05502596
#
# Stress axis : x y z
#
# Youngs Moduli (GPa) = 27.17282 110.52883 38.28240
#
# Poissons Ratio (x) = -0.08542 0.21524
# Poissons Ratio (y) = -0.02100 0.13869
# Poissons Ratio (z) = 0.15277 0.40043
#
# Static dielectric constant tensor:
#      x y z
#    x 1.821650 0.018170 0.017350 
#    y 0.018170 1.836850 -0.008780 
#    z 0.017350 -0.008780 1.792860 
# 
# From -- ./inp_files/225436.got.cif
#   From: 2010.05.17/outbox.cif.g08.bks.cpg/sg2_113_cif.got.tgz:225436.got - 2010.06.03 11:33:40.
