data_PCOD9087272
_publ_section_title
;
Structure prediction by ZEFSAII (Michael W. Deem and Ramdas Pophale) SiO2 
 PCOD9087272
Probable space group: P -1
;
_chemical_formula_sum "Si O2"
_cell_formula_units_Z 14
_cell_length_a 9.634203
_cell_length_b 8.777544
_cell_length_c 14.086646
_cell_angle_alpha 46.756794
_cell_angle_beta 73.277226
_cell_angle_gamma 108.894751
_cell_volume 552.746374
_symmetry_space_group_name_H-M "P -1"
_symmetry_group_IT_number 2
_symmetry_cell_setting 'triclinic'
loop_
_space_group_symop_operation_xyz
x,y,z
-x,-y,-z
loop_
_atom_site_type_symbol
_atom_site_label
_atom_site_fract_x
_atom_site_fract_y
_atom_site_fract_z
Si Si1 0.122449 0.360429 0.814594
Si Si2 0.859711 0.800111 0.308831
Si Si3 0.262646 0.903481 0.877198
Si Si4 0.444531 0.277284 0.317355
Si Si5 0.729783 0.511943 0.004368
Si Si6 0.040661 0.279239 0.332038
Si Si7 0.339783 0.595309 0.295033
O O1 0.158904 0.405814 0.675255
O O2 0.353422 0.606986 0.716047
O O3 0.946848 0.318006 0.918263
O O4 0.000000 0.000000 0.000000
O O5 0.794753 0.656194 0.486520
O O6 0.719315 0.848279 0.279326
O O7 0.100958 0.156400 0.117124
O O8 0.471759 0.080752 0.825217
O O9 0.242946 0.705564 0.886440
O O10 0.447989 0.521869 0.246433
O O11 0.212302 0.927144 0.539433
O O12 0.496911 0.319825 0.176207
O O13 0.813089 0.597971 0.842830
O O14 0.181112 0.538824 0.277094
O O15 0.000000 0.000000 0.500000
#
# Coordination Sequence:
#
# PCOD9087272 Si02
#       7
#     2   2   2   2   2   2   2
#     4  10  19  36  62  92 123 160 210 244 315 376
#     4  11  20  39  64  95 123 167 205 253 310 380
#     4  11  23  39  63  97 130 158 204 267 319 368
#     4  11  21  41  65  93 122 166 213 254 303 384
#     4  12  23  41  65  95 130 162 204 265 320 353
#     4  10  24  43  63  91 123 169 219 252 297 377
#     4  11  22  43  65  89 126 167 218 252 300 379
#
# _framework density 25.328074000000001
#
# number of rings (size 3 to 8) (size 9 to 14) (size 15 to 20)
#    0.000    1.143    8.571    0.857    0.000    2.857 
#    5.143    2.143    0.000    0.000    0.000    0.000 
#    0.000    0.000    0.000    0.000    0.000    0.000 
#
# Total GULP energy -78277.500803 kJ/mol
# GULP energy per Si atom -5591.250057 kJ/mol
# Density = 2.527043 g / cm^3
# Si number density = 25.328074 Si / 1000 Ang^3
#
#
#
# Elastic Constant Matrix: (Units=GPa)
#
#
# Indices 1 2 3 4 5 6 
#
# 1 65.3611 33.4361 30.0170 4.3943 -20.6883 16.7956
# 2 33.4361 109.9326 55.7367 31.3657 -9.6528 13.7886
# 3 30.0170 55.7367 146.3087 16.4631 -7.9472 11.7668
# 4 4.3943 31.3657 16.4631 56.4982 8.3294 -10.0090
# 5 -20.6883 -9.6528 -7.9472 8.3294 32.4943 -0.9636
# 6 16.7956 13.7886 11.7668 -10.0090 -0.9636 53.9155
#
#
#
# Elastic Compliance Matrix: (Units=1/GPa)
#
#
# Indices 1 2 3 4 5 6 
#
# 1 0.024518 -0.003576 -0.002063 -0.002613 0.014520 -0.006498
# 2 -0.003576 0.015054 -0.003639 -0.008103 0.003282 -0.003387
# 3 -0.002063 -0.003639 0.008713 -0.000405 -0.000171 -0.000407
# 4 -0.002613 -0.008103 -0.000405 0.025390 -0.010455 0.007501
# 5 0.014520 0.003282 -0.000171 -0.010455 0.043440 -0.006490
# 6 -0.006498 -0.003387 -0.000407 0.007501 -0.006490 0.022804
#
#
# Mechanical properties :
#
#
# Convention : Reuss Voigt Hill
#
# Bulk Modulus (GPa) = 33.63545 62.22019 47.92782
# Shear Modulus (GPa) = 29.69432 42.07575 35.88504
#
# Velocity S-wave (km/s) = 3.42773 4.08024 3.76814
# Velocity P-wave (km/s) = 5.38280 6.84228 6.15595
#
# Compressibility (1/GPa) = 0.02973053
#
# Stress axis : x y z
#
# Youngs Moduli (GPa) = 40.78704 66.42788 114.76815
#
# Poissons Ratio (x) = 0.23754 0.23671
# Poissons Ratio (y) = 0.14585 0.41761
# Poissons Ratio (z) = 0.08412 0.24171
#
# Static dielectric constant tensor:
#      x y z
#    x 2.140340 0.027990 0.044190 
#    y 0.027990 2.010730 -0.002370 
#    z 0.044190 -0.002370 2.063860 
# 
# From -- ./inp_files/515185.got.cif
#   From: 2010.05.17/outbox.cif.g08.bks.cpg/sg2_258_cif.got.tgz:515185.got - 2010.06.03 11:33:40.
