data_PCOD9087615
_publ_section_title
;
Structure prediction by ZEFSAII (Michael W. Deem and Ramdas Pophale) SiO2 
 PCOD9087615
Probable space group: P -1
;
_chemical_formula_sum "Si O2"
_cell_formula_units_Z 12
_cell_length_a 9.358202
_cell_length_b 7.280292
_cell_length_c 11.603676
_cell_angle_alpha 43.838331
_cell_angle_beta 77.448331
_cell_angle_gamma 100.924441
_cell_volume 459.053665
_symmetry_space_group_name_H-M "P -1"
_symmetry_group_IT_number 2
_symmetry_cell_setting 'triclinic'
loop_
_space_group_symop_operation_xyz
x,y,z
-x,-y,-z
loop_
_atom_site_type_symbol
_atom_site_label
_atom_site_fract_x
_atom_site_fract_y
_atom_site_fract_z
Si Si1 0.845223 0.515340 0.405735
Si Si2 0.576118 0.471564 0.804141
Si Si3 0.937165 0.680439 0.088486
Si Si4 0.359337 0.213437 0.580277
Si Si5 0.226918 0.563472 0.006955
Si Si6 0.746719 0.128276 0.802135
O O1 0.050339 0.672170 0.301547
O O2 0.797014 0.457390 0.306373
O O3 0.802858 0.754687 0.368114
O O4 0.000000 0.000000 0.000000
O O5 0.607032 0.728820 0.588070
O O6 0.658774 0.298257 0.801125
O O7 0.671181 0.535862 0.881428
O O8 0.377541 0.219713 0.974836
O O9 0.869942 0.658488 0.982080
O O10 0.083851 0.595241 0.088217
O O11 0.500000 0.500000 0.500000
O O12 0.253295 0.803840 0.363832
O O13 0.338503 0.900691 0.776142
#
# Coordination Sequence:
#
# PCOD9087615 Si02
#       6
#     2   2   2   2   2   2
#     4  10  19  36  64  98 130 181 232 276 334 409
#     4  10  20  39  63 100 142 177 226 281 341 413
#     4  11  23  42  69 102 137 181 233 288 337 409
#     4  11  23  40  70 105 139 186 223 279 351 405
#     4  11  23  43  70 103 139 181 226 284 349 397
#     4   9  18  34  63  98 136 182 220 282 345 396
#
# _framework density 26.140733999999998
#
# number of rings (size 3 to 8) (size 9 to 14) (size 15 to 20)
#    0.000    1.667    3.333    3.000    0.000    0.000 
#    0.000   10.000    0.000    3.000    4.333    0.000 
#    0.000    0.000    0.000    0.000    0.000    0.000 
#
# Total GULP energy -67082.932370 kJ/mol
# GULP energy per Si atom -5590.244364 kJ/mol
# Density = 2.608124 g / cm^3
# Si number density = 26.140734 Si / 1000 Ang^3
#
#
#
# Elastic Constant Matrix: (Units=GPa)
#
#
# Indices 1 2 3 4 5 6 
#
# 1 133.4476 31.5858 36.0695 5.2873 -23.7615 -5.5225
# 2 31.5858 146.2498 88.0064 17.5265 -4.1709 6.6735
# 3 36.0695 88.0064 196.3104 43.1668 -1.7765 18.3932
# 4 5.2873 17.5265 43.1668 50.8654 4.1208 6.3256
# 5 -23.7615 -4.1709 -1.7765 4.1208 38.5561 5.2533
# 6 -5.5225 6.6735 18.3932 6.3256 5.2533 28.1843
#
#
#
# Elastic Compliance Matrix: (Units=1/GPa)
#
#
# Indices 1 2 3 4 5 6 
#
# 1 0.009114 -0.001125 -0.001275 -0.000140 0.005186 0.001949
# 2 -0.001125 0.009537 -0.004154 0.000331 0.000092 0.000141
# 3 -0.001275 -0.004154 0.008736 -0.005398 0.000263 -0.003805
# 4 -0.000140 0.000331 -0.005398 0.024559 -0.002707 -0.001590
# 5 0.005186 0.000092 0.000263 -0.002707 0.030011 -0.004163
# 6 0.001949 0.000141 -0.003805 -0.001590 -0.004163 0.039445
#
#
# Mechanical properties :
#
#
# Convention : Reuss Voigt Hill
#
# Bulk Modulus (GPa) = 70.03294 87.48125 78.75709
# Shear Modulus (GPa) = 35.90151 44.87756 40.38954
#
# Velocity S-wave (km/s) = 3.70995 4.14788 3.93502
# Velocity P-wave (km/s) = 6.72314 7.51519 7.13017
#
# Compressibility (1/GPa) = 0.01427900
#
# Stress axis : x y z
#
# Youngs Moduli (GPa) = 109.71932 104.85793 114.46539
#
# Poissons Ratio (x) = 0.11801 0.14594
# Poissons Ratio (y) = 0.12348 0.47545
# Poissons Ratio (z) = 0.13989 0.43555
#
# Static dielectric constant tensor:
#      x y z
#    x 2.156040 0.025450 0.113080 
#    y 0.025450 2.056930 0.022130 
#    z 0.113080 0.022130 2.245460 
# 
# From -- ./inp_files/416116.got.cif
#   From: 2010.05.17/outbox.cif.g08.bks.cpg/sg2_209_cif.got.tgz:416116.got - 2010.06.03 11:33:40.
