data_PCOD9087963
_publ_section_title
;
Structure prediction by ZEFSAII (Michael W. Deem and Ramdas Pophale) SiO2 
 PCOD9087963
Probable space group: P -1
;
_chemical_formula_sum "Si O2"
_cell_formula_units_Z 14
_cell_length_a 14.107247
_cell_length_b 13.197286
_cell_length_c 11.259938
_cell_angle_alpha 32.523523
_cell_angle_beta 33.291344
_cell_angle_gamma 32.787134
_cell_volume 549.166446
_symmetry_space_group_name_H-M "P -1"
_symmetry_group_IT_number 2
_symmetry_cell_setting 'triclinic'
loop_
_space_group_symop_operation_xyz
x,y,z
-x,-y,-z
loop_
_atom_site_type_symbol
_atom_site_label
_atom_site_fract_x
_atom_site_fract_y
_atom_site_fract_z
Si Si1 0.765099 0.382399 0.545450
Si Si2 0.020499 0.208089 0.797511
Si Si3 0.495400 0.217204 0.435946
Si Si4 0.757720 0.952333 0.041129
Si Si5 0.653398 0.427782 0.224773
Si Si6 0.319430 0.335697 0.262185
Si Si7 0.999534 0.778780 0.751136
O O1 0.696013 0.568842 0.529042
O O2 0.563889 0.468540 0.595522
O O3 0.945247 0.344547 0.309851
O O4 0.785681 0.163553 0.795216
O O5 0.190357 0.212656 0.533900
O O6 0.828262 0.426927 0.768647
O O7 0.091691 0.191859 0.874573
O O8 0.000000 0.000000 0.000000
O O9 0.659737 0.237923 0.320455
O O10 0.491909 0.242401 0.272868
O O11 0.444872 0.032486 0.714654
O O12 0.806124 0.846554 0.964131
O O13 0.824621 0.346805 0.218218
O O14 0.647657 0.602338 0.965113
O O15 0.000000 0.000000 0.500000
#
# Coordination Sequence:
#
# PCOD9087963 Si02
#       7
#     2   2   2   2   2   2   2
#     4   9  21  36  60  82 117 154 198 236 291 340
#     4  10  20  34  60  87 120 151 195 237 290 344
#     4   9  21  35  61  83 123 152 191 234 301 343
#     4  10  19  39  57  87 116 154 197 245 279 347
#     4  10  20  39  59  86 121 156 188 245 297 342
#     4  10  19  37  57  89 119 154 189 240 289 353
#     4  10  20  38  64  82 114 158 202 245 286 337
#
# _framework density 25.493182000000001
#
# number of rings (size 3 to 8) (size 9 to 14) (size 15 to 20)
#    0.857    1.429    1.429    1.714    0.000    0.571 
#    2.571    4.286    3.143    0.000    0.000    0.000 
#    0.000    0.000    0.000    0.000    0.000    0.000 
#
# Total GULP energy -78217.542898 kJ/mol
# GULP energy per Si atom -5586.967350 kJ/mol
# Density = 2.543516 g / cm^3
# Si number density = 25.493182 Si / 1000 Ang^3
#
#
#
# Elastic Constant Matrix: (Units=GPa)
#
#
# Indices 1 2 3 4 5 6 
#
# 1 59.7265 4.8972 45.7573 -14.7967 12.1776 0.4000
# 2 4.8972 51.7102 15.2419 7.5440 10.5619 12.3530
# 3 45.7573 15.2419 131.4599 -2.6188 3.7067 12.9218
# 4 -14.7967 7.5440 -2.6188 53.6369 9.6279 4.7353
# 5 12.1776 10.5619 3.7067 9.6279 41.2267 -2.6129
# 6 0.4000 12.3530 12.9218 4.7353 -2.6129 40.4662
#
#
#
# Elastic Compliance Matrix: (Units=1/GPa)
#
#
# Indices 1 2 3 4 5 6 
#
# 1 0.028119 0.000589 -0.009499 0.008855 -0.009612 0.000919
# 2 0.000589 0.022885 -0.002080 -0.001521 -0.005909 -0.006531
# 3 -0.009499 -0.002080 0.011281 -0.002034 0.002643 -0.002465
# 4 0.008855 -0.001521 -0.002034 0.022732 -0.007486 -0.002117
# 5 -0.009612 -0.005909 0.002643 -0.007486 0.030366 0.003892
# 6 0.000919 -0.006531 -0.002465 -0.002117 0.003892 0.027983
#
#
# Mechanical properties :
#
#
# Convention : Reuss Voigt Hill
#
# Bulk Modulus (GPa) = 24.81022 41.63215 33.22119
# Shear Modulus (GPa) = 27.96708 38.86596 33.41652
#
# Velocity S-wave (km/s) = 3.31576 3.90880 3.62443
# Velocity P-wave (km/s) = 4.94087 6.06117 5.52947
#
# Compressibility (1/GPa) = 0.04030597
#
# Stress axis : x y z
#
# Youngs Moduli (GPa) = 35.56290 43.69706 88.64086
#
# Poissons Ratio (x) = -0.02573 0.84196
# Poissons Ratio (y) = -0.02094 0.18437
# Poissons Ratio (z) = 0.33780 0.09089
#
# Static dielectric constant tensor:
#      x y z
#    x 1.946790 0.086820 -0.058070 
#    y 0.086820 2.244340 0.029070 
#    z -0.058070 0.029070 2.036700 
# 
# From -- ./inp_files/453481.got.cif
#   From: 2010.05.17/outbox.cif.g08.bks.cpg/sg2_227_cif.got.tgz:453481.got - 2010.06.03 11:33:40.
