data_PCOD9087316
_publ_section_title
;
Structure prediction by ZEFSAII (Michael W. Deem and Ramdas Pophale) SiO2 
 PCOD9087316
Probable space group: P -1
;
_chemical_formula_sum "Si O2"
_cell_formula_units_Z 16
_cell_length_a 15.321579
_cell_length_b 8.196122
_cell_length_c 9.400354
_cell_angle_alpha 88.745856
_cell_angle_beta 78.104028
_cell_angle_gamma 38.323182
_cell_volume 697.007176
_symmetry_space_group_name_H-M "P -1"
_symmetry_group_IT_number 2
_symmetry_cell_setting 'triclinic'
loop_
_space_group_symop_operation_xyz
x,y,z
-x,-y,-z
loop_
_atom_site_type_symbol
_atom_site_label
_atom_site_fract_x
_atom_site_fract_y
_atom_site_fract_z
Si Si1 0.421295 0.725064 0.794225
Si Si2 0.360104 0.141835 0.633197
Si Si3 0.111070 0.288685 0.591426
Si Si4 0.746309 0.104476 0.675022
Si Si5 0.103396 0.071631 0.841277
Si Si6 0.088310 0.952596 0.136887
Si Si7 0.317122 0.376656 0.923775
Si Si8 0.355251 0.005395 0.090790
O O1 0.579931 0.413864 0.727805
O O2 0.415685 0.904513 0.709572
O O3 0.281479 0.824393 0.788433
O O4 0.390836 0.814378 0.966545
O O5 0.224026 0.271178 0.584949
O O6 0.302179 0.357155 0.763341
O O7 0.500000 0.000000 0.500000
O O8 0.053147 0.300157 0.760111
O O9 0.000000 0.500000 0.500000
O O10 0.199184 0.006846 0.499105
O O11 0.853187 0.057835 0.736952
O O12 0.740000 0.937708 0.756854
O O13 0.037739 0.999307 0.803422
O O14 0.051139 0.141030 0.023802
O O15 0.220464 0.658224 0.021798
O O16 0.489401 0.164493 0.893432
O O17 0.285640 0.258742 0.026959
#
# Coordination Sequence:
#
# PCOD9087316 Si02
#       8
#     2   2   2   2   2   2   2   2
#     4  10  20  40  66 100 133 165 223 276 328 398
#     4  10  23  43  65  97 135 180 222 271 336 397
#     4  11  28  47  64  95 138 183 223 273 337 407
#     4  12  23  40  72  99 128 180 219 279 336 393
#     4  10  24  43  63  95 139 172 221 274 334 396
#     4  11  23  41  69 102 130 178 223 279 336 391
#     4  10  21  36  66  99 133 170 220 278 322 393
#     4  10  19  36  63 103 130 165 215 274 330 382
#
# _framework density 22.955289
#
# number of rings (size 3 to 8) (size 9 to 14) (size 15 to 20)
#    0.000    1.500    2.500    1.875    1.750    6.500 
#    0.000    2.500    0.000    0.000    0.000    0.000 
#    0.000    0.000    0.000    0.000    0.000    0.000 
#
# Total GULP energy -89502.871684 kJ/mol
# GULP energy per Si atom -5593.929480 kJ/mol
# Density = 2.290304 g / cm^3
# Si number density = 22.955289 Si / 1000 Ang^3
#
#
#
# Elastic Constant Matrix: (Units=GPa)
#
#
# Indices 1 2 3 4 5 6 
#
# 1 150.7114 16.6834 52.2589 -6.9208 3.7086 -29.0593
# 2 16.6834 63.9249 22.1165 -12.3096 1.0032 -5.3684
# 3 52.2589 22.1165 85.7037 0.7991 9.1918 -7.3550
# 4 -6.9208 -12.3096 0.7991 29.2967 0.4595 6.9810
# 5 3.7086 1.0032 9.1918 0.4595 49.2026 -7.9557
# 6 -29.0593 -5.3684 -7.3550 6.9810 -7.9557 36.2411
#
#
#
# Elastic Compliance Matrix: (Units=1/GPa)
#
#
# Indices 1 2 3 4 5 6 
#
# 1 0.009931 0.000087 -0.005640 0.000851 0.001424 0.006980
# 2 0.000087 0.018931 -0.005034 0.008001 0.000543 0.000430
# 3 -0.005640 -0.005034 0.016582 -0.003410 -0.002840 -0.001869
# 4 0.000851 0.008001 -0.003410 0.039387 -0.001031 -0.006638
# 5 0.001424 0.000543 -0.002840 -0.001031 0.021651 0.005597
# 6 0.006980 0.000430 -0.001869 -0.006638 0.005597 0.035382
#
#
# Mechanical properties :
#
#
# Convention : Reuss Voigt Hill
#
# Bulk Modulus (GPa) = 41.20287 53.60642 47.40465
# Shear Modulus (GPa) = 29.21805 36.90016 33.05910
#
# Velocity S-wave (km/s) = 3.57154 4.01369 3.79905
# Velocity P-wave (km/s) = 5.91574 6.69946 6.31976
#
# Compressibility (1/GPa) = 0.02427015
#
# Stress axis : x y z
#
# Youngs Moduli (GPa) = 100.69501 52.82444 60.30608
#
# Poissons Ratio (x) = -0.00460 0.34010
# Poissons Ratio (y) = -0.00876 0.30359
# Poissons Ratio (z) = 0.56788 0.26593
#
# Static dielectric constant tensor:
#      x y z
#    x 1.850590 0.004670 -0.008740 
#    y 0.004670 1.914900 -0.007110 
#    z -0.008740 -0.007110 1.863900 
# 
# From -- ./inp_files/298516.got.cif
#   From: 2010.05.17/outbox.cif.g08.bks.cpg/sg2_150_cif.got.tgz:298516.got - 2010.06.03 11:33:40.
