data_PCOD9087577
_publ_section_title
;
Structure prediction by ZEFSAII (Michael W. Deem and Ramdas Pophale) SiO2 
 PCOD9087577
Probable space group: P -1
;
_chemical_formula_sum "Si O2"
_cell_formula_units_Z 16
_cell_length_a 8.185551
_cell_length_b 11.715439
_cell_length_c 9.245378
_cell_angle_alpha 103.280719
_cell_angle_beta 120.954405
_cell_angle_gamma 89.713409
_cell_volume 733.167085
_symmetry_space_group_name_H-M "P -1"
_symmetry_group_IT_number 2
_symmetry_cell_setting 'triclinic'
loop_
_space_group_symop_operation_xyz
x,y,z
-x,-y,-z
loop_
_atom_site_type_symbol
_atom_site_label
_atom_site_fract_x
_atom_site_fract_y
_atom_site_fract_z
Si Si1 0.334909 0.897385 0.857502
Si Si2 0.174096 0.456908 0.972225
Si Si3 0.394762 0.735314 0.588123
Si Si4 0.552770 0.494641 0.350663
Si Si5 0.233207 0.267233 0.418058
Si Si6 0.946519 0.978934 0.636607
Si Si7 0.106519 0.762153 0.217301
Si Si8 0.167755 0.689365 0.894922
O O1 0.352817 0.849296 0.689599
O O2 0.329368 0.782550 0.922244
O O3 0.135028 0.948432 0.796151
O O4 0.500000 0.000000 0.000000
O O5 0.205791 0.553749 0.887434
O O6 0.091535 0.322130 0.856112
O O7 0.364136 0.468555 0.159548
O O8 0.000000 0.500000 0.000000
O O9 0.338043 0.620121 0.629113
O O10 0.618235 0.745761 0.649185
O O11 0.270988 0.721266 0.382126
O O12 0.500000 0.500000 0.500000
O O13 0.671696 0.621842 0.410923
O O14 0.200819 0.141182 0.446484
O O15 0.033032 0.301632 0.275977
O O16 0.891915 0.099590 0.712097
O O17 0.000000 0.000000 0.500000
O O18 0.145740 0.737297 0.061432
#
# Coordination Sequence:
#
# PCOD9087577 Si02
#       8
#     2   2   2   2   2   2   2   2
#     4  11  27  42  63  90 134 161 206 263 310 366
#     4  10  19  36  64  93 123 158 208 258 303 363
#     4  11  22  41  65  96 121 167 207 256 312 363
#     4  10  19  36  64  95 123 157 210 257 303 365
#     4  10  22  39  68  91 127 163 211 251 308 378
#     4  11  25  45  60  93 127 169 206 255 314 365
#     4  11  22  39  69  90 126 166 212 249 309 376
#     4  10  22  42  64  96 122 164 208 256 312 367
#
# _framework density 21.823131
#
# number of rings (size 3 to 8) (size 9 to 14) (size 15 to 20)
#    0.000    1.500    1.250    6.750    5.250    3.500 
#    2.250    2.500    0.000    0.000    0.000    0.000 
#    0.000    0.000    0.000    0.000    0.000    0.000 
#
# Total GULP energy -89400.264597 kJ/mol
# GULP energy per Si atom -5587.516537 kJ/mol
# Density = 2.177346 g / cm^3
# Si number density = 21.823131 Si / 1000 Ang^3
#
#
#
# Elastic Constant Matrix: (Units=GPa)
#
#
# Indices 1 2 3 4 5 6 
#
# 1 28.1499 27.0986 9.3003 9.6011 6.1776 15.4106
# 2 27.0986 163.9094 42.6072 15.6008 8.6893 24.3732
# 3 9.3003 42.6072 90.2562 10.0618 17.8729 11.6731
# 4 9.6011 15.6008 10.0618 37.2614 2.4217 2.8567
# 5 6.1776 8.6893 17.8729 2.4217 32.4500 -0.1738
# 6 15.4106 24.3732 11.6731 2.8567 -0.1738 44.4706
#
#
#
# Elastic Compliance Matrix: (Units=1/GPa)
#
#
# Indices 1 2 3 4 5 6 
#
# 1 0.054536 -0.005755 0.002130 -0.010411 -0.009321 -0.015671
# 2 -0.005755 0.008149 -0.003066 -0.001022 0.000670 -0.001599
# 3 0.002130 -0.003066 0.014385 -0.002466 -0.007338 -0.002704
# 4 -0.010411 -0.001022 -0.002466 0.030304 0.001367 0.002874
# 5 -0.009321 0.000670 -0.007338 0.001367 0.036377 0.004844
# 6 -0.015671 -0.001599 -0.002704 0.002874 0.004844 0.029338
#
#
# Mechanical properties :
#
#
# Convention : Reuss Voigt Hill
#
# Bulk Modulus (GPa) = 15.70119 48.92530 32.31325
# Shear Modulus (GPa) = 24.07332 36.39039 30.23185
#
# Velocity S-wave (km/s) = 3.32491 4.08795 3.72602
# Velocity P-wave (km/s) = 4.68513 6.68950 5.77494
#
# Compressibility (1/GPa) = 0.06368946
#
# Stress axis : x y z
#
# Youngs Moduli (GPa) = 18.33665 122.71779 69.51683
#
# Poissons Ratio (x) = 0.70619 -0.14810
# Poissons Ratio (y) = 0.10552 0.21312
# Poissons Ratio (z) = -0.03906 0.37622
#
# Static dielectric constant tensor:
#      x y z
#    x 1.844540 0.007120 -0.020320 
#    y 0.007120 1.878080 0.004560 
#    z -0.020320 0.004560 1.756720 
# 
# From -- ./inp_files/188913.got.cif
#   From: 2010.05.17/outbox.cif.g08.bks.cpg/sg2_95_cif.got.tgz:188913.got - 2010.06.03 11:33:40.
