data_PCOD9087215
_publ_section_title
;
Structure prediction by ZEFSAII (Michael W. Deem and Ramdas Pophale) SiO2 
 PCOD9087215
Probable space group: P -1
;
_chemical_formula_sum "Si O2"
_cell_formula_units_Z 15
_cell_length_a 9.071206
_cell_length_b 14.544555
_cell_length_c 9.279108
_cell_angle_alpha 83.539993
_cell_angle_beta 68.360415
_cell_angle_gamma 131.302861
_cell_volume 735.501930
_symmetry_space_group_name_H-M "P -1"
_symmetry_group_IT_number 2
_symmetry_cell_setting 'triclinic'
loop_
_space_group_symop_operation_xyz
x,y,z
-x,-y,-z
loop_
_atom_site_type_symbol
_atom_site_label
_atom_site_fract_x
_atom_site_fract_y
_atom_site_fract_z
Si Si1 0.065683 0.803206 0.397492
Si Si2 0.273998 0.468940 0.606559
Si Si3 0.500000 0.000000 0.000000
Si Si4 0.775660 0.848075 0.032243
Si Si5 0.535896 0.244739 0.581790
Si Si6 0.969709 0.965514 0.350021
Si Si7 0.014827 0.757982 0.014949
Si Si8 0.240712 0.834414 0.611458
O O1 0.069869 0.814490 0.566071
O O2 0.916726 0.648932 0.425121
O O3 0.956721 0.848768 0.361697
O O4 0.340499 0.920459 0.219506
O O5 0.500000 0.500000 0.500000
O O6 0.359321 0.611038 0.532625
O O7 0.143468 0.388812 0.819028
O O8 0.239662 0.882604 0.018493
O O9 0.539394 0.776485 0.218951
O O10 0.840807 0.769668 0.045613
O O11 0.000000 0.000000 0.000000
O O12 0.803351 0.894527 0.849926
O O13 0.282200 0.110106 0.613270
O O14 0.714795 0.242732 0.472175
O O15 0.000000 0.000000 0.500000
O O16 0.123542 0.774344 0.820738
O O17 0.500000 0.000000 0.500000
#
# Coordination Sequence:
#
# PCOD9087215 Si02
#       8
#     2   2   1   2   2   2   2   2
#     4  11  23  38  66  91 129 168 212 260 326 381
#     4  11  21  45  65  88 124 180 226 251 307 393
#     4  10  20  34  60  94 116 164 212 246 320 376
#     4  10  19  36  62  89 119 168 219 254 310 374
#     4  11  23  40  66  88 129 173 211 270 310 385
#     4  11  22  36  61  97 125 163 219 269 321 372
#     4  11  22  39  66  92 129 173 205 267 324 382
#     4  12  24  41  63  99 137 158 203 281 340 361
#
# _framework density 20.394237
#
# number of rings (size 3 to 8) (size 9 to 14) (size 15 to 20)
#    0.000    1.067    4.000    5.600    1.867    1.067 
#    0.000    2.000    0.000    0.000    0.000    0.000 
#    0.000    0.000    0.000    0.000    0.000    0.000 
#
# Total GULP energy -83538.461665 kJ/mol
# GULP energy per Si atom -5569.230778 kJ/mol
# Density = 2.034782 g / cm^3
# Si number density = 20.394237 Si / 1000 Ang^3
#
#
#
# Elastic Constant Matrix: (Units=GPa)
#
#
# Indices 1 2 3 4 5 6 
#
# 1 58.8453 9.5505 23.6664 9.9585 1.0231 -12.1437
# 2 9.5505 48.6917 37.3876 5.4788 4.1135 -12.8889
# 3 23.6664 37.3876 179.1664 24.2097 15.5725 -0.0466
# 4 9.9585 5.4788 24.2097 31.3795 3.7904 5.8966
# 5 1.0231 4.1135 15.5725 3.7904 36.1310 4.1147
# 6 -12.1437 -12.8889 -0.0466 5.8966 4.1147 34.9501
#
#
#
# Elastic Compliance Matrix: (Units=1/GPa)
#
#
# Indices 1 2 3 4 5 6 
#
# 1 0.020565 0.000409 -0.001885 -0.006720 -0.000072 0.008436
# 2 0.000409 0.027987 -0.005357 -0.002751 -0.001869 0.011140
# 3 -0.001885 -0.005357 0.007636 -0.003785 -0.002032 -0.001743
# 4 -0.006720 -0.002751 -0.003785 0.039365 -0.000868 -0.009894
# 5 -0.000072 -0.001869 -0.002032 -0.000868 0.029317 -0.004022
# 6 0.008436 0.011140 -0.001743 -0.009894 -0.004022 0.037792
#
#
# Mechanical properties :
#
#
# Convention : Reuss Voigt Hill
#
# Bulk Modulus (GPa) = 23.51764 47.54581 35.53173
# Shear Modulus (GPa) = 26.24645 34.89869 30.57257
#
# Velocity S-wave (km/s) = 3.59131 4.14116 3.87599
# Velocity P-wave (km/s) = 5.36220 6.79923 6.12302
#
# Compressibility (1/GPa) = 0.04252127
#
# Stress axis : x y z
#
# Youngs Moduli (GPa) = 48.62642 35.73098 130.95990
#
# Poissons Ratio (x) = -0.01463 0.24691
# Poissons Ratio (y) = -0.01990 0.70158
# Poissons Ratio (z) = 0.09168 0.19142
#
# Static dielectric constant tensor:
#      x y z
#    x 1.782420 -0.012030 0.013650 
#    y -0.012030 1.707650 0.015510 
#    z 0.013650 0.015510 1.769400 
# 
# From -- ./inp_files/206866.got.cif
#   From: 2010.05.17/outbox.cif.g08.bks.cpg/sg2_104_cif.got.tgz:206866.got - 2010.06.03 11:33:40.
