data_PCOD9087308
_publ_section_title
;
Structure prediction by ZEFSAII (Michael W. Deem and Ramdas Pophale) SiO2 
 PCOD9087308
Probable space group: P -1
;
_chemical_formula_sum "Si O2"
_cell_formula_units_Z 16
_cell_length_a 11.174435
_cell_length_b 8.878706
_cell_length_c 15.964539
_cell_angle_alpha 111.493194
_cell_angle_beta 129.226161
_cell_angle_gamma 40.490219
_cell_volume 775.772070
_symmetry_space_group_name_H-M "P -1"
_symmetry_group_IT_number 2
_symmetry_cell_setting 'triclinic'
loop_
_space_group_symop_operation_xyz
x,y,z
-x,-y,-z
loop_
_atom_site_type_symbol
_atom_site_label
_atom_site_fract_x
_atom_site_fract_y
_atom_site_fract_z
Si Si1 0.749101 0.025277 0.961805
Si Si2 0.353499 0.227968 0.707976
Si Si3 0.933265 0.268080 0.261616
Si Si4 0.825022 0.351605 0.039561
Si Si5 0.652924 0.154913 0.126937
Si Si6 0.455517 0.865748 0.407101
Si Si7 0.681682 0.380464 0.481600
Si Si8 0.212284 0.999574 0.662707
O O1 0.521045 0.135275 0.840983
O O2 0.753499 0.216933 0.988450
O O3 0.967435 0.792795 0.961942
O O4 0.758650 0.988665 0.057915
O O5 0.150612 0.514216 0.678591
O O6 0.501188 0.141348 0.673082
O O7 0.258811 0.120722 0.651761
O O8 0.773771 0.237854 0.203881
O O9 0.900995 0.338826 0.164039
O O10 0.193978 0.020994 0.339947
O O11 0.608622 0.615022 0.965235
O O12 0.689278 0.047257 0.210662
O O13 0.620459 0.598134 0.456936
O O14 0.500000 0.000000 0.500000
O O15 0.500000 0.500000 0.500000
O O16 0.941912 0.179319 0.587113
O O17 0.673359 0.242827 0.381327
#
# Coordination Sequence:
#
# PCOD9087308 Si02
#       8
#     2   2   2   2   2   2   2   2
#     4  10  20  36  64  93 132 167 210 266 313 381
#     4  12  23  42  64  97 135 165 210 272 322 379
#     4  11  21  39  68  95 126 164 216 271 317 375
#     4  10  19  36  62  97 126 166 217 259 316 381
#     4  11  21  39  63  96 125 174 214 256 320 387
#     4  12  26  42  70  98 124 167 219 273 327 374
#     4  11  25  49  67  92 129 172 221 268 319 387
#     4  11  27  42  66  94 133 174 215 262 324 388
#
# _framework density 20.624614999999999
#
# number of rings (size 3 to 8) (size 9 to 14) (size 15 to 20)
#    0.000    1.000    3.750    3.750    0.000    5.500 
#    0.000    0.625    0.000    0.000    0.000    0.000 
#    0.000    0.000    0.000    0.000    0.000    0.000 
#
# Total GULP energy -89506.610151 kJ/mol
# GULP energy per Si atom -5594.163134 kJ/mol
# Density = 2.057767 g / cm^3
# Si number density = 20.624615 Si / 1000 Ang^3
#
#
#
# Elastic Constant Matrix: (Units=GPa)
#
#
# Indices 1 2 3 4 5 6 
#
# 1 60.9463 29.4145 -2.0784 1.2596 -11.1235 -13.6121
# 2 29.4145 97.1351 16.2287 8.8405 -0.8257 -14.3387
# 3 -2.0784 16.2287 50.8487 -1.9688 -12.3795 -5.7265
# 4 1.2596 8.8405 -1.9688 30.1126 -3.0894 4.2262
# 5 -11.1235 -0.8257 -12.3795 -3.0894 17.6813 -7.2765
# 6 -13.6121 -14.3387 -5.7265 4.2262 -7.2765 29.5291
#
#
#
# Elastic Compliance Matrix: (Units=1/GPa)
#
#
# Indices 1 2 3 4 5 6 
#
# 1 0.037043 -0.010470 0.019941 0.003995 0.048705 0.027289
# 2 -0.010470 0.015114 -0.009106 -0.005770 -0.014042 -0.001888
# 3 0.019941 -0.009106 0.038410 0.006146 0.049803 0.023612
# 4 0.003995 -0.005770 0.006146 0.036666 0.012118 -0.002030
# 5 0.048705 -0.014042 0.049803 0.012118 0.148258 0.060090
# 6 0.027289 -0.001888 0.023612 -0.002030 0.060090 0.065204
#
#
# Mechanical properties :
#
#
# Convention : Reuss Voigt Hill
#
# Bulk Modulus (GPa) = 10.95342 32.89549 21.92445
# Shear Modulus (GPa) = 13.49903 26.48897 19.99400
#
# Velocity S-wave (km/s) = 2.56112 3.58765 3.11694
# Velocity P-wave (km/s) = 3.75075 5.75725 4.85871
#
# Compressibility (1/GPa) = 0.09129572
#
# Stress axis : x y z
#
# Youngs Moduli (GPa) = 26.99584 66.16330 26.03509
#
# Poissons Ratio (x) = 0.69275 -0.51917
# Poissons Ratio (y) = 0.28265 0.23709
# Poissons Ratio (z) = -0.53833 0.60251
#
# Static dielectric constant tensor:
#      x y z
#    x 1.720110 0.002490 -0.006430 
#    y 0.002490 1.712600 0.010820 
#    z -0.006430 0.010820 1.728390 
# 
# From -- ./inp_files/348600.got.cif
#   From: 2010.05.17/outbox.cif.g08.bks.cpg/sg2_175_cif.got.tgz:348600.got - 2010.06.03 11:33:40.
