data_PCOD9087832
_publ_section_title
;
Structure prediction by ZEFSAII (Michael W. Deem and Ramdas Pophale) SiO2 
 PCOD9087832
Probable space group: P -1
;
_chemical_formula_sum "Si O2"
_cell_formula_units_Z 16
_cell_length_a 9.190373
_cell_length_b 11.011164
_cell_length_c 13.947589
_cell_angle_alpha 83.147093
_cell_angle_beta 121.607863
_cell_angle_gamma 139.010124
_cell_volume 685.280997
_symmetry_space_group_name_H-M "P -1"
_symmetry_group_IT_number 2
_symmetry_cell_setting 'triclinic'
loop_
_space_group_symop_operation_xyz
x,y,z
-x,-y,-z
loop_
_atom_site_type_symbol
_atom_site_label
_atom_site_fract_x
_atom_site_fract_y
_atom_site_fract_z
Si Si1 0.885945 0.836015 0.397364
Si Si2 0.660833 0.225932 0.400678
Si Si3 0.548292 0.218248 0.564849
Si Si4 0.225368 0.311713 0.992334
Si Si5 0.714611 0.194291 0.808560
Si Si6 0.799532 0.011401 0.233018
Si Si7 0.202276 0.413882 0.474475
Si Si8 0.196941 0.155163 0.187461
O O1 0.700772 0.621486 0.404308
O O2 0.208093 0.974260 0.466703
O O3 0.000000 0.000000 0.500000
O O4 0.759296 0.847029 0.270059
O O5 0.692967 0.230829 0.525504
O O6 0.479267 0.246442 0.319283
O O7 0.970784 0.376917 0.442155
O O8 0.451012 0.005116 0.294841
O O9 0.699661 0.292983 0.714048
O O10 0.566070 0.371729 0.526754
O O11 0.028479 0.319528 0.930799
O O12 0.500000 0.500000 0.000000
O O13 0.305887 0.304623 0.124474
O O14 0.018397 0.081231 0.900801
O O15 0.521187 0.115448 0.843014
O O16 0.010131 0.215516 0.356036
O O17 0.982926 0.106296 0.189467
#
# Coordination Sequence:
#
# PCOD9087832 Si02
#       8
#     2   2   2   2   2   2   2   2
#     4  10  19  37  52  83 131 158 194 234 296 356
#     4  10  20  38  58  92 122 164 201 243 304 357
#     4  12  20  35  60  90 125 165 200 239 297 359
#     4  10  24  46  66  91 114 154 207 259 306 356
#     4  10  22  39  65  86 126 166 198 251 307 354
#     4  10  20  42  60  89 124 166 198 244 307 361
#     4  10  23  34  55  89 130 165 198 242 288 365
#     4  10  22  43  68  86 120 157 201 257 305 361
#
# _framework density 23.348087
#
# number of rings (size 3 to 8) (size 9 to 14) (size 15 to 20)
#    0.000    1.750    5.000    0.750    1.750    2.500 
#    4.500    0.625    0.000    0.000    0.000    0.000 
#    0.000    0.000    0.000    0.000    0.000    0.000 
#
# Total GULP energy -89260.004482 kJ/mol
# GULP energy per Si atom -5578.750280 kJ/mol
# Density = 2.329495 g / cm^3
# Si number density = 23.348087 Si / 1000 Ang^3
#
#
#
# Elastic Constant Matrix: (Units=GPa)
#
#
# Indices 1 2 3 4 5 6 
#
# 1 142.5031 40.9560 24.6922 -16.9144 10.3981 26.9536
# 2 40.9560 138.5288 28.2427 -31.6969 14.4354 5.0410
# 3 24.6922 28.2427 66.3599 -11.5825 15.4174 14.9507
# 4 -16.9144 -31.6969 -11.5825 24.8825 2.9957 -4.2388
# 5 10.3981 14.4354 15.4174 2.9957 33.1022 1.3526
# 6 26.9536 5.0410 14.9507 -4.2388 1.3526 39.8314
#
#
#
# Elastic Compliance Matrix: (Units=1/GPa)
#
#
# Indices 1 2 3 4 5 6 
#
# 1 0.009080 -0.001350 -0.000477 0.003579 -0.002147 -0.005340
# 2 -0.001350 0.011629 -0.000998 0.014360 -0.005545 0.001533
# 3 -0.000477 -0.000998 0.020688 0.008139 -0.009537 -0.006126
# 4 0.003579 0.014360 0.008139 0.066849 -0.017244 0.000405
# 5 -0.002147 -0.005545 -0.009537 -0.017244 0.039199 0.002568
# 6 -0.005340 0.001533 -0.006126 0.000405 0.002568 0.030781
#
#
# Mechanical properties :
#
#
# Convention : Reuss Voigt Hill
#
# Bulk Modulus (GPa) = 27.97481 59.46376 43.71929
# Shear Modulus (GPa) = 25.53740 36.46329 31.00035
#
# Velocity S-wave (km/s) = 3.31080 3.95615 3.64778
# Velocity P-wave (km/s) = 5.15974 6.81116 6.04213
#
# Compressibility (1/GPa) = 0.03574644
#
# Stress axis : x y z
#
# Youngs Moduli (GPa) = 110.13640 85.99104 48.33714
#
# Poissons Ratio (x) = 0.11611 0.02307
# Poissons Ratio (y) = 0.14871 0.04822
# Poissons Ratio (z) = 0.05257 0.08578
#
# Static dielectric constant tensor:
#      x y z
#    x 2.055260 0.022260 0.025890 
#    y 0.022260 1.987540 0.007300 
#    z 0.025890 0.007300 1.912260 
# 
# From -- ./inp_files/281543.got.cif
#   From: 2010.05.17/outbox.cif.g08.bks.cpg/sg2_141_cif.got.tgz:281543.got - 2010.06.03 11:33:40.
