data_PCOD9087103
_publ_section_title
;
Structure prediction by ZEFSAII (Michael W. Deem and Ramdas Pophale) SiO2 
 PCOD9087103
Probable space group: P -1
;
_chemical_formula_sum "Si O2"
_cell_formula_units_Z 16
_cell_length_a 9.452136
_cell_length_b 17.338379
_cell_length_c 12.740269
_cell_angle_alpha 152.369776
_cell_angle_beta 60.522804
_cell_angle_gamma 132.594246
_cell_volume 676.546242
_symmetry_space_group_name_H-M "P -1"
_symmetry_group_IT_number 2
_symmetry_cell_setting 'triclinic'
loop_
_space_group_symop_operation_xyz
x,y,z
-x,-y,-z
loop_
_atom_site_type_symbol
_atom_site_label
_atom_site_fract_x
_atom_site_fract_y
_atom_site_fract_z
Si Si1 0.568573 0.852993 0.771182
Si Si2 0.528851 0.755099 0.895091
Si Si3 0.113279 0.332919 0.509219
Si Si4 0.712147 0.046849 0.740737
Si Si5 0.861060 0.574370 0.627424
Si Si6 0.165886 0.127460 0.884859
Si Si7 0.523747 0.826090 0.331393
Si Si8 0.932748 0.522742 0.936771
O O1 0.369166 0.628957 0.540850
O O2 0.634600 0.827470 0.830256
O O3 0.500000 0.000000 0.000000
O O4 0.104638 0.278734 0.112591
O O5 0.411814 0.856668 0.080083
O O6 0.686500 0.820660 0.007479
O O7 0.347956 0.510625 0.664193
O O8 0.089273 0.316428 0.372487
O O9 0.992325 0.417042 0.703053
O O10 0.014393 0.113269 0.332546
O O11 0.708010 0.949443 0.734691
O O12 0.590791 0.882520 0.494976
O O13 0.934269 0.235418 0.848446
O O14 0.000000 0.500000 0.500000
O O15 0.302813 0.168840 0.785641
O O16 0.307575 0.606751 0.132588
O O17 0.500000 0.000000 0.500000
O O18 0.000000 0.500000 0.000000
#
# Coordination Sequence:
#
# PCOD9087103 Si02
#       8
#     2   2   2   2   2   2   2   2
#     4   9  21  41  64  92 127 182 212 265 340 392
#     4   9  19  37  64  98 131 167 221 271 324 398
#     4  10  21  39  65  99 129 170 217 273 329 383
#     4  10  19  36  61  95 138 171 216 261 325 402
#     4  11  27  44  64  95 133 173 223 275 333 394
#     4  12  23  42  66 100 133 172 222 278 324 388
#     4  12  20  34  64  96 132 177 211 267 329 388
#     4  11  19  34  62 102 130 166 220 265 321 390
#
# _framework density 23.649529999999999
#
# number of rings (size 3 to 8) (size 9 to 14) (size 15 to 20)
#    0.000    1.500    3.750    1.875    5.250    2.000 
#    2.250    0.625    0.000    0.750    0.000    0.000 
#    0.000    0.000    0.000    0.000    0.000    0.000 
#
# Total GULP energy -89676.684399 kJ/mol
# GULP energy per Si atom -5604.792775 kJ/mol
# Density = 2.359570 g / cm^3
# Si number density = 23.649530 Si / 1000 Ang^3
#
#
#
# Elastic Constant Matrix: (Units=GPa)
#
#
# Indices 1 2 3 4 5 6 
#
# 1 79.9063 28.3880 26.3106 0.8469 3.3358 1.3946
# 2 28.3880 166.2207 54.8271 5.3934 18.9689 3.3321
# 3 26.3106 54.8271 100.9499 -6.7561 13.5096 1.4849
# 4 0.8469 5.3934 -6.7561 43.7211 7.8613 3.2253
# 5 3.3358 18.9689 13.5096 7.8613 35.7016 -10.5688
# 6 1.3946 3.3321 1.4849 3.2253 -10.5688 25.3761
#
#
#
# Elastic Compliance Matrix: (Units=1/GPa)
#
#
# Indices 1 2 3 4 5 6 
#
# 1 0.013999 -0.001465 -0.003000 -0.000691 0.000759 0.000002
# 2 -0.001465 0.007833 -0.003479 -0.000772 -0.003114 -0.001943
# 3 -0.003000 -0.003479 0.013451 0.003554 -0.004479 -0.002482
# 4 -0.000691 -0.000772 0.003554 0.025572 -0.008536 -0.006874
# 5 0.000759 -0.003114 -0.004479 -0.008536 0.038411 0.017712
# 6 0.000002 -0.001943 -0.002482 -0.006874 0.017712 0.048058
#
#
# Mechanical properties :
#
#
# Convention : Reuss Voigt Hill
#
# Bulk Modulus (GPa) = 51.56275 62.90314 57.23294
# Shear Modulus (GPa) = 29.46764 36.79651 33.13208
#
# Velocity S-wave (km/s) = 3.53372 3.94878 3.74700
# Velocity P-wave (km/s) = 6.20482 6.88813 6.55538
#
# Compressibility (1/GPa) = 0.01939385
#
# Stress axis : x y z
#
# Youngs Moduli (GPa) = 71.43470 127.66227 74.34371
#
# Poissons Ratio (x) = 0.18707 0.22307
# Poissons Ratio (y) = 0.10467 0.25862
# Poissons Ratio (z) = 0.21434 0.44411
#
# Static dielectric constant tensor:
#      x y z
#    x 1.949690 0.021870 -0.052140 
#    y 0.021870 1.875470 0.009790 
#    z -0.052140 0.009790 1.869290 
# 
# From -- ./inp_files/337726.got.cif
#   From: 2010.05.17/outbox.cif.g08.bks.cpg/sg2_169_cif.got.tgz:337726.got - 2010.06.03 11:33:40.
