data_PCOD9087029
_publ_section_title
;
Structure prediction by ZEFSAII (Michael W. Deem and Ramdas Pophale) SiO2 
 PCOD9087029
Probable space group: P -1
;
_chemical_formula_sum "Si O2"
_cell_formula_units_Z 16
_cell_length_a 8.886466
_cell_length_b 15.588559
_cell_length_c 10.183917
_cell_angle_alpha 135.242411
_cell_angle_beta 91.540664
_cell_angle_gamma 121.483416
_cell_volume 634.614531
_symmetry_space_group_name_H-M "P -1"
_symmetry_group_IT_number 2
_symmetry_cell_setting 'triclinic'
loop_
_space_group_symop_operation_xyz
x,y,z
-x,-y,-z
loop_
_atom_site_type_symbol
_atom_site_label
_atom_site_fract_x
_atom_site_fract_y
_atom_site_fract_z
Si Si1 0.661046 0.016884 0.286859
Si Si2 0.606261 0.942819 0.834106
Si Si3 0.458505 0.248106 0.611092
Si Si4 0.082926 0.363624 0.058146
Si Si5 0.243786 0.721518 0.203421
Si Si6 0.083554 0.174968 0.614883
Si Si7 0.131363 0.278333 0.249504
Si Si8 0.502989 0.699352 0.781150
O O1 0.547160 0.037731 0.196959
O O2 0.675687 0.120840 0.524649
O O3 0.537378 0.810510 0.024900
O O4 0.923851 0.125131 0.438191
O O5 0.686540 0.924513 0.680487
O O6 0.455186 0.760681 0.725521
O O7 0.856833 0.112965 0.100552
O O8 0.536602 0.232508 0.730590
O O9 0.330937 0.292833 0.685904
O O10 0.702465 0.412674 0.719864
O O11 0.095985 0.280742 0.845222
O O12 0.831407 0.272465 0.932565
O O13 0.128680 0.331831 0.161570
O O14 0.000000 0.500000 0.000000
O O15 0.000000 0.000000 0.500000
O O16 0.298755 0.472279 0.547645
O O17 0.264834 0.232569 0.186067
#
# Coordination Sequence:
#
# PCOD9087029 Si02
#       8
#     2   2   2   2   2   2   2   2
#     4  10  22  39  62  92 125 165 207 256 311 369
#     4  11  22  41  65  89 125 166 207 256 315 367
#     4  10  19  36  61  89 120 163 205 245 314 366
#     4  10  19  38  58  89 124 156 203 257 304 368
#     4   8  18  35  62  90 124 160 202 251 308 372
#     4  11  22  36  59  89 127 159 204 258 305 371
#     4  11  24  40  67  92 123 166 210 258 310 373
#     4  11  23  43  63  90 129 160 213 261 307 365
#
# _framework density 25.212154000000002
#
# number of rings (size 3 to 8) (size 9 to 14) (size 15 to 20)
#    0.000    1.750    1.250    3.375    0.000    1.500 
#    0.000    3.750    8.250    0.000    0.000    0.000 
#    0.000    0.000    0.000    0.000    0.000    0.000 
#
# Total GULP energy -89257.102281 kJ/mol
# GULP energy per Si atom -5578.568893 kJ/mol
# Density = 2.515477 g / cm^3
# Si number density = 25.212154 Si / 1000 Ang^3
#
#
#
# Elastic Constant Matrix: (Units=GPa)
#
#
# Indices 1 2 3 4 5 6 
#
# 1 151.4383 17.2467 54.4827 -10.1481 6.6488 -12.6901
# 2 17.2467 58.8821 19.6668 -0.3581 -0.0463 -13.3534
# 3 54.4827 19.6668 134.5536 -0.1897 -8.8822 2.6283
# 4 -10.1481 -0.3581 -0.1897 34.3813 -3.0235 3.9616
# 5 6.6488 -0.0463 -8.8822 -3.0235 42.8459 -7.7971
# 6 -12.6901 -13.3534 2.6283 3.9616 -7.7971 38.0280
#
#
#
# Elastic Compliance Matrix: (Units=1/GPa)
#
#
# Indices 1 2 3 4 5 6 
#
# 1 0.008294 -0.000787 -0.003379 0.002039 -0.001441 0.002217
# 2 -0.000787 0.019701 -0.002646 -0.000786 0.000830 0.007090
# 3 -0.003379 -0.002646 0.009363 -0.000538 0.002018 -0.002234
# 4 0.002039 -0.000786 -0.000538 0.030067 0.001250 -0.002434
# 5 -0.001441 0.000830 0.002018 0.001250 0.024917 0.004650
# 6 0.002217 0.007090 -0.002234 -0.002434 0.004650 0.030887
#
#
# Mechanical properties :
#
#
# Convention : Reuss Voigt Hill
#
# Bulk Modulus (GPa) = 42.13156 58.62958 50.38057
# Shear Modulus (GPa) = 34.53894 39.94956 37.24425
#
# Velocity S-wave (km/s) = 3.70527 3.98494 3.84765
# Velocity P-wave (km/s) = 5.92052 6.66918 6.30597
#
# Compressibility (1/GPa) = 0.02373518
#
# Stress axis : x y z
#
# Youngs Moduli (GPa) = 120.56410 50.75862 106.80295
#
# Poissons Ratio (x) = 0.03993 0.36090
# Poissons Ratio (y) = 0.09485 0.28259
# Poissons Ratio (z) = 0.40740 0.13430
#
# Static dielectric constant tensor:
#      x y z
#    x 2.005400 0.051840 0.005330 
#    y 0.051840 2.205400 0.026930 
#    z 0.005330 0.026930 2.038840 
# 
# From -- ./inp_files/397401.got.cif
#   From: 2010.05.17/outbox.cif.g08.bks.cpg/sg2_199_cif.got.tgz:397401.got - 2010.06.03 11:33:40.
