data_PCOD9087153
_publ_section_title
;
Structure prediction by ZEFSAII (Michael W. Deem and Ramdas Pophale) SiO2 
 PCOD9087153
Probable space group: P -1
;
_chemical_formula_sum "Si O2"
_cell_formula_units_Z 10
_cell_length_a 11.136207
_cell_length_b 17.558345
_cell_length_c 7.628669
_cell_angle_alpha 154.355980
_cell_angle_beta 137.737398
_cell_angle_gamma 42.150521
_cell_volume 419.807482
_symmetry_space_group_name_H-M "P -1"
_symmetry_group_IT_number 2
_symmetry_cell_setting 'triclinic'
loop_
_space_group_symop_operation_xyz
x,y,z
-x,-y,-z
loop_
_atom_site_type_symbol
_atom_site_label
_atom_site_fract_x
_atom_site_fract_y
_atom_site_fract_z
Si Si1 0.747816 0.266613 0.453191
Si Si2 0.840707 0.350083 0.368551
Si Si3 0.861269 0.770202 0.314227
Si Si4 0.784315 0.498434 0.271817
Si Si5 0.457095 0.127561 0.051541
O O1 0.711609 0.304379 0.286466
O O2 0.636417 0.145758 0.178743
O O3 0.969945 0.198693 0.556346
O O4 0.712258 0.451613 0.910669
O O5 0.782777 0.341734 0.089477
O O6 0.047301 0.232330 0.399710
O O7 0.843110 0.562420 0.842134
O O8 0.680299 0.902755 0.315240
O O9 0.654237 0.681419 0.586204
O O10 0.000000 0.500000 0.500000
O O11 0.500000 0.000000 0.000000
#
# Coordination Sequence:
#
# PCOD9087153 Si02
#       5
#     2   2   2   2   2
#     4  10  19  36  62  85 106 151 188 234 275 320
#     4   8  16  34  58  86 108 139 187 243 270 317
#     4   8  16  35  53  82 109 141 179 232 274 317
#     4  11  18  37  63  85 108 146 190 236 274 325
#     4  11  23  35  56  87 117 150 185 224 287 341
#
# _framework density 23.820443999999998
#
# number of rings (size 3 to 8) (size 9 to 14) (size 15 to 20)
#    1.200    1.200    4.000    0.600    0.000    4.000 
#    0.000    0.000    0.000   21.600    0.000    0.000 
#    0.000    0.000    0.000    0.000    0.000    0.000 
#
# Total GULP energy -55715.267019 kJ/mol
# GULP energy per Si atom -5571.526702 kJ/mol
# Density = 2.376623 g / cm^3
# Si number density = 23.820444 Si / 1000 Ang^3
#
#
#
# Elastic Constant Matrix: (Units=GPa)
#
#
# Indices 1 2 3 4 5 6 
#
# 1 130.5432 38.8380 42.2365 4.7781 49.4492 26.3718
# 2 38.8380 122.2335 31.7806 -0.7765 24.3072 29.7067
# 3 42.2365 31.7806 40.0775 11.5644 4.3598 -1.9716
# 4 4.7781 -0.7765 11.5644 5.0699 9.3862 1.8744
# 5 49.4492 24.3072 4.3598 9.3862 40.6478 -2.2881
# 6 26.3718 29.7067 -1.9716 1.8744 -2.2881 35.1977
#
#
#
# Elastic Compliance Matrix: (Units=1/GPa)
#
#
# Indices 1 2 3 4 5 6 
#
# 1 0.005568 -0.005986 0.008810 -0.035410 0.004237 0.003535
# 2 -0.005986 0.006937 0.005753 -0.019734 0.007100 0.000465
# 3 0.008810 0.005753 0.001158 0.041176 -0.024644 -0.015186
# 4 -0.035410 -0.019734 0.041176 0.031568 0.045806 0.046790
# 5 0.004237 0.007100 -0.024644 0.045806 0.006561 -0.012560
# 6 0.003535 0.000465 -0.015186 0.046790 -0.012560 0.021211
#
#
# Mechanical properties :
#
#
# Convention : Reuss Voigt Hill
#
# Bulk Modulus (GPa) = 32.45142 57.61827 45.03484
# Shear Modulus (GPa) = 75.61622 28.18303 51.89963
#
# Velocity S-wave (km/s) = 5.64032 3.44342 4.67281
# Velocity P-wave (km/s) = 7.48802 6.32855 6.93257
#
# Compressibility (1/GPa) = 0.03081529
#
# Stress axis : x y z
#
# Youngs Moduli (GPa) = 179.59533 144.15255 863.31310
#
# Poissons Ratio (x) = 0.86293 -7.60536
# Poissons Ratio (y) = 1.07510 -4.96634
# Poissons Ratio (z) = -1.58215 -0.82926
#
# Static dielectric constant tensor:
#      x y z
#    x 1.933100 0.015450 -0.017530 
#    y 0.015450 1.949600 -0.020350 
#    z -0.017530 -0.020350 1.971580 
# 
# From -- ./inp_files/146362.got.cif
#   From: 2010.05.17/outbox.cif.g08.bks.cpg/sg2_74_cif.got.tgz:146362.got - 2010.06.03 11:33:40.
