data_PCOD9087209
_publ_section_title
;
Structure prediction by ZEFSAII (Michael W. Deem and Ramdas Pophale) SiO2 
 PCOD9087209
Probable space group: P -1
;
_chemical_formula_sum "Si O2"
_cell_formula_units_Z 14
_cell_length_a 15.705232
_cell_length_b 9.255588
_cell_length_c 7.697982
_cell_angle_alpha 67.412166
_cell_angle_beta 60.493711
_cell_angle_gamma 112.813654
_cell_volume 625.886732
_symmetry_space_group_name_H-M "P -1"
_symmetry_group_IT_number 2
_symmetry_cell_setting 'triclinic'
loop_
_space_group_symop_operation_xyz
x,y,z
-x,-y,-z
loop_
_atom_site_type_symbol
_atom_site_label
_atom_site_fract_x
_atom_site_fract_y
_atom_site_fract_z
Si Si1 0.040599 0.399190 0.888800
Si Si2 0.260300 0.418430 0.211893
Si Si3 0.737014 0.113761 0.214596
Si Si4 0.633854 0.767384 0.746327
Si Si5 0.473365 0.786069 0.126463
Si Si6 0.851448 0.408099 0.658046
Si Si7 0.715291 0.437051 0.251092
O O1 0.125484 0.365666 0.924283
O O2 0.154560 0.583373 0.545733
O O3 0.000000 0.500000 0.000000
O O4 0.888931 0.201930 0.044902
O O5 0.241012 0.215174 0.372074
O O6 0.367243 0.619362 0.151772
O O7 0.137245 0.404051 0.360744
O O8 0.307641 0.488918 0.932677
O O9 0.713193 0.250615 0.279851
O O10 0.637813 0.876812 0.519274
O O11 0.500000 0.500000 0.000000
O O12 0.612348 0.851308 0.897429
O O13 0.398206 0.657455 0.442420
O O14 0.500000 0.000000 0.000000
O O15 0.000000 0.500000 0.500000
O O16 0.737000 0.176291 0.987778
#
# Coordination Sequence:
#
# PCOD9087209 Si02
#       7
#     2   2   2   2   2   2   2
#     4   9  17  32  61  89 119 146 197 260 297 350
#     4  10  22  38  60  87 127 151 200 254 306 349
#     4   9  18  35  61  89 118 160 202 247 297 359
#     4  10  22  40  58  88 128 164 198 252 301 351
#     4  11  21  38  63  84 117 163 215 244 293 355
#     4   9  17  34  61  91 112 154 202 244 297 362
#     4  10  19  36  62  89 113 159 206 250 299 354
#
# _framework density 22.368268
#
# number of rings (size 3 to 8) (size 9 to 14) (size 15 to 20)
#    0.000    2.286    2.857    0.857    0.000    1.143 
#    2.571    3.571   12.571    0.000    0.000    0.000 
#    0.000    0.000    0.000    0.000    0.000    0.000 
#
# Total GULP energy -77939.315388 kJ/mol
# GULP energy per Si atom -5567.093956 kJ/mol
# Density = 2.231736 g / cm^3
# Si number density = 22.368268 Si / 1000 Ang^3
#
#
#
# Elastic Constant Matrix: (Units=GPa)
#
#
# Indices 1 2 3 4 5 6 
#
# 1 66.5576 23.8933 12.8931 11.5820 14.4438 -15.4795
# 2 23.8933 74.2343 33.6939 25.5211 10.4702 -18.3619
# 3 12.8931 33.6939 109.8531 31.0992 27.7724 2.1486
# 4 11.5820 25.5211 31.0992 37.7972 4.5391 5.0512
# 5 14.4438 10.4702 27.7724 4.5391 40.9735 9.5251
# 6 -15.4795 -18.3619 2.1486 5.0512 9.5251 43.4472
#
#
#
# Elastic Compliance Matrix: (Units=1/GPa)
#
#
# Indices 1 2 3 4 5 6 
#
# 1 0.020842 -0.001360 0.002498 -0.007621 -0.010135 0.009835
# 2 -0.001360 0.023913 -0.001585 -0.015433 -0.005815 0.012769
# 3 0.002498 -0.001585 0.014948 -0.011185 -0.010063 0.002988
# 4 -0.007621 -0.015433 -0.011185 0.049182 0.012762 -0.017200
# 5 -0.010135 -0.005815 -0.010063 0.012762 0.038473 -0.015490
# 6 0.009835 0.012769 0.002988 -0.017200 -0.015490 0.037165
#
#
# Mechanical properties :
#
#
# Convention : Reuss Voigt Hill
#
# Bulk Modulus (GPa) = 17.00401 43.51172 30.25786
# Shear Modulus (GPa) = 24.38793 36.45455 30.42124
#
# Velocity S-wave (km/s) = 3.30554 4.04139 3.69184
# Velocity P-wave (km/s) = 4.71032 6.42431 5.63289
#
# Compressibility (1/GPa) = 0.05880965
#
# Stress axis : x y z
#
# Youngs Moduli (GPa) = 47.98024 41.81908 66.89729
#
# Poissons Ratio (x) = 0.05687 -0.16714
# Poissons Ratio (y) = 0.06524 0.10605
# Poissons Ratio (z) = -0.11988 0.06629
#
# Static dielectric constant tensor:
#      x y z
#    x 2.078180 -0.001240 -0.068360 
#    y -0.001240 1.845990 0.030960 
#    z -0.068360 0.030960 1.903260 
# 
# From -- ./inp_files/340952.got.cif
#   From: 2010.05.17/outbox.cif.g08.bks.cpg/sg2_171_cif.got.tgz:340952.got - 2010.06.03 11:33:40.
