data_PCOD9087491
_publ_section_title
;
Structure prediction by ZEFSAII (Michael W. Deem and Ramdas Pophale) SiO2 
 PCOD9087491
Probable space group: P -1
;
_chemical_formula_sum "Si O2"
_cell_formula_units_Z 16
_cell_length_a 22.917834
_cell_length_b 13.555856
_cell_length_c 8.012092
_cell_angle_alpha 38.915912
_cell_angle_beta 35.125029
_cell_angle_gamma 25.149505
_cell_volume 601.357151
_symmetry_space_group_name_H-M "P -1"
_symmetry_group_IT_number 2
_symmetry_cell_setting 'triclinic'
loop_
_space_group_symop_operation_xyz
x,y,z
-x,-y,-z
loop_
_atom_site_type_symbol
_atom_site_label
_atom_site_fract_x
_atom_site_fract_y
_atom_site_fract_z
Si Si1 0.373016 0.213756 0.895788
Si Si2 0.772262 0.952653 0.263796
Si Si3 0.424185 0.469492 0.387493
Si Si4 0.965041 0.809898 0.699450
Si Si5 0.402645 0.461485 0.047909
Si Si6 0.637255 0.855759 0.523922
Si Si7 0.911485 0.052686 0.973231
Si Si8 0.170329 0.297116 0.035948
O O1 0.324230 0.448307 0.735867
O O2 0.244839 0.238042 0.117607
O O3 0.474976 0.108486 0.626611
O O4 0.500000 0.000000 0.000000
O O5 0.827588 0.970726 0.938216
O O6 0.892732 0.889138 0.192586
O O7 0.756714 0.785227 0.475681
O O8 0.598228 0.208575 0.358505
O O9 0.384608 0.510805 0.227472
O O10 0.438538 0.625469 0.231332
O O11 0.014713 0.923590 0.375997
O O12 0.086141 0.557915 0.842982
O O13 0.927764 0.743786 0.713142
O O14 0.387269 0.299600 0.239244
O O15 0.264258 0.693004 0.961295
O O16 0.703184 0.856807 0.202380
O O17 0.000000 0.000000 0.000000
#
# Coordination Sequence:
#
# PCOD9087491 Si02
#       8
#     2   2   2   2   2   2   2   2
#     4  11  22  36  57  88 122 147 179 241 293 339
#     4   9  21  35  61  88 110 148 196 239 277 334
#     4   9  19  36  63  87 113 147 193 236 285 331
#     4  10  20  36  60  84 112 149 200 236 269 333
#     4  10  19  36  64  83 108 152 195 234 274 340
#     4  10  19  37  63  84 109 148 200 233 278 339
#     4  11  22  39  57  82 122 155 184 232 294 344
#     4  10  20  36  60  86 110 151 196 237 273 334
#
# _framework density 26.606483000000001
#
# number of rings (size 3 to 8) (size 9 to 14) (size 15 to 20)
#    0.000    2.000    2.500    0.750    3.500    3.000 
#    2.250    1.250    0.000    0.000    0.000    0.000 
#    0.000    0.000    0.000    0.000    0.000    0.000 
#
# Total GULP energy -89216.646288 kJ/mol
# GULP energy per Si atom -5576.040393 kJ/mol
# Density = 2.654593 g / cm^3
# Si number density = 26.606483 Si / 1000 Ang^3
#
#
#
# Elastic Constant Matrix: (Units=GPa)
#
#
# Indices 1 2 3 4 5 6 
#
# 1 227.2749 28.1260 55.9138 -15.2179 -61.4312 -49.3743
# 2 28.1260 41.2917 -0.4227 -3.9826 -1.6331 -8.4446
# 3 55.9138 -0.4227 89.2236 -9.3736 -46.5975 4.9177
# 4 -15.2179 -3.9826 -9.3736 25.0064 3.2366 2.5558
# 5 -61.4312 -1.6331 -46.5975 3.2366 62.9722 1.6689
# 6 -49.3743 -8.4446 4.9177 2.5558 1.6689 39.9544
#
#
#
# Elastic Compliance Matrix: (Units=1/GPa)
#
#
# Indices 1 2 3 4 5 6 
#
# 1 0.010397 -0.004168 -0.003152 0.002325 0.007268 0.011903
# 2 -0.004168 0.027323 0.001931 0.002778 -0.002079 0.000295
# 3 -0.003152 0.001931 0.020352 0.005169 0.011951 -0.006821
# 4 0.002325 0.002778 0.005169 0.043285 0.003943 -0.000110
# 5 0.007268 -0.002079 0.011951 0.003943 0.031410 0.005506
# 6 0.011903 0.000295 -0.006821 -0.000110 0.005506 0.040417
#
#
# Mechanical properties :
#
#
# Convention : Reuss Voigt Hill
#
# Bulk Modulus (GPa) = 21.14382 58.33603 39.73992
# Shear Modulus (GPa) = 25.03413 43.86482 34.44948
#
# Velocity S-wave (km/s) = 3.07074 4.06476 3.60221
# Velocity P-wave (km/s) = 4.53175 6.63346 5.68065
#
# Compressibility (1/GPa) = 0.04729515
#
# Stress axis : x y z
#
# Youngs Moduli (GPa) = 96.18131 36.59919 49.13439
#
# Poissons Ratio (x) = 0.15256 0.15485
# Poissons Ratio (y) = 0.40091 -0.09489
# Poissons Ratio (z) = 0.30312 -0.07068
#
# Static dielectric constant tensor:
#      x y z
#    x 2.229060 0.058940 -0.031220 
#    y 0.058940 2.153300 -0.018440 
#    z -0.031220 -0.018440 2.274570 
# 
# From -- ./inp_files/347466.got.cif
#   From: 2010.05.17/outbox.cif.g08.bks.cpg/sg2_174_cif.got.tgz:347466.got - 2010.06.03 11:33:40.
