data_PCOD9087051
_publ_section_title
;
Structure prediction by ZEFSAII (Michael W. Deem and Ramdas Pophale) SiO2 
 PCOD9087051
Probable space group: P -1
;
_chemical_formula_sum "Si O2"
_cell_formula_units_Z 15
_cell_length_a 12.345992
_cell_length_b 7.194350
_cell_length_c 8.449317
_cell_angle_alpha 58.782747
_cell_angle_beta 89.148542
_cell_angle_gamma 78.489719
_cell_volume 625.387366
_symmetry_space_group_name_H-M "P -1"
_symmetry_group_IT_number 2
_symmetry_cell_setting 'triclinic'
loop_
_space_group_symop_operation_xyz
x,y,z
-x,-y,-z
loop_
_atom_site_type_symbol
_atom_site_label
_atom_site_fract_x
_atom_site_fract_y
_atom_site_fract_z
Si Si1 0.899248 0.800628 0.430684
Si Si2 0.766105 0.961456 0.073916
Si Si3 0.500000 0.000000 0.500000
Si Si4 0.465229 0.915680 0.869814
Si Si5 0.102128 0.390246 0.159208
Si Si6 0.721644 0.193897 0.424073
Si Si7 0.315332 0.394954 0.984648
Si Si8 0.130346 0.881351 0.274286
O O1 0.830024 0.790728 0.277877
O O2 0.910398 0.614209 0.648902
O O3 0.020559 0.811746 0.364558
O O4 0.828328 0.034564 0.404171
O O5 0.719193 0.811345 0.014455
O O6 0.657730 0.121118 0.082975
O O7 0.845209 0.095065 0.922081
O O8 0.463286 0.078949 0.650539
O O9 0.378170 0.932939 0.508284
O O10 0.561996 0.705790 0.904735
O O11 0.500000 0.000000 0.000000
O O12 0.115870 0.133094 0.226004
O O13 0.214874 0.464286 0.078955
O O14 0.000000 0.500000 0.000000
O O15 0.682935 0.416637 0.226067
O O16 0.763265 0.247788 0.572839
#
# Coordination Sequence:
#
# PCOD9087051 Si02
#       8
#     2   2   1   2   2   2   2   2
#     4  11  20  38  65  92 123 167 211 257 316 387
#     4  10  21  40  60  91 128 167 209 259 319 381
#     4  12  22  40  68  88 126 170 216 258 326 390
#     4  10  21  41  64  88 132 171 210 266 322 376
#     4  10  19  36  61  90 123 161 209 260 312 372
#     4  11  22  40  64  94 121 163 218 258 320 389
#     4  10  22  39  62  91 129 168 206 264 323 375
#     4  10  21  38  63  88 126 170 205 257 329 375
#
# _framework density 23.985133999999999
#
# number of rings (size 3 to 8) (size 9 to 14) (size 15 to 20)
#    0.000    1.600    1.333    6.800    0.000    0.533 
#    0.000   14.667    0.000    0.000    0.000    0.000 
#    0.000    0.000    0.000    0.000    0.000    0.000 
#
# Total GULP energy -83540.622392 kJ/mol
# GULP energy per Si atom -5569.374826 kJ/mol
# Density = 2.393054 g / cm^3
# Si number density = 23.985134 Si / 1000 Ang^3
#
#
#
# Elastic Constant Matrix: (Units=GPa)
#
#
# Indices 1 2 3 4 5 6 
#
# 1 194.2007 16.2142 78.3145 12.9809 -14.0443 -21.0261
# 2 16.2142 31.3657 0.1359 9.0068 -9.7917 -8.5847
# 3 78.3145 0.1359 111.6981 20.2289 -24.6477 -11.3826
# 4 12.9809 9.0068 20.2289 37.1500 -11.0346 1.4695
# 5 -14.0443 -9.7917 -24.6477 -11.0346 36.7633 11.9748
# 6 -21.0261 -8.5847 -11.3826 1.4695 11.9748 16.9637
#
#
#
# Elastic Compliance Matrix: (Units=1/GPa)
#
#
# Indices 1 2 3 4 5 6 
#
# 1 0.008405 -0.003415 -0.005976 -0.000469 -0.004394 0.007822
# 2 -0.003415 0.044948 0.008084 -0.013467 0.005022 0.021559
# 3 -0.005976 0.008084 0.016341 -0.006475 0.008062 0.002518
# 4 -0.000469 -0.013467 -0.006475 0.037913 0.010605 -0.022512
# 5 -0.004394 0.005022 0.008062 0.010605 0.045362 -0.030435
# 6 0.007822 0.021559 0.002518 -0.022512 -0.030435 0.104678
#
#
# Mechanical properties :
#
#
# Convention : Reuss Voigt Hill
#
# Bulk Modulus (GPa) = 14.90785 58.51041 36.70913
# Shear Modulus (GPa) = 17.69143 34.34873 26.02008
#
# Velocity S-wave (km/s) = 2.71883 3.78839 3.29727
# Velocity P-wave (km/s) = 4.01061 6.60177 5.46206
#
# Compressibility (1/GPa) = 0.06707877
#
# Stress axis : x y z
#
# Youngs Moduli (GPa) = 118.97703 22.24799 61.19462
#
# Poissons Ratio (x) = 0.07598 0.36572
# Poissons Ratio (y) = 0.40633 -0.49469
# Poissons Ratio (z) = 0.71105 -0.17985
#
# Static dielectric constant tensor:
#      x y z
#    x 1.961790 -0.018620 0.096700 
#    y -0.018620 1.997680 0.085350 
#    z 0.096700 0.085350 2.240440 
# 
# From -- ./inp_files/242061.got.cif
#   From: 2010.05.17/outbox.cif.g08.bks.cpg/sg2_122_cif.got.tgz:242061.got - 2010.06.03 11:33:40.
