data_PCOD9087328
_publ_section_title
;
Structure prediction by ZEFSAII (Michael W. Deem and Ramdas Pophale) SiO2 
 PCOD9087328
Probable space group: P -1
;
_chemical_formula_sum "Si O2"
_cell_formula_units_Z 16
_cell_length_a 11.418580
_cell_length_b 15.267786
_cell_length_c 10.316400
_cell_angle_alpha 89.613993
_cell_angle_beta 47.615673
_cell_angle_gamma 124.608345
_cell_volume 839.357844
_symmetry_space_group_name_H-M "P -1"
_symmetry_group_IT_number 2
_symmetry_cell_setting 'triclinic'
loop_
_space_group_symop_operation_xyz
x,y,z
-x,-y,-z
loop_
_atom_site_type_symbol
_atom_site_label
_atom_site_fract_x
_atom_site_fract_y
_atom_site_fract_z
Si Si1 0.026795 0.217503 0.186778
Si Si2 0.106381 0.906160 0.424503
Si Si3 0.779169 0.396482 0.890066
Si Si4 0.879499 0.273794 0.654715
Si Si5 0.217860 0.051006 0.750000
Si Si6 0.323735 0.166674 0.384666
Si Si7 0.226146 0.713146 0.556530
Si Si8 0.572102 0.453963 0.846480
O O1 0.985606 0.169343 0.366976
O O2 0.919902 0.269854 0.262736
O O3 0.869607 0.085387 0.215370
O O4 0.325613 0.335812 0.944020
O O5 0.199455 0.861294 0.277405
O O6 0.875588 0.850080 0.521932
O O7 0.289108 0.063748 0.324571
O O8 0.800476 0.307525 0.822346
O O9 0.650085 0.402550 0.874609
O O10 0.053526 0.554249 0.706171
O O11 0.600685 0.320912 0.148831
O O12 0.778491 0.266871 0.592898
O O13 0.181817 0.409887 0.414668
O O14 0.252604 0.113068 0.584572
O O15 0.489044 0.170703 0.612591
O O16 0.000000 0.000000 0.000000
O O17 0.500000 0.500000 0.000000
#
# Coordination Sequence:
#
# PCOD9087328 Si02
#       8
#     2   2   2   2   2   2   2   2
#     4  10  19  36  63  84 113 150 193 237 280 344
#     4   9  18  36  58  88 114 147 192 233 289 341
#     4  11  21  34  60  92 121 144 187 248 288 342
#     4  10  21  32  59  96 120 142 186 246 288 335
#     4  11  26  40  58  81 113 158 197 236 281 349
#     4  10  21  38  59  82 115 159 191 230 292 342
#     4  10  21  38  58  88 118 154 190 228 287 343
#     4  11  16  32  60  92 116 148 182 234 300 333
#
# _framework density 19.062190999999999
#
# number of rings (size 3 to 8) (size 9 to 14) (size 15 to 20)
#    0.000    1.750    5.000    1.875    3.500    1.000 
#    0.000    3.750    0.000    1.500    0.000    0.000 
#    0.000    0.000    0.000    0.000    0.000    0.000 
#
# Total GULP energy -89287.657542 kJ/mol
# GULP energy per Si atom -5580.478596 kJ/mol
# Density = 1.901881 g / cm^3
# Si number density = 19.062191 Si / 1000 Ang^3
#
#
#
# Elastic Constant Matrix: (Units=GPa)
#
#
# Indices 1 2 3 4 5 6 
#
# 1 42.8705 43.8515 43.6857 -5.6075 -19.4144 2.4845
# 2 43.8515 115.0865 42.0707 1.2836 -11.9147 -0.8044
# 3 43.6857 42.0707 107.0304 -6.4693 -20.9463 13.9077
# 4 -5.6075 1.2836 -6.4693 27.0439 7.0481 -9.4968
# 5 -19.4144 -11.9147 -20.9463 7.0481 24.9703 -8.0078
# 6 2.4845 -0.8044 13.9077 -9.4968 -8.0078 27.2747
#
#
#
# Elastic Compliance Matrix: (Units=1/GPa)
#
#
# Indices 1 2 3 4 5 6 
#
# 1 0.082288 -0.019998 -0.019334 0.008566 0.041205 0.016853
# 2 -0.019998 0.015339 0.000712 -0.003316 -0.007125 -0.001336
# 3 -0.019334 0.000712 0.017519 -0.002317 -0.002092 -0.008572
# 4 0.008566 -0.003316 -0.002317 0.044691 -0.004850 0.014440
# 5 0.041205 -0.007125 -0.002092 -0.004850 0.073775 0.017074
# 6 0.016853 -0.001336 -0.008572 0.014440 0.017074 0.049501
#
#
# Mechanical properties :
#
#
# Convention : Reuss Voigt Hill
#
# Bulk Modulus (GPa) = 26.38178 58.24480 42.31329
# Shear Modulus (GPa) = 13.40523 24.88307 19.14415
#
# Velocity S-wave (km/s) = 2.65474 3.61690 3.17251
# Velocity P-wave (km/s) = 4.82356 6.93283 5.97205
#
# Compressibility (1/GPa) = 0.03790495
#
# Stress axis : x y z
#
# Youngs Moduli (GPa) = 12.15249 65.19395 57.08027
#
# Poissons Ratio (x) = 1.30377 1.10360
# Poissons Ratio (y) = 0.24303 -0.04064
# Poissons Ratio (z) = 0.23496 -0.04642
#
# Static dielectric constant tensor:
#      x y z
#    x 1.636420 -0.006250 -0.014350 
#    y -0.006250 1.703070 -0.010840 
#    z -0.014350 -0.010840 1.657610 
# 
# From -- ./inp_files/274607.got.cif
#   From: 2010.05.17/outbox.cif.g08.bks.cpg/sg2_138_cif.got.tgz:274607.got - 2010.06.03 11:33:40.
