data_PCOD9087216
_publ_section_title
;
Structure prediction by ZEFSAII (Michael W. Deem and Ramdas Pophale) SiO2 
 PCOD9087216
Probable space group: P -1
;
_chemical_formula_sum "Si O2"
_cell_formula_units_Z 16
_cell_length_a 15.353734
_cell_length_b 10.191790
_cell_length_c 11.893895
_cell_angle_alpha 132.684021
_cell_angle_beta 133.914139
_cell_angle_gamma 42.896173
_cell_volume 856.118779
_symmetry_space_group_name_H-M "P -1"
_symmetry_group_IT_number 2
_symmetry_cell_setting 'triclinic'
loop_
_space_group_symop_operation_xyz
x,y,z
-x,-y,-z
loop_
_atom_site_type_symbol
_atom_site_label
_atom_site_fract_x
_atom_site_fract_y
_atom_site_fract_z
Si Si1 0.415469 0.068396 0.831616
Si Si2 0.529419 0.583274 0.688608
Si Si3 0.179150 0.774575 0.291675
Si Si4 0.814173 0.806787 0.475580
Si Si5 0.917171 0.517060 0.610321
Si Si6 0.060741 0.310639 0.030326
Si Si7 0.757125 0.291324 0.421946
Si Si8 0.705132 0.968325 0.079965
O O1 0.485529 0.819650 0.761229
O O2 0.328206 0.144332 0.685124
O O3 0.311973 0.146699 0.892316
O O4 0.543193 0.110625 0.982341
O O5 0.500000 0.500000 0.500000
O O6 0.690456 0.426638 0.764230
O O7 0.411396 0.584264 0.662768
O O8 0.195920 0.746948 0.427038
O O9 0.038018 0.788470 0.130046
O O10 0.185515 0.979390 0.390103
O O11 0.839441 0.694269 0.551389
O O12 0.939033 0.652930 0.415930
O O13 0.829025 0.405492 0.495732
O O14 0.938413 0.611429 0.798890
O O15 0.213216 0.162800 0.030208
O O16 0.000000 0.500000 0.000000
O O17 0.786452 0.081461 0.265477
#
# Coordination Sequence:
#
# PCOD9087216 Si02
#       8
#     2   2   2   2   2   2   2   2
#     4  10  19  36  62  89 120 155 196 245 302 346
#     4   9  17  33  59  91 116 144 196 252 286 345
#     4  11  21  37  66  87 121 157 200 243 302 350
#     4  11  23  43  61  83 124 168 192 234 312 365
#     4  11  26  40  58  89 125 157 200 247 294 360
#     4  12  23  35  60  93 120 149 204 258 290 336
#     4  10  20  39  59  88 119 153 199 248 291 347
#     4  10  21  35  61  91 117 150 202 253 287 347
#
# _framework density 18.688994999999998
#
# number of rings (size 3 to 8) (size 9 to 14) (size 15 to 20)
#    0.000    1.500    5.000    2.250    1.750    3.500 
#    0.000    3.125    0.000    0.000    0.000    0.000 
#    0.000    0.000    0.000    0.000    0.000    0.000 
#
# Total GULP energy -89231.061684 kJ/mol
# GULP energy per Si atom -5576.941355 kJ/mol
# Density = 1.864646 g / cm^3
# Si number density = 18.688995 Si / 1000 Ang^3
#
#
#
# Elastic Constant Matrix: (Units=GPa)
#
#
# Indices 1 2 3 4 5 6 
#
# 1 84.0990 39.2953 50.1936 -8.2333 -1.1071 5.6820
# 2 39.2953 88.0107 39.9964 -14.2210 -2.5350 11.0309
# 3 50.1936 39.9964 130.6522 -10.0926 3.5844 9.8755
# 4 -8.2333 -14.2210 -10.0926 25.8462 -3.9467 -1.1595
# 5 -1.1071 -2.5350 3.5844 -3.9467 32.5667 3.2390
# 6 5.6820 11.0309 9.8755 -1.1595 3.2390 27.5248
#
#
#
# Elastic Compliance Matrix: (Units=1/GPa)
#
#
# Indices 1 2 3 4 5 6 
#
# 1 0.017498 -0.005409 -0.005053 0.000759 0.000791 0.000307
# 2 -0.005409 0.016520 -0.002174 0.006705 0.002626 -0.004750
# 3 -0.005053 -0.002174 0.010500 0.001035 -0.001205 -0.001667
# 4 0.000759 0.006705 0.001035 0.043842 0.005953 -0.002069
# 5 0.000791 0.002626 -0.001205 0.005953 0.032222 -0.004324
# 6 0.000307 -0.004750 -0.001667 -0.002069 -0.004324 0.039191
#
#
# Mechanical properties :
#
#
# Convention : Reuss Voigt Hill
#
# Bulk Modulus (GPa) = 51.96076 62.41475 57.18776
# Shear Modulus (GPa) = 26.11516 28.73932 27.42724
#
# Velocity S-wave (km/s) = 3.74218 3.92569 3.83503
# Velocity P-wave (km/s) = 6.82166 7.34963 7.09056
#
# Compressibility (1/GPa) = 0.01924529
#
# Stress axis : x y z
#
# Youngs Moduli (GPa) = 57.14983 60.53261 95.24140
#
# Poissons Ratio (x) = 0.32745 0.48122
# Poissons Ratio (y) = 0.30915 0.20706
# Poissons Ratio (z) = 0.28876 0.13160
#
# Static dielectric constant tensor:
#      x y z
#    x 1.685220 -0.059160 0.005950 
#    y -0.059160 1.667970 0.027380 
#    z 0.005950 0.027380 1.699010 
# 
# From -- ./inp_files/448237.got.cif
#   From: 2010.05.17/outbox.cif.g08.bks.cpg/sg2_225_cif.got.tgz:448237.got - 2010.06.03 11:33:40.
