data_PCOD9087936
_publ_section_title
;
Structure prediction by ZEFSAII (Michael W. Deem and Ramdas Pophale) SiO2 
 PCOD9087936
Probable space group: P -1
;
_chemical_formula_sum "Si O2"
_cell_formula_units_Z 14
_cell_length_a 22.238870
_cell_length_b 8.922538
_cell_length_c 16.801456
_cell_angle_alpha 153.172856
_cell_angle_beta 156.024840
_cell_angle_gamma 25.887895
_cell_volume 542.993877
_symmetry_space_group_name_H-M "P -1"
_symmetry_group_IT_number 2
_symmetry_cell_setting 'triclinic'
loop_
_space_group_symop_operation_xyz
x,y,z
-x,-y,-z
loop_
_atom_site_type_symbol
_atom_site_label
_atom_site_fract_x
_atom_site_fract_y
_atom_site_fract_z
Si Si1 0.519464 0.674389 0.694250
Si Si2 0.845867 0.123516 0.815079
Si Si3 0.946475 0.027271 0.316470
Si Si4 0.821065 0.028590 0.564937
Si Si5 0.537431 0.340101 0.730560
Si Si6 0.196788 0.206877 0.099150
Si Si7 0.775517 0.503805 0.489080
O O1 0.500000 0.500000 0.500000
O O2 0.338761 0.043990 0.652948
O O3 0.526884 0.576482 0.752536
O O4 0.715506 0.559552 0.866845
O O5 0.736553 0.925194 0.621044
O O6 0.903610 0.982764 0.729184
O O7 0.000000 0.000000 0.000000
O O8 0.868701 0.283996 0.419389
O O9 0.052721 0.138924 0.434565
O O10 0.090753 0.643491 0.346940
O O11 0.802888 0.000238 0.079592
O O12 0.733149 0.489423 0.666600
O O13 0.383688 0.552410 0.706597
O O14 0.500000 0.000000 0.500000
O O15 0.714271 0.118776 0.883521
O O16 0.000000 0.500000 0.000000
#
# Coordination Sequence:
#
# PCOD9087936 Si02
#       7
#     2   2   2   2   2   2   2
#     4  10  21  36  57  89 115 148 193 239 297 347
#     4  11  23  34  59  89 112 149 200 246 287 346
#     4  10  22  37  58  84 122 155 194 247 286 344
#     4  10  19  37  57  83 119 153 187 245 286 339
#     4  12  19  36  64  85 117 154 191 246 291 348
#     4  10  20  33  60  91 117 145 197 244 285 338
#     4  11  22  39  58  86 117 161 198 232 300 350
#
# _framework density 25.782979000000001
#
# number of rings (size 3 to 8) (size 9 to 14) (size 15 to 20)
#    0.000    1.429    4.286    1.714    4.000    1.143 
#    0.000    0.000    0.000    0.857    0.000    0.000 
#    0.000    0.000    0.000    0.000    0.000    0.000 
#
# Total GULP energy -77960.291713 kJ/mol
# GULP energy per Si atom -5568.592265 kJ/mol
# Density = 2.572430 g / cm^3
# Si number density = 25.782979 Si / 1000 Ang^3
#
#
#
# Elastic Constant Matrix: (Units=GPa)
#
#
# Indices 1 2 3 4 5 6 
#
# 1 203.7253 49.6165 39.5980 -23.2954 -22.4327 -17.0488
# 2 49.6165 58.9317 36.5431 -25.8664 -8.3580 3.7993
# 3 39.5980 36.5431 86.7632 -52.1196 -28.5245 6.3611
# 4 -23.2954 -25.8664 -52.1196 46.8674 10.1862 -4.9387
# 5 -22.4327 -8.3580 -28.5245 10.1862 44.6486 -11.9238
# 6 -17.0488 3.7993 6.3611 -4.9387 -11.9238 56.0626
#
#
#
# Elastic Compliance Matrix: (Units=1/GPa)
#
#
# Indices 1 2 3 4 5 6 
#
# 1 0.006881 -0.005557 0.000113 0.000092 0.003314 0.003169
# 2 -0.005557 0.028071 -0.007401 0.005093 -0.004286 -0.003215
# 3 0.000113 -0.007401 0.048569 0.045966 0.020108 0.003351
# 4 0.000092 0.005093 0.045966 0.072496 0.014901 0.004023
# 5 0.003314 -0.004286 0.020108 0.014901 0.034770 0.007725
# 6 0.003169 -0.003215 0.003351 0.004023 0.007725 0.020636
#
#
# Mechanical properties :
#
#
# Convention : Reuss Voigt Hill
#
# Bulk Modulus (GPa) = 17.29178 66.77061 42.03119
# Shear Modulus (GPa) = 19.50160 44.42656 31.96408
#
# Velocity S-wave (km/s) = 2.75321 4.15552 3.52481
# Velocity P-wave (km/s) = 4.10221 6.99842 5.73611
#
# Compressibility (1/GPa) = 0.05783096
#
# Stress axis : x y z
#
# Youngs Moduli (GPa) = 145.33418 35.62343 20.58945
#
# Poissons Ratio (x) = 0.19795 -0.00232
# Poissons Ratio (y) = 0.80759 0.15238
# Poissons Ratio (z) = -0.01641 0.26365
#
# Static dielectric constant tensor:
#      x y z
#    x 2.153770 0.033440 0.131470 
#    y 0.033440 2.177000 0.080800 
#    z 0.131470 0.080800 2.188350 
# 
# From -- ./inp_files/172737.got.cif
#   From: 2010.05.17/outbox.cif.g08.bks.cpg/sg2_87_cif.got.tgz:172737.got - 2010.06.03 11:33:40.
