data_PCOD9087262
_publ_section_title
;
Structure prediction by ZEFSAII (Michael W. Deem and Ramdas Pophale) SiO2 
 PCOD9087262
Probable space group: P -1
;
_chemical_formula_sum "Si O2"
_cell_formula_units_Z 16
_cell_length_a 15.046334
_cell_length_b 8.920656
_cell_length_c 23.764211
_cell_angle_alpha 49.580160
_cell_angle_beta 161.245150
_cell_angle_gamma 131.037440
_cell_volume 768.855505
_symmetry_space_group_name_H-M "P -1"
_symmetry_group_IT_number 2
_symmetry_cell_setting 'triclinic'
loop_
_space_group_symop_operation_xyz
x,y,z
-x,-y,-z
loop_
_atom_site_type_symbol
_atom_site_label
_atom_site_fract_x
_atom_site_fract_y
_atom_site_fract_z
Si Si1 0.048003 0.275737 0.438263
Si Si2 0.148834 0.455176 0.244181
Si Si3 0.892708 0.792923 0.953268
Si Si4 0.538252 0.224660 0.946165
Si Si5 0.527195 0.357235 0.171808
Si Si6 0.743116 0.369608 0.606749
Si Si7 0.905207 0.951528 0.088067
Si Si8 0.358946 0.098389 0.756747
O O1 0.120490 0.465135 0.396137
O O2 0.314894 0.217584 0.644491
O O3 0.823487 0.303232 0.345449
O O4 0.888481 0.092789 0.349525
O O5 0.094741 0.636051 0.127689
O O6 0.409816 0.356156 0.406524
O O7 0.191878 0.548901 0.310110
O O8 0.865650 0.296847 0.113074
O O9 0.591823 0.695412 0.823575
O O10 0.925874 0.865633 0.891541
O O11 0.000000 0.000000 0.000000
O O12 0.466612 0.409319 0.894917
O O13 0.350494 0.220706 0.778562
O O14 0.500000 0.000000 0.000000
O O15 0.291896 0.216929 0.027648
O O16 0.871063 0.170208 0.722141
O O17 0.662024 0.030967 0.957192
#
# Coordination Sequence:
#
# PCOD9087262 Si02
#       8
#     2   2   2   2   2   2   2   2
#     4  10  22  40  59  93 116 157 197 253 285 352
#     4  10  21  37  58  94 115 156 196 247 297 347
#     4   9  15  34  55  85 117 147 197 239 286 350
#     4  11  22  40  60  88 122 161 193 243 298 358
#     4   9  20  36  61  86 121 154 202 234 300 352
#     4  11  20  35  63  88 122 145 203 247 294 335
#     4  10  19  36  62  92 114 158 195 250 290 348
#     4  10  23  38  61  86 122 156 203 235 301 350
#
# _framework density 20.810151000000001
#
# number of rings (size 3 to 8) (size 9 to 14) (size 15 to 20)
#    0.000    2.000    3.750    1.500    1.750    2.500 
#    2.250    6.250    0.000    0.000    0.000    0.000 
#    0.000    0.000    0.000    0.000    0.000    0.000 
#
# Total GULP energy -89217.801972 kJ/mol
# GULP energy per Si atom -5576.112623 kJ/mol
# Density = 2.076279 g / cm^3
# Si number density = 20.810151 Si / 1000 Ang^3
#
#
#
# Elastic Constant Matrix: (Units=GPa)
#
#
# Indices 1 2 3 4 5 6 
#
# 1 27.5502 11.8694 18.7892 -3.6003 3.6265 9.4430
# 2 11.8694 102.0178 33.5347 -18.0243 -4.0223 19.4349
# 3 18.7892 33.5347 102.0685 -22.3578 17.9868 7.7869
# 4 -3.6003 -18.0243 -22.3578 26.5569 2.9911 -6.5646
# 5 3.6265 -4.0223 17.9868 2.9911 16.8326 -7.0693
# 6 9.4430 19.4349 7.7869 -6.5646 -7.0693 32.1280
#
#
#
# Elastic Compliance Matrix: (Units=1/GPa)
#
#
# Indices 1 2 3 4 5 6 
#
# 1 0.046697 -0.001643 -0.005653 -0.001868 -0.009930 -0.013928
# 2 -0.001643 0.012914 -0.003534 0.003898 0.004561 -0.004672
# 3 -0.005653 -0.003534 0.020251 0.015902 -0.025555 -0.003483
# 4 -0.001868 0.003898 0.015902 0.056372 -0.025580 0.000227
# 5 -0.009930 0.004561 -0.025555 -0.025580 0.104633 0.024150
# 6 -0.013928 -0.004672 -0.003483 0.000227 0.024150 0.044250
#
#
# Mechanical properties :
#
#
# Convention : Reuss Voigt Hill
#
# Bulk Modulus (GPa) = 17.18143 40.00258 28.59201
# Shear Modulus (GPa) = 15.32903 26.26637 20.79770
#
# Velocity S-wave (km/s) = 2.71701 3.55659 3.16476
# Velocity P-wave (km/s) = 4.25641 6.01083 5.20803
#
# Compressibility (1/GPa) = 0.05820237
#
# Stress axis : x y z
#
# Youngs Moduli (GPa) = 21.41443 77.43779 49.37928
#
# Poissons Ratio (x) = 0.12724 0.27915
# Poissons Ratio (y) = 0.03519 0.17449
# Poissons Ratio (z) = 0.12106 0.27364
#
# Static dielectric constant tensor:
#      x y z
#    x 1.803910 -0.010740 0.010360 
#    y -0.010740 1.741100 -0.018260 
#    z 0.010360 -0.018260 1.753290 
# 
# From -- ./inp_files/500391.got.cif
#   From: 2010.05.17/outbox.cif.g08.bks.cpg/sg2_251_cif.got.tgz:500391.got - 2010.06.03 11:33:40.
