data_PCOD9087614
_publ_section_title
;
Structure prediction by ZEFSAII (Michael W. Deem and Ramdas Pophale) SiO2 
 PCOD9087614
Probable space group: P -1
;
_chemical_formula_sum "Si O2"
_cell_formula_units_Z 14
_cell_length_a 14.548066
_cell_length_b 23.457553
_cell_length_c 10.996210
_cell_angle_alpha 150.547894
_cell_angle_beta 30.261151
_cell_angle_gamma 160.321514
_cell_volume 599.172454
_symmetry_space_group_name_H-M "P -1"
_symmetry_group_IT_number 2
_symmetry_cell_setting 'triclinic'
loop_
_space_group_symop_operation_xyz
x,y,z
-x,-y,-z
loop_
_atom_site_type_symbol
_atom_site_label
_atom_site_fract_x
_atom_site_fract_y
_atom_site_fract_z
Si Si1 0.599965 0.332946 0.247026
Si Si2 0.166162 0.548145 0.071775
Si Si3 0.664931 0.688653 0.109559
Si Si4 0.869758 0.738854 0.447145
Si Si5 0.445871 0.114619 0.401249
Si Si6 0.757472 0.790086 0.923054
Si Si7 0.247625 0.960180 0.069394
O O1 0.719035 0.378039 0.058764
O O2 0.359896 0.314319 0.478907
O O3 0.877244 0.480144 0.288582
O O4 0.445386 0.138792 0.095578
O O5 0.085501 0.372573 0.846488
O O6 0.448419 0.701555 0.112606
O O7 0.479087 0.714799 0.371658
O O8 0.500000 0.500000 0.000000
O O9 0.784902 0.742060 0.933137
O O10 0.929714 0.836804 0.171059
O O11 0.759914 0.700996 0.641110
O O12 0.163553 0.951424 0.498711
O O13 0.687267 0.143289 0.218562
O O14 0.336296 0.028321 0.231978
O O15 0.000000 0.000000 0.000000
#
# Coordination Sequence:
#
# PCOD9087614 Si02
#       7
#     2   2   2   2   2   2   2
#     4  10  19  36  64  98 121 158 223 275 315 377
#     4  10  22  37  65  97 127 165 226 274 316 383
#     4  12  27  44  67  99 138 175 218 269 337 407
#     4  11  21  41  68  94 127 170 225 275 324 378
#     4  11  24  43  70  94 127 176 225 279 324 384
#     4  11  22  42  66  93 138 175 205 267 337 396
#     4  11  24  44  70  93 129 176 228 271 328 391
#
# _framework density 23.365559000000001
#
# number of rings (size 3 to 8) (size 9 to 14) (size 15 to 20)
#    0.000    1.143    4.286    3.000    2.000    1.714 
#    0.000    6.429    0.000    0.000    0.000    0.000 
#    0.000    0.000    0.000    0.000    0.000    0.000 
#
# Total GULP energy -78283.569726 kJ/mol
# GULP energy per Si atom -5591.683552 kJ/mol
# Density = 2.331238 g / cm^3
# Si number density = 23.365559 Si / 1000 Ang^3
#
#
#
# Elastic Constant Matrix: (Units=GPa)
#
#
# Indices 1 2 3 4 5 6 
#
# 1 97.0672 11.1024 24.7442 9.5219 -4.9875 -18.5354
# 2 11.1024 73.9873 -0.0155 29.4753 6.5320 -26.9523
# 3 24.7442 -0.0155 64.2407 -1.5917 8.8431 -28.8682
# 4 9.5219 29.4753 -1.5917 16.5520 15.4887 -14.0944
# 5 -4.9875 6.5320 8.8431 15.4887 -43.3762 32.3118
# 6 -18.5354 -26.9523 -28.8682 -14.0944 32.3118 32.5178
#
#
#
# Elastic Compliance Matrix: (Units=1/GPa)
#
#
# Indices 1 2 3 4 5 6 
#
# 1 0.012264 0.003165 -0.002718 -0.008130 -0.000949 0.004620
# 2 0.003165 0.046325 0.005788 -0.066091 -0.001938 0.018619
# 3 -0.002718 0.005788 0.018993 -0.007769 0.008478 0.008318
# 4 -0.008130 -0.066091 -0.007769 0.140909 0.020580 -0.025685
# 5 -0.000949 -0.001938 0.008478 0.020580 -0.002016 0.016303
# 6 0.004620 0.018619 0.008318 -0.025685 0.016303 0.028870
#
#
# Mechanical properties :
#
#
# Convention : Reuss Voigt Hill
#
# Bulk Modulus (GPa) = 11.10458 34.10636 22.60547
# Shear Modulus (GPa) = 19.01920 14.43634 16.72777
#
# Velocity S-wave (km/s) = 2.85614 2.48835 2.67856
# Velocity P-wave (km/s) = 3.95469 4.78376 4.38885
#
# Compressibility (1/GPa) = 0.09005293
#
# Stress axis : x y z
#
# Youngs Moduli (GPa) = 81.53985 21.58650 52.65124
#
# Poissons Ratio (x) = -0.06832 0.14309
# Poissons Ratio (y) = -0.25806 -0.30475
# Poissons Ratio (z) = 0.22160 -0.12495
#
# Static dielectric constant tensor:
#      x y z
#    x 1.905900 0.006350 0.027440 
#    y 0.006350 1.896240 -0.009820 
#    z 0.027440 -0.009820 1.917340 
# 
# From -- ./inp_files/450970.got.cif
#   From: 2010.05.17/outbox.cif.g08.bks.cpg/sg2_226_cif.got.tgz:450970.got - 2010.06.03 11:33:40.
