data_PCOD9087456
_publ_section_title
;
Structure prediction by ZEFSAII (Michael W. Deem and Ramdas Pophale) SiO2 
 PCOD9087456
Probable space group: P -1
;
_chemical_formula_sum "Si O2"
_cell_formula_units_Z 16
_cell_length_a 14.009219
_cell_length_b 8.158954
_cell_length_c 12.615594
_cell_angle_alpha 33.061070
_cell_angle_beta 61.020993
_cell_angle_gamma 78.990489
_cell_volume 614.306780
_symmetry_space_group_name_H-M "P -1"
_symmetry_group_IT_number 2
_symmetry_cell_setting 'triclinic'
loop_
_space_group_symop_operation_xyz
x,y,z
-x,-y,-z
loop_
_atom_site_type_symbol
_atom_site_label
_atom_site_fract_x
_atom_site_fract_y
_atom_site_fract_z
Si Si1 0.807717 0.631839 0.271465
Si Si2 0.985311 0.115022 0.323015
Si Si3 0.757798 0.790519 0.926735
Si Si4 0.636855 0.050561 0.424270
Si Si5 0.423404 0.095925 0.903599
Si Si6 0.729724 0.863089 0.679192
Si Si7 0.387837 0.167030 0.667693
Si Si8 0.047485 0.853815 0.913073
O O1 0.765417 0.240811 0.496939
O O2 0.695149 0.712735 0.285057
O O3 0.868978 0.808997 0.252896
O O4 0.913149 0.817715 0.029328
O O5 0.099299 0.040854 0.273807
O O6 0.859675 0.860733 0.585032
O O7 0.929507 0.132766 0.229959
O O8 0.034987 0.484743 0.150659
O O9 0.682183 0.673459 0.918724
O O10 0.721750 0.437931 0.196199
O O11 0.702598 0.986410 0.922291
O O12 0.651941 0.831682 0.631027
O O13 0.500000 0.000000 0.500000
O O14 0.681829 0.006377 0.307686
O O15 0.416560 0.962952 0.856836
O O16 0.502390 0.497218 0.621041
O O17 0.500000 0.000000 0.000000
#
# Coordination Sequence:
#
# PCOD9087456 Si02
#       8
#     2   2   2   2   2   2   2   2
#     4  10  19  36  63  94 130 171 213 270 322 390
#     4  10  19  39  65  98 134 170 216 271 329 390
#     4  12  24  43  68  96 134 173 220 273 333 392
#     4  12  26  44  68  95 130 179 224 273 327 389
#     4  11  25  41  64  91 125 169 212 269 325 387
#     4  11  25  41  66  99 136 172 220 274 327 395
#     4  11  23  42  63  90 126 163 219 263 322 384
#     4   9  18  34  65  98 128 171 219 259 328 393
#
# _framework density 26.045618000000001
#
# number of rings (size 3 to 8) (size 9 to 14) (size 15 to 20)
#    0.000    1.250    1.250    6.375    3.500    1.500 
#    0.000    1.875    0.000    0.000    0.000    0.000 
#    0.000    0.000    0.000    0.000    0.000    0.000 
#
# Total GULP energy -89277.647851 kJ/mol
# GULP energy per Si atom -5579.852991 kJ/mol
# Density = 2.598634 g / cm^3
# Si number density = 26.045618 Si / 1000 Ang^3
#
#
#
# Elastic Constant Matrix: (Units=GPa)
#
#
# Indices 1 2 3 4 5 6 
#
# 1 144.6064 39.6123 46.3718 11.7394 14.3937 3.8488
# 2 39.6123 99.7813 8.2405 26.2053 7.9664 10.4895
# 3 46.3718 8.2405 78.0592 31.8715 25.1771 3.0571
# 4 11.7394 26.2053 31.8715 35.5282 7.0309 -7.2599
# 5 14.3937 7.9664 25.1771 7.0309 51.5885 17.4273
# 6 3.8488 10.4895 3.0571 -7.2599 17.4273 45.2763
#
#
#
# Elastic Compliance Matrix: (Units=1/GPa)
#
#
# Indices 1 2 3 4 5 6 
#
# 1 0.011367 -0.007166 -0.011339 0.012192 0.000752 0.003125
# 2 -0.007166 0.019393 0.013250 -0.025300 -0.001183 -0.008380
# 3 -0.011339 0.013250 0.037506 -0.039323 -0.009346 -0.007346
# 4 0.012192 -0.025300 -0.039323 0.081755 0.001838 0.019882
# 5 0.000752 -0.001183 -0.009346 0.001838 0.026764 -0.009166
# 6 0.003125 -0.008380 -0.007346 0.019882 -0.009166 0.030974
#
#
# Mechanical properties :
#
#
# Convention : Reuss Voigt Hill
#
# Bulk Modulus (GPa) = 17.31472 56.76626 37.04049
# Shear Modulus (GPa) = 21.05086 41.69340 31.37213
#
# Velocity S-wave (km/s) = 2.84602 4.00532 3.47437
# Velocity P-wave (km/s) = 4.17876 6.57513 5.50883
#
# Compressibility (1/GPa) = 0.05775433
#
# Stress axis : x y z
#
# Youngs Moduli (GPa) = 87.97603 51.56601 26.66274
#
# Poissons Ratio (x) = 0.36955 0.30232
# Poissons Ratio (y) = 0.63048 -0.35327
# Poissons Ratio (z) = 0.99752 -0.68324
#
# Static dielectric constant tensor:
#      x y z
#    x 2.275190 0.124280 0.063820 
#    y 0.124280 2.149120 0.038900 
#    z 0.063820 0.038900 2.089780 
# 
# From -- ./inp_files/446621.got.cif
#   From: 2010.05.17/outbox.cif.g08.bks.cpg/sg2_224_cif.got.tgz:446621.got - 2010.06.03 11:33:40.
