data_PCOD9087666
_publ_section_title
;
Structure prediction by ZEFSAII (Michael W. Deem and Ramdas Pophale) SiO2 
 PCOD9087666
Probable space group: P -1
;
_chemical_formula_sum "Si O2"
_cell_formula_units_Z 16
_cell_length_a 15.520561
_cell_length_b 9.088490
_cell_length_c 13.832912
_cell_angle_alpha 125.982406
_cell_angle_beta 47.010239
_cell_angle_gamma 86.414259
_cell_volume 719.145734
_symmetry_space_group_name_H-M "P -1"
_symmetry_group_IT_number 2
_symmetry_cell_setting 'triclinic'
loop_
_space_group_symop_operation_xyz
x,y,z
-x,-y,-z
loop_
_atom_site_type_symbol
_atom_site_label
_atom_site_fract_x
_atom_site_fract_y
_atom_site_fract_z
Si Si1 0.995522 0.202153 0.529273
Si Si2 0.317928 0.949752 0.294827
Si Si3 0.739007 0.603577 0.157078
Si Si4 0.690637 0.152722 0.210939
Si Si5 0.620284 0.821047 0.108918
Si Si6 0.631090 0.409622 0.718692
Si Si7 0.037096 0.016879 0.222540
Si Si8 0.648760 0.097098 0.421740
O O1 0.780780 0.526800 0.809574
O O2 0.109424 0.210487 0.510096
O O3 0.088238 0.059469 0.298844
O O4 0.000000 0.000000 0.500000
O O5 0.314318 0.779841 0.303269
O O6 0.418485 0.987415 0.293017
O O7 0.454576 0.737272 0.017878
O O8 0.552415 0.739148 0.399130
O O9 0.758464 0.784216 0.251353
O O10 0.682081 0.690285 0.120560
O O11 0.909192 0.260521 0.910388
O O12 0.500000 0.500000 0.500000
O O13 0.759764 0.047301 0.227905
O O14 0.844824 0.052520 0.983988
O O15 0.639703 0.012584 0.158633
O O16 0.591560 0.311945 0.627532
O O17 0.811179 0.301676 0.500335
#
# Coordination Sequence:
#
# PCOD9087666 Si02
#       8
#     2   2   2   2   2   2   2   2
#     4  12  21  39  68 102 133 161 211 276 329 380
#     4  11  21  37  66 104 126 160 215 275 329 378
#     4  10  19  36  65  91 120 164 218 267 310 377
#     4  11  26  44  65  89 131 183 216 258 327 390
#     4  11  22  43  68  99 128 167 219 271 322 386
#     4  11  21  36  63  97 131 161 212 273 325 384
#     4  12  23  39  64  96 132 170 214 265 329 385
#     4  10  21  38  61  89 123 170 216 259 317 379
#
# _framework density 22.248621
#
# number of rings (size 3 to 8) (size 9 to 14) (size 15 to 20)
#    0.000    1.000    6.250    1.500    0.000    1.500 
#    0.000    4.375    0.000    0.000    0.000    0.000 
#    0.000    0.000    0.000    0.000    0.000    0.000 
#
# Total GULP energy -89394.591275 kJ/mol
# GULP energy per Si atom -5587.161955 kJ/mol
# Density = 2.219798 g / cm^3
# Si number density = 22.248621 Si / 1000 Ang^3
#
#
#
# Elastic Constant Matrix: (Units=GPa)
#
#
# Indices 1 2 3 4 5 6 
#
# 1 61.7996 20.6018 14.1791 -8.1845 5.2446 11.0688
# 2 20.6018 79.3116 37.0383 -19.1378 10.1190 10.7798
# 3 14.1791 37.0383 100.5615 -30.6270 13.1869 -1.7761
# 4 -8.1845 -19.1378 -30.6270 37.6019 -1.4675 9.3272
# 5 5.2446 10.1190 13.1869 -1.4675 42.8708 -4.7202
# 6 11.0688 10.7798 -1.7761 9.3272 -4.7202 21.9107
#
#
#
# Elastic Compliance Matrix: (Units=1/GPa)
#
#
# Indices 1 2 3 4 5 6 
#
# 1 0.020184 -0.001365 -0.000078 0.006761 -0.003337 -0.013129
# 2 -0.001365 0.019700 -0.003588 0.010263 -0.004642 -0.014663
# 3 -0.000078 -0.003588 0.015012 0.010831 -0.003652 -0.002376
# 4 0.006761 0.010263 0.010831 0.049320 -0.008235 -0.030357
# 5 -0.003337 -0.004642 -0.003652 -0.008235 0.027105 0.013019
# 6 -0.013129 -0.014663 -0.002376 -0.030357 0.013019 0.075021
#
#
# Mechanical properties :
#
#
# Convention : Reuss Voigt Hill
#
# Bulk Modulus (GPa) = 22.30397 42.81232 32.55814
# Shear Modulus (GPa) = 21.61225 31.80023 26.70624
#
# Velocity S-wave (km/s) = 3.12011 3.78473 3.46837
# Velocity P-wave (km/s) = 4.79862 6.19543 5.54121
#
# Compressibility (1/GPa) = 0.04483508
#
# Stress axis : x y z
#
# Youngs Moduli (GPa) = 49.54316 50.76077 66.61123
#
# Poissons Ratio (x) = 0.06928 0.00522
# Poissons Ratio (y) = 0.06761 0.23900
# Poissons Ratio (z) = 0.00388 0.18213
#
# Static dielectric constant tensor:
#      x y z
#    x 1.888910 -0.005320 0.016880 
#    y -0.005320 1.829770 0.002140 
#    z 0.016880 0.002140 1.857230 
# 
# From -- ./inp_files/530118.got.cif
#   From: 2010.05.17/outbox.cif.g08.bks.cpg/sg2_266_cif.got.tgz:530118.got - 2010.06.03 11:33:40.
