data_PCOD9087466
_publ_section_title
;
Structure prediction by ZEFSAII (Michael W. Deem and Ramdas Pophale) SiO2 
 PCOD9087466
Probable space group: P -1
;
_chemical_formula_sum "Si O2"
_cell_formula_units_Z 16
_cell_length_a 11.910993
_cell_length_b 8.291313
_cell_length_c 10.263423
_cell_angle_alpha 80.440175
_cell_angle_beta 103.427959
_cell_angle_gamma 145.992129
_cell_volume 550.760595
_symmetry_space_group_name_H-M "P -1"
_symmetry_group_IT_number 2
_symmetry_cell_setting 'triclinic'
loop_
_space_group_symop_operation_xyz
x,y,z
-x,-y,-z
loop_
_atom_site_type_symbol
_atom_site_label
_atom_site_fract_x
_atom_site_fract_y
_atom_site_fract_z
Si Si1 0.748559 0.251597 0.456936
Si Si2 0.542946 0.941462 0.806080
Si Si3 0.171180 0.295853 0.529700
Si Si4 0.651027 0.785694 0.482431
Si Si5 0.147382 0.818576 0.734322
Si Si6 0.219027 0.627749 0.975812
Si Si7 0.807609 0.948405 0.908313
Si Si8 0.914139 0.930521 0.197220
O O1 0.553923 0.085197 0.341102
O O2 0.801185 0.477725 0.517097
O O3 0.712590 0.030033 0.537729
O O4 0.901888 0.378814 0.360450
O O5 0.384350 0.740779 0.910279
O O6 0.643047 0.882597 0.825527
O O7 0.708641 0.256586 0.874343
O O8 0.895253 0.975308 0.512519
O O9 0.403067 0.488573 0.506807
O O10 0.198520 0.307730 0.692915
O O11 0.656298 0.863222 0.323646
O O12 0.194251 0.776198 0.882788
O O13 0.022680 0.831266 0.742094
O O14 0.013985 0.289612 0.948920
O O15 0.880177 0.910597 0.821094
O O16 0.774393 0.813741 0.052325
#
# Coordination Sequence:
#
# PCOD9087466 Si02
#       8
#     2   2   2   2   2   2   2   2
#     4   9  21  43  71 101 140 189 239 305 367 430
#     4  10  20  37  66 104 137 194 243 283 371 443
#     4  11  24  47  74  98 140 194 248 310 372 432
#     4   9  21  44  71  99 140 181 239 311 357 434
#     4   8  17  37  66  93 143 186 222 297 357 425
#     4  10  19  36  63  95 145 188 242 284 359 440
#     4  11  22  38  68 102 151 191 238 300 358 449
#     4  10  21  40  61 104 147 181 244 301 356 429
#
# _framework density 29.050735
#
# number of rings (size 3 to 8) (size 9 to 14) (size 15 to 20)
#    0.750    1.500    1.250    1.875    0.000    1.000 
#    4.500    6.875    0.000    0.000    0.000    0.000 
#    0.000    0.000    0.000    0.000    0.000    0.000 
#
# Total GULP energy -89415.345241 kJ/mol
# GULP energy per Si atom -5588.459078 kJ/mol
# Density = 2.898461 g / cm^3
# Si number density = 29.050735 Si / 1000 Ang^3
#
#
#
# Elastic Constant Matrix: (Units=GPa)
#
#
# Indices 1 2 3 4 5 6 
#
# 1 341.0192 65.8910 62.4342 10.6395 11.7797 -28.3202
# 2 65.8910 203.7234 48.7370 -2.5027 7.0416 -18.5360
# 3 62.4342 48.7370 94.8384 -7.4384 -8.8680 -0.7337
# 4 10.6395 -2.5027 -7.4384 41.7903 -1.7143 -2.5042
# 5 11.7797 7.0416 -8.8680 -1.7143 54.3813 -1.7017
# 6 -28.3202 -18.5360 -0.7337 -2.5042 -1.7017 51.3233
#
#
#
# Elastic Compliance Matrix: (Units=1/GPa)
#
#
# Indices 1 2 3 4 5 6 
#
# 1 0.003679 -0.000437 -0.002393 -0.001331 -0.001118 0.001736
# 2 -0.000437 0.005935 -0.002847 0.000025 -0.001080 0.001827
# 3 -0.002393 -0.002847 0.014102 0.002967 0.003221 -0.001895
# 4 -0.001331 0.000025 0.002967 0.024897 0.001572 0.000584
# 5 -0.001118 -0.001080 0.003221 0.001572 0.019338 -0.000243
# 6 0.001736 0.001827 -0.001895 0.000584 -0.000243 0.021095
#
#
# Mechanical properties :
#
#
# Convention : Reuss Voigt Hill
#
# Bulk Modulus (GPa) = 80.89467 110.41169 95.65318
# Shear Modulus (GPa) = 47.83707 60.33358 54.08533
#
# Velocity S-wave (km/s) = 4.06232 4.56217 4.31949
# Velocity P-wave (km/s) = 7.06468 8.11420 7.60756
#
# Compressibility (1/GPa) = 0.01236175
#
# Stress axis : x y z
#
# Youngs Moduli (GPa) = 271.79115 168.49203 70.91259
#
# Poissons Ratio (x) = 0.07368 0.16969
# Poissons Ratio (y) = 0.11885 0.20189
# Poissons Ratio (z) = 0.65038 0.47969
#
# Static dielectric constant tensor:
#      x y z
#    x 2.392310 0.124930 0.029500 
#    y 0.124930 2.365600 0.083860 
#    z 0.029500 0.083860 2.218880 
# 
# From -- ./inp_files/514302.got.cif
#   From: 2010.05.17/outbox.cif.g08.bks.cpg/sg2_258_cif.got.tgz:514302.got - 2010.06.03 11:33:40.
