data_PCOD9087099
_publ_section_title
;
Structure prediction by ZEFSAII (Michael W. Deem and Ramdas Pophale) SiO2 
 PCOD9087099
Probable space group: P -1
;
_chemical_formula_sum "Si O2"
_cell_formula_units_Z 16
_cell_length_a 13.487107
_cell_length_b 9.681474
_cell_length_c 13.521257
_cell_angle_alpha 127.783285
_cell_angle_beta 36.391566
_cell_angle_gamma 144.046456
_cell_volume 611.158063
_symmetry_space_group_name_H-M "P -1"
_symmetry_group_IT_number 2
_symmetry_cell_setting 'triclinic'
loop_
_space_group_symop_operation_xyz
x,y,z
-x,-y,-z
loop_
_atom_site_type_symbol
_atom_site_label
_atom_site_fract_x
_atom_site_fract_y
_atom_site_fract_z
Si Si1 0.717596 0.528481 0.863643
Si Si2 0.628774 0.334239 0.554266
Si Si3 0.897443 0.407570 0.819989
Si Si4 0.386322 0.428987 0.667995
Si Si5 0.877117 0.182788 0.930401
Si Si6 0.710043 0.944391 0.648151
Si Si7 0.855375 0.809329 0.704039
Si Si8 0.507478 0.054213 0.716129
O O1 0.796760 0.518017 0.903773
O O2 0.909217 0.761419 0.747281
O O3 0.659530 0.307185 0.759699
O O4 0.500000 0.500000 0.000000
O O5 0.434433 0.286166 0.625069
O O6 0.718431 0.559140 0.649790
O O7 0.536783 0.123548 0.610222
O O8 0.843894 0.428456 0.356313
O O9 0.880196 0.346776 0.923356
O O10 0.768087 0.150197 0.760245
O O11 0.500000 0.500000 0.500000
O O12 0.530070 0.682139 0.718935
O O13 0.129178 0.299897 0.802925
O O14 0.759732 0.933204 0.860077
O O15 0.740338 0.110379 0.109372
O O16 0.603943 0.945083 0.633124
O O17 0.935419 0.010372 0.457531
#
# Coordination Sequence:
#
# PCOD9087099 Si02
#       8
#     2   2   2   2   2   2   2   2
#     4  10  19  36  61  95 127 155 199 260 310 365
#     4  10  21  41  65  93 124 165 205 256 316 368
#     4  10  21  38  66  97 124 161 207 254 315 371
#     4  12  23  40  64  89 125 168 216 255 296 371
#     4  12  23  39  63  96 127 164 210 255 303 371
#     4  10  21  40  63  91 124 165 202 264 308 368
#     4  10  19  37  66  92 124 159 207 253 316 371
#     4  10  23  40  61  92 132 157 204 260 318 364
#
# _framework density 26.179805999999999
#
# number of rings (size 3 to 8) (size 9 to 14) (size 15 to 20)
#    0.000    1.500    3.750    1.500    0.000    8.000 
#    4.500    1.875    0.000    0.000    0.000    0.000 
#    0.000    0.000    0.000    0.000    0.000    0.000 
#
# Total GULP energy -89541.821164 kJ/mol
# GULP energy per Si atom -5596.363823 kJ/mol
# Density = 2.612022 g / cm^3
# Si number density = 26.179806 Si / 1000 Ang^3
#
#
#
# Elastic Constant Matrix: (Units=GPa)
#
#
# Indices 1 2 3 4 5 6 
#
# 1 167.6378 37.7466 59.3845 -22.6814 -5.3053 -56.9379
# 2 37.7466 95.2205 25.1059 -9.2267 7.3941 -18.8679
# 3 59.3845 25.1059 105.8810 -21.4718 6.3388 -11.4277
# 4 -22.6814 -9.2267 -21.4718 45.1732 -3.9712 7.1028
# 5 -5.3053 7.3941 6.3388 -3.9712 28.7384 0.9241
# 6 -56.9379 -18.8679 -11.4277 7.1028 0.9241 62.0116
#
#
#
# Elastic Compliance Matrix: (Units=1/GPa)
#
#
# Indices 1 2 3 4 5 6 
#
# 1 0.011445 -0.001577 -0.004896 0.002023 0.003594 0.008841
# 2 -0.001577 0.012202 -0.001530 0.000388 -0.003103 0.001984
# 3 -0.004896 -0.001530 0.013156 0.003694 -0.002807 -0.002918
# 4 0.002023 0.000388 0.003694 0.025293 0.002963 -0.000285
# 5 0.003594 -0.003103 -0.002807 0.002963 0.037257 0.000944
# 6 0.008841 0.001984 -0.002918 -0.000285 0.000944 0.024329
#
#
# Mechanical properties :
#
#
# Convention : Reuss Voigt Hill
#
# Bulk Modulus (GPa) = 48.08400 68.13484 58.10942
# Shear Modulus (GPa) = 34.10171 43.61813 38.85992
#
# Velocity S-wave (km/s) = 3.61306 4.08622 3.85690
# Velocity P-wave (km/s) = 5.98434 6.95306 6.48681
#
# Compressibility (1/GPa) = 0.02079694
#
# Stress axis : x y z
#
# Youngs Moduli (GPa) = 87.37404 81.95104 76.01357
#
# Poissons Ratio (x) = 0.12926 0.37214
# Poissons Ratio (y) = 0.13781 0.11630
# Poissons Ratio (z) = 0.42776 0.12539
#
# Static dielectric constant tensor:
#      x y z
#    x 2.154130 0.072670 0.022080 
#    y 0.072670 2.086060 -0.007940 
#    z 0.022080 -0.007940 2.070690 
# 
# From -- ./inp_files/286115.got.cif
#   From: 2010.05.17/outbox.cif.g08.bks.cpg/sg2_144_cif.got.tgz:286115.got - 2010.06.03 11:33:40.
