data_PCOD9087465
_publ_section_title
;
Structure prediction by ZEFSAII (Michael W. Deem and Ramdas Pophale) SiO2 
 PCOD9087465
Probable space group: P -1
;
_chemical_formula_sum "Si O2"
_cell_formula_units_Z 16
_cell_length_a 16.842449
_cell_length_b 8.749757
_cell_length_c 6.978562
_cell_angle_alpha 80.101945
_cell_angle_beta 139.412709
_cell_angle_gamma 93.815171
_cell_volume 655.836905
_symmetry_space_group_name_H-M "P -1"
_symmetry_group_IT_number 2
_symmetry_cell_setting 'triclinic'
loop_
_space_group_symop_operation_xyz
x,y,z
-x,-y,-z
loop_
_atom_site_type_symbol
_atom_site_label
_atom_site_fract_x
_atom_site_fract_y
_atom_site_fract_z
Si Si1 0.863718 0.588584 0.261857
Si Si2 0.778930 0.298657 0.040534
Si Si3 0.450859 0.580858 0.585410
Si Si4 0.451257 0.286024 0.920628
Si Si5 0.216756 0.139946 0.429926
Si Si6 0.854887 0.521286 0.703582
Si Si7 0.743181 0.210430 0.435245
Si Si8 0.041382 0.156001 0.468317
O O1 0.833773 0.578332 0.434183
O O2 0.880015 0.769254 0.236353
O O3 0.000000 0.500000 0.500000
O O4 0.773156 0.486038 0.013210
O O5 0.656022 0.284448 0.699994
O O6 0.798097 0.354017 0.616971
O O7 0.909126 0.255170 0.188142
O O8 0.500000 0.500000 0.500000
O O9 0.417118 0.441087 0.694991
O O10 0.552008 0.660110 0.875989
O O11 0.358687 0.157268 0.742319
O O12 0.595026 0.236918 0.158253
O O13 0.181263 0.323235 0.264418
O O14 0.120494 0.130578 0.429084
O O15 0.216286 0.965747 0.377082
O O16 0.779817 0.227640 0.272126
O O17 0.000000 0.500000 0.000000
O O18 0.000000 0.000000 0.500000
#
# Coordination Sequence:
#
# PCOD9087465 Si02
#       8
#     2   2   2   2   2   2   2   2
#     4   8  18  32  57  87 120 165 219 277 329 408
#     4  10  20  40  68 101 131 183 240 290 357 428
#     4  11  23  42  76 105 140 188 244 295 358 434
#     4  11  25  43  70 106 144 187 239 303 358 423
#     4  11  24  41  71 100 144 191 238 298 362 431
#     4  10  22  39  64  96 136 183 231 287 355 423
#     4  11  22  44  72  97 146 193 232 303 361 421
#     4  10  19  36  63  95 135 182 229 291 355 418
#
# _framework density 24.39631
#
# number of rings (size 3 to 8) (size 9 to 14) (size 15 to 20)
#    0.000    1.750    2.500    1.875    3.500    6.500 
#    0.000    0.625   11.000    0.000    0.000    0.000 
#    0.000    0.000    0.000    0.000    0.000    0.000 
#
# Total GULP energy -89153.992552 kJ/mol
# GULP energy per Si atom -5572.124534 kJ/mol
# Density = 2.434078 g / cm^3
# Si number density = 24.396310 Si / 1000 Ang^3
#
#
#
# Elastic Constant Matrix: (Units=GPa)
#
#
# Indices 1 2 3 4 5 6 
#
# 1 82.5652 14.1932 21.9640 1.5052 10.8547 -3.9052
# 2 14.1932 181.6867 42.4100 15.6294 7.4585 0.6832
# 3 21.9640 42.4100 99.7076 2.0127 19.6939 -0.8001
# 4 1.5052 15.6294 2.0127 31.5655 1.2893 11.5066
# 5 10.8547 7.4585 19.6939 1.2893 48.2424 -5.1599
# 6 -3.9052 0.6832 -0.8001 11.5066 -5.1599 36.1429
#
#
#
# Elastic Compliance Matrix: (Units=1/GPa)
#
#
# Indices 1 2 3 4 5 6 
#
# 1 0.013110 -0.000342 -0.002368 -0.000725 -0.001766 0.001349
# 2 -0.000342 0.006418 -0.002650 -0.003333 0.000351 0.000894
# 3 -0.002368 -0.002650 0.012494 0.001132 -0.004285 -0.000901
# 4 -0.000725 -0.003333 0.001132 0.037882 -0.002117 -0.012353
# 5 -0.001766 0.000351 -0.004285 -0.002117 0.023274 0.003704
# 6 0.001349 0.000894 -0.000901 -0.012353 0.003704 0.032238
#
#
# Mechanical properties :
#
#
# Convention : Reuss Voigt Hill
#
# Bulk Modulus (GPa) = 46.94101 57.89931 52.42016
# Shear Modulus (GPa) = 34.90749 42.21634 38.56191
#
# Velocity S-wave (km/s) = 3.78676 4.16437 3.98005
# Velocity P-wave (km/s) = 6.19695 6.84887 6.53105
#
# Compressibility (1/GPa) = 0.02130333
#
# Stress axis : x y z
#
# Youngs Moduli (GPa) = 76.28006 155.81021 80.03743
#
# Poissons Ratio (x) = 0.05321 0.18954
# Poissons Ratio (y) = 0.02605 0.21206
# Poissons Ratio (z) = 0.18065 0.41282
#
# Static dielectric constant tensor:
#      x y z
#    x 1.995970 0.039700 -0.006200 
#    y 0.039700 1.961640 -0.014700 
#    z -0.006200 -0.014700 2.012010 
# 
# From -- ./inp_files/343608.got.cif
#   From: 2010.05.17/outbox.cif.g08.bks.cpg/sg2_172_cif.got.tgz:343608.got - 2010.06.03 11:33:40.
