data_PCOD9087282
_publ_section_title
;
Structure prediction by ZEFSAII (Michael W. Deem and Ramdas Pophale) SiO2 
 PCOD9087282
Probable space group: P -1
;
_chemical_formula_sum "Si O2"
_cell_formula_units_Z 14
_cell_length_a 7.625553
_cell_length_b 14.813634
_cell_length_c 10.001494
_cell_angle_alpha 47.412387
_cell_angle_beta 96.363188
_cell_angle_gamma 71.606394
_cell_volume 699.075947
_symmetry_space_group_name_H-M "P -1"
_symmetry_group_IT_number 2
_symmetry_cell_setting 'triclinic'
loop_
_space_group_symop_operation_xyz
x,y,z
-x,-y,-z
loop_
_atom_site_type_symbol
_atom_site_label
_atom_site_fract_x
_atom_site_fract_y
_atom_site_fract_z
Si Si1 0.229898 0.210257 0.677350
Si Si2 0.854497 0.983596 0.670634
Si Si3 0.642994 0.628808 0.672292
Si Si4 0.842508 0.256995 0.467726
Si Si5 0.203411 0.674728 0.899149
Si Si6 0.599298 0.909453 0.904081
Si Si7 0.504636 0.780709 0.774923
O O1 0.279299 0.316675 0.496071
O O2 0.989088 0.264516 0.580955
O O3 0.375793 0.050404 0.782721
O O4 0.299800 0.187142 0.859679
O O5 0.737888 0.970915 0.801087
O O6 0.027816 0.826459 0.793878
O O7 0.935307 0.088595 0.607661
O O8 0.685197 0.069209 0.453785
O O9 0.398710 0.681850 0.579464
O O10 0.651458 0.703926 0.736225
O O11 0.766008 0.458695 0.880817
O O12 0.845393 0.331634 0.254553
O O13 0.411179 0.682553 0.904081
O O14 0.589807 0.818989 0.871061
#
# Coordination Sequence:
#
# PCOD9087282 Si02
#       7
#     2   2   2   2   2   2   2
#     4  11  23  40  61  89 122 160 196 247 295 354
#     4  10  19  36  62  93 117 152 200 250 293 343
#     4  10  22  42  62  89 121 155 200 245 297 352
#     4  10  20  39  63  90 116 156 202 244 292 352
#     4  10  20  37  63  91 119 153 199 248 299 345
#     4  11  22  38  60  93 121 153 205 245 294 351
#     4  10  19  38  64  88 118 153 199 253 288 346
#
# _framework density 20.026437000000001
#
# number of rings (size 3 to 8) (size 9 to 14) (size 15 to 20)
#    0.000    2.000    2.857    5.571    2.000    1.143 
#    5.143    1.429    0.000    0.000    0.000    0.000 
#    0.000    0.000    0.000    0.000    0.000    0.000 
#
# Total GULP energy -78213.003424 kJ/mol
# GULP energy per Si atom -5586.643102 kJ/mol
# Density = 1.998086 g / cm^3
# Si number density = 20.026437 Si / 1000 Ang^3
#
#
#
# Elastic Constant Matrix: (Units=GPa)
#
#
# Indices 1 2 3 4 5 6 
#
# 1 53.9663 28.0228 50.3987 17.6325 -2.7275 11.6020
# 2 28.0228 34.7962 59.0302 -8.4720 -12.5741 -4.3539
# 3 50.3987 59.0302 151.1660 3.1241 -24.6127 27.3353
# 4 17.6325 -8.4720 3.1241 28.0061 -12.3529 -3.3303
# 5 -2.7275 -12.5741 -24.6127 -12.3529 12.7760 -5.4112
# 6 11.6020 -4.3539 27.3353 -3.3303 -5.4112 10.5334
#
#
#
# Elastic Compliance Matrix: (Units=1/GPa)
#
#
# Indices 1 2 3 4 5 6 
#
# 1 0.025255 0.022017 -0.026475 -0.008284 -0.015195 0.039564
# 2 0.022017 0.012328 -0.018885 -0.034808 -0.057794 -0.010843
# 3 -0.026475 -0.018885 0.039959 0.031940 0.067771 -0.037430
# 4 -0.008284 -0.034808 0.031940 0.034212 0.033013 -0.060374
# 5 -0.015195 -0.057794 0.067771 0.033013 0.137429 -0.101987
# 6 0.039564 -0.010843 -0.037430 -0.060374 -0.101987 0.072531
#
#
# Mechanical properties :
#
#
# Convention : Reuss Voigt Hill
#
# Bulk Modulus (GPa) = 32.40676 57.20353 44.80515
# Shear Modulus (GPa) = 13.20358 17.09488 15.14923
#
# Velocity S-wave (km/s) = 2.57048 2.92484 2.75337
# Velocity P-wave (km/s) = 5.00270 6.32711 5.70347
#
# Compressibility (1/GPa) = 0.03085776
#
# Stress axis : x y z
#
# Youngs Moduli (GPa) = 39.59613 81.11581 25.02548
#
# Poissons Ratio (x) = -1.78596 0.66255
# Poissons Ratio (y) = -0.87181 0.47260
# Poissons Ratio (z) = 1.04831 1.53185
#
# Static dielectric constant tensor:
#      x y z
#    x 1.743580 -0.009850 0.012400 
#    y -0.009850 1.704930 -0.020370 
#    z 0.012400 -0.020370 1.694720 
# 
# From -- ./inp_files/205627.got.cif
#   From: 2010.05.17/outbox.cif.g08.bks.cpg/sg2_103_cif.got.tgz:205627.got - 2010.06.03 11:33:40.
