data_PCOD9087954
_publ_section_title
;
Structure prediction by ZEFSAII (Michael W. Deem and Ramdas Pophale) SiO2 
 PCOD9087954
Probable space group: P -1
;
_chemical_formula_sum "Si O2"
_cell_formula_units_Z 14
_cell_length_a 7.193214
_cell_length_b 11.452948
_cell_length_c 12.482038
_cell_angle_alpha 76.908382
_cell_angle_beta 57.042765
_cell_angle_gamma 115.218637
_cell_volume 622.278929
_symmetry_space_group_name_H-M "P -1"
_symmetry_group_IT_number 2
_symmetry_cell_setting 'triclinic'
loop_
_space_group_symop_operation_xyz
x,y,z
-x,-y,-z
loop_
_atom_site_type_symbol
_atom_site_label
_atom_site_fract_x
_atom_site_fract_y
_atom_site_fract_z
Si Si1 0.584666 0.534206 0.299719
Si Si2 0.394522 0.542439 0.928627
Si Si3 0.369499 0.067794 0.964591
Si Si4 0.348537 0.176753 0.733272
Si Si5 0.620044 0.872802 0.731153
Si Si6 0.799987 0.321255 0.929773
Si Si7 0.282094 0.174519 0.516305
O O1 0.644229 0.541055 0.152173
O O2 0.500197 0.638580 0.331426
O O3 0.370364 0.265670 0.211898
O O4 0.382657 0.349758 0.437812
O O5 0.331293 0.805920 0.904115
O O6 0.127267 0.525704 0.067446
O O7 0.500000 0.500000 0.000000
O O8 0.448941 0.120701 0.804803
O O9 0.912473 0.627836 0.226430
O O10 0.530627 0.232241 0.948145
O O11 0.011595 0.939566 0.114297
O O12 0.386732 0.161397 0.599973
O O13 0.595961 0.860135 0.613967
O O14 0.923664 0.041008 0.641985
O O15 0.500000 0.000000 0.000000
#
# Coordination Sequence:
#
# PCOD9087954 Si02
#       7
#     2   2   2   2   2   2   2
#     4  11  21  33  61  92 118 157 192 252 300 344
#     4   9  18  33  57  87 115 151 203 247 285 347
#     4  11  22  40  63  89 119 153 206 256 292 348
#     4  11  22  37  64  91 115 162 202 238 307 367
#     4   8  19  34  62  81 117 166 190 244 296 348
#     4  10  19  37  59  87 116 153 202 248 291 341
#     4  10  19  37  57  87 124 159 195 237 301 364
#
# _framework density 22.497949999999999
#
# number of rings (size 3 to 8) (size 9 to 14) (size 15 to 20)
#    0.857    1.143    2.857    1.714    0.000    0.000 
#    0.000    0.714    6.286    1.714    0.000    0.000 
#    0.000    0.000    0.000    0.000    0.000    0.000 
#
# Total GULP energy -78034.300046 kJ/mol
# GULP energy per Si atom -5573.878575 kJ/mol
# Density = 2.244674 g / cm^3
# Si number density = 22.497950 Si / 1000 Ang^3
#
#
#
# Elastic Constant Matrix: (Units=GPa)
#
#
# Indices 1 2 3 4 5 6 
#
# 1 49.4232 19.8597 30.1495 -3.1115 20.5255 4.3638
# 2 19.8597 91.9257 34.0821 3.6983 14.3764 20.6157
# 3 30.1495 34.0821 115.0397 14.5935 31.5045 16.0456
# 4 -3.1115 3.6983 14.5935 39.4536 22.5643 -1.3572
# 5 20.5255 14.3764 31.5045 22.5643 41.5945 -0.9381
# 6 4.3638 20.6157 16.0456 -1.3572 -0.9381 27.1950
#
#
#
# Elastic Compliance Matrix: (Units=1/GPa)
#
#
# Indices 1 2 3 4 5 6 
#
# 1 0.034217 -0.002940 -0.004130 0.017068 -0.022016 -0.000732
# 2 -0.002940 0.014717 -0.001443 0.000237 -0.002895 -0.009921
# 3 -0.004130 -0.001443 0.013113 -0.001372 -0.006793 -0.006283
# 4 0.017068 0.000237 -0.001372 0.045563 -0.032204 -0.000946
# 5 -0.022016 -0.002895 -0.006793 -0.032204 0.058750 0.010155
# 6 -0.000732 -0.009921 -0.006283 -0.000946 0.010155 0.048420
#
#
# Mechanical properties :
#
#
# Convention : Reuss Voigt Hill
#
# Bulk Modulus (GPa) = 22.21222 47.17457 34.69339
# Shear Modulus (GPa) = 20.25816 33.13511 26.69663
#
# Velocity S-wave (km/s) = 3.00400 3.84188 3.44848
# Velocity P-wave (km/s) = 4.68257 6.37918 5.59555
#
# Compressibility (1/GPa) = 0.04502027
#
# Stress axis : x y z
#
# Youngs Moduli (GPa) = 29.22530 67.94988 76.25856
#
# Poissons Ratio (x) = 0.19979 0.31496
# Poissons Ratio (y) = 0.08593 0.11003
# Poissons Ratio (z) = 0.12071 0.09804
#
# Static dielectric constant tensor:
#      x y z
#    x 1.849820 -0.024650 -0.031990 
#    y -0.024650 1.949940 0.029180 
#    z -0.031990 0.029180 1.875100 
# 
# From -- ./inp_files/334869.got.cif
#   From: 2010.05.17/outbox.cif.g08.bks.cpg/sg2_168_cif.got.tgz:334869.got - 2010.06.03 11:33:40.
