data_PCOD9087771
_publ_section_title
;
Structure prediction by ZEFSAII (Michael W. Deem and Ramdas Pophale) SiO2 
 PCOD9087771
Probable space group: P -1
;
_chemical_formula_sum "Si O2"
_cell_formula_units_Z 14
_cell_length_a 19.275880
_cell_length_b 9.193539
_cell_length_c 8.440600
_cell_angle_alpha 112.633336
_cell_angle_beta 125.199037
_cell_angle_gamma 113.303938
_cell_volume 647.916638
_symmetry_space_group_name_H-M "P -1"
_symmetry_group_IT_number 2
_symmetry_cell_setting 'triclinic'
loop_
_space_group_symop_operation_xyz
x,y,z
-x,-y,-z
loop_
_atom_site_type_symbol
_atom_site_label
_atom_site_fract_x
_atom_site_fract_y
_atom_site_fract_z
Si Si1 0.788312 0.327317 0.205210
Si Si2 0.134750 0.704326 0.144791
Si Si3 0.329707 0.367687 0.136427
Si Si4 0.888681 0.145700 0.148324
Si Si5 0.418123 0.271170 0.926925
Si Si6 0.507292 0.840499 0.775903
Si Si7 0.273358 0.626053 0.166963
O O1 0.851674 0.246500 0.244439
O O2 0.941566 0.655328 0.534207
O O3 0.686242 0.219300 0.875265
O O4 0.673569 0.158572 0.126339
O O5 0.143311 0.539128 0.020732
O O6 0.282629 0.977070 0.543890
O O7 0.125926 0.813161 0.032646
O O8 0.000000 0.500000 0.000000
O O9 0.484389 0.666784 0.539686
O O10 0.250479 0.410387 0.997868
O O11 0.357635 0.292308 0.997513
O O12 0.230139 0.153518 0.060763
O O13 0.500000 0.500000 0.000000
O O14 0.519147 0.290586 0.150825
O O15 0.391857 0.790808 0.534716
#
# Coordination Sequence:
#
# PCOD9087771 Si02
#       7
#     2   2   2   2   2   2   2
#     4  10  19  36  67  96 120 166 226 257 306 374
#     4  11  25  45  65  95 135 169 211 268 335 382
#     4  10  23  42  66  95 127 169 226 262 307 386
#     4  10  21  39  67  90 126 178 220 252 312 398
#     4  12  25  39  67  98 135 169 210 271 332 373
#     4  10  21  40  67  92 129 168 220 259 316 389
#     4   9  24  39  69  93 131 165 223 262 318 385
#
# _framework density 21.607718999999999
#
# number of rings (size 3 to 8) (size 9 to 14) (size 15 to 20)
#    0.857    0.857    1.429    2.571    8.000    1.143 
#    0.000    2.143    0.000    0.000    0.000    0.000 
#    0.000    0.000    0.000    0.000    0.000    0.000 
#
# Total GULP energy -77966.940346 kJ/mol
# GULP energy per Si atom -5569.067168 kJ/mol
# Density = 2.155854 g / cm^3
# Si number density = 21.607719 Si / 1000 Ang^3
#
#
#
# Elastic Constant Matrix: (Units=GPa)
#
#
# Indices 1 2 3 4 5 6 
#
# 1 54.9299 38.9693 0.2799 -2.1139 -1.1949 1.6618
# 2 38.9693 145.7456 46.5837 -7.6547 32.4307 15.7366
# 3 0.2799 46.5837 72.5467 -10.1863 6.0063 0.7834
# 4 -2.1139 -7.6547 -10.1863 39.3117 1.4882 3.2475
# 5 -1.1949 32.4307 6.0063 1.4882 26.3898 0.8030
# 6 1.6618 15.7366 0.7834 3.2475 0.8030 30.0056
#
#
#
# Elastic Compliance Matrix: (Units=1/GPa)
#
#
# Indices 1 2 3 4 5 6 
#
# 1 0.028748 -0.014639 0.007733 -0.000410 0.017388 0.005462
# 2 -0.014639 0.020506 -0.010798 0.002052 -0.023239 -0.009262
# 3 0.007733 -0.010798 0.020331 0.002908 0.008703 0.004157
# 4 -0.000410 0.002052 0.002908 0.027069 -0.004610 -0.003936
# 5 0.017388 -0.023239 0.008703 -0.004610 0.065221 0.009751
# 6 0.005462 -0.009262 0.004157 -0.003936 0.009751 0.037938
#
#
# Mechanical properties :
#
#
# Convention : Reuss Voigt Hill
#
# Bulk Modulus (GPa) = 29.26033 49.43203 39.34618
# Shear Modulus (GPa) = 20.27460 31.63404 25.95432
#
# Velocity S-wave (km/s) = 3.06650 3.83040 3.46953
# Velocity P-wave (km/s) = 5.10968 6.51838 5.85654
#
# Compressibility (1/GPa) = 0.03417596
#
# Stress axis : x y z
#
# Youngs Moduli (GPa) = 34.78503 48.76737 49.18538
#
# Poissons Ratio (x) = 0.71389 -0.38033
# Poissons Ratio (y) = 0.50921 0.53112
# Poissons Ratio (z) = -0.26898 0.52661
#
# Static dielectric constant tensor:
#      x y z
#    x 1.792130 0.012180 -0.003420 
#    y 0.012180 1.790490 -0.026940 
#    z -0.003420 -0.026940 1.841700 
# 
# From -- ./inp_files/343688.got.cif
#   From: 2010.05.17/outbox.cif.g08.bks.cpg/sg2_172_cif.got.tgz:343688.got - 2010.06.03 11:33:40.
