data_PCOD9087787
_publ_section_title
;
Structure prediction by ZEFSAII (Michael W. Deem and Ramdas Pophale) SiO2 
 PCOD9087787
Probable space group: P -1
;
_chemical_formula_sum "Si O2"
_cell_formula_units_Z 16
_cell_length_a 15.584806
_cell_length_b 7.954173
_cell_length_c 8.369744
_cell_angle_alpha 65.191442
_cell_angle_beta 136.177649
_cell_angle_gamma 108.924334
_cell_volume 651.739703
_symmetry_space_group_name_H-M "P -1"
_symmetry_group_IT_number 2
_symmetry_cell_setting 'triclinic'
loop_
_space_group_symop_operation_xyz
x,y,z
-x,-y,-z
loop_
_atom_site_type_symbol
_atom_site_label
_atom_site_fract_x
_atom_site_fract_y
_atom_site_fract_z
Si Si1 0.275223 0.449973 0.667109
Si Si2 0.141531 0.322625 0.815192
Si Si3 0.501275 0.092335 0.714205
Si Si4 0.977004 0.375029 0.865211
Si Si5 0.171001 0.891876 0.048994
Si Si6 0.919921 0.169187 0.385070
Si Si7 0.301677 0.041951 0.721148
Si Si8 0.428689 0.739000 0.568342
O O1 0.252898 0.439548 0.833020
O O2 0.150793 0.549687 0.406362
O O3 0.271955 0.237115 0.686939
O O4 0.392197 0.559294 0.698407
O O5 0.091802 0.377246 0.898693
O O6 0.017173 0.310260 0.540852
O O7 0.180436 0.110636 0.956562
O O8 0.371859 0.091464 0.633327
O O9 0.513619 0.255757 0.534816
O O10 0.505582 0.893459 0.710023
O O11 0.606902 0.076552 0.997228
O O12 0.943658 0.170932 0.969140
O O13 0.000000 0.500000 0.000000
O O14 0.296483 0.825882 0.319454
O O15 0.150847 0.790602 0.890603
O O16 0.821315 0.085974 0.411456
O O17 0.000000 0.000000 0.500000
#
# Coordination Sequence:
#
# PCOD9087787 Si02
#       8
#     2   2   2   2   2   2   2   2
#     4  11  23  40  61  93 130 163 206 266 316 377
#     4  11  22  40  63  91 130 177 211 244 315 387
#     4  10  23  43  67  89 120 170 218 268 302 381
#     4  11  25  38  55  93 136 167 204 257 315 373
#     4  10  20  39  63  89 125 167 211 254 302 384
#     4  10  19  36  68  91 122 166 211 254 296 383
#     4  11  22  41  67  94 120 166 224 254 314 371
#     4  10  22  42  63  93 126 160 212 267 327 357
#
# _framework density 24.549676999999999
#
# number of rings (size 3 to 8) (size 9 to 14) (size 15 to 20)
#    0.000    1.500    3.750    1.500    5.250    2.000 
#    0.000    0.000    0.000    0.000    0.000    0.000 
#    0.000    0.000    0.000    0.000    0.000    0.000 
#
# Total GULP energy -89442.028069 kJ/mol
# GULP energy per Si atom -5590.126754 kJ/mol
# Density = 2.449380 g / cm^3
# Si number density = 24.549677 Si / 1000 Ang^3
#
#
#
# Elastic Constant Matrix: (Units=GPa)
#
#
# Indices 1 2 3 4 5 6 
#
# 1 205.3446 45.2939 10.9122 -12.3002 -33.0078 39.2153
# 2 45.2939 83.6586 8.4639 -10.6971 -11.7565 20.9654
# 3 10.9122 8.4639 43.0917 -3.4785 -8.9620 6.1738
# 4 -12.3002 -10.6971 -3.4785 23.0680 4.3369 -12.6452
# 5 -33.0078 -11.7565 -8.9620 4.3369 30.5200 -2.3315
# 6 39.2153 20.9654 6.1738 -12.6452 -2.3315 48.4784
#
#
#
# Elastic Compliance Matrix: (Units=1/GPa)
#
#
# Indices 1 2 3 4 5 6 
#
# 1 0.007308 -0.001870 0.000649 -0.001012 0.007128 -0.005107
# 2 -0.001870 0.014798 -0.001090 0.003120 0.002623 -0.003808
# 3 0.000649 -0.001090 0.025241 0.000774 0.007377 -0.002712
# 4 -0.001012 0.003120 0.000774 0.052536 -0.006155 0.012778
# 5 0.007128 0.002623 0.007377 -0.006155 0.043966 -0.007331
# 6 -0.005107 -0.003808 -0.002712 0.012778 -0.007331 0.029732
#
#
# Mechanical properties :
#
#
# Convention : Reuss Voigt Hill
#
# Bulk Modulus (GPa) = 23.40547 51.27054 37.33800
# Shear Modulus (GPa) = 25.98146 38.24160 32.11153
#
# Velocity S-wave (km/s) = 3.25672 3.95108 3.62058
# Velocity P-wave (km/s) = 4.86788 6.46100 5.72017
#
# Compressibility (1/GPa) = 0.04272506
#
# Stress axis : x y z
#
# Youngs Moduli (GPa) = 136.82991 67.57602 39.61777
#
# Poissons Ratio (x) = 0.12640 -0.02571
# Poissons Ratio (y) = 0.25593 0.04318
# Poissons Ratio (z) = -0.08881 0.07365
#
# Static dielectric constant tensor:
#      x y z
#    x 1.997190 0.040780 -0.049590 
#    y 0.040780 1.981990 -0.013130 
#    z -0.049590 -0.013130 1.994240 
# 
# From -- ./inp_files/295015.got.cif
#   From: 2010.05.17/outbox.cif.g08.bks.cpg/sg2_148_cif.got.tgz:295015.got - 2010.06.03 11:33:40.
