data_PCOD9087652
_publ_section_title
;
Structure prediction by ZEFSAII (Michael W. Deem and Ramdas Pophale) SiO2 
 PCOD9087652
Probable space group: P -1
;
_chemical_formula_sum "Si O2"
_cell_formula_units_Z 12
_cell_length_a 8.343741
_cell_length_b 7.254062
_cell_length_c 7.544308
_cell_angle_alpha 67.407162
_cell_angle_beta 101.680537
_cell_angle_gamma 100.296158
_cell_volume 410.272371
_symmetry_space_group_name_H-M "P -1"
_symmetry_group_IT_number 2
_symmetry_cell_setting 'triclinic'
loop_
_space_group_symop_operation_xyz
x,y,z
-x,-y,-z
loop_
_atom_site_type_symbol
_atom_site_label
_atom_site_fract_x
_atom_site_fract_y
_atom_site_fract_z
Si Si1 0.959704 0.228857 0.393592
Si Si2 0.591395 0.069847 0.177809
Si Si3 0.862914 0.757532 0.904658
Si Si4 0.229008 0.301974 0.699447
Si Si5 0.397660 0.565030 0.178377
Si Si6 0.716599 0.151234 0.658831
O O1 0.987824 0.287137 0.173050
O O2 0.099145 0.347257 0.505062
O O3 0.784593 0.227225 0.454115
O O4 0.000000 0.000000 0.500000
O O5 0.736116 0.928037 0.252399
O O6 0.461245 0.977558 0.325968
O O7 0.609392 0.305652 0.053066
O O8 0.500000 0.000000 0.000000
O O9 0.701834 0.647709 0.807963
O O10 0.840478 0.994170 0.810779
O O11 0.854551 0.688812 0.130402
O O12 0.414144 0.418400 0.713462
O O13 0.299908 0.677663 0.263775
#
# Coordination Sequence:
#
# PCOD9087652 Si02
#       6
#     2   2   2   2   2   2
#     4  10  24  38  59  91 118 160 199 232 299 357
#     4   8  15  34  60  87 109 151 194 240 289 334
#     4  11  20  37  64  87 120 154 194 243 298 345
#     4  10  19  39  65  86 117 158 194 247 294 340
#     4  10  19  36  65  89 116 153 197 248 292 343
#     4   9  18  38  57  83 124 149 192 246 278 352
#
# _framework density 29.248861999999999
#
# number of rings (size 3 to 8) (size 9 to 14) (size 15 to 20)
#    0.000    2.667    5.000    0.500    0.000    4.000 
#    0.000   14.167    7.333    0.000    0.000    0.000 
#    0.000    0.000    0.000    0.000    0.000    0.000 
#
# Total GULP energy -67238.826812 kJ/mol
# GULP energy per Si atom -5603.235568 kJ/mol
# Density = 2.918229 g / cm^3
# Si number density = 29.248862 Si / 1000 Ang^3
#
#
#
# Elastic Constant Matrix: (Units=GPa)
#
#
# Indices 1 2 3 4 5 6 
#
# 1 178.6707 58.7922 81.2947 12.5304 -37.3431 6.4254
# 2 58.7922 132.1650 17.8339 -1.2798 -7.6759 6.4530
# 3 81.2947 17.8339 170.3422 19.5249 -58.0950 7.7912
# 4 12.5304 -1.2798 19.5249 40.6297 -4.3358 -7.1186
# 5 -37.3431 -7.6759 -58.0950 -4.3358 71.6251 3.2966
# 6 6.4254 6.4530 7.7912 -7.1186 3.2966 54.0441
#
#
#
# Elastic Compliance Matrix: (Units=1/GPa)
#
#
# Indices 1 2 3 4 5 6 
#
# 1 0.008464 -0.003258 -0.003007 -0.001176 0.001574 -0.000435
# 2 -0.003258 0.008979 0.000432 0.000942 -0.000301 -0.000604
# 3 -0.003007 0.000432 0.009942 -0.003498 0.006422 -0.001980
# 4 -0.001176 0.000942 -0.003498 0.027225 -0.001897 0.004233
# 5 0.001574 -0.000301 0.006422 -0.001897 0.019961 -0.002544
# 6 -0.000435 -0.000604 -0.001980 0.004233 -0.002544 0.019625
#
#
# Mechanical properties :
#
#
# Convention : Reuss Voigt Hill
#
# Bulk Modulus (GPa) = 63.62085 88.55772 76.08928
# Shear Modulus (GPa) = 45.00337 54.81026 49.90682
#
# Velocity S-wave (km/s) = 3.92680 4.33359 4.13520
# Velocity P-wave (km/s) = 6.50834 7.44198 6.99076
#
# Compressibility (1/GPa) = 0.01571812
#
# Stress axis : x y z
#
# Youngs Moduli (GPa) = 118.14448 111.37661 100.58230
#
# Poissons Ratio (x) = 0.36289 0.30245
# Poissons Ratio (y) = 0.38494 -0.04343
# Poissons Ratio (z) = 0.35526 -0.04810
#
# Static dielectric constant tensor:
#      x y z
#    x 2.282370 0.049040 -0.026630 
#    y 0.049040 2.370680 -0.063430 
#    z -0.026630 -0.063430 2.324860 
# 
# From -- ./inp_files/157439.got.cif
#   From: 2010.05.17/outbox.cif.g08.bks.cpg/sg2_79_cif.got.tgz:157439.got - 2010.06.03 11:33:40.
