data_PCOD9087113
_publ_section_title
;
Structure prediction by ZEFSAII (Michael W. Deem and Ramdas Pophale) SiO2 
 PCOD9087113
Probable space group: P -1
;
_chemical_formula_sum "Si O2"
_cell_formula_units_Z 16
_cell_length_a 8.210649
_cell_length_b 9.748459
_cell_length_c 20.288442
_cell_angle_alpha 119.491304
_cell_angle_beta 30.416949
_cell_angle_gamma 123.729770
_cell_volume 683.420450
_symmetry_space_group_name_H-M "P -1"
_symmetry_group_IT_number 2
_symmetry_cell_setting 'triclinic'
loop_
_space_group_symop_operation_xyz
x,y,z
-x,-y,-z
loop_
_atom_site_type_symbol
_atom_site_label
_atom_site_fract_x
_atom_site_fract_y
_atom_site_fract_z
Si Si1 0.738275 0.818140 0.043320
Si Si2 0.187045 0.613429 0.279311
Si Si3 0.752056 0.021706 0.774644
Si Si4 0.208845 0.135785 0.404163
Si Si5 0.595738 0.735134 0.447540
Si Si6 0.067843 0.696165 0.794191
Si Si7 0.879314 0.069078 0.273500
Si Si8 0.359406 0.711058 0.386318
O O1 0.527595 0.743198 0.164098
O O2 0.434292 0.845266 0.111238
O O3 0.913745 0.692598 0.919406
O O4 0.000000 0.000000 0.000000
O O5 0.243179 0.601401 0.335038
O O6 0.846601 0.665709 0.389932
O O7 0.135312 0.450896 0.215915
O O8 0.135978 0.107221 0.640578
O O9 0.623484 0.943165 0.730707
O O10 0.784092 0.908093 0.796329
O O11 0.535002 0.281787 0.346335
O O12 0.947601 0.212691 0.478983
O O13 0.000000 0.000000 0.500000
O O14 0.332083 0.813959 0.593751
O O15 0.439654 0.639295 0.411484
O O16 0.039645 0.864802 0.812095
O O17 0.662392 0.876627 0.300886
#
# Coordination Sequence:
#
# PCOD9087113 Si02
#       8
#     2   2   2   2   2   2   2   2
#     4  11  22  42  70  89 114 171 225 263 309 363
#     4  11  26  43  60  94 136 166 211 258 317 388
#     4  10  19  36  61  98 120 150 213 278 301 357
#     4  12  19  35  65  96 122 160 207 256 315 378
#     4  10  20  38  66  95 129 166 205 262 319 375
#     4  12  25  40  62  91 130 174 206 260 320 371
#     4  11  20  37  65  95 127 160 213 263 319 374
#     4  11  20  38  67  95 127 166 206 259 322 376
#
# _framework density 23.411650000000002
#
# number of rings (size 3 to 8) (size 9 to 14) (size 15 to 20)
#    0.000    1.000    5.000    4.125    0.000    2.500 
#    2.250    2.500    0.000    8.250    0.000    0.000 
#    0.000    0.000    0.000    0.000    0.000    0.000 
#
# Total GULP energy -89105.568558 kJ/mol
# GULP energy per Si atom -5569.098035 kJ/mol
# Density = 2.335836 g / cm^3
# Si number density = 23.411650 Si / 1000 Ang^3
#
#
#
# Elastic Constant Matrix: (Units=GPa)
#
#
# Indices 1 2 3 4 5 6 
#
# 1 105.9529 3.4795 19.5748 0.3938 17.8615 19.7467
# 2 3.4795 67.6766 12.2259 -3.4232 8.6681 24.7584
# 3 19.5748 12.2259 96.0551 -1.6089 7.1476 10.2145
# 4 0.3938 -3.4232 -1.6089 28.3203 5.3809 7.0112
# 5 17.8615 8.6681 7.1476 5.3809 14.7553 9.0001
# 6 19.7467 24.7584 10.2145 7.0112 9.0001 28.3316
#
#
#
# Elastic Compliance Matrix: (Units=1/GPa)
#
#
# Indices 1 2 3 4 5 6 
#
# 1 0.014113 0.005847 -0.001188 0.006125 -0.015376 -0.011148
# 2 0.005847 0.026079 -0.000775 0.011450 -0.010237 -0.026167
# 3 -0.001188 -0.000775 0.011208 0.001608 -0.002894 -0.002015
# 4 0.006125 0.011450 0.001608 0.045300 -0.019275 -0.019942
# 5 -0.015376 -0.010237 -0.002894 -0.019275 0.105789 -0.008130
# 6 -0.011148 -0.026167 -0.002015 -0.019942 -0.008130 0.074177
#
#
# Mechanical properties :
#
#
# Convention : Reuss Voigt Hill
#
# Bulk Modulus (GPa) = 16.90112 37.80498 27.35305
# Shear Modulus (GPa) = 17.32381 29.90839 23.61610
#
# Velocity S-wave (km/s) = 2.72318 3.57809 3.17950
# Velocity P-wave (km/s) = 4.13792 5.76657 5.01875
#
# Compressibility (1/GPa) = 0.05916766
#
# Stress axis : x y z
#
# Youngs Moduli (GPa) = 70.85792 38.34560 89.22300
#
# Poissons Ratio (x) = -0.22420 0.10599
# Poissons Ratio (y) = -0.41429 0.06911
# Poissons Ratio (z) = 0.08417 0.02970
#
# Static dielectric constant tensor:
#      x y z
#    x 2.057690 0.100480 -0.008610 
#    y 0.100480 1.976230 -0.006600 
#    z -0.008610 -0.006600 1.922990 
# 
# From -- ./inp_files/354543.got.cif
#   From: 2010.05.17/outbox.cif.g08.bks.cpg/sg2_178_cif.got.tgz:354543.got - 2010.06.03 11:33:40.
