data_PCOD9087784
_publ_section_title
;
Structure prediction by ZEFSAII (Michael W. Deem and Ramdas Pophale) SiO2 
 PCOD9087784
Probable space group: P -1
;
_chemical_formula_sum "Si O2"
_cell_formula_units_Z 15
_cell_length_a 7.562811
_cell_length_b 6.985304
_cell_length_c 10.962894
_cell_angle_alpha 67.096929
_cell_angle_beta 94.338275
_cell_angle_gamma 95.689051
_cell_volume 530.433847
_symmetry_space_group_name_H-M "P -1"
_symmetry_group_IT_number 2
_symmetry_cell_setting 'triclinic'
loop_
_space_group_symop_operation_xyz
x,y,z
-x,-y,-z
loop_
_atom_site_type_symbol
_atom_site_label
_atom_site_fract_x
_atom_site_fract_y
_atom_site_fract_z
Si Si1 0.932469 0.634424 0.647211
Si Si2 0.542201 0.420970 0.253729
Si Si3 0.715808 0.998158 0.134800
Si Si4 0.738905 0.366574 0.495815
Si Si5 0.677764 0.202298 0.839110
Si Si6 0.917630 0.899548 0.787688
Si Si7 0.500000 0.000000 0.500000
Si Si8 0.840764 0.609860 0.087584
O O1 0.807289 0.502780 0.578884
O O2 0.623188 0.440287 0.784119
O O3 0.093805 0.717084 0.546004
O O4 0.016738 0.497505 0.792761
O O5 0.657421 0.512215 0.354017
O O6 0.146083 0.178601 0.329669
O O7 0.522354 0.179247 0.347515
O O8 0.659584 0.458147 0.129289
O O9 0.507885 0.938654 0.157044
O O10 0.787959 0.807689 0.111160
O O11 0.869552 0.048203 0.229228
O O12 0.737008 0.172802 0.988540
O O13 0.587210 0.183146 0.552327
O O14 0.821967 0.095786 0.788003
O O15 0.885780 0.712390 0.932958
#
# Coordination Sequence:
#
# PCOD9087784 Si02
#       8
#     2   2   2   2   2   2   1   2
#     4  10  19  36  68 113 156 202 263 329 397 467
#     4   8  16  33  68 112 147 203 269 343 377 456
#     4   9  19  36  66 106 157 213 258 316 379 489
#     4   8  18  37  69 109 149 205 278 333 381 456
#     4   9  17  35  66 106 160 208 258 320 400 468
#     4  11  21  35  68 117 163 212 249 308 411 502
#     4   8  16  36  72 110 148 198 286 332 378 456
#     4   9  17  34  64 105 154 203 258 317 390 467
#
# _framework density 28.278737
#
# number of rings (size 3 to 8) (size 9 to 14) (size 15 to 20)
#    0.800    2.133    0.000    2.800    0.000    0.000 
#    0.000    0.667    8.800   54.400    0.000   31.733 
#    0.000    0.000    0.000    0.000    0.000    0.000 
#
# Total GULP energy -83649.216714 kJ/mol
# GULP energy per Si atom -5576.614448 kJ/mol
# Density = 2.821437 g / cm^3
# Si number density = 28.278737 Si / 1000 Ang^3
#
#
#
# Elastic Constant Matrix: (Units=GPa)
#
#
# Indices 1 2 3 4 5 6 
#
# 1 127.1387 50.2819 11.2329 25.5467 1.1091 -3.3649
# 2 50.2819 151.9988 53.7478 9.1324 -15.4897 -2.0423
# 3 11.2329 53.7478 80.1473 0.3458 -7.4140 -18.0723
# 4 25.5467 9.1324 0.3458 60.1299 -9.9717 -1.1893
# 5 1.1091 -15.4897 -7.4140 -9.9717 32.3372 3.6342
# 6 -3.3649 -2.0423 -18.0723 -1.1893 3.6342 44.7725
#
#
#
# Elastic Compliance Matrix: (Units=1/GPa)
#
#
# Indices 1 2 3 4 5 6 
#
# 1 0.010214 -0.003849 0.001126 -0.004301 -0.003398 0.001208
# 2 -0.003849 0.010621 -0.006850 0.000699 0.004189 -0.002891
# 3 0.001126 -0.006850 0.018578 0.000653 0.000324 0.007262
# 4 -0.004301 0.000699 0.000653 0.019447 0.006634 -0.000050
# 5 -0.003398 0.004189 0.000324 0.006634 0.035464 -0.002636
# 6 0.001208 -0.002891 0.007262 -0.000050 -0.002636 0.025438
#
#
# Mechanical properties :
#
#
# Convention : Reuss Voigt Hill
#
# Bulk Modulus (GPa) = 49.34240 65.53443 57.43842
# Shear Modulus (GPa) = 34.32597 43.71608 39.02102
#
# Velocity S-wave (km/s) = 3.48781 3.93606 3.71869
# Velocity P-wave (km/s) = 5.80570 6.62431 6.22847
#
# Compressibility (1/GPa) = 0.02026654
#
# Stress axis : x y z
#
# Youngs Moduli (GPa) = 97.90641 94.15739 53.82759
#
# Poissons Ratio (x) = 0.36237 -0.06062
# Poissons Ratio (y) = 0.37680 0.36874
# Poissons Ratio (z) = -0.11025 0.64501
#
# Static dielectric constant tensor:
#      x y z
#    x 2.281980 0.106210 -0.060790 
#    y 0.106210 2.306010 -0.079820 
#    z -0.060790 -0.079820 2.329510 
# 
# From -- ./inp_files/415349.got.cif
#   From: 2010.05.17/outbox.cif.g08.bks.cpg/sg2_208_cif.got.tgz:415349.got - 2010.06.03 11:33:40.
