data_PCOD9087867
_publ_section_title
;
Structure prediction by ZEFSAII (Michael W. Deem and Ramdas Pophale) SiO2 
 PCOD9087867
Probable space group: P -1
;
_chemical_formula_sum "Si O2"
_cell_formula_units_Z 16
_cell_length_a 17.683217
_cell_length_b 11.351525
_cell_length_c 10.396153
_cell_angle_alpha 48.257882
_cell_angle_beta 47.258011
_cell_angle_gamma 85.007431
_cell_volume 853.262320
_symmetry_space_group_name_H-M "P -1"
_symmetry_group_IT_number 2
_symmetry_cell_setting 'triclinic'
loop_
_space_group_symop_operation_xyz
x,y,z
-x,-y,-z
loop_
_atom_site_type_symbol
_atom_site_label
_atom_site_fract_x
_atom_site_fract_y
_atom_site_fract_z
Si Si1 0.025428 0.283079 0.216094
Si Si2 0.145305 0.182739 0.764945
Si Si3 0.043104 0.973811 0.283867
Si Si4 0.206472 0.744818 0.604698
Si Si5 0.730947 0.667150 0.756289
Si Si6 0.423870 0.784532 0.819372
Si Si7 0.562711 0.797842 0.885705
Si Si8 0.274837 0.627125 0.359684
O O1 0.954445 0.167386 0.517114
O O2 0.914504 0.249706 0.273678
O O3 0.147260 0.534623 0.903348
O O4 0.074058 0.166746 0.185417
O O5 0.253427 0.278874 0.454284
O O6 0.157192 0.376515 0.656063
O O7 0.000000 0.000000 0.000000
O O8 0.144547 0.074292 0.971500
O O9 0.883892 0.822598 0.527650
O O10 0.338049 0.961701 0.356045
O O11 0.237577 0.712538 0.449166
O O12 0.635420 0.706460 0.895056
O O13 0.660932 0.424002 0.018993
O O14 0.500000 0.000000 0.500000
O O15 0.532687 0.793986 0.771614
O O16 0.321325 0.740631 0.084031
O O17 0.411391 0.667972 0.215652
#
# Coordination Sequence:
#
# PCOD9087867 Si02
#       8
#     2   2   2   2   2   2   2   2
#     4  10  22  33  59  80 110 146 185 234 273 330
#     4   9  18  33  58  78 108 145 180 226 271 328
#     4  10  19  37  55  85 108 141 187 233 280 312
#     4  11  20  39  56  80 113 148 188 227 279 330
#     4  10  19  37  61  80 113 145 186 221 278 341
#     4   9  21  36  55  83 111 142 182 229 270 328
#     4  10  21  35  58  82 106 154 185 219 279 333
#     4   9  20  35  57  78 114 145 186 220 280 326
#
# _framework density 18.751560999999999
#
# number of rings (size 3 to 8) (size 9 to 14) (size 15 to 20)
#    0.750    1.500    2.500    0.750    1.750    0.000 
#    2.250    0.000    0.000    5.250    0.000    0.000 
#    0.000    0.000    0.000    0.000    0.000    0.000 
#
# Total GULP energy -89077.910012 kJ/mol
# GULP energy per Si atom -5567.369376 kJ/mol
# Density = 1.870888 g / cm^3
# Si number density = 18.751561 Si / 1000 Ang^3
#
#
#
# Elastic Constant Matrix: (Units=GPa)
#
#
# Indices 1 2 3 4 5 6 
#
# 1 28.3672 -4.2373 13.6657 -10.1984 8.5931 -0.8114
# 2 -4.2373 50.2338 26.7799 -12.9760 -2.2227 0.4546
# 3 13.6657 26.7799 95.5065 -24.8279 19.8341 0.9148
# 4 -10.1984 -12.9760 -24.8279 27.9258 3.0644 -4.9415
# 5 8.5931 -2.2227 19.8341 3.0644 39.2107 -2.5909
# 6 -0.8114 0.4546 0.9148 -4.9415 -2.5909 21.3861
#
#
#
# Elastic Compliance Matrix: (Units=1/GPa)
#
#
# Indices 1 2 3 4 5 6 
#
# 1 0.049737 0.010741 -0.001716 0.023874 -0.010897 0.005928
# 2 0.010741 0.027309 -0.006815 0.010842 0.001983 0.002864
# 3 -0.001716 -0.006815 0.018364 0.013886 -0.010302 0.001255
# 4 0.023874 0.010842 0.013886 0.066031 -0.015916 0.013410
# 5 -0.010897 0.001983 -0.010302 -0.015916 0.034491 0.000486
# 6 0.005928 0.002864 0.001255 0.013410 0.000486 0.050027
#
#
# Mechanical properties :
#
#
# Convention : Reuss Voigt Hill
#
# Bulk Modulus (GPa) = 10.01699 27.39154 18.70427
# Shear Modulus (GPa) = 18.19407 26.89779 22.54593
#
# Velocity S-wave (km/s) = 3.11829 3.79150 3.47125
# Velocity P-wave (km/s) = 4.28002 5.81434 5.10515
#
# Compressibility (1/GPa) = 0.09983034
#
# Stress axis : x y z
#
# Youngs Moduli (GPa) = 20.10583 36.61857 54.45383
#
# Poissons Ratio (x) = -0.39333 0.09344
# Poissons Ratio (y) = -0.21596 0.37110
# Poissons Ratio (z) = 0.03450 0.24956
#
# Static dielectric constant tensor:
#      x y z
#    x 1.651410 0.018640 0.012810 
#    y 0.018640 1.653360 0.014980 
#    z 0.012810 0.014980 1.673210 
# 
# From -- ./inp_files/284218.got.cif
#   From: 2010.05.17/outbox.cif.g08.bks.cpg/sg2_143_cif.got.tgz:284218.got - 2010.06.03 11:33:40.
