data_PCOD9087691
_publ_section_title
;
Structure prediction by ZEFSAII (Michael W. Deem and Ramdas Pophale) SiO2 
 PCOD9087691
Probable space group: P -1
;
_chemical_formula_sum "Si O2"
_cell_formula_units_Z 14
_cell_length_a 9.084552
_cell_length_b 7.053475
_cell_length_c 12.704491
_cell_angle_alpha 64.854444
_cell_angle_beta 69.735860
_cell_angle_gamma 110.631860
_cell_volume 559.057790
_symmetry_space_group_name_H-M "P -1"
_symmetry_group_IT_number 2
_symmetry_cell_setting 'triclinic'
loop_
_space_group_symop_operation_xyz
x,y,z
-x,-y,-z
loop_
_atom_site_type_symbol
_atom_site_label
_atom_site_fract_x
_atom_site_fract_y
_atom_site_fract_z
Si Si1 0.531525 0.575323 0.757544
Si Si2 0.792421 0.901891 0.942594
Si Si3 0.165748 0.262560 0.686382
Si Si4 0.049276 0.140300 0.341270
Si Si5 0.491018 0.087801 0.151216
Si Si6 0.904737 0.530386 0.913498
Si Si7 0.541737 0.344876 0.621396
O O1 0.719105 0.646800 0.757660
O O2 0.489652 0.761704 0.780627
O O3 0.580662 0.591177 0.619112
O O4 0.347362 0.278369 0.886470
O O5 0.654039 0.918228 0.892939
O O6 0.842007 0.711476 0.927697
O O7 0.006205 0.172471 0.838567
O O8 0.314322 0.186097 0.687446
O O9 0.315094 0.552130 0.537663
O O10 0.027975 0.100825 0.660323
O O11 0.986959 0.311963 0.259223
O O12 0.000000 0.000000 0.500000
O O13 0.413699 0.806581 0.275532
O O14 0.705308 0.247335 0.010091
O O15 0.000000 0.500000 0.000000
#
# Coordination Sequence:
#
# PCOD9087691 Si02
#       7
#     2   2   2   2   2   2   2
#     4  11  21  41  67  93 126 167 225 273 314 395
#     4  10  20  39  67  90 131 169 220 279 322 381
#     4  10  22  42  61  94 138 174 209 277 340 382
#     4  11  19  38  70  95 127 176 220 269 323 394
#     4  11  20  39  67  94 127 168 223 273 323 382
#     4  10  19  36  65  96 128 175 214 265 338 386
#     4  11  25  40  66  93 134 175 215 272 336 391
#
# _framework density 25.042133
#
# number of rings (size 3 to 8) (size 9 to 14) (size 15 to 20)
#    0.000    1.429    5.714    2.571    0.000    1.714 
#    0.000    2.857    9.429    0.000    0.000    0.000 
#    0.000    0.000    0.000    0.000    0.000    0.000 
#
# Total GULP energy -77972.739955 kJ/mol
# GULP energy per Si atom -5569.481425 kJ/mol
# Density = 2.498514 g / cm^3
# Si number density = 25.042133 Si / 1000 Ang^3
#
#
#
# Elastic Constant Matrix: (Units=GPa)
#
#
# Indices 1 2 3 4 5 6 
#
# 1 123.4879 7.8365 52.5783 -5.0682 3.4493 31.5550
# 2 7.8365 59.9174 2.4883 5.2480 2.9433 8.1306
# 3 52.5783 2.4883 148.6102 -8.2515 -2.3865 1.4402
# 4 -5.0682 5.2480 -8.2515 23.7851 4.7548 0.7362
# 5 3.4493 2.9433 -2.3865 4.7548 56.4966 -5.2410
# 6 31.5550 8.1306 1.4402 0.7362 -5.2410 35.0148
#
#
#
# Elastic Compliance Matrix: (Units=1/GPa)
#
#
# Indices 1 2 3 4 5 6 
#
# 1 0.013273 0.000032 -0.004499 0.002098 -0.002308 -0.012173
# 2 0.000032 0.017649 -0.000490 -0.003725 -0.001017 -0.004181
# 3 -0.004499 -0.000490 0.008403 0.001770 0.000869 0.003915
# 4 0.002098 -0.003725 0.001770 0.044781 -0.003871 -0.002620
# 5 -0.002308 -0.001017 0.000869 -0.003871 0.018736 0.005166
# 6 -0.012173 -0.004181 0.003915 -0.002620 0.005166 0.041168
#
#
# Mechanical properties :
#
#
# Convention : Reuss Voigt Hill
#
# Bulk Modulus (GPa) = 33.99877 50.86906 42.43391
# Shear Modulus (GPa) = 30.53872 41.00013 35.76942
#
# Velocity S-wave (km/s) = 3.49591 4.05068 3.78348
# Velocity P-wave (km/s) = 5.46821 6.49883 6.00567
#
# Compressibility (1/GPa) = 0.02941283
#
# Stress axis : x y z
#
# Youngs Moduli (GPa) = 75.34251 56.65957 119.00181
#
# Poissons Ratio (x) = -0.00183 0.53539
# Poissons Ratio (y) = -0.00244 0.05826
# Poissons Ratio (z) = 0.33897 0.02774
#
# Static dielectric constant tensor:
#      x y z
#    x 1.985560 -0.015060 -0.064880 
#    y -0.015060 2.040150 0.014520 
#    z -0.064880 0.014520 2.173960 
# 
# From -- ./inp_files/307217.got.cif
#   From: 2010.05.17/outbox.cif.g08.bks.cpg/sg2_154_cif.got.tgz:307217.got - 2010.06.03 11:33:40.
