data_PCOD9087803
_publ_section_title
;
Structure prediction by ZEFSAII (Michael W. Deem and Ramdas Pophale) SiO2 
 PCOD9087803
Probable space group: P -1
;
_chemical_formula_sum "Si O2"
_cell_formula_units_Z 16
_cell_length_a 8.001471
_cell_length_b 9.236556
_cell_length_c 14.429820
_cell_angle_alpha 139.562488
_cell_angle_beta 91.135148
_cell_angle_gamma 74.508674
_cell_volume 637.225066
_symmetry_space_group_name_H-M "P -1"
_symmetry_group_IT_number 2
_symmetry_cell_setting 'triclinic'
loop_
_space_group_symop_operation_xyz
x,y,z
-x,-y,-z
loop_
_atom_site_type_symbol
_atom_site_label
_atom_site_fract_x
_atom_site_fract_y
_atom_site_fract_z
Si Si1 0.103635 0.503876 0.599000
Si Si2 0.340919 0.601745 0.335689
Si Si3 0.230800 0.935413 0.326907
Si Si4 0.310152 0.099953 0.099978
Si Si5 0.227304 0.666881 0.850120
Si Si6 0.678098 0.254378 0.390018
Si Si7 0.530113 0.854428 0.155696
Si Si8 0.152053 0.607196 0.037038
O O1 0.087747 0.604360 0.753152
O O2 0.196933 0.679097 0.645906
O O3 0.000000 0.500000 0.500000
O O4 0.182350 0.216926 0.478799
O O5 0.235360 0.784823 0.344243
O O6 0.270810 0.383488 0.240894
O O7 0.560080 0.488311 0.257952
O O8 0.288336 0.751692 0.503462
O O9 0.434968 0.846599 0.246537
O O10 0.114523 0.859343 0.211865
O O11 0.365755 0.988574 0.149130
O O12 0.500000 0.000000 0.000000
O O13 0.204543 0.947250 0.980273
O O14 0.195143 0.616295 0.932962
O O15 0.500000 0.500000 0.500000
O O16 0.640954 0.024359 0.246001
O O17 0.667222 0.585225 0.003893
O O18 0.000000 0.500000 0.000000
#
# Coordination Sequence:
#
# PCOD9087803 Si02
#       8
#     2   2   2   2   2   2   2   2
#     4  12  29  49  72 105 153 194 233 294 371 439
#     4  11  22  40  75 118 137 178 251 306 350 419
#     4  12  25  47  74 107 145 190 240 301 358 423
#     4  10  19  36  69 107 137 176 242 295 348 412
#     4  11  22  45  75 103 142 194 239 297 362 423
#     4  12  22  43  74 112 141 188 248 291 354 432
#     4  12  22  43  75 102 148 188 241 305 348 422
#     4  12  28  45  69 110 149 194 239 296 370 430
#
# _framework density 25.108871000000001
#
# number of rings (size 3 to 8) (size 9 to 14) (size 15 to 20)
#    0.000    0.500    6.250    2.625    3.500    2.000 
#    0.000    3.125    0.000    0.000    0.000    0.000 
#    0.000    0.000    0.000    0.000    0.000    0.000 
#
# Total GULP energy -89368.047604 kJ/mol
# GULP energy per Si atom -5585.502975 kJ/mol
# Density = 2.505172 g / cm^3
# Si number density = 25.108871 Si / 1000 Ang^3
#
#
#
# Elastic Constant Matrix: (Units=GPa)
#
#
# Indices 1 2 3 4 5 6 
#
# 1 72.1143 22.7752 32.8424 4.7238 36.7762 17.2846
# 2 22.7752 151.1900 50.4338 -15.1328 10.8451 5.8708
# 3 32.8424 50.4338 160.9148 6.1503 32.3717 5.5104
# 4 4.7238 -15.1328 6.1503 49.5509 -0.8558 1.5202
# 5 36.7762 10.8451 32.3717 -0.8558 40.4983 8.9655
# 6 17.2846 5.8708 5.5104 1.5202 8.9655 29.2808
#
#
#
# Elastic Compliance Matrix: (Units=1/GPa)
#
#
# Indices 1 2 3 4 5 6 
#
# 1 0.029473 -0.002790 0.000190 -0.003819 -0.024199 -0.009267
# 2 -0.002790 0.008034 -0.002576 0.003098 0.002603 -0.000437
# 3 0.000190 -0.002576 0.008308 -0.001973 -0.006363 0.000891
# 4 -0.003819 0.003098 -0.001973 0.021838 0.004811 -0.000602
# 5 -0.024199 0.002603 -0.006363 0.004811 0.051384 -0.001023
# 6 -0.009267 -0.000437 0.000891 -0.000602 -0.001023 0.039887
#
#
# Mechanical properties :
#
#
# Convention : Reuss Voigt Hill
#
# Bulk Modulus (GPa) = 28.19722 66.25800 47.22761
# Shear Modulus (GPa) = 27.60975 42.41053 35.01014
#
# Velocity S-wave (km/s) = 3.31962 4.11428 3.73813
# Velocity P-wave (km/s) = 5.09387 7.00110 6.12221
#
# Compressibility (1/GPa) = 0.03546449
#
# Stress axis : x y z
#
# Youngs Moduli (GPa) = 33.92917 124.47185 120.36863
#
# Poissons Ratio (x) = 0.34727 -0.02292
# Poissons Ratio (y) = 0.09466 0.31003
# Poissons Ratio (z) = -0.00646 0.32060
#
# Static dielectric constant tensor:
#      x y z
#    x 2.194410 0.141080 -0.219650 
#    y 0.141080 2.330630 -0.558350 
#    z -0.219650 -0.558350 2.495280 
# 
# From -- ./inp_files/495849.got.cif
#   From: 2010.05.17/outbox.cif.g08.bks.cpg/sg2_248_cif.got.tgz:495849.got - 2010.06.03 11:33:40.
