data_PCOD9087965
_publ_section_title
;
Structure prediction by ZEFSAII (Michael W. Deem and Ramdas Pophale) SiO2 
 PCOD9087965
Probable space group: P -1
;
_chemical_formula_sum "Si O2"
_cell_formula_units_Z 16
_cell_length_a 23.964031
_cell_length_b 9.980283
_cell_length_c 13.131533
_cell_angle_alpha 35.327278
_cell_angle_beta 23.144930
_cell_angle_gamma 34.653358
_cell_volume 676.623233
_symmetry_space_group_name_H-M "P -1"
_symmetry_group_IT_number 2
_symmetry_cell_setting 'triclinic'
loop_
_space_group_symop_operation_xyz
x,y,z
-x,-y,-z
loop_
_atom_site_type_symbol
_atom_site_label
_atom_site_fract_x
_atom_site_fract_y
_atom_site_fract_z
Si Si1 0.707719 0.135723 0.184233
Si Si2 0.329250 0.671788 0.665941
Si Si3 0.906261 0.635738 0.217862
Si Si4 0.555841 0.910223 0.848776
Si Si5 0.299422 0.933980 0.099904
Si Si6 0.241608 0.593583 0.244826
Si Si7 0.346844 0.355531 0.645458
Si Si8 0.125804 0.739264 0.650357
O O1 0.744769 0.279007 0.130358
O O2 0.527258 0.242317 0.406083
O O3 0.752918 0.849301 0.313269
O O4 0.796667 0.185848 0.907141
O O5 0.500000 0.500000 0.500000
O O6 0.283108 0.528513 0.742764
O O7 0.336295 0.932747 0.456525
O O8 0.882184 0.524769 0.434915
O O9 0.942958 0.396555 0.233981
O O10 0.024414 0.770380 0.901821
O O11 0.639583 0.624082 0.879980
O O12 0.431474 0.952957 0.941570
O O13 0.500000 0.000000 0.000000
O O14 0.310672 0.686662 0.170897
O O15 0.165000 0.953792 0.392907
O O16 0.286426 0.131941 0.910554
O O17 0.281515 0.533865 0.550518
#
# Coordination Sequence:
#
# PCOD9087965 Si02
#       8
#     2   2   2   2   2   2   2   2
#     4  11  21  38  62  90 124 163 202 252 311 363
#     4  10  19  37  57  89 125 163 197 248 303 373
#     4  10  22  43  60  87 127 164 207 257 308 373
#     4  12  21  36  62  92 128 164 200 255 315 372
#     4  11  22  38  60  92 126 157 207 261 306 366
#     4  11  23  36  62  93 120 163 210 253 310 367
#     4  11  22  39  63  95 125 160 207 256 309 369
#     4  10  23  40  63  88 123 166 207 256 314 364
#
# _framework density 23.646839
#
# number of rings (size 3 to 8) (size 9 to 14) (size 15 to 20)
#    0.000    1.250    3.750    4.125    0.000    5.000 
#    0.000    4.375    0.000    1.500    0.000    0.000 
#    0.000    0.000    0.000    0.000    0.000    0.000 
#
# Total GULP energy -89217.239296 kJ/mol
# GULP energy per Si atom -5576.077456 kJ/mol
# Density = 2.359302 g / cm^3
# Si number density = 23.646839 Si / 1000 Ang^3
#
#
#
# Elastic Constant Matrix: (Units=GPa)
#
#
# Indices 1 2 3 4 5 6 
#
# 1 16.3982 23.0191 -9.6687 14.0796 27.4664 4.3568
# 2 23.0191 65.5974 21.8940 -11.0966 -4.0148 14.0210
# 3 -9.6687 21.8940 141.5500 -13.6385 36.0814 -7.8491
# 4 14.0796 -11.0966 -13.6385 36.0114 -4.7333 5.6752
# 5 27.4664 -4.0148 36.0814 -4.7333 34.3293 -2.3865
# 6 4.3568 14.0210 -7.8491 5.6752 -2.3865 38.4339
#
#
#
# Elastic Compliance Matrix: (Units=1/GPa)
#
#
# Indices 1 2 3 4 5 6 
#
# 1 -0.017420 0.013934 -0.009258 0.011897 0.026583 -0.005105
# 2 0.013934 0.009378 0.002343 -0.002627 -0.013221 -0.004955
# 3 -0.009258 0.002343 0.006222 0.006887 0.002131 0.000581
# 4 0.011897 -0.002627 0.006887 0.023597 -0.014043 -0.003340
# 5 0.026583 -0.013221 0.002131 -0.014043 0.002449 0.004471
# 6 -0.005105 -0.004955 0.000581 -0.003340 0.004471 0.029295
#
#
# Mechanical properties :
#
#
# Convention : Reuss Voigt Hill
#
# Bulk Modulus (GPa) = 81.84396 32.67051 57.25723
# Shear Modulus (GPa) = 114.79604 34.30834 74.55219
#
# Velocity S-wave (km/s) = 6.97506 3.81315 5.62101
# Velocity P-wave (km/s) = 9.97771 5.76479 8.14824
#
# Compressibility (1/GPa) = 0.01221837
#
# Stress axis : x y z
#
# Youngs Moduli (GPa) = -57.40421 106.62824 160.71247
#
# Poissons Ratio (x) = -1.48573 1.48788
# Poissons Ratio (y) = 0.79985 -0.37660
# Poissons Ratio (z) = -0.53145 -0.24986
#
# Static dielectric constant tensor:
#      x y z
#    x 1.962250 -0.013760 0.000310 
#    y -0.013760 1.976150 0.009270 
#    z 0.000310 0.009270 1.967180 
# 
# From -- ./inp_files/544935.got.cif
#   From: 2010.05.17/outbox.cif.g08.bks.cpg/sg2_273_cif.got.tgz:544935.got - 2010.06.03 11:33:40.
