data_PCOD9087227
_publ_section_title
;
Structure prediction by ZEFSAII (Michael W. Deem and Ramdas Pophale) SiO2 
 PCOD9087227
Probable space group: P -1
;
_chemical_formula_sum "Si O2"
_cell_formula_units_Z 14
_cell_length_a 8.162626
_cell_length_b 11.125945
_cell_length_c 19.385130
_cell_angle_alpha 31.255303
_cell_angle_beta 134.321804
_cell_angle_gamma 112.718899
_cell_volume 537.567893
_symmetry_space_group_name_H-M "P -1"
_symmetry_group_IT_number 2
_symmetry_cell_setting 'triclinic'
loop_
_space_group_symop_operation_xyz
x,y,z
-x,-y,-z
loop_
_atom_site_type_symbol
_atom_site_label
_atom_site_fract_x
_atom_site_fract_y
_atom_site_fract_z
Si Si1 0.129967 0.652586 0.160881
Si Si2 0.904504 0.302162 0.091749
Si Si3 0.116778 0.390875 0.428860
Si Si4 0.361618 0.791845 0.736038
Si Si5 0.487269 0.798654 0.041614
Si Si6 0.154946 0.130012 0.381992
Si Si7 0.454777 0.850979 0.220252
O O1 0.129417 0.557749 0.286597
O O2 0.189464 0.387392 0.265730
O O3 0.356279 0.725162 0.194580
O O4 0.824130 0.939040 0.919575
O O5 0.648245 0.496935 0.973305
O O6 0.777105 0.219129 0.033893
O O7 0.000000 0.500000 0.000000
O O8 0.124268 0.064776 0.326380
O O9 0.276963 0.397888 0.538553
O O10 0.793176 0.510116 0.282311
O O11 0.300191 0.059427 0.628462
O O12 0.111668 0.768467 0.696293
O O13 0.375369 0.871004 0.621493
O O14 0.500000 0.000000 0.000000
O O15 0.475790 0.943535 0.894531
#
# Coordination Sequence:
#
# PCOD9087227 Si02
#       7
#     2   2   2   2   2   2   2
#     4   9  19  33  60 100 126 150 206 270 312 367
#     4  12  26  42  65  96 130 171 209 265 330 378
#     4  10  20  40  67  94 122 163 216 261 314 375
#     4  10  20  40  70  95 124 161 215 270 313 380
#     4  11  26  44  60  88 131 172 214 252 314 388
#     4  10  20  38  65  94 124 161 215 265 317 372
#     4  10  19  36  62  89 127 168 202 257 316 370
#
# _framework density 26.043225
#
# number of rings (size 3 to 8) (size 9 to 14) (size 15 to 20)
#    0.000    1.714    0.000    6.000    2.000    1.143 
#    7.714    0.000    0.000    0.000    0.000    0.000 
#    0.000    0.000    0.000    0.000    0.000    0.000 
#
# Total GULP energy -78279.329424 kJ/mol
# GULP energy per Si atom -5591.380673 kJ/mol
# Density = 2.598395 g / cm^3
# Si number density = 26.043225 Si / 1000 Ang^3
#
#
#
# Elastic Constant Matrix: (Units=GPa)
#
#
# Indices 1 2 3 4 5 6 
#
# 1 65.1397 27.7274 12.7851 11.3039 -4.7883 21.1806
# 2 27.7274 164.4065 37.3820 17.3482 -7.2235 19.5094
# 3 12.7851 37.3820 92.8585 29.6455 -14.7042 -5.1413
# 4 11.3039 17.3482 29.6455 51.0614 -6.5216 -4.2819
# 5 -4.7883 -7.2235 -14.7042 -6.5216 27.7442 0.0031
# 6 21.1806 19.5094 -5.1413 -4.2819 0.0031 43.6185
#
#
#
# Elastic Compliance Matrix: (Units=1/GPa)
#
#
# Indices 1 2 3 4 5 6 
#
# 1 0.020145 -0.001501 -0.001233 -0.003847 0.001530 -0.009634
# 2 -0.001501 0.007384 -0.002638 -0.000887 0.000057 -0.002972
# 3 -0.001233 -0.002638 0.015180 -0.006688 0.005573 0.002911
# 4 -0.003847 -0.000887 -0.006688 0.025138 0.001469 0.003944
# 5 0.001530 0.000057 0.005573 0.001469 0.039621 0.000030
# 6 -0.009634 -0.002972 0.002911 0.003944 0.000030 0.029664
#
#
# Mechanical properties :
#
#
# Convention : Reuss Voigt Hill
#
# Bulk Modulus (GPa) = 31.28419 53.13264 42.20841
# Shear Modulus (GPa) = 31.53952 40.78551 36.16252
#
# Velocity S-wave (km/s) = 3.48378 3.96165 3.73038
# Velocity P-wave (km/s) = 5.31233 6.43213 5.89886
#
# Compressibility (1/GPa) = 0.03196503
#
# Stress axis : x y z
#
# Youngs Moduli (GPa) = 49.64049 135.42282 65.87713
#
# Poissons Ratio (x) = 0.20326 0.08120
# Poissons Ratio (y) = 0.07451 0.17382
# Poissons Ratio (z) = 0.06118 0.35731
#
# Static dielectric constant tensor:
#      x y z
#    x 2.036710 -0.007860 -0.024830 
#    y -0.007860 2.119900 0.045220 
#    z -0.024830 0.045220 2.040970 
# 
# From -- ./inp_files/589404.got.cif
#   From: 2010.05.17/outbox.cif.g08.bks.cpg/sg2_295_cif.got.tgz:589404.got - 2010.06.03 11:33:40.
