data_PCOD9087814
_publ_section_title
;
Structure prediction by ZEFSAII (Michael W. Deem and Ramdas Pophale) SiO2 
 PCOD9087814
Probable space group: P -1
;
_chemical_formula_sum "Si O2"
_cell_formula_units_Z 16
_cell_length_a 11.533609
_cell_length_b 9.860759
_cell_length_c 17.350376
_cell_angle_alpha 150.389555
_cell_angle_beta 54.175207
_cell_angle_gamma 132.477800
_cell_volume 719.083511
_symmetry_space_group_name_H-M "P -1"
_symmetry_group_IT_number 2
_symmetry_cell_setting 'triclinic'
loop_
_space_group_symop_operation_xyz
x,y,z
-x,-y,-z
loop_
_atom_site_type_symbol
_atom_site_label
_atom_site_fract_x
_atom_site_fract_y
_atom_site_fract_z
Si Si1 0.814911 0.833845 0.508299
Si Si2 0.835495 0.423350 0.852480
Si Si3 0.787961 0.427390 0.465640
Si Si4 0.730705 0.735072 0.921976
Si Si5 0.945672 0.818985 0.736731
Si Si6 0.788439 0.355307 0.172091
Si Si7 0.539790 0.848762 0.334976
Si Si8 0.790408 0.567564 0.110166
O O1 0.797099 0.635822 0.493399
O O2 0.741371 0.605879 0.353687
O O3 0.763241 0.101642 0.678514
O O4 0.000000 0.000000 0.500000
O O5 0.786560 0.659672 0.943968
O O6 0.024774 0.538433 0.831743
O O7 0.779833 0.401616 0.951386
O O8 0.813412 0.611751 0.626570
O O9 0.933380 0.329277 0.363170
O O10 0.629809 0.126500 0.379954
O O11 0.869603 0.840023 0.856923
O O12 0.601540 0.426504 0.785717
O O13 0.691049 0.025355 0.082501
O O14 0.043176 0.138677 0.815465
O O15 0.774213 0.365799 0.091109
O O16 0.664133 0.709119 0.237465
O O17 0.500000 0.000000 0.500000
#
# Coordination Sequence:
#
# PCOD9087814 Si02
#       8
#     2   2   2   2   2   2   2   2
#     4  10  22  39  66  99 139 167 219 286 347 394
#     4  11  24  41  70 105 138 172 231 288 346 401
#     4  10  21  39  66  99 133 178 234 278 337 404
#     4  12  25  41  69  99 143 184 224 280 346 408
#     4  10  19  36  69  99 129 175 232 284 339 397
#     4  11  24  42  71 104 141 173 230 288 349 397
#     4  11  26  45  68  97 144 188 231 274 342 420
#     4  11  25  42  71 102 136 179 232 289 340 407
#
# _framework density 22.250544000000001
#
# number of rings (size 3 to 8) (size 9 to 14) (size 15 to 20)
#    0.000    1.250    2.500    3.750    7.000    1.000 
#    0.000    0.625    0.000    0.000    0.000    0.000 
#    0.000    0.000    0.000    0.000    0.000    0.000 
#
# Total GULP energy -89482.367726 kJ/mol
# GULP energy per Si atom -5592.647983 kJ/mol
# Density = 2.219990 g / cm^3
# Si number density = 22.250544 Si / 1000 Ang^3
#
#
#
# Elastic Constant Matrix: (Units=GPa)
#
#
# Indices 1 2 3 4 5 6 
#
# 1 47.7244 40.6121 27.5857 8.4376 6.9615 -13.2134
# 2 40.6121 79.2909 35.7825 25.3071 0.2558 -25.8989
# 3 27.5857 35.7825 145.4783 0.5069 10.5822 -4.9237
# 4 8.4376 25.3071 0.5069 31.9129 -9.0399 -5.9520
# 5 6.9615 0.2558 10.5822 -9.0399 26.3865 3.3888
# 6 -13.2134 -25.8989 -4.9237 -5.9520 3.3888 34.7359
#
#
#
# Elastic Compliance Matrix: (Units=1/GPa)
#
#
# Indices 1 2 3 4 5 6 
#
# 1 0.040600 -0.020510 -0.001986 0.003326 -0.008743 0.001294
# 2 -0.020510 0.037342 -0.004484 -0.021917 -0.002705 0.015913
# 3 -0.001986 -0.004484 0.008371 0.003125 -0.001432 -0.002237
# 4 0.003326 -0.021917 0.003125 0.051074 0.016542 -0.007495
# 5 -0.008743 -0.002705 -0.001432 0.016542 0.047415 -0.007337
# 6 0.001294 0.015913 -0.002237 -0.007495 -0.007337 0.040260
#
#
# Mechanical properties :
#
#
# Convention : Reuss Voigt Hill
#
# Bulk Modulus (GPa) = 30.90843 53.38381 42.14612
# Shear Modulus (GPa) = 17.25301 29.84127 23.54714
#
# Velocity S-wave (km/s) = 2.78762 3.66614 3.25664
# Velocity P-wave (km/s) = 4.92771 6.47804 5.75532
#
# Compressibility (1/GPa) = 0.03235363
#
# Stress axis : x y z
#
# Youngs Moduli (GPa) = 24.63048 26.77979 119.46171
#
# Poissons Ratio (x) = 0.54925 0.23723
# Poissons Ratio (y) = 0.50516 0.53566
# Poissons Ratio (z) = 0.04891 0.12008
#
# Static dielectric constant tensor:
#      x y z
#    x 1.786000 0.021960 -0.000370 
#    y 0.021960 1.777400 -0.000440 
#    z -0.000370 -0.000440 1.896550 
# 
# From -- ./inp_files/567121.got.cif
#   From: 2010.05.17/outbox.cif.g08.bks.cpg/sg2_284_cif.got.tgz:567121.got - 2010.06.03 11:33:40.
