data_PCOD9087603
_publ_section_title
;
Structure prediction by ZEFSAII (Michael W. Deem and Ramdas Pophale) SiO2 
 PCOD9087603
Probable space group: P -1
;
_chemical_formula_sum "Si O2"
_cell_formula_units_Z 14
_cell_length_a 17.559253
_cell_length_b 8.380813
_cell_length_c 7.664732
_cell_angle_alpha 36.981189
_cell_angle_beta 53.233644
_cell_angle_gamma 69.266639
_cell_volume 525.210520
_symmetry_space_group_name_H-M "P -1"
_symmetry_group_IT_number 2
_symmetry_cell_setting 'triclinic'
loop_
_space_group_symop_operation_xyz
x,y,z
-x,-y,-z
loop_
_atom_site_type_symbol
_atom_site_label
_atom_site_fract_x
_atom_site_fract_y
_atom_site_fract_z
Si Si1 0.321337 0.540308 0.288455
Si Si2 0.383264 0.159694 0.803568
Si Si3 0.770522 0.107277 0.278243
Si Si4 0.428313 0.850278 0.573458
Si Si5 0.792802 0.703748 0.873217
Si Si6 0.898368 0.721007 0.069580
Si Si7 0.062880 0.703307 0.378472
O O1 0.382306 0.368966 0.463039
O O2 0.209381 0.370336 0.611181
O O3 0.361236 0.590216 0.994354
O O4 0.335641 0.840958 0.095371
O O5 0.499197 0.188074 0.646195
O O6 0.310882 0.245742 0.964123
O O7 0.653755 0.001616 0.502543
O O8 0.816382 0.895542 0.504558
O O9 0.783535 0.386579 0.125885
O O10 0.827946 0.201612 0.937572
O O11 0.500000 0.000000 0.500000
O O12 0.869523 0.773225 0.866610
O O13 0.941563 0.469275 0.287082
O O14 0.960806 0.007375 0.811013
O O15 0.000000 0.500000 0.500000
#
# Coordination Sequence:
#
# PCOD9087603 Si02
#       7
#     2   2   2   2   2   2   2
#     4  10  19  36  64  96 125 175 232 267 320 388
#     4  10  21  37  60  92 136 180 223 264 318 408
#     4  12  26  44  67 102 140 175 226 295 330 398
#     4  10  23  38  65  99 138 177 236 277 332 384
#     4  11  25  43  68 100 144 183 220 268 356 402
#     4  11  22  45  75  97 137 184 219 274 348 413
#     4  12  26  47  76 106 129 171 234 286 337 407
#
# _framework density 26.655975000000002
#
# number of rings (size 3 to 8) (size 9 to 14) (size 15 to 20)
#    0.000    1.143    1.429    6.000    4.000    3.429 
#    0.000    4.286    0.000    0.000    0.000    0.000 
#    0.000    0.000    0.000    0.000    0.000    0.000 
#
# Total GULP energy -78432.193638 kJ/mol
# GULP energy per Si atom -5602.299546 kJ/mol
# Density = 2.659530 g / cm^3
# Si number density = 26.655975 Si / 1000 Ang^3
#
#
#
# Elastic Constant Matrix: (Units=GPa)
#
#
# Indices 1 2 3 4 5 6 
#
# 1 109.6612 -2.4408 42.2815 11.9967 8.9296 -2.2363
# 2 -2.4408 73.8223 34.8099 4.7973 -15.5619 -6.6732
# 3 42.2815 34.8099 131.0055 -17.7120 17.2386 3.2934
# 4 11.9967 4.7973 -17.7120 61.9571 2.8925 -12.6173
# 5 8.9296 -15.5619 17.2386 2.8925 48.2881 11.5723
# 6 -2.2363 -6.6732 3.2934 -12.6173 11.5723 40.9130
#
#
#
# Elastic Compliance Matrix: (Units=1/GPa)
#
#
# Indices 1 2 3 4 5 6 
#
# 1 0.011617 0.003409 -0.005352 -0.004084 0.001093 0.000053
# 2 0.003409 0.019727 -0.008187 -0.004944 0.008944 0.000008
# 3 -0.005352 -0.008187 0.013243 0.006017 -0.007011 0.001145
# 4 -0.004084 -0.004944 0.006017 0.020623 -0.005774 0.006479
# 5 0.001093 0.008944 -0.007011 -0.005774 0.028068 -0.007637
# 6 0.000053 0.000008 0.001145 0.006479 -0.007637 0.028513
#
#
# Mechanical properties :
#
#
# Convention : Reuss Voigt Hill
#
# Bulk Modulus (GPa) = 41.10937 51.53223 46.32080
# Shear Modulus (GPa) = 33.29730 46.22086 39.75908
#
# Velocity S-wave (km/s) = 3.53817 4.16862 3.86627
# Velocity P-wave (km/s) = 5.66985 6.52259 6.11111
#
# Compressibility (1/GPa) = 0.02432536
#
# Stress axis : x y z
#
# Youngs Moduli (GPa) = 86.07769 50.69246 75.50875
#
# Poissons Ratio (x) = -0.17279 0.40415
# Poissons Ratio (y) = -0.29340 0.61821
# Poissons Ratio (z) = 0.46072 0.41503
#
# Static dielectric constant tensor:
#      x y z
#    x 2.106490 -0.005940 -0.031060 
#    y -0.005940 2.131160 0.014490 
#    z -0.031060 0.014490 2.053430 
# 
# From -- ./inp_files/328261.got.cif
#   From: 2010.05.17/outbox.cif.g08.bks.cpg/sg2_165_cif.got.tgz:328261.got - 2010.06.03 11:33:40.
