data_PCOD9087728
_publ_section_title
;
Structure prediction by ZEFSAII (Michael W. Deem and Ramdas Pophale) SiO2 
 PCOD9087728
Probable space group: P -1
;
_chemical_formula_sum "Si O2"
_cell_formula_units_Z 16
_cell_length_a 15.165543
_cell_length_b 6.769180
_cell_length_c 13.037874
_cell_angle_alpha 98.687533
_cell_angle_beta 54.521687
_cell_angle_gamma 60.640666
_cell_volume 749.989153
_symmetry_space_group_name_H-M "P -1"
_symmetry_group_IT_number 2
_symmetry_cell_setting 'triclinic'
loop_
_space_group_symop_operation_xyz
x,y,z
-x,-y,-z
loop_
_atom_site_type_symbol
_atom_site_label
_atom_site_fract_x
_atom_site_fract_y
_atom_site_fract_z
Si Si1 0.986379 0.291188 0.464071
Si Si2 0.496993 0.880524 0.886378
Si Si3 0.333023 0.630572 0.606849
Si Si4 0.242835 0.659467 0.231878
Si Si5 0.134403 0.652578 0.891238
Si Si6 0.190080 0.442953 0.069714
Si Si7 0.711332 0.665954 0.538140
Si Si8 0.141257 0.259934 0.711404
O O1 0.881264 0.315508 0.620771
O O2 0.886776 0.394672 0.437011
O O3 0.000000 0.500000 0.500000
O O4 0.158959 0.980320 0.312002
O O5 0.597009 0.556417 0.829671
O O6 0.600155 0.845986 0.724463
O O7 0.500000 0.000000 0.000000
O O8 0.322944 0.102397 0.977661
O O9 0.500000 0.500000 0.500000
O O10 0.280130 0.568129 0.733731
O O11 0.338801 0.468103 0.496044
O O12 0.211396 0.971553 0.696003
O O13 0.245483 0.556413 0.110283
O O14 0.102160 0.494678 0.833689
O O15 0.172913 0.531859 0.970482
O O16 0.000000 0.000000 0.000000
O O17 0.017927 0.594017 0.225537
O O18 0.729778 0.825039 0.460483
#
# Coordination Sequence:
#
# PCOD9087728 Si02
#       8
#     2   2   2   2   2   2   2   2
#     4  10  19  36  66  94 127 166 215 266 322 389
#     4   9  21  40  66  95 128 174 212 268 333 388
#     4  11  26  43  65  97 134 174 224 275 327 392
#     4   9  20  38  61  92 129 165 213 266 319 390
#     4  11  25  42  65  98 132 167 226 274 324 398
#     4  11  21  40  70  89 134 178 209 273 340 382
#     4  10  23  40  67  97 134 170 224 266 329 391
#     4  11  24  41  66  97 129 175 224 264 331 399
#
# _framework density 21.333644
#
# number of rings (size 3 to 8) (size 9 to 14) (size 15 to 20)
#    0.000    1.750    1.250    1.875    5.250    3.000 
#    0.000    0.000    8.250    8.250    0.000    0.000 
#    0.000    0.000    0.000    0.000    0.000    0.000 
#
# Total GULP energy -89325.795354 kJ/mol
# GULP energy per Si atom -5582.862210 kJ/mol
# Density = 2.128509 g / cm^3
# Si number density = 21.333644 Si / 1000 Ang^3
#
#
#
# Elastic Constant Matrix: (Units=GPa)
#
#
# Indices 1 2 3 4 5 6 
#
# 1 107.5812 49.7387 31.3655 4.7881 -12.1886 -12.3760
# 2 49.7387 72.4525 22.1792 10.5891 -5.2880 2.7155
# 3 31.3655 22.1792 68.0230 5.7760 0.6649 -0.6879
# 4 4.7881 10.5891 5.7760 35.1964 -17.6523 -4.4926
# 5 -12.1886 -5.2880 0.6649 -17.6523 40.0749 3.9516
# 6 -12.3760 2.7155 -0.6879 -4.4926 3.9516 30.8288
#
#
#
# Elastic Compliance Matrix: (Units=1/GPa)
#
#
# Indices 1 2 3 4 5 6 
#
# 1 0.016979 -0.010907 -0.004712 0.005468 0.005445 0.007771
# 2 -0.010907 0.023021 -0.001888 -0.007468 -0.002830 -0.007174
# 3 -0.004712 -0.001888 0.017815 -0.003616 -0.003431 -0.001415
# 4 0.005468 -0.007468 -0.003616 0.040272 0.017850 0.006353
# 5 0.005445 -0.002830 -0.003431 0.017850 0.034097 0.000589
# 6 0.007771 -0.007174 -0.001415 0.006353 0.000589 0.037007
#
#
# Mechanical properties :
#
#
# Convention : Reuss Voigt Hill
#
# Bulk Modulus (GPa) = 43.85402 50.51371 47.18387
# Shear Modulus (GPa) = 23.60651 30.87157 27.23904
#
# Velocity S-wave (km/s) = 3.33008 3.80818 3.57713
# Velocity P-wave (km/s) = 5.94868 6.56245 6.26309
#
# Compressibility (1/GPa) = 0.02280293
#
# Stress axis : x y z
#
# Youngs Moduli (GPa) = 58.89592 43.43807 56.13129
#
# Poissons Ratio (x) = 0.47377 0.26448
# Poissons Ratio (y) = 0.64236 0.10597
# Poissons Ratio (z) = 0.27751 0.08201
#
# Static dielectric constant tensor:
#      x y z
#    x 1.738890 -0.028060 0.024820 
#    y -0.028060 1.784100 0.027130 
#    z 0.024820 0.027130 1.814160 
# 
# From -- ./inp_files/525374.got.cif
#   From: 2010.05.17/outbox.cif.g08.bks.cpg/sg2_263_cif.got.tgz:525374.got - 2010.06.03 11:33:40.
