data_PCOD9087312
_publ_section_title
;
Structure prediction by ZEFSAII (Michael W. Deem and Ramdas Pophale) SiO2 
 PCOD9087312
Probable space group: P -1
;
_chemical_formula_sum "Si O2"
_cell_formula_units_Z 16
_cell_length_a 12.829734
_cell_length_b 21.394902
_cell_length_c 12.138412
_cell_angle_alpha 28.303397
_cell_angle_beta 39.231586
_cell_angle_gamma 28.036311
_cell_volume 742.498004
_symmetry_space_group_name_H-M "P -1"
_symmetry_group_IT_number 2
_symmetry_cell_setting 'triclinic'
loop_
_space_group_symop_operation_xyz
x,y,z
-x,-y,-z
loop_
_atom_site_type_symbol
_atom_site_label
_atom_site_fract_x
_atom_site_fract_y
_atom_site_fract_z
Si Si1 0.313859 0.834841 0.060725
Si Si2 0.923834 0.666158 0.376998
Si Si3 0.823484 0.550234 0.156797
Si Si4 0.759877 0.377302 0.649439
Si Si5 0.852480 0.815129 0.785475
Si Si6 0.576022 0.935937 0.408266
Si Si7 0.266093 0.750899 0.461722
Si Si8 0.722580 0.964098 0.894770
O O1 0.580920 0.676034 0.105263
O O2 0.229767 0.785927 0.109198
O O3 0.212204 0.830147 0.261119
O O4 0.283344 0.005426 0.813909
O O5 0.740407 0.744715 0.505356
O O6 0.000000 0.500000 0.500000
O O7 0.137693 0.611564 0.345730
O O8 0.833195 0.824580 0.120531
O O9 0.868300 0.393068 0.430185
O O10 0.832141 0.668952 0.049453
O O11 0.000000 0.500000 0.000000
O O12 0.502759 0.553489 0.575393
O O13 0.839980 0.892219 0.792867
O O14 0.079703 0.747274 0.654637
O O15 0.648507 0.949636 0.658995
O O16 0.500000 0.000000 0.500000
O O17 0.295320 0.872278 0.315635
O O18 0.500000 0.000000 0.000000
#
# Coordination Sequence:
#
# PCOD9087312 Si02
#       8
#     2   2   2   2   2   2   2   2
#     4  10  21  41  64  97 138 182 229 281 351 419
#     4  12  26  46  71 101 138 185 232 287 357 411
#     4  10  19  36  62  97 131 174 226 281 340 406
#     4  11  24  39  68 102 137 181 226 291 351 415
#     4  11  23  40  70  96 133 184 235 287 332 426
#     4  11  26  45  71 105 139 185 234 294 350 415
#     4  11  22  42  67 101 136 182 235 283 347 417
#     4  12  22  46  69  93 133 189 241 275 345 424
#
# _framework density 21.548877999999998
#
# number of rings (size 3 to 8) (size 9 to 14) (size 15 to 20)
#    0.000    1.000    2.500    6.375    5.250    1.500 
#    2.250    0.625    0.000    0.000    0.000    0.000 
#    0.000    0.000    0.000    0.000    0.000    0.000 
#
# Total GULP energy -89299.048179 kJ/mol
# GULP energy per Si atom -5581.190511 kJ/mol
# Density = 2.149983 g / cm^3
# Si number density = 21.548878 Si / 1000 Ang^3
#
#
#
# Elastic Constant Matrix: (Units=GPa)
#
#
# Indices 1 2 3 4 5 6 
#
# 1 123.9683 35.7685 36.5054 2.9463 -27.9618 19.5061
# 2 35.7685 82.7577 29.0524 17.7559 -0.6433 12.7544
# 3 36.5054 29.0524 64.8792 7.6142 -17.6465 -1.2202
# 4 2.9463 17.7559 7.6142 36.0281 7.3967 -8.0365
# 5 -27.9618 -0.6433 -17.6465 7.3967 46.3341 0.5976
# 6 19.5061 12.7544 -1.2202 -8.0365 0.5976 44.0270
#
#
#
# Elastic Compliance Matrix: (Units=1/GPa)
#
#
# Indices 1 2 3 4 5 6 
#
# 1 0.012227 -0.002855 -0.003904 -0.001132 0.006097 -0.004988
# 2 -0.002855 0.018128 -0.006355 -0.008089 -0.002528 -0.005605
# 3 -0.003904 -0.006355 0.022456 -0.001752 0.006339 0.003787
# 4 -0.001132 -0.008089 -0.001752 0.035808 -0.007301 0.009432
# 5 0.006097 -0.002528 0.006339 -0.007301 0.028852 -0.003518
# 6 -0.004988 -0.005605 0.003787 0.009432 -0.003518 0.028421
#
#
# Mechanical properties :
#
#
# Convention : Reuss Voigt Hill
#
# Bulk Modulus (GPa) = 37.61656 52.69531 45.15594
# Shear Modulus (GPa) = 27.62719 36.62976 32.12848
#
# Velocity S-wave (km/s) = 3.58449 4.12739 3.86548
# Velocity P-wave (km/s) = 5.88436 6.87174 6.39713
#
# Compressibility (1/GPa) = 0.02658403
#
# Stress axis : x y z
#
# Youngs Moduli (GPa) = 81.78676 55.16326 44.53080
#
# Poissons Ratio (x) = 0.15750 0.17383
# Poissons Ratio (y) = 0.23352 0.28298
# Poissons Ratio (z) = 0.31927 0.35055
#
# Static dielectric constant tensor:
#      x y z
#    x 1.740290 -0.004730 -0.001110 
#    y -0.004730 1.841180 -0.032170 
#    z -0.001110 -0.032170 1.789130 
# 
# From -- ./inp_files/279656.got.cif
#   From: 2010.05.17/outbox.cif.g08.bks.cpg/sg2_140_cif.got.tgz:279656.got - 2010.06.03 11:33:40.
