data_PCOD9087736
_publ_section_title
;
Structure prediction by ZEFSAII (Michael W. Deem and Ramdas Pophale) SiO2 
 PCOD9087736
Probable space group: P -1
;
_chemical_formula_sum "Si O2"
_cell_formula_units_Z 12
_cell_length_a 9.075920
_cell_length_b 14.117583
_cell_length_c 6.913249
_cell_angle_alpha 55.160247
_cell_angle_beta 53.353862
_cell_angle_gamma 37.548441
_cell_volume 424.327790
_symmetry_space_group_name_H-M "P -1"
_symmetry_group_IT_number 2
_symmetry_cell_setting 'triclinic'
loop_
_space_group_symop_operation_xyz
x,y,z
-x,-y,-z
loop_
_atom_site_type_symbol
_atom_site_label
_atom_site_fract_x
_atom_site_fract_y
_atom_site_fract_z
Si Si1 0.890890 0.221392 0.729932
Si Si2 0.602055 0.435229 0.210172
Si Si3 0.665096 0.802639 0.697933
Si Si4 0.554690 0.184242 0.556424
Si Si5 0.814199 0.993708 0.914104
Si Si6 0.002030 0.449388 0.788373
O O1 0.133560 0.184493 0.509110
O O2 0.637482 0.403831 0.676938
O O3 0.856340 0.109100 0.804909
O O4 0.965939 0.169432 0.957984
O O5 0.625100 0.289225 0.393948
O O6 0.500000 0.500000 0.000000
O O7 0.852824 0.403192 0.042425
O O8 0.514192 0.825289 0.595307
O O9 0.847277 0.616873 0.818783
O O10 0.446679 0.929912 0.867922
O O11 0.760994 0.019000 0.699131
O O12 0.293737 0.293299 0.752955
O O13 0.000000 0.500000 0.500000
#
# Coordination Sequence:
#
# PCOD9087736 Si02
#       6
#     2   2   2   2   2   2
#     4  11  24  44  66  94 138 178 214 268 339 387
#     4  12  19  40  70  95 130 173 213 274 330 385
#     4  11  21  44  69  94 134 177 213 275 330 383
#     4  11  24  41  71 103 125 169 233 267 326 390
#     4  11  26  45  64  98 137 175 220 269 324 401
#     4  10  19  36  66  96 126 164 215 267 325 378
#
# _framework density 28.280028000000001
#
# number of rings (size 3 to 8) (size 9 to 14) (size 15 to 20)
#    0.000    1.000    6.667    1.500    0.000    3.333 
#    0.000    7.500    0.000    0.000    0.000    0.000 
#    0.000    0.000    0.000    0.000    0.000    0.000 
#
# Total GULP energy -67245.885040 kJ/mol
# GULP energy per Si atom -5603.823753 kJ/mol
# Density = 2.821566 g / cm^3
# Si number density = 28.280028 Si / 1000 Ang^3
#
#
#
# Elastic Constant Matrix: (Units=GPa)
#
#
# Indices 1 2 3 4 5 6 
#
# 1 105.5872 31.1964 80.7021 -8.4934 -9.0960 -17.7912
# 2 31.1964 132.8575 65.2807 2.3561 3.6832 -24.5572
# 3 80.7021 65.2807 145.0350 5.3192 -42.9763 -31.1067
# 4 -8.4934 2.3561 5.3192 62.1653 -23.2032 1.0224
# 5 -9.0960 3.6832 -42.9763 -23.2032 84.9654 -6.3020
# 6 -17.7912 -24.5572 -31.1067 1.0224 -6.3020 49.6788
#
#
#
# Elastic Compliance Matrix: (Units=1/GPa)
#
#
# Indices 1 2 3 4 5 6 
#
# 1 0.017916 0.001641 -0.012086 0.002024 -0.003778 -0.000861
# 2 0.001641 0.010724 -0.006536 -0.001058 -0.003785 0.001338
# 3 -0.012086 -0.006536 0.021088 0.000528 0.010315 0.006943
# 4 0.002024 -0.001058 0.000528 0.018445 0.005631 0.000867
# 5 -0.003778 -0.003785 0.010315 0.005631 0.018692 0.005490
# 6 -0.000861 0.001338 0.006943 0.000867 0.005490 0.025508
#
#
# Mechanical properties :
#
#
# Convention : Reuss Voigt Hill
#
# Bulk Modulus (GPa) = 63.42452 81.98202 72.70327
# Shear Modulus (GPa) = 32.98393 53.11526 43.04959
#
# Velocity S-wave (km/s) = 3.41887 4.33851 3.90585
# Velocity P-wave (km/s) = 6.16935 7.35861 6.79007
#
# Compressibility (1/GPa) = 0.01576677
#
# Stress axis : x y z
#
# Youngs Moduli (GPa) = 55.81717 93.24972 47.42040
#
# Poissons Ratio (x) = -0.15306 0.57312
# Poissons Ratio (y) = -0.09162 0.30993
# Poissons Ratio (z) = 0.67460 0.60947
#
# Static dielectric constant tensor:
#      x y z
#    x 2.110140 0.084240 0.155900 
#    y 0.084240 2.161660 -0.028320 
#    z 0.155900 -0.028320 2.186230 
# 
# From -- ./inp_files/274984.got.cif
#   From: 2010.05.17/outbox.cif.g08.bks.cpg/sg2_138_cif.got.tgz:274984.got - 2010.06.03 11:33:40.
