data_PCOD9087358
_publ_section_title
;
Structure prediction by ZEFSAII (Michael W. Deem and Ramdas Pophale) SiO2 
 PCOD9087358
Probable space group: P -1
;
_chemical_formula_sum "Si O2"
_cell_formula_units_Z 16
_cell_length_a 20.098749
_cell_length_b 9.143004
_cell_length_c 6.772068
_cell_angle_alpha 102.750280
_cell_angle_beta 103.965644
_cell_angle_gamma 30.282868
_cell_volume 608.798772
_symmetry_space_group_name_H-M "P -1"
_symmetry_group_IT_number 2
_symmetry_cell_setting 'triclinic'
loop_
_space_group_symop_operation_xyz
x,y,z
-x,-y,-z
loop_
_atom_site_type_symbol
_atom_site_label
_atom_site_fract_x
_atom_site_fract_y
_atom_site_fract_z
Si Si1 0.676591 0.707411 0.277905
Si Si2 0.586252 0.651596 0.777280
Si Si3 0.607499 0.284571 0.687081
Si Si4 0.229032 0.466527 0.278986
Si Si5 0.136942 0.084243 0.808940
Si Si6 0.404084 0.459403 0.710976
Si Si7 0.955613 0.078027 0.216846
Si Si8 0.134679 0.321293 0.235490
O O1 0.679724 0.730385 0.523741
O O2 0.618915 0.645031 0.203952
O O3 0.833892 0.420296 0.259522
O O4 0.566154 0.020552 0.198836
O O5 0.625847 0.417175 0.824355
O O6 0.688416 0.600000 0.848473
O O7 0.597837 0.597098 0.532423
O O8 0.500000 0.500000 0.500000
O O9 0.539784 0.294709 0.791880
O O10 0.745631 0.953683 0.621265
O O11 0.172060 0.408226 0.179187
O O12 0.100249 0.811053 0.347729
O O13 0.009317 0.382462 0.685802
O O14 0.282142 0.803481 0.739906
O O15 0.104531 0.972250 0.799486
O O16 0.132755 0.194364 0.033222
O O17 0.000000 0.000000 0.000000
#
# Coordination Sequence:
#
# PCOD9087358 Si02
#       8
#     2   2   2   2   2   2   2   2
#     4  10  19  38  63  86 114 152 198 234 282 356
#     4  10  20  35  58  91 116 145 189 247 288 332
#     4  10  20  35  55  85 119 148 186 243 291 327
#     4  10  19  36  63  87 111 154 199 232 288 342
#     4   9  21  39  61  83 111 160 202 227 284 359
#     4   9  18  37  60  83 116 151 196 236 283 345
#     4  10  22  38  60  87 121 148 187 249 293 336
#     4  10  20  38  61  81 116 155 197 233 281 352
#
# _framework density 26.281262000000002
#
# number of rings (size 3 to 8) (size 9 to 14) (size 15 to 20)
#    0.000    2.250    0.000    4.125    1.750    1.500 
#    6.750    3.125    0.000    0.000    0.000    0.000 
#    0.000    0.000    0.000    0.000    0.000    0.000 
#
# Total GULP energy -89459.595090 kJ/mol
# GULP energy per Si atom -5591.224693 kJ/mol
# Density = 2.622144 g / cm^3
# Si number density = 26.281262 Si / 1000 Ang^3
#
#
#
# Elastic Constant Matrix: (Units=GPa)
#
#
# Indices 1 2 3 4 5 6 
#
# 1 68.4457 17.9026 2.7341 -1.6582 3.8515 3.1757
# 2 17.9026 239.1568 9.4233 -3.4902 -6.3485 -22.2229
# 3 2.7341 9.4233 37.8167 -1.3617 3.8761 2.5337
# 4 -1.6582 -3.4902 -1.3617 44.0236 -0.4780 2.4656
# 5 3.8515 -6.3485 3.8761 -0.4780 33.2325 4.0675
# 6 3.1757 -22.2229 2.5337 2.4656 4.0675 37.2138
#
#
#
# Elastic Compliance Matrix: (Units=1/GPa)
#
#
# Indices 1 2 3 4 5 6 
#
# 1 0.015175 -0.001334 -0.000441 0.000540 -0.001721 -0.001909
# 2 -0.001334 0.004624 -0.001330 0.000124 0.000844 0.002865
# 3 -0.000441 -0.001330 0.027309 0.000820 -0.003091 -0.002332
# 4 0.000540 0.000124 0.000820 0.022864 0.000388 -0.001585
# 5 -0.001721 0.000844 -0.003091 0.000388 0.031132 -0.002567
# 6 -0.001909 0.002865 -0.002332 -0.001585 -0.002567 0.029290
#
#
# Mechanical properties :
#
#
# Convention : Reuss Voigt Hill
#
# Bulk Modulus (GPa) = 24.45050 45.05993 34.75522
# Shear Modulus (GPa) = 33.28089 43.91792 38.59940
#
# Velocity S-wave (km/s) = 3.56242 4.09231 3.83653
# Velocity P-wave (km/s) = 5.12296 6.28584 5.73396
#
# Compressibility (1/GPa) = 0.04089896
#
# Stress axis : x y z
#
# Youngs Moduli (GPa) = 65.89742 216.26029 36.61775
#
# Poissons Ratio (x) = 0.28844 0.01615
# Poissons Ratio (y) = 0.08789 0.04870
# Poissons Ratio (z) = 0.02907 0.28759
#
# Static dielectric constant tensor:
#      x y z
#    x 2.114670 -0.022620 0.035270 
#    y -0.022620 2.063980 -0.027940 
#    z 0.035270 -0.027940 2.219600 
# 
# From -- ./inp_files/342826.got.cif
#   From: 2010.05.17/outbox.cif.g08.bks.cpg/sg2_172_cif.got.tgz:342826.got - 2010.06.03 11:33:40.
