data_PCOD9087464
_publ_section_title
;
Structure prediction by ZEFSAII (Michael W. Deem and Ramdas Pophale) SiO2 
 PCOD9087464
Probable space group: P -1
;
_chemical_formula_sum "Si O2"
_cell_formula_units_Z 12
_cell_length_a 11.711147
_cell_length_b 10.093531
_cell_length_c 8.056421
_cell_angle_alpha 136.479567
_cell_angle_beta 127.637206
_cell_angle_gamma 41.709161
_cell_volume 431.300924
_symmetry_space_group_name_H-M "P -1"
_symmetry_group_IT_number 2
_symmetry_cell_setting 'triclinic'
loop_
_space_group_symop_operation_xyz
x,y,z
-x,-y,-z
loop_
_atom_site_type_symbol
_atom_site_label
_atom_site_fract_x
_atom_site_fract_y
_atom_site_fract_z
Si Si1 0.214549 0.728019 0.376007
Si Si2 0.064920 0.726805 0.901803
Si Si3 0.465770 0.811992 0.866567
Si Si4 0.650221 0.649246 0.402568
Si Si5 0.680773 0.055652 0.767258
Si Si6 0.928565 0.468112 0.736267
O O1 0.315964 0.831994 0.636081
O O2 0.365895 0.451964 0.229603
O O3 0.080162 0.748621 0.416253
O O4 0.117840 0.798230 0.179233
O O5 0.221983 0.595116 0.792525
O O6 0.026637 0.531417 0.749027
O O7 0.114702 0.067037 0.147743
O O8 0.398489 0.863157 0.044093
O O9 0.500000 0.000000 0.000000
O O10 0.450618 0.739974 0.289349
O O11 0.732489 0.629846 0.636340
O O12 0.667657 0.842138 0.504579
O O13 0.000000 0.500000 0.000000
#
# Coordination Sequence:
#
# PCOD9087464 Si02
#       6
#     2   2   2   2   2   2
#     4  10  22  40  65  97 135 174 225 281 335 393
#     4  10  19  38  65  94 136 176 218 277 337 393
#     4  11  22  40  66  98 133 175 232 278 332 405
#     4  10  19  36  63  95 132 179 219 271 335 403
#     4  10  20  34  63  95 127 175 227 265 334 403
#     4   9  18  34  62  94 126 175 217 263 336 390
#
# _framework density 27.822801999999999
#
# number of rings (size 3 to 8) (size 9 to 14) (size 15 to 20)
#    0.000    2.000    1.667    4.000    0.000    0.667 
#    0.000    0.833   11.000    2.000    0.000    0.000 
#    0.000    0.000    0.000    0.000    0.000    0.000 
#
# Total GULP energy -67139.722422 kJ/mol
# GULP energy per Si atom -5594.976868 kJ/mol
# Density = 2.775948 g / cm^3
# Si number density = 27.822802 Si / 1000 Ang^3
#
#
#
# Elastic Constant Matrix: (Units=GPa)
#
#
# Indices 1 2 3 4 5 6 
#
# 1 114.5923 65.2550 67.8136 -6.4550 6.6081 -8.3919
# 2 65.2550 159.0034 82.1361 -40.9065 4.9794 -23.1391
# 3 67.8136 82.1361 193.1440 -26.3055 31.5363 -21.6070
# 4 -6.4550 -40.9065 -26.3055 72.9859 -8.8661 9.9577
# 5 6.6081 4.9794 31.5363 -8.8661 56.8849 5.6463
# 6 -8.3919 -23.1391 -21.6070 9.9577 5.6463 56.2006
#
#
#
# Elastic Compliance Matrix: (Units=1/GPa)
#
#
# Indices 1 2 3 4 5 6 
#
# 1 0.012852 -0.004380 -0.003093 -0.002299 0.000316 -0.000698
# 2 -0.004380 0.010780 -0.002436 0.004699 0.001463 0.001868
# 3 -0.003093 -0.002436 0.008278 0.000566 -0.004130 0.002033
# 4 -0.002299 0.004699 0.000566 0.016806 0.002301 -0.001400
# 5 0.000316 0.001463 -0.004130 0.002301 0.020400 -0.003396
# 6 -0.000698 0.001868 0.002033 -0.001400 -0.003396 0.019829
#
#
# Mechanical properties :
#
#
# Convention : Reuss Voigt Hill
#
# Bulk Modulus (GPa) = 82.69389 99.68324 91.18857
# Shear Modulus (GPa) = 44.32836 53.98327 49.15581
#
# Velocity S-wave (km/s) = 3.99587 4.40961 4.20783
# Velocity P-wave (km/s) = 7.14671 7.86332 7.51356
#
# Compressibility (1/GPa) = 0.01209279
#
# Stress axis : x y z
#
# Youngs Moduli (GPa) = 77.80860 92.76145 120.79870
#
# Poissons Ratio (x) = 0.40628 0.37358
# Poissons Ratio (y) = 0.34079 0.29432
# Poissons Ratio (z) = 0.24063 0.22601
#
# Static dielectric constant tensor:
#      x y z
#    x 2.217580 0.030030 0.026140 
#    y 0.030030 2.293460 0.103830 
#    z 0.026140 0.103830 2.127290 
# 
# From -- ./inp_files/246217.got.cif
#   From: 2010.05.17/outbox.cif.g08.bks.cpg/sg2_124_cif.got.tgz:246217.got - 2010.06.03 11:33:40.
