data_PCOD9087373
_publ_section_title
;
Structure prediction by ZEFSAII (Michael W. Deem and Ramdas Pophale) SiO2 
 PCOD9087373
Probable space group: P -1
;
_chemical_formula_sum "Si O2"
_cell_formula_units_Z 12
_cell_length_a 9.422596
_cell_length_b 11.919682
_cell_length_c 9.157715
_cell_angle_alpha 111.521071
_cell_angle_beta 43.932827
_cell_angle_gamma 129.117569
_cell_volume 546.297181
_symmetry_space_group_name_H-M "P -1"
_symmetry_group_IT_number 2
_symmetry_cell_setting 'triclinic'
loop_
_space_group_symop_operation_xyz
x,y,z
-x,-y,-z
loop_
_atom_site_type_symbol
_atom_site_label
_atom_site_fract_x
_atom_site_fract_y
_atom_site_fract_z
Si Si1 0.195334 0.435304 0.023161
Si Si2 0.342802 0.791824 0.745111
Si Si3 0.825020 0.051139 0.612473
Si Si4 0.571758 0.435034 0.546803
Si Si5 0.856859 0.212790 0.396519
Si Si6 0.848517 0.324764 0.741686
O O1 0.272842 0.601516 0.054293
O O2 0.941767 0.337966 0.066231
O O3 0.100661 0.355865 0.212597
O O4 0.403638 0.420242 0.797528
O O5 0.467028 0.712114 0.553122
O O6 0.304062 0.862313 0.664375
O O7 0.538108 0.916027 0.766600
O O8 0.894533 0.110260 0.421283
O O9 0.849789 0.189108 0.739276
O O10 0.000000 0.000000 0.500000
O O11 0.500000 0.500000 0.500000
O O12 0.861938 0.543172 0.419945
O O13 0.748940 0.270557 0.624194
#
# Coordination Sequence:
#
# PCOD9087373 Si02
#       6
#     2   2   2   2   2   2
#     4   9  20  38  61  89 115 160 199 237 301 349
#     4   9  20  38  59  87 122 157 197 238 297 351
#     4  10  19  36  63  88 122 160 194 243 297 347
#     4  11  22  37  60  88 123 154 199 250 294 349
#     4   8  19  37  60  89 121 156 194 244 292 354
#     4   9  20  36  60  87 122 152 196 242 295 347
#
# _framework density 21.966068
#
# number of rings (size 3 to 8) (size 9 to 14) (size 15 to 20)
#    2.000    0.667    0.000    2.000    0.000    3.333 
#    0.000    2.500    0.000    4.000    0.000    0.000 
#    0.000    0.000    0.000    0.000    0.000    0.000 
#
# Total GULP energy -66818.621820 kJ/mol
# GULP energy per Si atom -5568.218485 kJ/mol
# Density = 2.191607 g / cm^3
# Si number density = 21.966068 Si / 1000 Ang^3
#
#
#
# Elastic Constant Matrix: (Units=GPa)
#
#
# Indices 1 2 3 4 5 6 
#
# 1 78.2610 3.3133 5.1502 -7.3358 2.2302 -18.7732
# 2 3.3133 100.2625 21.3165 4.0832 -10.4258 -11.0293
# 3 5.1502 21.3165 63.4823 12.3405 -14.1240 -12.4032
# 4 -7.3358 4.0832 12.3405 10.7685 -5.1538 -0.5204
# 5 2.2302 -10.4258 -14.1240 -5.1538 18.9382 4.5972
# 6 -18.7732 -11.0293 -12.4032 -0.5204 4.5972 36.2134
#
#
#
# Elastic Compliance Matrix: (Units=1/GPa)
#
#
# Indices 1 2 3 4 5 6 
#
# 1 0.016216 0.000181 -0.002993 0.013725 -0.002229 0.007916
# 2 0.000181 0.011128 -0.002658 0.000897 0.003858 0.002096
# 3 -0.002993 -0.002658 0.024652 -0.024514 0.009505 0.004523
# 4 0.013725 0.000897 -0.024514 0.138859 0.018721 -0.001389
# 5 -0.002229 0.003858 0.009505 0.018721 0.068628 -0.005168
# 6 0.007916 0.002096 0.004523 -0.001389 -0.005168 0.034542
#
#
# Mechanical properties :
#
#
# Convention : Reuss Voigt Hill
#
# Bulk Modulus (GPa) = 24.35795 33.50731 28.93263
# Shear Modulus (GPa) = 15.69118 27.33241 21.51179
#
# Velocity S-wave (km/s) = 2.67561 3.53129 3.13280
# Velocity P-wave (km/s) = 4.54512 5.64924 5.12699
#
# Compressibility (1/GPa) = 0.04105437
#
# Stress axis : x y z
#
# Youngs Moduli (GPa) = 61.66705 89.86249 40.56528
#
# Poissons Ratio (x) = -0.01623 0.12143
# Poissons Ratio (y) = -0.01114 0.10782
# Poissons Ratio (z) = 0.18460 0.23885
#
# Static dielectric constant tensor:
#      x y z
#    x 1.861350 0.010220 0.033820 
#    y 0.010220 1.850050 -0.013020 
#    z 0.033820 -0.013020 1.880870 
# 
# From -- ./inp_files/83344.got.cif
#   From: 2010.05.17/outbox.cif.g08.bks.cpg/sg2_42_cif.got.tgz:83344.got - 2010.06.03 11:33:40.
