data_PCOD9087735
_publ_section_title
;
Structure prediction by ZEFSAII (Michael W. Deem and Ramdas Pophale) SiO2 
 PCOD9087735
Probable space group: P -1
;
_chemical_formula_sum "Si O2"
_cell_formula_units_Z 16
_cell_length_a 10.957082
_cell_length_b 7.599895
_cell_length_c 8.924623
_cell_angle_alpha 113.403676
_cell_angle_beta 102.229621
_cell_angle_gamma 69.179303
_cell_volume 635.331057
_symmetry_space_group_name_H-M "P -1"
_symmetry_group_IT_number 2
_symmetry_cell_setting 'triclinic'
loop_
_space_group_symop_operation_xyz
x,y,z
-x,-y,-z
loop_
_atom_site_type_symbol
_atom_site_label
_atom_site_fract_x
_atom_site_fract_y
_atom_site_fract_z
Si Si1 0.023089 0.695652 0.993449
Si Si2 0.135887 0.834714 0.448430
Si Si3 0.794757 0.998800 0.182110
Si Si4 0.376623 0.868774 0.367297
Si Si5 0.095047 0.434185 0.359383
Si Si6 0.712659 0.589429 0.089554
Si Si7 0.645517 0.693038 0.435568
Si Si8 0.553649 0.157697 0.973536
O O1 0.958333 0.699765 0.812549
O O2 0.179528 0.614362 0.998304
O O3 0.941163 0.901255 0.121167
O O4 0.000000 0.500000 0.000000
O O5 0.233200 0.853080 0.350477
O O6 0.095038 0.636950 0.346462
O O7 0.210442 0.856505 0.629182
O O8 0.000000 0.000000 0.500000
O O9 0.756434 0.793007 0.141756
O O10 0.690765 0.127685 0.080460
O O11 0.495801 0.694870 0.416175
O O12 0.414692 0.885049 0.209079
O O13 0.370559 0.073359 0.521223
O O14 0.245630 0.353341 0.423766
O O15 0.000000 0.500000 0.500000
O O16 0.700224 0.576074 0.260077
O O17 0.570650 0.639481 0.990966
O O18 0.500000 0.000000 0.000000
#
# Coordination Sequence:
#
# PCOD9087735 Si02
#       8
#     2   2   2   2   2   2   2   2
#     4  10  20  37  61  94 127 169 222 270 334 398
#     4  12  25  43  66  95 142 176 221 286 338 393
#     4  10  20  38  63  98 127 169 226 270 333 395
#     4  10  21  39  67  97 133 180 222 271 342 399
#     4  12  24  41  68  96 129 179 233 275 333 406
#     4   9  16  34  61  92 130 169 215 268 326 396
#     4  10  19  36  66  96 125 174 227 267 325 412
#     4   9  19  35  65 100 128 172 222 271 323 410
#
# _framework density 25.183721999999999
#
# number of rings (size 3 to 8) (size 9 to 14) (size 15 to 20)
#    0.000    1.750    2.500    3.000    1.750    0.500 
#    0.000    3.750    2.750    1.500    0.000    0.000 
#    0.000    0.000    0.000    0.000    0.000    0.000 
#
# Total GULP energy -89403.435592 kJ/mol
# GULP energy per Si atom -5587.714724 kJ/mol
# Density = 2.512640 g / cm^3
# Si number density = 25.183722 Si / 1000 Ang^3
#
#
#
# Elastic Constant Matrix: (Units=GPa)
#
#
# Indices 1 2 3 4 5 6 
#
# 1 144.9014 62.6504 39.8707 -5.3286 -21.0103 -28.6610
# 2 62.6504 58.6143 32.8583 -6.3472 10.1497 -22.5732
# 3 39.8707 32.8583 142.0331 -1.7696 3.1302 -21.5719
# 4 -5.3286 -6.3472 -1.7696 34.9485 -8.1831 10.2556
# 5 -21.0103 10.1497 3.1302 -8.1831 38.5653 -6.7752
# 6 -28.6610 -22.5732 -21.5719 10.2556 -6.7752 64.3687
#
#
#
# Elastic Compliance Matrix: (Units=1/GPa)
#
#
# Indices 1 2 3 4 5 6 
#
# 1 0.020404 -0.023701 -0.000281 0.002422 0.018280 0.002218
# 2 -0.023701 0.050085 -0.003893 -0.001661 -0.025554 0.003281
# 3 -0.000281 -0.003893 0.008218 -0.000673 0.000308 0.001404
# 4 0.002422 -0.001661 -0.000673 0.031639 0.007831 -0.003946
# 5 0.018280 -0.025554 0.000308 0.007831 0.044733 0.002742
# 6 0.002218 0.003281 0.001404 -0.003946 0.002742 0.019062
#
#
# Mechanical properties :
#
#
# Convention : Reuss Voigt Hill
#
# Bulk Modulus (GPa) = 43.55730 68.47862 56.01796
# Shear Modulus (GPa) = 21.04895 41.58779 31.31837
#
# Velocity S-wave (km/s) = 2.89418 4.06812 3.53029
# Velocity P-wave (km/s) = 5.33870 7.02259 6.23773
#
# Compressibility (1/GPa) = 0.02295826
#
# Stress axis : x y z
#
# Youngs Moduli (GPa) = 49.00922 19.96619 121.68515
#
# Poissons Ratio (x) = 0.47322 0.03414
# Poissons Ratio (y) = 1.16157 0.47368
# Poissons Ratio (z) = 0.01375 0.07772
#
# Static dielectric constant tensor:
#      x y z
#    x 1.994980 0.022410 0.039280 
#    y 0.022410 2.013690 -0.073650 
#    z 0.039280 -0.073650 1.970310 
# 
# From -- ./inp_files/245085.got.cif
#   From: 2010.05.17/outbox.cif.g08.bks.cpg/sg2_123_cif.got.tgz:245085.got - 2010.06.03 11:33:40.
