data_PCOD9087368
_publ_section_title
;
Structure prediction by ZEFSAII (Michael W. Deem and Ramdas Pophale) SiO2 
 PCOD9087368
Probable space group: P -1
;
_chemical_formula_sum "Si O2"
_cell_formula_units_Z 16
_cell_length_a 7.707173
_cell_length_b 15.287944
_cell_length_c 23.467322
_cell_angle_alpha 20.394670
_cell_angle_beta 131.738236
_cell_angle_gamma 133.071447
_cell_volume 700.328167
_symmetry_space_group_name_H-M "P -1"
_symmetry_group_IT_number 2
_symmetry_cell_setting 'triclinic'
loop_
_space_group_symop_operation_xyz
x,y,z
-x,-y,-z
loop_
_atom_site_type_symbol
_atom_site_label
_atom_site_fract_x
_atom_site_fract_y
_atom_site_fract_z
Si Si1 0.957763 0.858612 0.314656
Si Si2 0.542070 0.024121 0.062009
Si Si3 0.329362 0.721367 0.390270
Si Si4 0.637766 0.508109 0.285835
Si Si5 0.285800 0.291799 0.436716
Si Si6 0.221450 0.861204 0.592068
Si Si7 0.855755 0.165462 0.830107
Si Si8 0.273010 0.055411 0.366524
O O1 0.798915 0.999745 0.154145
O O2 0.787407 0.580952 0.462774
O O3 0.176240 0.800928 0.360306
O O4 0.073628 0.023951 0.293806
O O5 0.345754 0.808545 0.183991
O O6 0.500000 0.000000 0.000000
O O7 0.489465 0.305610 0.892380
O O8 0.600342 0.745711 0.455015
O O9 0.302897 0.898627 0.222427
O O10 0.496000 0.474425 0.335027
O O11 0.649077 0.220180 0.448270
O O12 0.916776 0.638904 0.266920
O O13 0.024204 0.353020 0.338003
O O14 0.240401 0.021426 0.556594
O O15 0.193134 0.055869 0.414206
O O16 0.467982 0.763871 0.701309
O O17 0.000000 0.000000 0.000000
#
# Coordination Sequence:
#
# PCOD9087368 Si02
#       8
#     2   2   2   2   2   2   2   2
#     4  11  21  35  60  89 121 148 189 239 292 342
#     4  11  24  36  53  84 125 158 186 230 288 365
#     4  11  19  35  58  87 120 149 187 239 293 346
#     4  10  19  39  55  83 117 158 188 225 299 336
#     4  10  19  36  63  88 115 153 194 247 281 336
#     4   9  20  35  57  92 111 149 204 241 283 327
#     4  10  21  36  54  82 122 155 184 222 296 357
#     4  10  19  37  61  85 118 151 196 245 278 343
#
# _framework density 22.846432
#
# number of rings (size 3 to 8) (size 9 to 14) (size 15 to 20)
#    0.000    1.750    3.750    3.000    1.750    2.500 
#    0.000    0.000    0.000    7.500    0.000    0.000 
#    0.000    0.000    0.000    0.000    0.000    0.000 
#
# Total GULP energy -89112.015913 kJ/mol
# GULP energy per Si atom -5569.500995 kJ/mol
# Density = 2.279443 g / cm^3
# Si number density = 22.846432 Si / 1000 Ang^3
#
#
#
# Elastic Constant Matrix: (Units=GPa)
#
#
# Indices 1 2 3 4 5 6 
#
# 1 93.4042 42.2486 8.9432 8.5549 -15.1890 20.2360
# 2 42.2486 121.0086 45.7215 49.1189 -12.6853 17.0954
# 3 8.9432 45.7215 95.5144 35.6650 12.7858 3.5836
# 4 8.5549 49.1189 35.6650 41.8671 0.3321 -1.7064
# 5 -15.1890 -12.6853 12.7858 0.3321 39.6236 3.5986
# 6 20.2360 17.0954 3.5836 -1.7064 3.5986 33.6455
#
#
#
# Elastic Compliance Matrix: (Units=1/GPa)
#
#
# Indices 1 2 3 4 5 6 
#
# 1 0.014900 -0.004327 -0.000555 0.002172 0.005136 -0.007143
# 2 -0.004327 0.022918 -0.001846 -0.024935 0.007474 -0.010910
# 3 -0.000555 -0.001846 0.016673 -0.011895 -0.006042 -0.000461
# 4 0.002172 -0.024935 -0.011895 0.063540 -0.005336 0.016423
# 5 0.005136 0.007474 -0.006042 -0.005336 0.032501 -0.009990
# 6 -0.007143 -0.010910 -0.000461 0.016423 -0.009990 0.041512
#
#
# Mechanical properties :
#
#
# Convention : Reuss Voigt Hill
#
# Bulk Modulus (GPa) = 24.36837 55.97265 40.17051
# Shear Modulus (GPa) = 22.81257 37.22819 30.02038
#
# Velocity S-wave (km/s) = 3.16336 4.04108 3.62886
# Velocity P-wave (km/s) = 4.90222 6.80636 5.93120
#
# Compressibility (1/GPa) = 0.04103680
#
# Stress axis : x y z
#
# Youngs Moduli (GPa) = 67.11322 43.63314 59.97808
#
# Poissons Ratio (x) = 0.18879 0.03326
# Poissons Ratio (y) = 0.29039 0.11071
# Poissons Ratio (z) = 0.03722 0.08054
#
# Static dielectric constant tensor:
#      x y z
#    x 2.050050 0.016790 -0.012710 
#    y 0.016790 1.994550 -0.052030 
#    z -0.012710 -0.052030 1.880560 
# 
# From -- ./inp_files/557156.got.cif
#   From: 2010.05.17/outbox.cif.g08.bks.cpg/sg2_279_cif.got.tgz:557156.got - 2010.06.03 11:33:40.
