data_PCOD9087987
_publ_section_title
;
Structure prediction by ZEFSAII (Michael W. Deem and Ramdas Pophale) SiO2 
 PCOD9087987
Probable space group: P -1
;
_chemical_formula_sum "Si O2"
_cell_formula_units_Z 16
_cell_length_a 20.333058
_cell_length_b 11.118709
_cell_length_c 7.082631
_cell_angle_alpha 132.356427
_cell_angle_beta 57.404470
_cell_angle_gamma 137.182275
_cell_volume 801.055611
_symmetry_space_group_name_H-M "P -1"
_symmetry_group_IT_number 2
_symmetry_cell_setting 'triclinic'
loop_
_space_group_symop_operation_xyz
x,y,z
-x,-y,-z
loop_
_atom_site_type_symbol
_atom_site_label
_atom_site_fract_x
_atom_site_fract_y
_atom_site_fract_z
Si Si1 0.390403 0.416958 0.130724
Si Si2 0.884429 0.509148 0.548158
Si Si3 0.269791 0.544012 0.006533
Si Si4 0.704302 0.794549 0.317204
Si Si5 0.106267 0.765465 0.456434
Si Si6 0.614138 0.841799 0.833110
Si Si7 0.786318 0.308127 0.092733
Si Si8 0.438131 0.793535 0.261305
O O1 0.368999 0.309715 0.249397
O O2 0.389946 0.607961 0.289500
O O3 0.500000 0.500000 0.000000
O O4 0.320239 0.244795 0.906044
O O5 0.884123 0.338601 0.484661
O O6 0.829721 0.421296 0.341848
O O7 0.996806 0.692944 0.538439
O O8 0.826829 0.559991 0.827197
O O9 0.302936 0.399240 0.804626
O O10 0.250986 0.595321 0.885513
O O11 0.352064 0.747690 0.209816
O O12 0.628079 0.817106 0.566108
O O13 0.810593 0.996229 0.406723
O O14 0.132898 0.687914 0.151737
O O15 0.512872 0.789196 0.004946
O O16 0.697254 0.072520 0.007826
O O17 0.500000 0.000000 0.500000
#
# Coordination Sequence:
#
# PCOD9087987 Si02
#       8
#     2   2   2   2   2   2   2   2
#     4   9  20  36  56  79 106 142 181 220 262 316
#     4  10  19  37  58  80 109 142 178 227 275 311
#     4  10  23  36  53  82 113 143 179 224 270 324
#     4  10  21  38  54  81 112 139 184 222 263 326
#     4   9  20  36  60  82 104 142 184 223 268 324
#     4  10  21  36  58  78 106 149 178 221 270 307
#     4  10  20  36  57  83 110 140 182 222 268 328
#     4  10  21  37  56  81 110 144 184 222 268 324
#
# _framework density 19.973644
#
# number of rings (size 3 to 8) (size 9 to 14) (size 15 to 20)
#    0.000    2.250    0.000    1.875    0.000   13.500 
#    0.000    1.875    0.000    0.000    0.000    0.000 
#    0.000    0.000    0.000    0.000    0.000    0.000 
#
# Total GULP energy -89315.741215 kJ/mol
# GULP energy per Si atom -5582.233826 kJ/mol
# Density = 1.992818 g / cm^3
# Si number density = 19.973644 Si / 1000 Ang^3
#
#
#
# Elastic Constant Matrix: (Units=GPa)
#
#
# Indices 1 2 3 4 5 6 
#
# 1 55.3877 4.8582 15.1266 -9.6229 4.8443 8.6276
# 2 4.8582 65.1968 17.6171 -8.0883 -2.1597 6.1162
# 3 15.1266 17.6171 56.6579 1.6057 5.3973 3.0453
# 4 -9.6229 -8.0883 1.6057 26.7153 0.0643 -3.2452
# 5 4.8443 -2.1597 5.3973 0.0643 24.4423 -8.7687
# 6 8.6276 6.1162 3.0453 -3.2452 -8.7687 24.2450
#
#
#
# Elastic Compliance Matrix: (Units=1/GPa)
#
#
# Indices 1 2 3 4 5 6 
#
# 1 0.022818 0.001450 -0.005672 0.007918 -0.006402 -0.009029
# 2 0.001450 0.017953 -0.006135 0.005971 0.001599 -0.002897
# 3 -0.005672 -0.006135 0.021769 -0.005395 -0.004793 -0.001624
# 4 0.007918 0.005971 -0.005395 0.042704 0.000896 0.002394
# 5 -0.006402 0.001599 -0.004793 0.000896 0.050917 0.021012
# 6 -0.009029 -0.002897 -0.001624 0.002394 0.021012 0.053313
#
#
# Mechanical properties :
#
#
# Convention : Reuss Voigt Hill
#
# Bulk Modulus (GPa) = 23.90928 28.04960 25.97944
# Shear Modulus (GPa) = 20.48077 24.38990 22.43534
#
# Velocity S-wave (km/s) = 3.20564 3.49822 3.35512
# Velocity P-wave (km/s) = 5.06931 5.51276 5.29568
#
# Compressibility (1/GPa) = 0.04182476
#
# Stress axis : x y z
#
# Youngs Moduli (GPa) = 43.82442 55.69967 45.93780
#
# Poissons Ratio (x) = -0.08074 0.26056
# Poissons Ratio (y) = -0.06352 0.28184
# Poissons Ratio (z) = 0.24857 0.34173
#
# Static dielectric constant tensor:
#      x y z
#    x 1.713080 -0.008960 -0.016050 
#    y -0.008960 1.698760 -0.013640 
#    z -0.016050 -0.013640 1.708490 
# 
# From -- ./inp_files/39340.got.cif
#   From: 2010.05.17/outbox.cif.g08.bks.cpg/sg2_20_cif.got.tgz:39340.got - 2010.06.03 11:33:40.
