data_PCOD9087805
_publ_section_title
;
Structure prediction by ZEFSAII (Michael W. Deem and Ramdas Pophale) SiO2 
 PCOD9087805
Probable space group: P -1
;
_chemical_formula_sum "Si O2"
_cell_formula_units_Z 16
_cell_length_a 21.530924
_cell_length_b 12.406918
_cell_length_c 7.252471
_cell_angle_alpha 48.338733
_cell_angle_beta 134.985809
_cell_angle_gamma 152.485583
_cell_volume 628.785211
_symmetry_space_group_name_H-M "P -1"
_symmetry_group_IT_number 2
_symmetry_cell_setting 'triclinic'
loop_
_space_group_symop_operation_xyz
x,y,z
-x,-y,-z
loop_
_atom_site_type_symbol
_atom_site_label
_atom_site_fract_x
_atom_site_fract_y
_atom_site_fract_z
Si Si1 0.405348 0.694823 0.086320
Si Si2 0.898898 0.645557 0.627290
Si Si3 0.877029 0.153157 0.623055
Si Si4 0.537139 0.883604 0.775153
Si Si5 0.673900 0.526000 0.466389
Si Si6 0.811352 0.370359 0.394183
Si Si7 0.788848 0.003309 0.180789
Si Si8 0.865074 0.829594 0.046227
O O1 0.473738 0.144821 0.995194
O O2 0.430674 0.659138 0.377991
O O3 0.270777 0.424651 0.037711
O O4 0.333635 0.759012 0.852749
O O5 0.802981 0.574636 0.676331
O O6 0.824274 0.441792 0.552725
O O7 0.056486 0.791643 0.826282
O O8 0.912588 0.810776 0.350845
O O9 0.826273 0.223788 0.548591
O O10 0.821569 0.075234 0.384496
O O11 0.048659 0.382097 0.695039
O O12 0.828114 0.947026 0.857964
O O13 0.500000 0.000000 0.500000
O O14 0.410707 0.619421 0.731081
O O15 0.681525 0.988096 0.905085
O O16 0.724261 0.756551 0.318287
O O17 0.000000 0.000000 0.000000
#
# Coordination Sequence:
#
# PCOD9087805 Si02
#       8
#     2   2   2   2   2   2   2   2
#     4  11  23  46  77 101 142 198 247 294 374 436
#     4  10  21  43  75 113 152 187 242 311 377 436
#     4  10  19  36  69 110 148 187 244 300 368 437
#     4  12  30  54  70 102 156 202 250 307 365 446
#     4  12  24  48  80 106 147 194 248 313 370 439
#     4   9  19  38  66 105 150 189 232 297 363 436
#     4  11  24  45  73 115 148 193 253 300 373 441
#     4  11  16  38  71 108 145 182 237 307 362 432
#
# _framework density 25.445889000000001
#
# number of rings (size 3 to 8) (size 9 to 14) (size 15 to 20)
#    0.000    1.250    7.500    0.750    1.750    1.000 
#    2.250    1.875    5.500    0.000    0.000    0.000 
#    0.000    0.000    0.000    0.000    0.000    0.000 
#
# Total GULP energy -89614.132902 kJ/mol
# GULP energy per Si atom -5600.883306 kJ/mol
# Density = 2.538797 g / cm^3
# Si number density = 25.445889 Si / 1000 Ang^3
#
#
#
# Elastic Constant Matrix: (Units=GPa)
#
#
# Indices 1 2 3 4 5 6 
#
# 1 109.9424 34.7533 44.0550 -12.3134 7.2536 -2.7230
# 2 34.7533 73.6615 28.1403 -10.7977 9.9496 -20.6690
# 3 44.0550 28.1403 78.0253 -0.1522 24.2033 -8.1751
# 4 -12.3134 -10.7977 -0.1522 39.6533 -1.8947 5.7512
# 5 7.2536 9.9496 24.2033 -1.8947 52.9748 0.9338
# 6 -2.7230 -20.6690 -8.1751 5.7512 0.9338 43.1718
#
#
#
# Elastic Compliance Matrix: (Units=1/GPa)
#
#
# Indices 1 2 3 4 5 6 
#
# 1 0.013469 -0.004307 -0.007110 0.003544 0.002394 -0.003083
# 2 -0.004307 0.019829 -0.003335 0.002772 -0.001657 0.008257
# 3 -0.007110 -0.003335 0.020805 -0.003796 -0.008087 0.002575
# 4 0.003544 0.002772 -0.003796 0.027561 0.001765 -0.002878
# 5 0.002394 -0.001657 -0.008087 0.001765 0.022669 -0.002899
# 6 -0.003083 0.008257 0.002575 -0.002878 -0.002899 0.027855
#
#
# Mechanical properties :
#
#
# Convention : Reuss Voigt Hill
#
# Bulk Modulus (GPa) = 40.65465 52.83626 46.74546
# Shear Modulus (GPa) = 29.43047 37.47200 33.45124
#
# Velocity S-wave (km/s) = 3.40456 3.84163 3.62968
# Velocity P-wave (km/s) = 5.60948 6.36292 5.99804
#
# Compressibility (1/GPa) = 0.02459743
#
# Stress axis : x y z
#
# Youngs Moduli (GPa) = 74.24462 50.43182 48.06644
#
# Poissons Ratio (x) = 0.21723 0.34177
# Poissons Ratio (y) = 0.31980 0.16029
# Poissons Ratio (z) = 0.52790 0.16818
#
# Static dielectric constant tensor:
#      x y z
#    x 2.074080 0.036390 0.007480 
#    y 0.036390 2.040930 -0.004700 
#    z 0.007480 -0.004700 1.974530 
# 
# From -- ./inp_files/353407.got.cif
#   From: 2010.05.17/outbox.cif.g08.bks.cpg/sg2_177_cif.got.tgz:353407.got - 2010.06.03 11:33:40.
