data_PCOD9087457
_publ_section_title
;
Structure prediction by ZEFSAII (Michael W. Deem and Ramdas Pophale) SiO2 
 PCOD9087457
Probable space group: P -1
;
_chemical_formula_sum "Si O2"
_cell_formula_units_Z 16
_cell_length_a 11.487611
_cell_length_b 21.803490
_cell_length_c 14.738718
_cell_angle_alpha 149.123150
_cell_angle_beta 28.257996
_cell_angle_gamma 129.622949
_cell_volume 783.536928
_symmetry_space_group_name_H-M "P -1"
_symmetry_group_IT_number 2
_symmetry_cell_setting 'triclinic'
loop_
_space_group_symop_operation_xyz
x,y,z
-x,-y,-z
loop_
_atom_site_type_symbol
_atom_site_label
_atom_site_fract_x
_atom_site_fract_y
_atom_site_fract_z
Si Si1 0.668891 0.195198 0.727555
Si Si2 0.246112 0.155614 0.869942
Si Si3 0.354607 0.529359 0.841699
Si Si4 0.424401 0.083504 0.285246
Si Si5 0.066823 0.702320 0.901993
Si Si6 0.923186 0.013117 0.964752
Si Si7 0.002799 0.399875 0.994321
Si Si8 0.114425 0.965135 0.247733
O O1 0.355617 0.224106 0.954989
O O2 0.864567 0.120327 0.409567
O O3 0.665186 0.333625 0.932009
O O4 0.818529 0.086344 0.567972
O O5 0.500000 0.000000 0.500000
O O6 0.976280 0.136216 0.049583
O O7 0.191982 0.226402 0.899408
O O8 0.661269 0.399277 0.471129
O O9 0.138486 0.494557 0.997959
O O10 0.265402 0.550205 0.823334
O O11 0.216491 0.243810 0.620768
O O12 0.245901 0.005257 0.293367
O O13 0.665663 0.045956 0.996301
O O14 0.605022 0.047503 0.207330
O O15 0.108343 0.823484 0.072837
O O16 0.039923 0.613139 0.887176
O O17 0.000000 0.000000 0.000000
#
# Coordination Sequence:
#
# PCOD9087457 Si02
#       8
#     2   2   2   2   2   2   2   2
#     4  10  21  41  64  91 129 169 206 268 323 371
#     4  10  20  40  63  88 127 166 207 271 317 372
#     4  11  24  46  60  93 137 168 211 262 323 386
#     4  10  19  36  63  95 121 163 207 266 321 363
#     4  12  23  42  66  96 129 170 219 257 325 388
#     4  10  21  37  63  97 124 164 211 264 323 377
#     4  11  24  39  70  90 130 177 206 262 329 385
#     4  10  19  38  65  95 126 157 214 271 317 374
#
# _framework density 20.420224999999999
#
# number of rings (size 3 to 8) (size 9 to 14) (size 15 to 20)
#    0.000    1.500    6.250    0.375    3.500    1.000 
#    4.500    0.625    0.000    0.000    0.000    0.000 
#    0.000    0.000    0.000    0.000    0.000    0.000 
#
# Total GULP energy -89326.688305 kJ/mol
# GULP energy per Si atom -5582.918019 kJ/mol
# Density = 2.037375 g / cm^3
# Si number density = 20.420225 Si / 1000 Ang^3
#
#
#
# Elastic Constant Matrix: (Units=GPa)
#
#
# Indices 1 2 3 4 5 6 
#
# 1 127.7251 42.1014 25.9251 -0.0583 -17.2433 -1.7234
# 2 42.1014 80.6240 14.6668 11.9700 5.2822 5.2920
# 3 25.9251 14.6668 64.8565 16.6245 -6.2346 7.3809
# 4 -0.0583 11.9700 16.6245 23.1408 4.8983 0.8896
# 5 -17.2433 5.2822 -6.2346 4.8983 29.2260 3.9725
# 6 -1.7234 5.2920 7.3809 0.8896 3.9725 35.7946
#
#
#
# Elastic Compliance Matrix: (Units=1/GPa)
#
#
# Indices 1 2 3 4 5 6 
#
# 1 0.011688 -0.006616 -0.004036 0.004983 0.006183 0.001563
# 2 -0.006616 0.017473 0.000558 -0.008258 -0.005256 -0.002229
# 3 -0.004036 0.000558 0.022576 -0.017585 0.005982 -0.005159
# 4 0.004983 -0.008258 -0.017585 0.062147 -0.010373 0.004694
# 5 0.006183 -0.005256 0.005982 -0.010373 0.042455 -0.004613
# 6 0.001563 -0.002229 -0.005159 0.004694 -0.004613 0.029801
#
#
# Mechanical properties :
#
#
# Convention : Reuss Voigt Hill
#
# Bulk Modulus (GPa) = 31.69781 48.73247 40.21514
# Shear Modulus (GPa) = 23.05803 30.33309 26.69556
#
# Velocity S-wave (km/s) = 3.36397 3.85833 3.61960
# Velocity P-wave (km/s) = 5.53578 6.61555 6.09960
#
# Compressibility (1/GPa) = 0.03154792
#
# Stress axis : x y z
#
# Youngs Moduli (GPa) = 85.56074 57.23000 44.29554
#
# Poissons Ratio (x) = 0.37865 0.17880
# Poissons Ratio (y) = 0.56610 -0.02474
# Poissons Ratio (z) = 0.34536 -0.03196
#
# Static dielectric constant tensor:
#      x y z
#    x 1.786770 -0.003710 0.003390 
#    y -0.003710 1.754430 -0.052740 
#    z 0.003390 -0.052740 1.727620 
# 
# From -- ./inp_files/523933.got.cif
#   From: 2010.05.17/outbox.cif.g08.bks.cpg/sg2_262_cif.got.tgz:523933.got - 2010.06.03 11:33:40.
