data_PCOD9087515
_publ_section_title
;
Structure prediction by ZEFSAII (Michael W. Deem and Ramdas Pophale) SiO2 
 PCOD9087515
Probable space group: P -1
;
_chemical_formula_sum "Si O2"
_cell_formula_units_Z 12
_cell_length_a 11.449780
_cell_length_b 10.037956
_cell_length_c 12.517696
_cell_angle_alpha 145.716220
_cell_angle_beta 40.777867
_cell_angle_gamma 139.082256
_cell_volume 495.167904
_symmetry_space_group_name_H-M "P -1"
_symmetry_group_IT_number 2
_symmetry_cell_setting 'triclinic'
loop_
_space_group_symop_operation_xyz
x,y,z
-x,-y,-z
loop_
_atom_site_type_symbol
_atom_site_label
_atom_site_fract_x
_atom_site_fract_y
_atom_site_fract_z
Si Si1 0.620352 0.764475 0.147147
Si Si2 0.987455 0.827570 0.499629
Si Si3 0.602025 0.882205 0.490531
Si Si4 0.022330 0.311852 0.068963
Si Si5 0.701111 0.959281 0.937141
Si Si6 0.339501 0.582456 0.859245
O O1 0.585684 0.801473 0.323071
O O2 0.547283 0.980478 0.293331
O O3 0.500000 0.500000 0.000000
O O4 0.831802 0.753794 0.998334
O O5 0.958888 0.538968 0.302753
O O6 0.186532 0.935192 0.499715
O O7 0.000000 0.000000 0.500000
O O8 0.813606 0.849192 0.702180
O O9 0.581276 0.616505 0.383265
O O10 0.143075 0.424912 0.951058
O O11 0.848514 0.058428 0.995849
O O12 0.491395 0.751508 0.952910
O O13 0.683322 0.213814 0.070530
#
# Coordination Sequence:
#
# PCOD9087515 Si02
#       6
#     2   2   2   2   2   2
#     4  10  19  36  64  88 113 163 205 244 298 354
#     4  12  21  35  64  92 119 158 200 244 303 361
#     4  10  21  37  60  89 120 156 204 248 296 355
#     4  11  21  39  62  85 121 160 202 247 301 355
#     4  11  22  40  58  90 125 160 199 248 301 358
#     4  10  21  40  61  84 126 163 193 253 302 353
#
# _framework density 24.234203000000001
#
# number of rings (size 3 to 8) (size 9 to 14) (size 15 to 20)
#    0.000    1.333    6.667    1.500    0.000    0.000 
#    3.000    3.333    0.000    5.000    0.000    0.000 
#    0.000    0.000    0.000    0.000    0.000    0.000 
#
# Total GULP energy -67090.263470 kJ/mol
# GULP energy per Si atom -5590.855289 kJ/mol
# Density = 2.417905 g / cm^3
# Si number density = 24.234203 Si / 1000 Ang^3
#
#
#
# Elastic Constant Matrix: (Units=GPa)
#
#
# Indices 1 2 3 4 5 6 
#
# 1 103.9603 13.7704 29.8459 1.8884 -5.8924 18.7685
# 2 13.7704 43.2329 3.6202 -3.3689 5.2313 11.9086
# 3 29.8459 3.6202 173.3072 25.9642 -30.2668 -11.1854
# 4 1.8884 -3.3689 25.9642 30.6128 -3.3362 2.0063
# 5 -5.8924 5.2313 -30.2668 -3.3362 54.2558 15.1084
# 6 18.7685 11.9086 -11.1854 2.0063 15.1084 45.2897
#
#
#
# Elastic Compliance Matrix: (Units=1/GPa)
#
#
# Indices 1 2 3 4 5 6 
#
# 1 0.011599 -0.002108 -0.002207 0.001485 0.001849 -0.005480
# 2 -0.002108 0.026145 -0.001539 0.004528 -0.001650 -0.006031
# 3 -0.002207 -0.001539 0.007882 -0.006531 0.003213 0.002483
# 4 0.001485 0.004528 -0.006531 0.038936 -0.000102 -0.005110
# 5 0.001849 -0.001650 0.003213 -0.000102 0.022541 -0.007054
# 6 -0.005480 -0.006031 0.002483 -0.005110 -0.007054 0.029130
#
#
# Mechanical properties :
#
#
# Convention : Reuss Voigt Hill
#
# Bulk Modulus (GPa) = 29.48275 46.10816 37.79545
# Shear Modulus (GPa) = 31.39790 44.24927 37.82359
#
# Velocity S-wave (km/s) = 3.60335 4.27769 3.95492
# Velocity P-wave (km/s) = 5.43179 6.59284 6.04028
#
# Compressibility (1/GPa) = 0.03391814
#
# Stress axis : x y z
#
# Youngs Moduli (GPa) = 86.21431 38.24870 126.87052
#
# Poissons Ratio (x) = 0.08064 0.27996
# Poissons Ratio (y) = 0.18176 0.19524
# Poissons Ratio (z) = 0.19024 0.05886
#
# Static dielectric constant tensor:
#      x y z
#    x 2.037820 -0.015500 0.051240 
#    y -0.015500 1.922690 -0.007010 
#    z 0.051240 -0.007010 1.938480 
# 
# From -- ./inp_files/251405.got.cif
#   From: 2010.05.17/outbox.cif.g08.bks.cpg/sg2_126_cif.got.tgz:251405.got - 2010.06.03 11:33:40.
