data_PCOD9087511
_publ_section_title
;
Structure prediction by ZEFSAII (Michael W. Deem and Ramdas Pophale) SiO2 
 PCOD9087511
Probable space group: P -1
;
_chemical_formula_sum "Si O2"
_cell_formula_units_Z 12
_cell_length_a 7.594164
_cell_length_b 11.261406
_cell_length_c 8.650876
_cell_angle_alpha 62.633169
_cell_angle_beta 92.888993
_cell_angle_gamma 132.198501
_cell_volume 447.638302
_symmetry_space_group_name_H-M "P -1"
_symmetry_group_IT_number 2
_symmetry_cell_setting 'triclinic'
loop_
_space_group_symop_operation_xyz
x,y,z
-x,-y,-z
loop_
_atom_site_type_symbol
_atom_site_label
_atom_site_fract_x
_atom_site_fract_y
_atom_site_fract_z
Si Si1 0.172183 0.231412 0.864072
Si Si2 0.739167 0.400963 0.968300
Si Si3 0.190659 0.184186 0.564959
Si Si4 0.782459 0.735819 0.805152
Si Si5 0.632221 0.011932 0.648336
Si Si6 0.842122 0.311531 0.716776
O O1 0.305339 0.306370 0.992809
O O2 0.317619 0.290106 0.671227
O O3 0.013884 0.282559 0.808672
O O4 0.000000 0.000000 0.000000
O O5 0.797035 0.589034 0.861408
O O6 0.727103 0.333229 0.837558
O O7 0.515007 0.202059 0.174226
O O8 0.000000 0.500000 0.000000
O O9 0.341794 0.280559 0.353239
O O10 0.057306 0.964738 0.689218
O O11 0.934933 0.138780 0.570308
O O12 0.500000 0.000000 0.500000
O O13 0.627102 0.119564 0.718409
O O14 0.000000 0.500000 0.500000
#
# Coordination Sequence:
#
# PCOD9087511 Si02
#       6
#     2   2   2   2   2   2
#     4   9  18  34  60  88 117 157 201 247 301 366
#     4  12  22  37  61  89 118 163 203 248 313 362
#     4   9  20  38  59  90 120 159 204 255 303 362
#     4  10  19  36  64  87 121 160 203 248 311 371
#     4  11  24  39  58  88 125 159 206 257 300 363
#     4  11  22  39  63  90 123 157 206 256 311 371
#
# _framework density 26.807354
#
# number of rings (size 3 to 8) (size 9 to 14) (size 15 to 20)
#    0.000    1.667    1.667    4.500    0.000    0.667 
#    0.000    0.000    0.000    1.000    0.000    0.000 
#    0.000    0.000    0.000    0.000    0.000    0.000 
#
# Total GULP energy -67139.532353 kJ/mol
# GULP energy per Si atom -5594.961029 kJ/mol
# Density = 2.674634 g / cm^3
# Si number density = 26.807354 Si / 1000 Ang^3
#
#
#
# Elastic Constant Matrix: (Units=GPa)
#
#
# Indices 1 2 3 4 5 6 
#
# 1 74.2913 66.1315 51.8650 13.7519 30.4385 -19.1368
# 2 66.1315 131.3111 85.0355 53.6801 2.6438 -51.2015
# 3 51.8650 85.0355 228.4542 27.5662 16.5989 -23.4400
# 4 13.7519 53.6801 27.5662 75.0183 -18.2279 -6.8371
# 5 30.4385 2.6438 16.5989 -18.2279 53.9737 7.8499
# 6 -19.1368 -51.2015 -23.4400 -6.8371 7.8499 64.1890
#
#
#
# Elastic Compliance Matrix: (Units=1/GPa)
#
#
# Indices 1 2 3 4 5 6 
#
# 1 0.040225 -0.022592 -0.000059 0.003698 -0.019842 -0.003229
# 2 -0.022592 0.035989 -0.004621 -0.017319 0.003938 0.017958
# 3 -0.000059 -0.004621 0.005972 0.000726 -0.001142 -0.001306
# 4 0.003698 -0.017319 0.000726 0.025952 0.008870 -0.010768
# 5 -0.019842 0.003938 -0.001142 0.008870 0.033799 -0.006380
# 6 -0.003229 0.017958 -0.001306 -0.010768 -0.006380 0.028097
#
#
# Mechanical properties :
#
#
# Convention : Reuss Voigt Hill
#
# Bulk Modulus (GPa) = 36.17543 93.34672 64.76107
# Shear Modulus (GPa) = 21.38662 54.03784 37.71223
#
# Velocity S-wave (km/s) = 2.82758 4.49462 3.75478
# Velocity P-wave (km/s) = 4.91774 7.86336 6.55807
#
# Compressibility (1/GPa) = 0.02764307
#
# Stress axis : x y z
#
# Youngs Moduli (GPa) = 24.86004 27.78657 167.45106
#
# Poissons Ratio (x) = 0.62775 0.00987
# Poissons Ratio (y) = 0.56163 0.77372
# Poissons Ratio (z) = 0.00147 0.12839
#
# Static dielectric constant tensor:
#      x y z
#    x 2.216770 0.006750 0.032720 
#    y 0.006750 1.894850 -0.152450 
#    z 0.032720 -0.152450 1.762140 
# 
# From -- ./inp_files/185182.got.cif
#   From: 2010.05.17/outbox.cif.g08.bks.cpg/sg2_93_cif.got.tgz:185182.got - 2010.06.03 11:33:40.
