data_PCOD9087893
_publ_section_title
;
Structure prediction by ZEFSAII (Michael W. Deem and Ramdas Pophale) SiO2 
 PCOD9087893
Probable space group: P -1
;
_chemical_formula_sum "Si O2"
_cell_formula_units_Z 12
_cell_length_a 18.044072
_cell_length_b 5.406314
_cell_length_c 12.675580
_cell_angle_alpha 69.783569
_cell_angle_beta 153.398329
_cell_angle_gamma 120.343620
_cell_volume 459.471153
_symmetry_space_group_name_H-M "P -1"
_symmetry_group_IT_number 2
_symmetry_cell_setting 'triclinic'
loop_
_space_group_symop_operation_xyz
x,y,z
-x,-y,-z
loop_
_atom_site_type_symbol
_atom_site_label
_atom_site_fract_x
_atom_site_fract_y
_atom_site_fract_z
Si Si1 0.309060 0.068141 0.504338
Si Si2 0.276460 0.842536 0.726558
Si Si3 0.488441 0.667790 0.758691
Si Si4 0.729830 0.669714 0.778787
Si Si5 0.805812 0.694835 0.394001
Si Si6 0.160900 0.855752 0.961735
O O1 0.227524 0.906355 0.535545
O O2 0.465341 0.392358 0.697444
O O3 0.199291 0.163581 0.267955
O O4 0.374616 0.853009 0.558815
O O5 0.191313 0.996430 0.670180
O O6 0.194197 0.492409 0.678648
O O7 0.500000 0.000000 0.000000
O O8 0.393351 0.512694 0.769978
O O9 0.694735 0.928955 0.973355
O O10 0.500000 0.500000 0.500000
O O11 0.796496 0.419602 0.919010
O O12 0.796848 0.923178 0.917061
O O13 0.958501 0.737840 0.670065
#
# Coordination Sequence:
#
# PCOD9087893 Si02
#       6
#     2   2   2   2   2   2
#     4  10  20  35  59  85 115 154 209 231 287 365
#     4  10  21  42  66  84 118 158 197 256 306 345
#     4  10  19  37  56  81 122 157 193 237 294 341
#     4  12  21  35  60  89 121 169 196 231 298 360
#     4  10  23  39  62  95 116 153 209 242 297 363
#     4  12  22  37  62  86 129 162 191 246 292 352
#
# _framework density 26.116983999999999
#
# number of rings (size 3 to 8) (size 9 to 14) (size 15 to 20)
#    0.000    1.333    3.333    3.000    0.000    0.000 
#    0.000   20.000    0.000   24.000    0.000    0.000 
#    0.000    0.000    0.000    0.000    0.000    0.000 
#
# Total GULP energy -67107.362168 kJ/mol
# GULP energy per Si atom -5592.280181 kJ/mol
# Density = 2.605754 g / cm^3
# Si number density = 26.116984 Si / 1000 Ang^3
#
#
#
# Elastic Constant Matrix: (Units=GPa)
#
#
# Indices 1 2 3 4 5 6 
#
# 1 43.6646 37.6184 38.5611 5.6343 -0.8787 7.5903
# 2 37.6184 207.3143 67.7158 3.2988 4.7480 -55.6397
# 3 38.5611 67.7158 146.9723 1.6780 -8.5574 -14.5263
# 4 5.6343 3.2988 1.6780 38.9210 -5.3962 -4.0526
# 5 -0.8787 4.7480 -8.5574 -5.3962 31.5286 3.9180
# 6 7.5903 -55.6397 -14.5263 -4.0526 3.9180 63.9195
#
#
#
# Elastic Compliance Matrix: (Units=1/GPa)
#
#
# Indices 1 2 3 4 5 6 
#
# 1 0.040815 -0.008632 -0.008050 -0.006215 0.001009 -0.014646
# 2 -0.008632 0.009303 -0.001308 0.001054 -0.002944 0.009073
# 3 -0.008050 -0.001308 0.009852 0.001425 0.002644 0.001984
# 4 -0.006215 0.001054 0.001425 0.027400 0.004315 0.003452
# 5 0.001009 -0.002944 0.002644 0.004315 0.034129 -0.003900
# 6 -0.014646 0.009073 0.001984 0.003452 -0.003900 0.026190
#
#
# Mechanical properties :
#
#
# Convention : Reuss Voigt Hill
#
# Bulk Modulus (GPa) = 41.68123 76.19354 58.93738
# Shear Modulus (GPa) = 26.08709 43.81087 34.94898
#
# Velocity S-wave (km/s) = 3.16390 4.10016 3.66207
# Velocity P-wave (km/s) = 5.41674 7.18695 6.36370
#
# Compressibility (1/GPa) = 0.02399162
#
# Stress axis : x y z
#
# Youngs Moduli (GPa) = 24.50072 107.49502 101.49721
#
# Poissons Ratio (x) = 0.92787 0.81700
# Poissons Ratio (y) = 0.21148 0.13277
# Poissons Ratio (z) = 0.19722 0.14062
#
# Static dielectric constant tensor:
#      x y z
#    x 2.117180 -0.059910 0.013260 
#    y -0.059910 2.111490 -0.000670 
#    z 0.013260 -0.000670 2.006850 
# 
# From -- ./inp_files/31699.got.cif
#   From: 2010.05.17/outbox.cif.g08.bks.cpg/sg2_16_cif.got.tgz:31699.got - 2010.06.03 11:33:40.
