data_PCOD9087235
_publ_section_title
;
Structure prediction by ZEFSAII (Michael W. Deem and Ramdas Pophale) SiO2 
 PCOD9087235
Probable space group: P -1
;
_chemical_formula_sum "Si O2"
_cell_formula_units_Z 16
_cell_length_a 14.682018
_cell_length_b 13.991537
_cell_length_c 22.612127
_cell_angle_alpha 21.196471
_cell_angle_beta 156.358244
_cell_angle_gamma 147.593427
_cell_volume 671.960915
_symmetry_space_group_name_H-M "P -1"
_symmetry_group_IT_number 2
_symmetry_cell_setting 'triclinic'
loop_
_space_group_symop_operation_xyz
x,y,z
-x,-y,-z
loop_
_atom_site_type_symbol
_atom_site_label
_atom_site_fract_x
_atom_site_fract_y
_atom_site_fract_z
Si Si1 0.949396 0.350943 0.750329
Si Si2 0.505610 0.418345 0.663634
Si Si3 0.366968 0.162240 0.956399
Si Si4 0.565731 0.786727 0.893229
Si Si5 0.478683 0.420811 0.286662
Si Si6 0.116439 0.954991 0.233644
Si Si7 0.964655 0.512493 0.075039
Si Si8 0.936525 0.047473 0.503807
O O1 0.687556 0.391264 0.594759
O O2 0.920421 0.221042 0.744143
O O3 0.007253 0.661326 0.608320
O O4 0.186352 0.187684 0.004387
O O5 0.475165 0.443073 0.701804
O O6 0.766533 0.475550 0.776901
O O7 0.492804 0.115473 0.811900
O O8 0.442494 0.395418 0.825578
O O9 0.099832 0.111416 0.816289
O O10 0.399363 0.217627 0.012945
O O11 0.336025 0.966454 0.640522
O O12 0.500000 0.500000 0.000000
O O13 0.639058 0.152627 0.535903
O O14 0.209880 0.387860 0.137645
O O15 0.100922 0.274246 0.034908
O O16 0.933904 0.203788 0.243382
O O17 0.000000 0.000000 0.500000
#
# Coordination Sequence:
#
# PCOD9087235 Si02
#       8
#     2   2   2   2   2   2   2   2
#     4   9  19  40  61  83 117 154 198 244 289 358
#     4  10  21  37  57  88 124 157 195 244 302 358
#     4  10  19  36  62  90 120 157 202 248 291 355
#     4   9  19  37  60  88 115 148 201 252 290 338
#     4  11  20  36  60  88 120 162 198 239 296 362
#     4   9  21  39  58  88 124 157 195 243 303 358
#     4  11  23  39  58  86 123 159 196 248 298 352
#     4  11  22  40  65  89 114 156 207 250 295 353
#
# _framework density 23.810908999999999
#
# number of rings (size 3 to 8) (size 9 to 14) (size 15 to 20)
#    0.000    2.000    0.000    3.750    0.000    1.000 
#    0.000   33.750    0.000    0.000    0.000    0.000 
#    0.000    0.000    0.000    0.000    0.000    0.000 
#
# Total GULP energy -89234.015809 kJ/mol
# GULP energy per Si atom -5577.125988 kJ/mol
# Density = 2.375671 g / cm^3
# Si number density = 23.810909 Si / 1000 Ang^3
#
#
#
# Elastic Constant Matrix: (Units=GPa)
#
#
# Indices 1 2 3 4 5 6 
#
# 1 50.5329 30.5443 45.4815 -14.2042 19.4389 -12.7958
# 2 30.5443 125.1253 55.2125 3.5546 16.1789 -7.6862
# 3 45.4815 55.2125 202.5093 13.5977 37.1293 8.7177
# 4 -14.2042 3.5546 13.5977 49.0398 5.1886 15.4765
# 5 19.4389 16.1789 37.1293 5.1886 29.1571 2.5906
# 6 -12.7958 -7.6862 8.7177 15.4765 2.5906 38.1016
#
#
#
# Elastic Compliance Matrix: (Units=1/GPa)
#
#
# Indices 1 2 3 4 5 6 
#
# 1 0.042554 -0.004809 -0.005577 0.013146 -0.021894 0.010746
# 2 -0.004809 0.010035 -0.001554 -0.002201 -0.000139 0.001668
# 3 -0.005577 -0.001554 0.007732 -0.002304 -0.004615 -0.002706
# 4 0.013146 -0.002201 -0.002304 0.027918 -0.009023 -0.006229
# 5 -0.021894 -0.000139 -0.004615 -0.009023 0.057033 -0.006538
# 6 0.010746 0.001668 -0.002706 -0.006229 -0.006538 0.033785
#
#
# Mechanical properties :
#
#
# Convention : Reuss Voigt Hill
#
# Bulk Modulus (GPa) = 27.44316 71.18266 49.31291
# Shear Modulus (GPa) = 23.24673 39.72164 31.48419
#
# Velocity S-wave (km/s) = 3.12798 4.08881 3.64023
# Velocity P-wave (km/s) = 4.95945 7.22848 6.19867
#
# Compressibility (1/GPa) = 0.03643895
#
# Stress axis : x y z
#
# Youngs Moduli (GPa) = 23.49965 99.65273 129.33899
#
# Poissons Ratio (x) = 0.47926 0.72133
# Poissons Ratio (y) = 0.11302 0.20103
# Poissons Ratio (z) = 0.13106 0.15489
#
# Static dielectric constant tensor:
#      x y z
#    x 1.913050 0.046490 0.029540 
#    y 0.046490 1.957960 0.044070 
#    z 0.029540 0.044070 1.959720 
# 
# From -- ./inp_files/597355.got.cif
#   From: 2010.05.17/outbox.cif.g08.bks.cpg/sg2_299_cif.got.tgz:597355.got - 2010.06.03 11:33:40.
