data_PCOD9087718
_publ_section_title
;
Structure prediction by ZEFSAII (Michael W. Deem and Ramdas Pophale) SiO2 
 PCOD9087718
Probable space group: P -1
;
_chemical_formula_sum "Si O2"
_cell_formula_units_Z 16
_cell_length_a 13.405038
_cell_length_b 11.471979
_cell_length_c 7.310773
_cell_angle_alpha 65.693229
_cell_angle_beta 112.584369
_cell_angle_gamma 61.612180
_cell_volume 622.647807
_symmetry_space_group_name_H-M "P -1"
_symmetry_group_IT_number 2
_symmetry_cell_setting 'triclinic'
loop_
_space_group_symop_operation_xyz
x,y,z
-x,-y,-z
loop_
_atom_site_type_symbol
_atom_site_label
_atom_site_fract_x
_atom_site_fract_y
_atom_site_fract_z
Si Si1 0.372635 0.500325 0.106345
Si Si2 0.194876 0.594638 0.263077
Si Si3 0.183588 0.890689 0.723267
Si Si4 0.281815 0.783618 0.288387
Si Si5 0.655262 0.771617 0.286341
Si Si6 0.152767 0.169156 0.011671
Si Si7 0.260648 0.343007 0.993585
Si Si8 0.894376 0.760030 0.509879
O O1 0.218943 0.620920 0.058745
O O2 0.531345 0.393612 0.403222
O O3 0.384456 0.348157 0.127741
O O4 0.310444 0.683772 0.838260
O O5 0.198658 0.719358 0.307752
O O6 0.353010 0.360183 0.546068
O O7 0.029461 0.665632 0.139110
O O8 0.164464 0.057346 0.555511
O O9 0.250991 0.835181 0.016741
O O10 0.000000 0.000000 0.500000
O O11 0.213771 0.970993 0.215607
O O12 0.779926 0.747215 0.502494
O O13 0.730426 0.669393 0.210294
O O14 0.500000 0.000000 0.000000
O O15 0.266346 0.186340 0.146742
O O16 0.134517 0.200425 0.757107
O O17 0.081574 0.550925 0.792858
#
# Coordination Sequence:
#
# PCOD9087718 Si02
#       8
#     2   2   2   2   2   2   2   2
#     4  11  25  40  63  98 135 168 202 268 329 373
#     4  11  21  40  63  92 127 165 218 259 317 379
#     4  10  19  36  66  92 118 169 221 249 296 388
#     4  10  24  40  62  92 133 174 203 262 335 366
#     4  11  24  39  67  95 123 170 213 270 318 375
#     4  10  20  39  65  89 118 172 214 260 308 382
#     4  11  21  43  64  91 129 168 215 257 320 384
#     4  10  19  39  65  91 122 164 219 260 313 370
#
# _framework density 25.696709999999999
#
# number of rings (size 3 to 8) (size 9 to 14) (size 15 to 20)
#    0.000    1.500    3.750    2.625    7.000    1.000 
#    0.000    0.625    5.500    0.000    0.000    0.000 
#    0.000    0.000    0.000    0.000    0.000    0.000 
#
# Total GULP energy -89339.652156 kJ/mol
# GULP energy per Si atom -5583.728260 kJ/mol
# Density = 2.563822 g / cm^3
# Si number density = 25.696710 Si / 1000 Ang^3
#
#
#
# Elastic Constant Matrix: (Units=GPa)
#
#
# Indices 1 2 3 4 5 6 
#
# 1 51.2720 29.7156 6.1281 0.1531 -1.7557 34.8177
# 2 29.7156 130.1296 32.6480 -15.4709 -9.5431 47.2026
# 3 6.1281 32.6480 106.4721 -26.4444 8.8202 19.4989
# 4 0.1531 -15.4709 -26.4444 51.9250 12.8878 -14.0650
# 5 -1.7557 -9.5431 8.8202 12.8878 32.1577 -0.7690
# 6 34.8177 47.2026 19.4989 -14.0650 -0.7690 58.0582
#
#
#
# Elastic Compliance Matrix: (Units=1/GPa)
#
#
# Indices 1 2 3 4 5 6 
#
# 1 0.035185 -0.000470 0.000068 -0.007326 0.004162 -0.022461
# 2 -0.000470 0.011785 -0.002711 -0.001340 0.004546 -0.008654
# 3 0.000068 -0.002711 0.012725 0.007357 -0.007250 -0.000424
# 4 -0.007326 -0.001340 0.007357 0.028786 -0.014118 0.009799
# 5 0.004162 0.004546 -0.007250 -0.014118 0.040160 -0.006645
# 6 -0.022461 -0.008654 -0.000424 0.009799 -0.006645 0.040158
#
#
# Mechanical properties :
#
#
# Convention : Reuss Voigt Hill
#
# Bulk Modulus (GPa) = 18.70248 47.20635 32.95442
# Shear Modulus (GPa) = 25.92692 43.05367 34.49030
#
# Velocity S-wave (km/s) = 3.17986 4.09767 3.66759
# Velocity P-wave (km/s) = 4.55806 6.38736 5.54862
#
# Compressibility (1/GPa) = 0.05346884
#
# Stress axis : x y z
#
# Youngs Moduli (GPa) = 28.42093 84.85203 78.58469
#
# Poissons Ratio (x) = 0.03990 -0.00535
# Poissons Ratio (y) = 0.01336 0.21307
# Poissons Ratio (z) = -0.00194 0.23007
#
# Static dielectric constant tensor:
#      x y z
#    x 2.079790 0.041850 -0.063760 
#    y 0.041850 2.080010 -0.020250 
#    z -0.063760 -0.020250 2.050150 
# 
# From -- ./inp_files/306787.got.cif
#   From: 2010.05.17/outbox.cif.g08.bks.cpg/sg2_154_cif.got.tgz:306787.got - 2010.06.03 11:33:40.
