data_PCOD9087245
_publ_section_title
;
Structure prediction by ZEFSAII (Michael W. Deem and Ramdas Pophale) SiO2 
 PCOD9087245
Probable space group: P -1
;
_chemical_formula_sum "Si O2"
_cell_formula_units_Z 16
_cell_length_a 10.674971
_cell_length_b 20.447279
_cell_length_c 5.443189
_cell_angle_alpha 118.355968
_cell_angle_beta 60.226793
_cell_angle_gamma 141.428280
_cell_volume 634.685140
_symmetry_space_group_name_H-M "P -1"
_symmetry_group_IT_number 2
_symmetry_cell_setting 'triclinic'
loop_
_space_group_symop_operation_xyz
x,y,z
-x,-y,-z
loop_
_atom_site_type_symbol
_atom_site_label
_atom_site_fract_x
_atom_site_fract_y
_atom_site_fract_z
Si Si1 0.382588 0.890552 0.549387
Si Si2 0.216339 0.533958 0.797241
Si Si3 0.412717 0.143354 0.997555
Si Si4 0.758228 0.397504 0.605226
Si Si5 0.130112 0.181618 0.263152
Si Si6 0.076055 0.944325 0.272228
Si Si7 0.223556 0.752503 0.843322
Si Si8 0.066817 0.316270 0.618447
O O1 0.318153 0.863427 0.846754
O O2 0.155149 0.791439 0.474279
O O3 0.500000 0.000000 0.500000
O O4 0.549749 0.885990 0.343092
O O5 0.331293 0.604820 0.568129
O O6 0.160387 0.426996 0.625090
O O7 0.324769 0.591997 0.055231
O O8 0.000000 0.500000 0.000000
O O9 0.290387 0.173809 0.138507
O O10 0.639892 0.231946 0.045496
O O11 0.297047 0.044218 0.117447
O O12 0.756724 0.307936 0.474371
O O13 0.000000 0.500000 0.500000
O O14 0.968738 0.113519 0.530033
O O15 0.203872 0.293644 0.414095
O O16 0.042021 0.134469 0.989949
O O17 0.000000 0.000000 0.500000
O O18 0.997482 0.685579 0.043804
#
# Coordination Sequence:
#
# PCOD9087245 Si02
#       8
#     2   2   2   2   2   2   2   2
#     4  11  25  38  60  90 137 167 211 258 321 374
#     4  10  19  36  62  91 119 158 205 267 315 372
#     4  10  24  39  59  88 125 169 214 259 315 375
#     4  10  19  36  63  88 122 155 213 254 321 376
#     4  11  25  41  66  91 123 172 218 266 306 376
#     4  10  22  41  64  85 120 172 226 251 302 365
#     4  11  24  38  63  95 127 170 208 267 326 379
#     4  11  24  38  63  97 126 163 219 265 322 377
#
# _framework density 25.209353
#
# number of rings (size 3 to 8) (size 9 to 14) (size 15 to 20)
#    0.000    1.500    2.500    3.750   12.250    1.000 
#    0.000    0.000    0.000    1.500    0.000    0.000 
#    0.000    0.000    0.000    0.000    0.000    0.000 
#
# Total GULP energy -89254.970059 kJ/mol
# GULP energy per Si atom -5578.435629 kJ/mol
# Density = 2.515198 g / cm^3
# Si number density = 25.209353 Si / 1000 Ang^3
#
#
#
# Elastic Constant Matrix: (Units=GPa)
#
#
# Indices 1 2 3 4 5 6 
#
# 1 65.6216 12.4912 41.6512 6.2247 -5.2675 -21.5999
# 2 12.4912 109.0976 40.9293 4.7979 -0.9448 -41.4089
# 3 41.6512 40.9293 137.6709 -1.4202 6.0761 -26.3301
# 4 6.2247 4.7979 -1.4202 45.5995 -13.7503 -4.2799
# 5 -5.2675 -0.9448 6.0761 -13.7503 48.0281 2.1029
# 6 -21.5999 -41.4089 -26.3301 -4.2799 2.1029 36.1843
#
#
#
# Elastic Compliance Matrix: (Units=1/GPa)
#
#
# Indices 1 2 3 4 5 6 
#
# 1 0.023440 0.005613 -0.005852 -0.001823 0.002207 0.015814
# 2 0.005613 0.017817 -0.002889 -0.000647 0.000203 0.021549
# 3 -0.005852 -0.002889 0.010130 0.000968 -0.001738 0.000787
# 4 -0.001823 -0.000647 0.000968 0.024393 0.006588 0.001378
# 5 0.002207 0.000203 -0.001738 0.006588 0.023186 -0.000283
# 6 0.015814 0.021549 0.000787 0.001378 -0.000283 0.062489
#
#
# Mechanical properties :
#
#
# Convention : Reuss Voigt Hill
#
# Bulk Modulus (GPa) = 22.15777 55.83705 38.99741
# Shear Modulus (GPa) = 27.35891 40.45028 33.90459
#
# Velocity S-wave (km/s) = 3.29791 4.01006 3.67130
# Velocity P-wave (km/s) = 4.82807 6.60592 5.78569
#
# Compressibility (1/GPa) = 0.04513090
#
# Stress axis : x y z
#
# Youngs Moduli (GPa) = 42.66163 56.12665 98.71213
#
# Poissons Ratio (x) = -0.31505 0.57769
# Poissons Ratio (y) = -0.23947 0.28522
# Poissons Ratio (z) = 0.24967 0.16217
#
# Static dielectric constant tensor:
#      x y z
#    x 2.203950 -0.084080 0.137140 
#    y -0.084080 2.112650 0.057890 
#    z 0.137140 0.057890 2.143370 
# 
# From -- ./inp_files/80894.got.cif
#   From: 2010.05.17/outbox.cif.g08.bks.cpg/sg2_41_cif.got.tgz:80894.got - 2010.06.03 11:33:40.
