data_PCOD9087592
_publ_section_title
;
Structure prediction by ZEFSAII (Michael W. Deem and Ramdas Pophale) SiO2 
 PCOD9087592
Probable space group: P -1
;
_chemical_formula_sum "Si O2"
_cell_formula_units_Z 16
_cell_length_a 11.103730
_cell_length_b 14.349739
_cell_length_c 9.938163
_cell_angle_alpha 92.261672
_cell_angle_beta 99.160449
_cell_angle_gamma 147.885525
_cell_volume 783.902208
_symmetry_space_group_name_H-M "P -1"
_symmetry_group_IT_number 2
_symmetry_cell_setting 'triclinic'
loop_
_space_group_symop_operation_xyz
x,y,z
-x,-y,-z
loop_
_atom_site_type_symbol
_atom_site_label
_atom_site_fract_x
_atom_site_fract_y
_atom_site_fract_z
Si Si1 0.075455 0.703953 0.266728
Si Si2 0.492069 0.939156 0.134496
Si Si3 0.684828 0.549805 0.877807
Si Si4 0.189932 0.063176 0.452309
Si Si5 0.224760 0.591723 0.983155
Si Si6 0.131172 0.231417 0.834391
Si Si7 0.150019 0.829795 0.549701
Si Si8 0.362496 0.503740 0.439858
O O1 0.269459 0.821719 0.186961
O O2 0.205835 0.792979 0.438738
O O3 0.948141 0.720083 0.232134
O O4 0.865393 0.488825 0.189265
O O5 0.452408 0.806452 0.071141
O O6 0.719612 0.102098 0.282026
O O7 0.500000 0.000000 0.000000
O O8 0.740762 0.486181 0.948615
O O9 0.397719 0.380573 0.836021
O O10 0.738086 0.577369 0.732774
O O11 0.832258 0.725870 0.997597
O O12 0.445037 0.285083 0.508486
O O13 0.214172 0.977413 0.520985
O O14 0.000000 0.000000 0.500000
O O15 0.068920 0.968642 0.277699
O O16 0.000000 0.500000 0.000000
O O17 0.862573 0.632246 0.510061
O O18 0.500000 0.500000 0.500000
#
# Coordination Sequence:
#
# PCOD9087592 Si02
#       8
#     2   2   2   2   2   2   2   2
#     4   9  20  44  63  88 131 164 210 264 327 383
#     4  11  24  41  66  94 125 167 221 268 316 386
#     4  10  19  36  64  95 127 167 213 258 319 386
#     4  11  20  41  63  90 132 167 209 262 320 383
#     4   9  20  38  66  88 122 170 209 260 323 375
#     4   9  19  35  66  89 124 171 198 261 328 369
#     4  11  24  41  66  93 127 175 209 263 332 373
#     4  12  23  37  64  95 130 167 220 259 312 392
#
# _framework density 20.410708
#
# number of rings (size 3 to 8) (size 9 to 14) (size 15 to 20)
#    0.000    1.750    2.500    1.875    5.250    0.000 
#    4.500    1.250    0.000    0.000    0.000    0.000 
#    0.000    0.000    0.000    0.000    0.000    0.000 
#
# Total GULP energy -89220.085054 kJ/mol
# GULP energy per Si atom -5576.255316 kJ/mol
# Density = 2.036425 g / cm^3
# Si number density = 20.410708 Si / 1000 Ang^3
#
#
#
# Elastic Constant Matrix: (Units=GPa)
#
#
# Indices 1 2 3 4 5 6 
#
# 1 67.8806 21.8434 20.3411 6.2052 -9.7685 2.3031
# 2 21.8434 81.1920 54.2442 3.4979 -13.0100 5.2509
# 3 20.3411 54.2442 172.1153 18.2778 -24.9145 -11.4037
# 4 6.2052 3.4979 18.2778 28.1028 -2.8035 0.6358
# 5 -9.7685 -13.0100 -24.9145 -2.8035 34.6415 8.3041
# 6 2.3031 5.2509 -11.4037 0.6358 8.3041 24.9386
#
#
#
# Elastic Compliance Matrix: (Units=1/GPa)
#
#
# Indices 1 2 3 4 5 6 
#
# 1 0.016760 -0.003578 -0.000186 -0.002740 0.003500 -0.001975
# 2 -0.003578 0.017853 -0.005420 0.002629 0.003742 -0.007220
# 3 -0.000186 -0.005420 0.008738 -0.004790 0.002764 0.004355
# 4 -0.002740 0.002629 -0.004790 0.039146 0.000841 -0.003769
# 5 0.003500 0.003742 0.002764 0.000841 0.036171 -0.011913
# 6 -0.001975 -0.007220 0.004355 -0.003769 -0.011913 0.047855
#
#
# Mechanical properties :
#
#
# Convention : Reuss Voigt Hill
#
# Bulk Modulus (GPa) = 40.02740 57.11615 48.57178
# Shear Modulus (GPa) = 25.87735 32.52053 29.19894
#
# Velocity S-wave (km/s) = 3.56453 3.99596 3.78639
# Velocity P-wave (km/s) = 6.04935 7.02384 6.55473
#
# Compressibility (1/GPa) = 0.02498289
#
# Stress axis : x y z
#
# Youngs Moduli (GPa) = 59.66536 56.01247 114.44802
#
# Poissons Ratio (x) = 0.20041 0.02133
# Poissons Ratio (y) = 0.21348 0.62028
# Poissons Ratio (z) = 0.01112 0.30357
#
# Static dielectric constant tensor:
#      x y z
#    x 1.720880 0.017690 -0.015530 
#    y 0.017690 1.729790 0.037130 
#    z -0.015530 0.037130 1.789690 
# 
# From -- ./inp_files/273208.got.cif
#   From: 2010.05.17/outbox.cif.g08.bks.cpg/sg2_137_cif.got.tgz:273208.got - 2010.06.03 11:33:40.
