data_PCOD9087887
_publ_section_title
;
Structure prediction by ZEFSAII (Michael W. Deem and Ramdas Pophale) SiO2 
 PCOD9087887
Probable space group: P -1
;
_chemical_formula_sum "Si O2"
_cell_formula_units_Z 14
_cell_length_a 12.987537
_cell_length_b 13.843849
_cell_length_c 7.271910
_cell_angle_alpha 111.996872
_cell_angle_beta 96.800152
_cell_angle_gamma 30.674829
_cell_volume 558.161239
_symmetry_space_group_name_H-M "P -1"
_symmetry_group_IT_number 2
_symmetry_cell_setting 'triclinic'
loop_
_space_group_symop_operation_xyz
x,y,z
-x,-y,-z
loop_
_atom_site_type_symbol
_atom_site_label
_atom_site_fract_x
_atom_site_fract_y
_atom_site_fract_z
Si Si1 0.667089 0.615478 0.713472
Si Si2 0.005271 0.755376 0.770898
Si Si3 0.311684 0.259839 0.859066
Si Si4 0.865443 0.063434 0.744546
Si Si5 0.137986 0.215907 0.910888
Si Si6 0.483599 0.267767 0.629285
Si Si7 0.157342 0.706476 0.253573
O O1 0.907936 0.378258 0.493432
O O2 0.670997 0.712376 0.909612
O O3 0.501364 0.766225 0.612027
O O4 0.641111 0.543000 0.800995
O O5 0.238806 0.540230 0.778702
O O6 0.916008 0.950109 0.853788
O O7 0.824445 0.854457 0.922302
O O8 0.072213 0.516257 0.921097
O O9 0.310865 0.136455 0.785893
O O10 0.477190 0.173496 0.694957
O O11 0.663406 0.186945 0.684946
O O12 0.817933 0.227673 0.849009
O O13 0.082695 0.843402 0.509380
O O14 0.031784 0.210997 0.778967
#
# Coordination Sequence:
#
# PCOD9087887 Si02
#       7
#     2   2   2   2   2   2   2
#     4   8  17  35  54  81 113 139 188 217 273 334
#     4   8  18  35  53  83 111 142 186 219 272 336
#     4   9  17  34  58  83 111 146 181 229 274 325
#     4  10  19  37  56  79 114 146 181 232 270 324
#     4   9  17  34  56  82 114 143 185 229 271 326
#     4   9  19  36  57  83 112 141 186 223 276 326
#     4   9  19  35  56  80 111 148 184 224 277 325
#
# _framework density 25.082359
#
# number of rings (size 3 to 8) (size 9 to 14) (size 15 to 20)
#    0.857    2.286    0.000    0.000    0.000    1.714 
#    7.714    7.857    0.000    0.000    0.000    0.000 
#    0.000    0.000    0.000    0.000    0.000    0.000 
#
# Total GULP energy -78043.364181 kJ/mol
# GULP energy per Si atom -5574.526013 kJ/mol
# Density = 2.502527 g / cm^3
# Si number density = 25.082359 Si / 1000 Ang^3
#
#
#
# Elastic Constant Matrix: (Units=GPa)
#
#
# Indices 1 2 3 4 5 6 
#
# 1 147.7286 70.8414 38.5864 -23.1036 -6.6564 53.2740
# 2 70.8414 102.9176 24.8294 -32.6678 -3.6409 29.6645
# 3 38.5864 24.8294 110.0048 -14.0608 0.9790 15.6727
# 4 -23.1036 -32.6678 -14.0608 42.8126 4.3936 -7.6485
# 5 -6.6564 -3.6409 0.9790 4.3936 12.8057 0.9361
# 6 53.2740 29.6645 15.6727 -7.6485 0.9361 49.4526
#
#
#
# Elastic Compliance Matrix: (Units=1/GPa)
#
#
# Indices 1 2 3 4 5 6 
#
# 1 0.014782 -0.006068 -0.002232 -0.000209 0.007059 -0.011743
# 2 -0.006068 0.017762 -0.000252 0.009885 -0.001295 -0.002484
# 3 -0.002232 -0.000252 0.010281 0.002207 -0.002752 -0.000309
# 4 -0.000209 0.009885 0.002207 0.032148 -0.008403 -0.001273
# 5 0.007059 -0.001295 -0.002752 -0.008403 0.085133 -0.008867
# 6 -0.011743 -0.002484 -0.000309 -0.001273 -0.008867 0.034431
#
#
# Mechanical properties :
#
#
# Convention : Reuss Voigt Hill
#
# Bulk Modulus (GPa) = 38.87767 69.90726 54.39246
# Shear Modulus (GPa) = 22.70506 36.10710 29.40608
#
# Velocity S-wave (km/s) = 3.01195 3.79825 3.42772
# Velocity P-wave (km/s) = 5.25637 6.86783 6.11542
#
# Compressibility (1/GPa) = 0.02572171
#
# Stress axis : x y z
#
# Youngs Moduli (GPa) = 67.64780 56.29929 97.26762
#
# Poissons Ratio (x) = 0.34165 0.21709
# Poissons Ratio (y) = 0.41052 0.02447
# Poissons Ratio (z) = 0.15099 0.01416
#
# Static dielectric constant tensor:
#      x y z
#    x 1.976350 0.012370 -0.071860 
#    y 0.012370 2.069120 0.025720 
#    z -0.071860 0.025720 2.099330 
# 
# From -- ./inp_files/254142.got.cif
#   From: 2010.05.17/outbox.cif.g08.bks.cpg/sg2_128_cif.got.tgz:254142.got - 2010.06.03 11:33:40.
