data_PCOD9087431
_publ_section_title
;
Structure prediction by ZEFSAII (Michael W. Deem and Ramdas Pophale) SiO2 
 PCOD9087431
Probable space group: P -1
;
_chemical_formula_sum "Si O2"
_cell_formula_units_Z 16
_cell_length_a 8.916843
_cell_length_b 9.474905
_cell_length_c 16.223011
_cell_angle_alpha 29.549960
_cell_angle_beta 106.904473
_cell_angle_gamma 101.460896
_cell_volume 642.468884
_symmetry_space_group_name_H-M "P -1"
_symmetry_group_IT_number 2
_symmetry_cell_setting 'triclinic'
loop_
_space_group_symop_operation_xyz
x,y,z
-x,-y,-z
loop_
_atom_site_type_symbol
_atom_site_label
_atom_site_fract_x
_atom_site_fract_y
_atom_site_fract_z
Si Si1 0.354516 0.809003 0.590342
Si Si2 0.537770 0.678653 0.837618
Si Si3 0.747880 0.176534 0.048416
Si Si4 0.858883 0.721750 0.608334
Si Si5 0.345232 0.869755 0.268819
Si Si6 0.953824 0.784274 0.030614
Si Si7 0.848063 0.652652 0.449639
Si Si8 0.438912 0.659531 0.221084
O O1 0.392266 0.692393 0.746681
O O2 0.399379 0.537357 0.676646
O O3 0.500000 0.000000 0.500000
O O4 0.193152 0.013185 0.472725
O O5 0.569949 0.992161 0.712617
O O6 0.500000 0.500000 0.000000
O O7 0.683430 0.490207 0.913715
O O8 0.770077 0.925129 0.246793
O O9 0.919763 0.192186 0.032045
O O10 0.630981 0.146183 0.966722
O O11 0.012152 0.529193 0.765334
O O12 0.879361 0.758169 0.494939
O O13 0.708447 0.534295 0.689750
O O14 0.264266 0.597484 0.425206
O O15 0.450464 0.799271 0.240812
O O16 0.212508 0.109540 0.089150
O O17 0.000000 0.000000 0.000000
O O18 0.000000 0.500000 0.500000
#
# Coordination Sequence:
#
# PCOD9087431 Si02
#       8
#     2   2   2   2   2   2   2   2
#     4   9  18  39  64  86 121 175 208 251 321 371
#     4  11  25  44  63  90 133 172 210 265 312 370
#     4  10  19  36  63  92 127 168 200 257 329 367
#     4   9  17  30  59  91 123 168 201 250 325 372
#     4  11  22  39  66 101 123 167 215 256 318 380
#     4  11  17  36  66  93 125 165 209 258 318 383
#     4  11  19  33  59  96 129 159 202 262 318 372
#     4   8  17  34  61  89 118 166 211 254 303 384
#
# _framework density 24.903928000000001
#
# number of rings (size 3 to 8) (size 9 to 14) (size 15 to 20)
#    0.000    2.000    5.000    1.500    0.000    0.500 
#    0.000   13.750    0.000    1.500    0.000    0.000 
#    0.000    0.000    0.000    0.000    0.000    0.000 
#
# Total GULP energy -89531.571130 kJ/mol
# GULP energy per Si atom -5595.723196 kJ/mol
# Density = 2.484725 g / cm^3
# Si number density = 24.903928 Si / 1000 Ang^3
#
#
#
# Elastic Constant Matrix: (Units=GPa)
#
#
# Indices 1 2 3 4 5 6 
#
# 1 62.1144 63.0891 36.6109 -1.0583 8.7837 -16.2258
# 2 63.0891 131.2524 52.5351 -4.5493 13.4750 -32.7242
# 3 36.6109 52.5351 154.3366 14.7514 7.5606 -18.4257
# 4 -1.0583 -4.5493 14.7514 43.3137 -14.5442 0.7518
# 5 8.7837 13.4750 7.5606 -14.5442 45.8036 -9.8104
# 6 -16.2258 -32.7242 -18.4257 0.7518 -9.8104 35.0413
#
#
#
# Elastic Compliance Matrix: (Units=1/GPa)
#
#
# Indices 1 2 3 4 5 6 
#
# 1 0.032560 -0.014489 -0.002714 -0.000377 -0.001730 -0.000357
# 2 -0.014489 0.017477 -0.001678 0.002052 0.000453 0.008812
# 3 -0.002714 -0.001678 0.008232 -0.003463 -0.001177 0.001250
# 4 -0.000377 0.002052 -0.003463 0.027525 0.009188 0.001903
# 5 -0.001730 0.000453 -0.001177 0.009188 0.026474 0.006218
# 6 -0.000357 0.008812 0.001250 0.001903 0.006218 0.038959
#
#
# Mechanical properties :
#
#
# Convention : Reuss Voigt Hill
#
# Bulk Modulus (GPa) = 48.76343 72.46372 60.61357
# Shear Modulus (GPa) = 25.53294 37.86294 31.69794
#
# Velocity S-wave (km/s) = 3.20544 3.90341 3.57152
# Velocity P-wave (km/s) = 5.77260 7.03391 6.43424
#
# Compressibility (1/GPa) = 0.02050717
#
# Stress axis : x y z
#
# Youngs Moduli (GPa) = 30.71255 57.21867 121.47452
#
# Poissons Ratio (x) = 0.82904 0.32964
# Poissons Ratio (y) = 0.44499 0.20387
# Poissons Ratio (z) = 0.08334 0.09603
#
# Static dielectric constant tensor:
#      x y z
#    x 1.994520 0.016940 0.006360 
#    y 0.016940 1.981080 -0.040710 
#    z 0.006360 -0.040710 2.067680 
# 
# From -- ./inp_files/514828.got.cif
#   From: 2010.05.17/outbox.cif.g08.bks.cpg/sg2_258_cif.got.tgz:514828.got - 2010.06.03 11:33:40.
