data_PCOD9087356
_publ_section_title
;
Structure prediction by ZEFSAII (Michael W. Deem and Ramdas Pophale) SiO2 
 PCOD9087356
Probable space group: P -1
;
_chemical_formula_sum "Si O2"
_cell_formula_units_Z 14
_cell_length_a 16.421116
_cell_length_b 8.792224
_cell_length_c 9.585632
_cell_angle_alpha 148.837729
_cell_angle_beta 58.062550
_cell_angle_gamma 129.743513
_cell_volume 550.085115
_symmetry_space_group_name_H-M "P -1"
_symmetry_group_IT_number 2
_symmetry_cell_setting 'triclinic'
loop_
_space_group_symop_operation_xyz
x,y,z
-x,-y,-z
loop_
_atom_site_type_symbol
_atom_site_label
_atom_site_fract_x
_atom_site_fract_y
_atom_site_fract_z
Si Si1 0.679439 0.568559 0.298381
Si Si2 0.905311 0.012626 0.801475
Si Si3 0.368821 0.694087 0.559598
Si Si4 0.606107 0.130597 0.785633
Si Si5 0.031146 0.535638 0.661497
Si Si6 0.372706 0.339320 0.013691
Si Si7 0.126917 0.551862 0.031690
O O1 0.678102 0.442638 0.356105
O O2 0.783276 0.572492 0.135062
O O3 0.665814 0.900223 0.571645
O O4 0.588807 0.291380 0.070092
O O5 0.897314 0.656112 0.521850
O O6 0.975024 0.754126 0.177281
O O7 0.908772 0.117108 0.042868
O O8 0.840303 0.143853 0.863596
O O9 0.350310 0.409749 0.245724
O O10 0.494910 0.896011 0.631987
O O11 0.334016 0.958228 0.730804
O O12 0.663955 0.444030 0.881065
O O13 0.000000 0.500000 0.500000
O O14 0.921590 0.385773 0.732308
O O15 0.500000 0.500000 0.000000
#
# Coordination Sequence:
#
# PCOD9087356 Si02
#       7
#     2   2   2   2   2   2   2
#     4  12  24  36  59  88 124 146 197 250 282 341
#     4   9  20  38  63  79 113 151 193 222 288 351
#     4  11  21  39  61  86 113 159 200 237 284 352
#     4  11  22  38  59  85 118 158 191 241 299 334
#     4  10  19  36  63  87 110 143 192 234 283 340
#     4  10  20  39  63  79 111 156 203 233 287 355
#     4   9  23  37  61  83 115 155 191 227 293 337
#
# _framework density 25.450606000000001
#
# number of rings (size 3 to 8) (size 9 to 14) (size 15 to 20)
#    0.857    0.857    0.000    6.857    2.000    0.000 
#    0.000    4.286    0.000    0.000    0.000    0.000 
#    0.000    0.000    0.000    0.000    0.000    0.000 
#
# Total GULP energy -78313.989881 kJ/mol
# GULP energy per Si atom -5593.856420 kJ/mol
# Density = 2.539268 g / cm^3
# Si number density = 25.450606 Si / 1000 Ang^3
#
#
#
# Elastic Constant Matrix: (Units=GPa)
#
#
# Indices 1 2 3 4 5 6 
#
# 1 68.1998 42.0424 21.9539 6.1226 -16.0566 -20.8300
# 2 42.0424 93.4731 55.5112 -5.8125 -9.3908 -23.1060
# 3 21.9539 55.5112 158.4773 -0.0492 -20.1562 -21.5306
# 4 6.1226 -5.8125 -0.0492 48.9604 -18.1079 6.4302
# 5 -16.0566 -9.3908 -20.1562 -18.1079 45.3584 5.4179
# 6 -20.8300 -23.1060 -21.5306 6.4302 5.4179 32.4910
#
#
#
# Elastic Compliance Matrix: (Units=1/GPa)
#
#
# Indices 1 2 3 4 5 6 
#
# 1 0.024377 -0.009309 0.001882 -0.003696 0.004847 0.010179
# 2 -0.009309 0.018795 -0.004906 0.002503 -0.001042 0.003826
# 3 0.001882 -0.004906 0.008552 -0.000045 0.003089 0.002878
# 4 -0.003696 0.002503 -0.000045 0.026051 0.010489 -0.007524
# 5 0.004847 -0.001042 0.003089 0.010489 0.029413 -0.002567
# 6 0.010179 0.003826 0.002878 -0.007524 -0.002567 0.043848
#
#
# Mechanical properties :
#
#
# Convention : Reuss Voigt Hill
#
# Bulk Modulus (GPa) = 36.95689 62.12945 49.54317
# Shear Modulus (GPa) = 27.06752 38.73814 32.90283
#
# Velocity S-wave (km/s) = 3.26472 3.90563 3.59947
# Velocity P-wave (km/s) = 5.36318 6.69353 6.06495
#
# Compressibility (1/GPa) = 0.02705855
#
# Stress axis : x y z
#
# Youngs Moduli (GPa) = 41.02174 53.20436 116.93539
#
# Poissons Ratio (x) = 0.49527 -0.22006
# Poissons Ratio (y) = 0.38186 0.57369
# Poissons Ratio (z) = -0.07720 0.26102
#
# Static dielectric constant tensor:
#      x y z
#    x 2.123200 0.056800 0.045020 
#    y 0.056800 2.036570 0.002110 
#    z 0.045020 0.002110 1.954530 
# 
# From -- ./inp_files/227547.got.cif
#   From: 2010.05.17/outbox.cif.g08.bks.cpg/sg2_114_cif.got.tgz:227547.got - 2010.06.03 11:33:40.
