data_PCOD9087079
_publ_section_title
;
Structure prediction by ZEFSAII (Michael W. Deem and Ramdas Pophale) SiO2 
 PCOD9087079
Probable space group: P -1
;
_chemical_formula_sum "Si O2"
_cell_formula_units_Z 14
_cell_length_a 10.390164
_cell_length_b 9.665356
_cell_length_c 15.472477
_cell_angle_alpha 60.975613
_cell_angle_beta 32.407104
_cell_angle_gamma 81.898657
_cell_volume 596.577960
_symmetry_space_group_name_H-M "P -1"
_symmetry_group_IT_number 2
_symmetry_cell_setting 'triclinic'
loop_
_space_group_symop_operation_xyz
x,y,z
-x,-y,-z
loop_
_atom_site_type_symbol
_atom_site_label
_atom_site_fract_x
_atom_site_fract_y
_atom_site_fract_z
Si Si1 0.488573 0.401203 0.334057
Si Si2 0.825994 0.547254 0.897644
Si Si3 0.218090 0.808497 0.758302
Si Si4 0.364287 0.709925 0.239545
Si Si5 0.826270 0.630239 0.234718
Si Si6 0.189191 0.417628 0.299679
Si Si7 0.988062 0.050777 0.841151
O O1 0.652889 0.301479 0.236261
O O2 0.385842 0.536706 0.317570
O O3 0.746208 0.555943 0.205259
O O4 0.208969 0.220439 0.597177
O O5 0.867649 0.640972 0.750929
O O6 0.000329 0.688240 0.836988
O O7 0.966678 0.432597 0.834430
O O8 0.478913 0.421499 0.153154
O O9 0.500000 0.000000 0.500000
O O10 0.090211 0.912517 0.847085
O O11 0.296514 0.637138 0.200077
O O12 0.105916 0.703751 0.438931
O O13 0.667495 0.912149 0.023354
O O14 0.500000 0.500000 0.500000
O O15 0.982071 0.840796 0.120976
#
# Coordination Sequence:
#
# PCOD9087079 Si02
#       7
#     2   2   2   2   2   2   2
#     4   9  20  37  61  91 126 157 198 257 312 366
#     4  10  19  40  65  86 122 173 199 244 318 358
#     4   9  18  35  64  95 118 156 204 254 309 370
#     4  11  22  39  62  94 119 162 214 252 299 356
#     4   9  18  35  61  92 121 158 198 249 315 367
#     4  10  22  38  62  86 125 170 209 246 295 370
#     4  10  19  36  61  92 123 157 202 249 312 361
#
# _framework density 23.467175999999998
#
# number of rings (size 3 to 8) (size 9 to 14) (size 15 to 20)
#    0.000    2.286    1.429    2.571    0.000    1.143 
#    0.000    7.143    3.143    0.000    0.000    0.000 
#    0.000    0.000    0.000    0.000    0.000    0.000 
#
# Total GULP energy -77941.148013 kJ/mol
# GULP energy per Si atom -5567.224858 kJ/mol
# Density = 2.341376 g / cm^3
# Si number density = 23.467176 Si / 1000 Ang^3
#
#
#
# Elastic Constant Matrix: (Units=GPa)
#
#
# Indices 1 2 3 4 5 6 
#
# 1 78.2327 26.8126 13.7754 -2.0502 -21.0962 -2.1192
# 2 26.8126 123.8410 19.5527 -4.5075 -17.4046 -0.9449
# 3 13.7754 19.5527 127.3948 -7.6600 -25.3340 -11.2563
# 4 -2.0502 -4.5075 -7.6600 50.7176 -6.8749 -9.6805
# 5 -21.0962 -17.4046 -25.3340 -6.8749 27.9789 -4.9467
# 6 -2.1192 -0.9449 -11.2563 -9.6805 -4.9467 32.3611
#
#
#
# Elastic Compliance Matrix: (Units=1/GPa)
#
#
# Indices 1 2 3 4 5 6 
#
# 1 0.017650 -0.001684 0.002390 0.004253 0.016482 0.005729
# 2 -0.001684 0.009240 0.000035 0.001748 0.005204 0.001490
# 3 0.002390 0.000035 0.011652 0.005473 0.015163 0.008165
# 4 0.004253 0.001748 0.005473 0.025696 0.017799 0.012641
# 5 0.016482 0.005204 0.015163 0.017799 0.073589 0.023079
# 6 0.005729 0.001490 0.008165 0.012641 0.023079 0.041469
#
#
# Mechanical properties :
#
#
# Convention : Reuss Voigt Hill
#
# Bulk Modulus (GPa) = 24.98477 49.97220 37.47848
# Shear Modulus (GPa) = 26.15673 40.16671 33.16172
#
# Velocity S-wave (km/s) = 3.34220 4.14165 3.76321
# Velocity P-wave (km/s) = 5.05604 6.64919 5.90658
#
# Compressibility (1/GPa) = 0.04002439
#
# Stress axis : x y z
#
# Youngs Moduli (GPa) = 56.65738 108.22353 85.82492
#
# Poissons Ratio (x) = 0.18222 -0.20508
# Poissons Ratio (y) = 0.09539 -0.00305
# Poissons Ratio (z) = -0.13539 -0.00384
#
# Static dielectric constant tensor:
#      x y z
#    x 1.652450 0.180150 0.181620 
#    y 0.180150 1.838160 0.074710 
#    z 0.181620 0.074710 2.012690 
# 
# From -- ./inp_files/565858.got.cif
#   From: 2010.05.17/outbox.cif.g08.bks.cpg/sg2_283_cif.got.tgz:565858.got - 2010.06.03 11:33:40.
