data_PCOD9087779
_publ_section_title
;
Structure prediction by ZEFSAII (Michael W. Deem and Ramdas Pophale) SiO2 
 PCOD9087779
Probable space group: P -1
;
_chemical_formula_sum "Si O2"
_cell_formula_units_Z 16
_cell_length_a 7.829514
_cell_length_b 20.416071
_cell_length_c 10.129943
_cell_angle_alpha 131.646031
_cell_angle_beta 45.786866
_cell_angle_gamma 97.105691
_cell_volume 670.529701
_symmetry_space_group_name_H-M "P -1"
_symmetry_group_IT_number 2
_symmetry_cell_setting 'triclinic'
loop_
_space_group_symop_operation_xyz
x,y,z
-x,-y,-z
loop_
_atom_site_type_symbol
_atom_site_label
_atom_site_fract_x
_atom_site_fract_y
_atom_site_fract_z
Si Si1 0.807324 0.949863 0.884658
Si Si2 0.410126 0.808804 0.239816
Si Si3 0.179035 0.144045 0.767317
Si Si4 0.784652 0.577739 0.841981
Si Si5 0.733516 0.390761 0.315665
Si Si6 0.643133 0.059164 0.770602
Si Si7 0.238476 0.840439 0.759754
Si Si8 0.314009 0.423410 0.816244
O O1 0.043807 0.900433 0.570747
O O2 0.050360 0.872600 0.769039
O O3 0.564253 0.927334 0.979912
O O4 0.684362 0.075881 0.150023
O O5 0.577908 0.841763 0.287994
O O6 0.510544 0.821298 0.059001
O O7 0.495421 0.690845 0.078445
O O8 0.355572 0.029359 0.437387
O O9 0.891553 0.262841 0.012644
O O10 0.001013 0.134767 0.966738
O O11 0.000000 0.500000 0.500000
O O12 0.977859 0.613896 0.839920
O O13 0.726532 0.537487 0.955439
O O14 0.500000 0.500000 0.500000
O O15 0.570109 0.414585 0.578178
O O16 0.000000 0.000000 0.500000
O O17 0.535139 0.708755 0.431540
O O18 0.000000 0.500000 0.000000
#
# Coordination Sequence:
#
# PCOD9087779 Si02
#       8
#     2   2   2   2   2   2   2   2
#     4  11  21  36  68  93 127 166 227 270 337 401
#     4  11  22  43  67  92 128 175 229 275 329 416
#     4  10  20  39  65  92 128 167 227 269 328 404
#     4  11  25  43  66  98 136 179 224 280 346 400
#     4  10  22  39  68  96 130 175 227 281 333 397
#     4  12  26  40  58  97 139 172 210 280 349 405
#     4  10  19  36  68 100 121 171 226 284 323 394
#     4  11  22  40  67 103 135 170 235 288 332 400
#
# _framework density 23.861734999999999
#
# number of rings (size 3 to 8) (size 9 to 14) (size 15 to 20)
#    0.000    1.250    5.000    1.875    1.750    2.000 
#    0.000    0.000    0.000    0.000    0.000    0.000 
#    0.000    0.000    0.000    0.000    0.000    0.000 
#
# Total GULP energy -89258.516674 kJ/mol
# GULP energy per Si atom -5578.657292 kJ/mol
# Density = 2.380742 g / cm^3
# Si number density = 23.861735 Si / 1000 Ang^3
#
#
#
# Elastic Constant Matrix: (Units=GPa)
#
#
# Indices 1 2 3 4 5 6 
#
# 1 36.3134 28.5485 18.0958 0.9810 -17.7048 -2.8866
# 2 28.5485 146.5942 47.9589 -15.1359 -8.1854 -27.9872
# 3 18.0958 47.9589 98.3636 -2.0848 -10.2748 -13.8228
# 4 0.9810 -15.1359 -2.0848 57.4269 -4.8835 -12.0948
# 5 -17.7048 -8.1854 -10.2748 -4.8835 38.6518 -11.8214
# 6 -2.8866 -27.9872 -13.8228 -12.0948 -11.8214 32.6761
#
#
#
# Elastic Compliance Matrix: (Units=1/GPa)
#
#
# Indices 1 2 3 4 5 6 
#
# 1 0.042979 -0.005357 -0.002456 0.000595 0.019657 0.005501
# 2 -0.005357 0.011886 -0.002547 0.006051 0.003907 0.012283
# 3 -0.002456 -0.002547 0.012887 0.001104 0.003328 0.004665
# 4 0.000595 0.006051 0.001104 0.023776 0.010442 0.018281
# 5 0.019657 0.003907 0.003328 0.010442 0.046185 0.027065
# 6 0.005501 0.012283 0.004665 0.018281 0.027065 0.060141
#
#
# Mechanical properties :
#
#
# Convention : Reuss Voigt Hill
#
# Bulk Modulus (GPa) = 21.26255 52.27529 36.76892
# Shear Modulus (GPa) = 21.34458 38.19549 29.77003
#
# Velocity S-wave (km/s) = 2.99408 4.00522 3.53598
# Velocity P-wave (km/s) = 4.56977 6.58363 5.66687
#
# Compressibility (1/GPa) = 0.04703104
#
# Stress axis : x y z
#
# Youngs Moduli (GPa) = 23.26740 84.13135 77.59952
#
# Poissons Ratio (x) = 0.45071 0.19057
# Poissons Ratio (y) = 0.12465 0.19766
# Poissons Ratio (z) = 0.05714 0.21430
#
# Static dielectric constant tensor:
#      x y z
#    x 1.787810 0.125880 -0.002240 
#    y 0.125880 1.771170 0.002910 
#    z -0.002240 0.002910 2.020040 
# 
# From -- ./inp_files/405502.got.cif
#   From: 2010.05.17/outbox.cif.g08.bks.cpg/sg2_203_cif.got.tgz:405502.got - 2010.06.03 11:33:40.
