data_PCOD9087366
_publ_section_title
;
Structure prediction by ZEFSAII (Michael W. Deem and Ramdas Pophale) SiO2 
 PCOD9087366
Probable space group: P -1
;
_chemical_formula_sum "Si O2"
_cell_formula_units_Z 14
_cell_length_a 8.200218
_cell_length_b 12.180207
_cell_length_c 12.583532
_cell_angle_alpha 138.197860
_cell_angle_beta 123.939033
_cell_angle_gamma 60.627041
_cell_volume 688.734641
_symmetry_space_group_name_H-M "P -1"
_symmetry_group_IT_number 2
_symmetry_cell_setting 'triclinic'
loop_
_space_group_symop_operation_xyz
x,y,z
-x,-y,-z
loop_
_atom_site_type_symbol
_atom_site_label
_atom_site_fract_x
_atom_site_fract_y
_atom_site_fract_z
Si Si1 0.738777 0.672901 0.737604
Si Si2 0.232407 0.319611 0.013148
Si Si3 0.467549 0.988070 0.166551
Si Si4 0.502770 0.859156 0.488366
Si Si5 0.231916 0.634777 0.108241
Si Si6 0.234194 0.451250 0.564019
Si Si7 0.795744 0.283946 0.082830
O O1 0.687475 0.563944 0.539560
O O2 0.966627 0.711709 0.830883
O O3 0.598638 0.847681 0.806416
O O4 0.729142 0.602185 0.801165
O O5 0.367970 0.145948 0.921952
O O6 0.000857 0.300138 0.916240
O O7 0.263213 0.444735 0.020005
O O8 0.543786 0.049238 0.350948
O O9 0.276492 0.892832 0.049770
O O10 0.351600 0.739788 0.305151
O O11 0.703047 0.730143 0.491046
O O12 0.500000 0.000000 0.500000
O O13 0.282795 0.656105 0.018842
O O14 0.292775 0.590409 0.765656
O O15 0.000000 0.500000 0.500000
#
# Coordination Sequence:
#
# PCOD9087366 Si02
#       7
#     2   2   2   2   2   2   2
#     4   9  20  39  57  85 122 151 194 244 293 346
#     4  10  22  39  60  82 120 160 195 231 290 366
#     4  11  21  35  60  88 117 151 198 244 296 343
#     4  11  22  37  59  90 122 147 193 253 296 339
#     4  10  22  40  59  86 118 157 194 239 294 349
#     4   9  20  37  59  87 117 152 197 241 293 344
#     4  10  19  36  63  88 113 153 200 245 288 345
#
# _framework density 20.327131000000001
#
# number of rings (size 3 to 8) (size 9 to 14) (size 15 to 20)
#    0.000    2.000    1.429    1.714    2.000    1.714 
#    0.000    7.857    0.000    0.000    0.000    0.000 
#    0.000    0.000    0.000    0.000    0.000    0.000 
#
# Total GULP energy -78142.438702 kJ/mol
# GULP energy per Si atom -5581.602764 kJ/mol
# Density = 2.028087 g / cm^3
# Si number density = 20.327131 Si / 1000 Ang^3
#
#
#
# Elastic Constant Matrix: (Units=GPa)
#
#
# Indices 1 2 3 4 5 6 
#
# 1 44.6847 20.9395 22.3907 -5.8476 -4.5755 -16.0393
# 2 20.9395 80.8829 15.2258 -9.8311 -15.1423 -5.6910
# 3 22.3907 15.2258 122.1283 -10.5558 -14.5851 -5.2803
# 4 -5.8476 -9.8311 -10.5558 26.7908 -4.0464 -3.6593
# 5 -4.5755 -15.1423 -14.5851 -4.0464 24.1368 2.0365
# 6 -16.0393 -5.6910 -5.2803 -3.6593 2.0365 28.9206
#
#
#
# Elastic Compliance Matrix: (Units=1/GPa)
#
#
# Indices 1 2 3 4 5 6 
#
# 1 0.034676 -0.006266 -0.004346 0.005938 -0.000506 0.017992
# 2 -0.006266 0.016698 0.000975 0.006818 0.011013 0.000076
# 3 -0.004346 0.000975 0.010008 0.004305 0.006583 -0.000310
# 4 0.005938 0.006818 0.004305 0.046475 0.014930 0.010250
# 5 -0.000506 0.011013 0.006583 0.014930 0.054630 0.001131
# 6 0.017992 0.000076 -0.000310 0.010250 0.001131 0.045731
#
#
# Mechanical properties :
#
#
# Convention : Reuss Voigt Hill
#
# Bulk Modulus (GPa) = 23.74810 40.53421 32.14115
# Shear Modulus (GPa) = 20.70148 28.57897 24.64023
#
# Velocity S-wave (km/s) = 3.19473 3.75367 3.48542
# Velocity P-wave (km/s) = 5.03157 6.22663 5.66073
#
# Compressibility (1/GPa) = 0.04210864
#
# Stress axis : x y z
#
# Youngs Moduli (GPa) = 28.83819 59.88687 99.91880
#
# Poissons Ratio (x) = 0.37527 0.43420
# Poissons Ratio (y) = 0.18071 -0.09741
# Poissons Ratio (z) = 0.12532 -0.05838
#
# Static dielectric constant tensor:
#      x y z
#    x 1.729390 -0.012470 0.002490 
#    y -0.012470 1.712070 -0.025590 
#    z 0.002490 -0.025590 1.724100 
# 
# From -- ./inp_files/165581.got.cif
#   From: 2010.05.17/outbox.cif.g08.bks.cpg/sg2_83_cif.got.tgz:165581.got - 2010.06.03 11:33:40.
