data_PCOD9087257
_publ_section_title
;
Structure prediction by ZEFSAII (Michael W. Deem and Ramdas Pophale) SiO2 
 PCOD9087257
Probable space group: P -1
;
_chemical_formula_sum "Si O2"
_cell_formula_units_Z 14
_cell_length_a 29.357689
_cell_length_b 10.184168
_cell_length_c 5.107862
_cell_angle_alpha 54.479718
_cell_angle_beta 65.295972
_cell_angle_gamma 28.068074
_cell_volume 566.670738
_symmetry_space_group_name_H-M "P -1"
_symmetry_group_IT_number 2
_symmetry_cell_setting 'triclinic'
loop_
_space_group_symop_operation_xyz
x,y,z
-x,-y,-z
loop_
_atom_site_type_symbol
_atom_site_label
_atom_site_fract_x
_atom_site_fract_y
_atom_site_fract_z
Si Si1 0.928207 0.528796 0.334893
Si Si2 0.408743 0.220081 0.662141
Si Si3 0.385886 0.835237 0.630688
Si Si4 0.282817 0.272116 0.853788
Si Si5 0.069817 0.128590 0.961515
Si Si6 0.549709 0.608461 0.356898
Si Si7 0.117659 0.678986 0.140548
O O1 0.015658 0.295462 0.615795
O O2 0.879285 0.843027 0.113437
O O3 0.861121 0.559978 0.526278
O O4 0.983021 0.350181 0.132235
O O5 0.322780 0.341689 0.624462
O O6 0.377512 0.479087 0.554737
O O7 0.500000 0.000000 0.500000
O O8 0.459940 0.972383 0.055198
O O9 0.493800 0.624491 0.635278
O O10 0.403655 0.604139 0.762946
O O11 0.321441 0.052961 0.784055
O O12 0.332787 0.064802 0.241565
O O13 0.169283 0.571852 0.865276
O O14 0.135609 0.783980 0.163087
O O15 0.000000 0.000000 0.000000
#
# Coordination Sequence:
#
# PCOD9087257 Si02
#       7
#     2   2   2   2   2   2   2
#     4   9  18  34  58  83 109 142 200 247 300 356
#     4  10  19  36  62  91 126 159 201 250 306 375
#     4  10  22  39  60  91 122 160 203 253 303 375
#     4  11  24  39  59  91 125 157 214 254 298 377
#     4   9  18  34  58  84 105 147 196 247 298 360
#     4   9  20  36  63  88 123 165 195 245 319 367
#     4  10  22  41  64  85 123 169 208 257 317 354
#
# _framework density 24.705701999999999
#
# number of rings (size 3 to 8) (size 9 to 14) (size 15 to 20)
#    0.000    2.286    1.429    0.429    2.000    6.286 
#    2.571    0.000    0.000    0.000    0.000    0.000 
#    0.000    0.000    0.000    0.000    0.000    0.000 
#
# Total GULP energy -78219.283518 kJ/mol
# GULP energy per Si atom -5587.091680 kJ/mol
# Density = 2.464947 g / cm^3
# Si number density = 24.705702 Si / 1000 Ang^3
#
#
#
# Elastic Constant Matrix: (Units=GPa)
#
#
# Indices 1 2 3 4 5 6 
#
# 1 120.9689 79.4604 35.0955 10.7252 -35.1952 31.3962
# 2 79.4604 147.0026 37.8529 38.3353 -21.5311 41.0778
# 3 35.0955 37.8529 90.4640 25.4048 -12.4549 17.2123
# 4 10.7252 38.3353 25.4048 46.2099 7.1042 -1.5274
# 5 -35.1952 -21.5311 -12.4549 7.1042 49.6417 -9.5595
# 6 31.3962 41.0778 17.2123 -1.5274 -9.5595 55.1380
#
#
#
# Elastic Compliance Matrix: (Units=1/GPa)
#
#
# Indices 1 2 3 4 5 6 
#
# 1 0.015905 -0.007114 -0.002654 0.002563 0.006836 -0.001672
# 2 -0.007114 0.016733 0.001762 -0.013945 0.002950 -0.008841
# 3 -0.002654 0.001762 0.015435 -0.009990 0.003354 -0.004315
# 4 0.002563 -0.013945 -0.009990 0.040063 -0.010281 0.011376
# 5 0.006836 0.002950 0.003354 -0.010281 0.028092 -0.002551
# 6 -0.001672 -0.008841 -0.004315 0.011376 -0.002551 0.026894
#
#
# Mechanical properties :
#
#
# Convention : Reuss Voigt Hill
#
# Bulk Modulus (GPa) = 31.18962 73.69478 52.44220
# Shear Modulus (GPa) = 29.44304 43.93305 36.68805
#
# Velocity S-wave (km/s) = 3.45592 4.22151 3.85775
# Velocity P-wave (km/s) = 5.34569 7.32498 6.41217
#
# Compressibility (1/GPa) = 0.03206194
#
# Stress axis : x y z
#
# Youngs Moduli (GPa) = 62.87311 59.76264 64.78989
#
# Poissons Ratio (x) = 0.42513 0.17196
# Poissons Ratio (y) = 0.44725 -0.11419
# Poissons Ratio (z) = 0.16687 -0.10533
#
# Static dielectric constant tensor:
#      x y z
#    x 2.034090 -0.005720 -0.005700 
#    y -0.005720 2.006880 -0.100810 
#    z -0.005700 -0.100810 2.012970 
# 
# From -- ./inp_files/38627.got.cif
#   From: 2010.05.17/outbox.cif.g08.bks.cpg/sg2_20_cif.got.tgz:38627.got - 2010.06.03 11:33:40.
