data_PCOD9087951
_publ_section_title
;
Structure prediction by ZEFSAII (Michael W. Deem and Ramdas Pophale) SiO2 
 PCOD9087951
Probable space group: P -1
;
_chemical_formula_sum "Si O2"
_cell_formula_units_Z 16
_cell_length_a 12.649242
_cell_length_b 12.349371
_cell_length_c 9.218229
_cell_angle_alpha 129.228334
_cell_angle_beta 76.475414
_cell_angle_gamma 63.371505
_cell_volume 662.860253
_symmetry_space_group_name_H-M "P -1"
_symmetry_group_IT_number 2
_symmetry_cell_setting 'triclinic'
loop_
_space_group_symop_operation_xyz
x,y,z
-x,-y,-z
loop_
_atom_site_type_symbol
_atom_site_label
_atom_site_fract_x
_atom_site_fract_y
_atom_site_fract_z
Si Si1 0.571904 0.065181 0.615022
Si Si2 0.672564 0.269564 0.075735
Si Si3 0.086248 0.420294 0.249051
Si Si4 0.376954 0.425670 0.465352
Si Si5 0.035688 0.313534 0.909594
Si Si6 0.500354 0.969695 0.805288
Si Si7 0.349276 0.515565 0.228147
Si Si8 0.977431 0.214469 0.575864
O O1 0.500000 0.000000 0.500000
O O2 0.752756 0.930425 0.372851
O O3 0.614444 0.965617 0.678372
O O4 0.432474 0.326900 0.920920
O O5 0.580855 0.260966 0.217598
O O6 0.719204 0.354883 0.229803
O O7 0.503920 0.463712 0.185414
O O8 0.830498 0.039826 0.742411
O O9 0.000000 0.500000 0.500000
O O10 0.051747 0.606720 0.345289
O O11 0.000745 0.384910 0.147660
O O12 0.298737 0.180152 0.991353
O O13 0.401341 0.276508 0.443116
O O14 0.304849 0.484471 0.372709
O O15 0.950884 0.280574 0.809065
O O16 0.000000 0.500000 0.000000
O O17 0.500000 0.000000 0.000000
O O18 0.166856 0.745940 0.409272
#
# Coordination Sequence:
#
# PCOD9087951 Si02
#       8
#     2   2   2   2   2   2   2   2
#     4  12  20  36  57  85 123 154 195 241 294 364
#     4   9  19  36  59  84 122 156 207 242 293 349
#     4  11  23  35  54  89 122 152 193 241 304 359
#     4   9  19  37  55  89 121 159 195 250 295 348
#     4  10  21  36  53  84 120 159 196 235 303 357
#     4  12  21  35  60  88 125 153 190 247 302 351
#     4  10  19  37  57  87 115 153 208 238 294 350
#     4  11  19  36  60  85 116 157 200 246 290 349
#
# _framework density 24.137817999999999
#
# number of rings (size 3 to 8) (size 9 to 14) (size 15 to 20)
#    0.750    0.750    5.000    1.500    3.500    0.500 
#    0.000    0.000    0.000    3.000    0.000    7.000 
#    0.000    0.000    0.000    0.000    0.000    0.125 
#
# Total GULP energy -89311.723011 kJ/mol
# GULP energy per Si atom -5581.982688 kJ/mol
# Density = 2.408288 g / cm^3
# Si number density = 24.137818 Si / 1000 Ang^3
#
#
#
# Elastic Constant Matrix: (Units=GPa)
#
#
# Indices 1 2 3 4 5 6 
#
# 1 44.3099 26.3648 27.7594 5.8983 5.0167 -29.3126
# 2 26.3648 66.5889 42.3941 -15.7623 2.8136 -23.7159
# 3 27.7594 42.3941 119.6080 -27.1610 9.4827 -25.3013
# 4 5.8983 -15.7623 -27.1610 35.7023 -10.0629 0.7027
# 5 5.0167 2.8136 9.4827 -10.0629 29.6957 -5.8509
# 6 -29.3126 -23.7159 -25.3013 0.7027 -5.8509 38.9826
#
#
#
# Elastic Compliance Matrix: (Units=1/GPa)
#
#
# Indices 1 2 3 4 5 6 
#
# 1 0.060313 -0.013342 -0.007511 -0.024631 -0.008666 0.031503
# 2 -0.013342 0.026860 -0.002708 0.013656 0.006234 0.005240
# 3 -0.007511 -0.002708 0.013770 0.010801 0.001106 0.001613
# 4 -0.024631 0.013656 0.010801 0.050969 0.016362 -0.001666
# 5 -0.008666 0.006234 0.001106 0.016362 0.040483 0.003775
# 6 0.031503 0.005240 0.001613 -0.001666 0.003775 0.054172
#
#
# Mechanical properties :
#
#
# Convention : Reuss Voigt Hill
#
# Bulk Modulus (GPa) = 18.58080 47.06037 32.82058
# Shear Modulus (GPa) = 16.04461 29.80868 22.92665
#
# Velocity S-wave (km/s) = 2.58099 3.51798 3.08526
# Velocity P-wave (km/s) = 4.07388 6.00337 5.13015
#
# Compressibility (1/GPa) = 0.05381901
#
# Stress axis : x y z
#
# Youngs Moduli (GPa) = 16.58020 37.23026 72.62116
#
# Poissons Ratio (x) = 0.49674 0.54546
# Poissons Ratio (y) = 0.22122 0.19669
# Poissons Ratio (z) = 0.12453 0.10084
#
# Static dielectric constant tensor:
#      x y z
#    x 1.949240 -0.045220 0.199900 
#    y -0.045220 1.926340 0.128010 
#    z 0.199900 0.128010 1.757760 
# 
# From -- ./inp_files/314121.got.cif
#   From: 2010.05.17/outbox.cif.g08.bks.cpg/sg2_158_cif.got.tgz:314121.got - 2010.06.03 11:33:40.
