data_PCOD9087139
_publ_section_title
;
Structure prediction by ZEFSAII (Michael W. Deem and Ramdas Pophale) SiO2 
 PCOD9087139
Probable space group: P -1
;
_chemical_formula_sum "Si O2"
_cell_formula_units_Z 16
_cell_length_a 12.139375
_cell_length_b 18.090459
_cell_length_c 24.968120
_cell_angle_alpha 17.407530
_cell_angle_beta 27.990890
_cell_angle_gamma 30.103673
_cell_volume 759.897533
_symmetry_space_group_name_H-M "P -1"
_symmetry_group_IT_number 2
_symmetry_cell_setting 'triclinic'
loop_
_space_group_symop_operation_xyz
x,y,z
-x,-y,-z
loop_
_atom_site_type_symbol
_atom_site_label
_atom_site_fract_x
_atom_site_fract_y
_atom_site_fract_z
Si Si1 0.561871 0.931726 0.358821
Si Si2 0.614488 0.712113 0.643282
Si Si3 0.706008 0.907685 0.735953
Si Si4 0.012092 0.250014 0.631791
Si Si5 0.913934 0.417102 0.276653
Si Si6 0.274598 0.373007 0.971314
Si Si7 0.479431 0.355221 0.783512
Si Si8 0.687193 0.600235 0.810389
O O1 0.806303 0.945354 0.275785
O O2 0.515160 0.647502 0.573793
O O3 0.526258 0.038915 0.239710
O O4 0.356684 0.102082 0.362883
O O5 0.856309 0.706898 0.509733
O O6 0.437398 0.575957 0.778715
O O7 0.647859 0.582301 0.776825
O O8 0.500000 0.000000 0.500000
O O9 0.890235 0.682091 0.785068
O O10 0.812302 0.164544 0.509497
O O11 0.678800 0.833987 0.859389
O O12 0.000000 0.500000 0.500000
O O13 0.744847 0.207035 0.765860
O O14 0.705877 0.621627 0.201418
O O15 0.053295 0.504485 0.206635
O O16 0.358497 0.276973 0.943239
O O17 0.000000 0.500000 0.000000
O O18 0.500000 0.500000 0.000000
#
# Coordination Sequence:
#
# PCOD9087139 Si02
#       8
#     2   2   2   2   2   2   2   2
#     4   9  17  36  56  82 114 158 194 241 291 355
#     4  12  23  38  62  93 121 159 202 252 305 357
#     4   9  18  30  57  84 117 152 202 248 294 340
#     4  10  19  38  63  86 120 165 204 242 294 373
#     4   9  18  35  54  81 116 160 193 243 301 360
#     4  12  22  33  58  96 119 149 209 256 290 357
#     4  10  19  36  62  83 117 158 202 247 299 351
#     4  11  22  35  58  88 126 151 199 250 313 352
#
# _framework density 21.05547
#
# number of rings (size 3 to 8) (size 9 to 14) (size 15 to 20)
#    0.000    1.750    5.000    2.250    1.750    0.000 
#    0.000    1.250    5.500    3.000    0.000    0.000 
#    0.000    0.000    0.000    0.000    0.000    0.000 
#
# Total GULP energy -89319.065075 kJ/mol
# GULP energy per Si atom -5582.441567 kJ/mol
# Density = 2.100755 g / cm^3
# Si number density = 21.055470 Si / 1000 Ang^3
#
#
#
# Elastic Constant Matrix: (Units=GPa)
#
#
# Indices 1 2 3 4 5 6 
#
# 1 161.0559 46.2145 37.0426 20.2128 31.6419 -41.7366
# 2 46.2145 77.6004 28.7380 27.5125 14.3115 -18.3182
# 3 37.0426 28.7380 69.2985 10.3783 28.5700 -4.7392
# 4 20.2128 27.5125 10.3783 29.8499 6.9977 -6.1429
# 5 31.6419 14.3115 28.5700 6.9977 38.6606 -0.3167
# 6 -41.7366 -18.3182 -4.7392 -6.1429 -0.3167 42.8021
#
#
#
# Elastic Compliance Matrix: (Units=1/GPa)
#
#
# Indices 1 2 3 4 5 6 
#
# 1 0.011166 -0.002025 -0.001332 -0.001609 -0.007035 0.009591
# 2 -0.002025 0.023513 -0.005953 -0.017338 0.000531 0.004945
# 3 -0.001332 -0.005953 0.023112 0.001401 -0.014049 -0.001190
# 4 -0.001609 -0.017338 0.001401 0.050315 -0.002421 -0.001630
# 5 -0.007035 0.000531 -0.014049 -0.002421 0.042181 -0.008224
# 6 0.009591 0.004945 -0.001190 -0.001630 -0.008224 0.034405
#
#
# Mechanical properties :
#
#
# Convention : Reuss Voigt Hill
#
# Bulk Modulus (GPa) = 25.52775 59.10498 42.31637
# Shear Modulus (GPa) = 23.10874 35.32651 29.21762
#
# Velocity S-wave (km/s) = 3.31647 4.10052 3.72916
# Velocity P-wave (km/s) = 5.17839 7.10992 6.21959
#
# Compressibility (1/GPa) = 0.03917305
#
# Stress axis : x y z
#
# Youngs Moduli (GPa) = 89.55899 42.52904 43.26835
#
# Poissons Ratio (x) = 0.08611 0.05761
# Poissons Ratio (y) = 0.18133 0.25756
# Poissons Ratio (z) = 0.11925 0.25316
#
# Static dielectric constant tensor:
#      x y z
#    x 1.826540 -0.040550 -0.021540 
#    y -0.040550 1.750490 -0.015590 
#    z -0.021540 -0.015590 1.800840 
# 
# From -- ./inp_files/610745.got.cif
#   From: 2010.05.17/outbox.cif.g08.bks.cpg/sg2_306_cif.got.tgz:610745.got - 2010.06.03 11:33:40.
