data_PCOD9087481
_publ_section_title
;
Structure prediction by ZEFSAII (Michael W. Deem and Ramdas Pophale) SiO2 
 PCOD9087481
Probable space group: P -1
;
_chemical_formula_sum "Si O2"
_cell_formula_units_Z 14
_cell_length_a 10.873504
_cell_length_b 7.662419
_cell_length_c 13.923629
_cell_angle_alpha 139.206246
_cell_angle_beta 126.249113
_cell_angle_gamma 53.229370
_cell_volume 585.605190
_symmetry_space_group_name_H-M "P -1"
_symmetry_group_IT_number 2
_symmetry_cell_setting 'triclinic'
loop_
_space_group_symop_operation_xyz
x,y,z
-x,-y,-z
loop_
_atom_site_type_symbol
_atom_site_label
_atom_site_fract_x
_atom_site_fract_y
_atom_site_fract_z
Si Si1 0.222890 0.103898 0.756814
Si Si2 0.682328 0.426272 0.527312
Si Si3 0.839768 0.311695 0.964877
Si Si4 0.664132 0.761387 0.460754
Si Si5 0.725418 0.215118 0.167348
Si Si6 0.205685 0.149909 0.130867
Si Si7 0.934314 0.055264 0.715675
O O1 0.246786 0.406327 0.902113
O O2 0.039338 0.133163 0.713139
O O3 0.259002 0.905360 0.599636
O O4 0.319437 0.930385 0.819103
O O5 0.500000 0.500000 0.500000
O O6 0.706254 0.570935 0.497553
O O7 0.751941 0.575169 0.704776
O O8 0.020474 0.235090 0.053643
O O9 0.853560 0.314509 0.857138
O O10 0.770334 0.060064 0.855368
O O11 0.651503 0.544274 0.280863
O O12 0.500000 0.000000 0.500000
O O13 0.805644 0.899651 0.565364
O O14 0.919264 0.152976 0.242040
O O15 0.701243 0.042087 0.992316
#
# Coordination Sequence:
#
# PCOD9087481 Si02
#       7
#     2   2   2   2   2   2   2
#     4   9  21  38  65  87 122 157 212 246 307 356
#     4  11  25  45  56  88 129 170 197 255 312 366
#     4  10  19  36  64 100 116 152 205 263 304 353
#     4  11  22  40  62  92 123 167 208 248 303 373
#     4   8  20  38  63  90 116 162 207 251 303 354
#     4  10  21  37  64  88 127 155 204 254 308 360
#     4   9  18  36  67  88 121 155 207 253 297 360
#
# _framework density 23.906890000000001
#
# number of rings (size 3 to 8) (size 9 to 14) (size 15 to 20)
#    0.857    1.429    1.429    0.857    0.000    2.857 
#    2.571    2.857    0.000    0.000    0.000    0.000 
#    0.000    0.000    0.000    0.000    0.000    0.000 
#
# Total GULP energy -78168.846812 kJ/mol
# GULP energy per Si atom -5583.489058 kJ/mol
# Density = 2.385248 g / cm^3
# Si number density = 23.906890 Si / 1000 Ang^3
#
#
#
# Elastic Constant Matrix: (Units=GPa)
#
#
# Indices 1 2 3 4 5 6 
#
# 1 51.1557 6.3716 33.4390 0.4994 -15.6842 -0.5598
# 2 6.3716 34.6996 21.1636 9.6287 -14.5497 -3.6249
# 3 33.4390 21.1636 170.4318 27.7294 -57.0989 -7.4113
# 4 0.4994 9.6287 27.7294 33.5857 -1.8874 -12.3962
# 5 -15.6842 -14.5497 -57.0989 -1.8874 38.4983 6.2453
# 6 -0.5598 -3.6249 -7.4113 -12.3962 6.2453 19.4295
#
#
#
# Elastic Compliance Matrix: (Units=1/GPa)
#
#
# Indices 1 2 3 4 5 6 
#
# 1 0.023222 -0.001424 -0.003730 0.003327 0.003561 -0.000041
# 2 -0.001424 0.039597 0.005980 -0.018587 0.023953 -0.009931
# 3 -0.003730 0.005980 0.018440 -0.020606 0.029443 -0.014569
# 4 0.003327 -0.018587 -0.020606 0.065956 -0.040092 0.043736
# 5 0.003561 0.023953 0.029443 -0.040092 0.084155 -0.036827
# 6 -0.000041 -0.009931 -0.014569 0.043736 -0.036827 0.083798
#
#
# Mechanical properties :
#
#
# Convention : Reuss Voigt Hill
#
# Bulk Modulus (GPa) = 12.06100 42.02617 27.04359
# Shear Modulus (GPa) = 14.65615 31.32356 22.98985
#
# Velocity S-wave (km/s) = 2.47867 3.62364 3.10440
# Velocity P-wave (km/s) = 3.63974 5.92663 4.91796
#
# Compressibility (1/GPa) = 0.08291183
#
# Stress axis : x y z
#
# Youngs Moduli (GPa) = 43.06213 25.25428 54.23067
#
# Poissons Ratio (x) = 0.03596 0.20225
# Poissons Ratio (y) = 0.06131 -0.32428
# Poissons Ratio (z) = 0.16060 -0.15101
#
# Static dielectric constant tensor:
#      x y z
#    x 1.901360 0.046960 -0.040230 
#    y 0.046960 2.036440 -0.017170 
#    z -0.040230 -0.017170 1.904340 
# 
# From -- ./inp_files/402481.got.cif
#   From: 2010.05.17/outbox.cif.g08.bks.cpg/sg2_202_cif.got.tgz:402481.got - 2010.06.03 11:33:40.
