data_PCOD9087354
_publ_section_title
;
Structure prediction by ZEFSAII (Michael W. Deem and Ramdas Pophale) SiO2 
 PCOD9087354
Probable space group: P -1
;
_chemical_formula_sum "Si O2"
_cell_formula_units_Z 16
_cell_length_a 9.733933
_cell_length_b 18.937919
_cell_length_c 10.871985
_cell_angle_alpha 161.694867
_cell_angle_beta 97.829316
_cell_angle_gamma 80.794412
_cell_volume 620.557222
_symmetry_space_group_name_H-M "P -1"
_symmetry_group_IT_number 2
_symmetry_cell_setting 'triclinic'
loop_
_space_group_symop_operation_xyz
x,y,z
-x,-y,-z
loop_
_atom_site_type_symbol
_atom_site_label
_atom_site_fract_x
_atom_site_fract_y
_atom_site_fract_z
Si Si1 0.190052 0.675867 0.706157
Si Si2 0.946895 0.931286 0.248156
Si Si3 0.636245 0.964951 0.287454
Si Si4 0.689909 0.526475 0.836867
Si Si5 0.905967 0.223118 0.507808
Si Si6 0.431684 0.662087 0.906170
Si Si7 0.440642 0.259051 0.609086
Si Si8 0.178802 0.115140 0.252134
O O1 0.201791 0.492515 0.293773
O O2 0.315056 0.614965 0.716576
O O3 0.053795 0.748464 0.889788
O O4 0.205586 0.903467 0.001284
O O5 0.791689 0.859853 0.111705
O O6 0.931033 0.163487 0.551954
O O7 0.000000 0.000000 0.500000
O O8 0.564281 0.062819 0.315600
O O9 0.641500 0.181505 0.736973
O O10 0.538631 0.805018 0.081139
O O11 0.770646 0.376373 0.702875
O O12 0.541666 0.471903 0.669196
O O13 0.639312 0.745269 0.273547
O O14 0.052450 0.283243 0.568926
O O15 0.879251 0.985803 0.045421
O O16 0.323332 0.220018 0.432248
O O17 0.500000 0.500000 0.000000
#
# Coordination Sequence:
#
# PCOD9087354 Si02
#       8
#     2   2   2   2   2   2   2   2
#     4  10  19  39  64  91 121 169 217 263 313 380
#     4  11  21  37  66  91 125 163 215 268 315 376
#     4  10  21  37  59  95 122 166 220 258 313 390
#     4  10  22  37  62  94 127 162 211 265 318 381
#     4   9  20  39  63  95 125 162 216 263 323 376
#     4  10  19  36  63  86 125 168 212 257 319 381
#     4  11  22  39  62  95 134 169 211 262 324 382
#     4   9  19  39  66  90 125 170 212 264 313 387
#
# _framework density 25.783277999999999
#
# number of rings (size 3 to 8) (size 9 to 14) (size 15 to 20)
#    0.000    2.000    2.500    1.875    0.000    0.500 
#    2.250    3.750    0.000    0.000    0.000    0.000 
#    0.000    0.000    0.000    0.000    0.000    0.000 
#
# Total GULP energy -89431.633411 kJ/mol
# GULP energy per Si atom -5589.477088 kJ/mol
# Density = 2.572459 g / cm^3
# Si number density = 25.783278 Si / 1000 Ang^3
#
#
#
# Elastic Constant Matrix: (Units=GPa)
#
#
# Indices 1 2 3 4 5 6 
#
# 1 167.9134 61.0122 39.3981 -6.8211 -14.1302 -20.3377
# 2 61.0122 141.0101 24.7483 -5.7840 -7.5900 -38.9586
# 3 39.3981 24.7483 49.2005 -6.5213 -6.0845 0.2103
# 4 -6.8211 -5.7840 -6.5213 40.4545 1.9826 -5.9781
# 5 -14.1302 -7.5900 -6.0845 1.9826 46.7351 -3.2133
# 6 -20.3377 -38.9586 0.2103 -5.9781 -3.2133 48.7302
#
#
#
# Elastic Compliance Matrix: (Units=1/GPa)
#
#
# Indices 1 2 3 4 5 6 
#
# 1 0.008361 -0.001974 -0.005447 0.000480 0.001622 0.002101
# 2 -0.001974 0.011011 -0.003601 0.001828 0.001216 0.008299
# 3 -0.005447 -0.003601 0.026906 0.002131 0.000840 -0.004951
# 4 0.000480 0.001828 0.002131 0.026125 -0.000055 0.004854
# 5 0.001622 0.001216 0.000840 -0.000055 0.022411 0.003116
# 6 0.002101 0.008299 -0.004951 0.004854 0.003116 0.028855
#
#
# Mechanical properties :
#
#
# Convention : Reuss Voigt Hill
#
# Bulk Modulus (GPa) = 41.26432 67.60458 54.43445
# Shear Modulus (GPa) = 32.51161 42.71500 37.61330
#
# Velocity S-wave (km/s) = 3.55485 4.07467 3.82360
# Velocity P-wave (km/s) = 5.73483 6.95805 6.37584
#
# Compressibility (1/GPa) = 0.02423401
#
# Stress axis : x y z
#
# Youngs Moduli (GPa) = 119.59744 90.81662 37.16712
#
# Poissons Ratio (x) = 0.17931 0.20245
# Poissons Ratio (y) = 0.23614 0.13382
# Poissons Ratio (z) = 0.65145 0.32699
#
# Static dielectric constant tensor:
#      x y z
#    x 2.053720 0.043690 -0.020460 
#    y 0.043690 2.097380 0.015220 
#    z -0.020460 0.015220 2.071570 
# 
# From -- ./inp_files/405776.got.cif
#   From: 2010.05.17/outbox.cif.g08.bks.cpg/sg2_203_cif.got.tgz:405776.got - 2010.06.03 11:33:40.
