data_PCOD9087176
_publ_section_title
;
Structure prediction by ZEFSAII (Michael W. Deem and Ramdas Pophale) SiO2 
 PCOD9087176
Probable space group: P -1
;
_chemical_formula_sum "Si O2"
_cell_formula_units_Z 16
_cell_length_a 9.606011
_cell_length_b 10.849969
_cell_length_c 11.798869
_cell_angle_alpha 130.400141
_cell_angle_beta 54.961316
_cell_angle_gamma 109.120577
_cell_volume 764.804717
_symmetry_space_group_name_H-M "P -1"
_symmetry_group_IT_number 2
_symmetry_cell_setting 'triclinic'
loop_
_space_group_symop_operation_xyz
x,y,z
-x,-y,-z
loop_
_atom_site_type_symbol
_atom_site_label
_atom_site_fract_x
_atom_site_fract_y
_atom_site_fract_z
Si Si1 0.143596 0.106325 0.541337
Si Si2 0.023539 0.635385 0.717220
Si Si3 0.194738 0.944313 0.848493
Si Si4 0.740782 0.629284 0.673385
Si Si5 0.085670 0.489518 0.831374
Si Si6 0.537093 0.828015 0.698474
Si Si7 0.444772 0.412269 0.666508
Si Si8 0.668358 0.887556 0.325763
O O1 0.094432 0.300532 0.674557
O O2 0.321152 0.070076 0.368919
O O3 0.183403 0.069739 0.631777
O O4 0.000000 0.000000 0.500000
O O5 0.157687 0.768929 0.709244
O O6 0.113524 0.465999 0.528297
O O7 0.002608 0.606065 0.843464
O O8 0.846969 0.681854 0.763055
O O9 0.347160 0.911748 0.848971
O O10 0.270865 0.068363 0.799668
O O11 0.000000 0.000000 0.000000
O O12 0.631354 0.759747 0.726069
O O13 0.603175 0.501098 0.689978
O O14 0.281644 0.531568 0.781003
O O15 0.000000 0.500000 0.000000
O O16 0.518991 0.686575 0.526980
O O17 0.378368 0.290521 0.719552
O O18 0.500000 0.000000 0.500000
#
# Coordination Sequence:
#
# PCOD9087176 Si02
#       8
#     2   2   2   2   2   2   2   2
#     4  10  22  37  65  93 126 165 220 268 321 381
#     4  11  23  37  64  96 123 158 212 267 324 373
#     4  12  25  39  61  91 130 169 216 261 316 393
#     4  11  20  38  65  95 120 149 214 283 314 365
#     4  10  22  41  61  91 126 167 211 258 325 392
#     4  10  19  40  60  92 122 168 215 262 318 385
#     4  10  19  36  62  86 118 164 216 256 316 385
#     4  10  19  38  60  88 116 167 213 259 310 380
#
# _framework density 20.920373999999999
#
# number of rings (size 3 to 8) (size 9 to 14) (size 15 to 20)
#    0.000    1.750    6.250    1.125    5.250    1.000 
#    0.000    2.500    0.000    0.000    0.000    0.000 
#    0.000    0.000    0.000    0.000    0.000    0.000 
#
# Total GULP energy -89216.907231 kJ/mol
# GULP energy per Si atom -5576.056702 kJ/mol
# Density = 2.087276 g / cm^3
# Si number density = 20.920374 Si / 1000 Ang^3
#
#
#
# Elastic Constant Matrix: (Units=GPa)
#
#
# Indices 1 2 3 4 5 6 
#
# 1 185.8380 58.3989 25.7429 -7.6325 -20.7938 -9.3289
# 2 58.3989 78.2567 16.9888 -16.1440 3.6690 -24.4111
# 3 25.7429 16.9888 55.3864 -13.6752 -24.1332 -9.6418
# 4 -7.6325 -16.1440 -13.6752 24.3615 -2.3861 1.0200
# 5 -20.7938 3.6690 -24.1332 -2.3861 30.2215 0.8536
# 6 -9.3289 -24.4111 -9.6418 1.0200 0.8536 44.1525
#
#
#
# Elastic Compliance Matrix: (Units=1/GPa)
#
#
# Indices 1 2 3 4 5 6 
#
# 1 0.008368 -0.007829 0.001127 -0.001089 0.007590 -0.002436
# 2 -0.007829 0.026038 -0.005052 0.010294 -0.012098 0.011634
# 3 0.001127 -0.005052 0.041781 0.023809 0.036482 0.005313
# 4 -0.001089 0.010294 0.023809 0.062653 0.021712 0.008793
# 5 0.007590 -0.012098 0.036482 0.021712 0.070599 0.001015
# 6 -0.002436 0.011634 0.005313 0.008793 0.001015 0.029504
#
#
# Mechanical properties :
#
#
# Convention : Reuss Voigt Hill
#
# Bulk Modulus (GPa) = 18.98383 57.97138 38.47761
# Shear Modulus (GPa) = 17.85648 34.30380 26.08014
#
# Velocity S-wave (km/s) = 2.92472 4.05375 3.53461
# Velocity P-wave (km/s) = 4.52762 7.04849 5.92370
#
# Compressibility (1/GPa) = 0.05267641
#
# Stress axis : x y z
#
# Youngs Moduli (GPa) = 119.50878 38.40555 23.93443
#
# Poissons Ratio (x) = 0.30069 -0.02697
# Poissons Ratio (y) = 0.93568 0.12092
# Poissons Ratio (z) = -0.13465 0.19404
#
# Static dielectric constant tensor:
#      x y z
#    x 1.747910 -0.034300 -0.014560 
#    y -0.034300 1.797980 0.037810 
#    z -0.014560 0.037810 1.680670 
# 
# From -- ./inp_files/390927.got.cif
#   From: 2010.05.17/outbox.cif.g08.bks.cpg/sg2_196_cif.got.tgz:390927.got - 2010.06.03 11:33:40.
