data_PCOD9087967
_publ_section_title
;
Structure prediction by ZEFSAII (Michael W. Deem and Ramdas Pophale) SiO2 
 PCOD9087967
Probable space group: P -1
;
_chemical_formula_sum "Si O2"
_cell_formula_units_Z 14
_cell_length_a 12.848160
_cell_length_b 9.607810
_cell_length_c 7.877150
_cell_angle_alpha 92.345535
_cell_angle_beta 90.631601
_cell_angle_gamma 145.843339
_cell_volume 543.741576
_symmetry_space_group_name_H-M "P -1"
_symmetry_group_IT_number 2
_symmetry_cell_setting 'triclinic'
loop_
_space_group_symop_operation_xyz
x,y,z
-x,-y,-z
loop_
_atom_site_type_symbol
_atom_site_label
_atom_site_fract_x
_atom_site_fract_y
_atom_site_fract_z
Si Si1 0.139148 0.472987 0.248441
Si Si2 0.543476 0.868383 0.193325
Si Si3 0.453305 0.730207 0.834385
Si Si4 0.192427 0.632932 0.621218
Si Si5 0.549707 0.565297 0.304023
Si Si6 0.039040 0.300605 0.893262
Si Si7 0.986557 0.006196 0.299829
O O1 0.355186 0.741643 0.228689
O O2 0.112346 0.519528 0.428806
O O3 0.008883 0.342356 0.073468
O O4 0.105151 0.272100 0.273661
O O5 0.505257 0.665487 0.229138
O O6 0.712480 0.115953 0.319317
O O7 0.580951 0.932736 0.996175
O O8 0.369929 0.722488 0.670997
O O9 0.533106 0.669589 0.783572
O O10 0.257551 0.498748 0.920297
O O11 0.041847 0.412201 0.744748
O O12 0.500000 0.500000 0.500000
O O13 0.767490 0.792449 0.270596
O O14 0.952951 0.059869 0.815106
O O15 0.000000 0.000000 0.500000
#
# Coordination Sequence:
#
# PCOD9087967 Si02
#       7
#     2   2   2   2   2   2   2
#     4  11  20  34  61  86 115 153 194 234 286 340
#     4  11  21  35  60  89 118 151 188 245 292 333
#     4   8  18  35  56  81 117 149 190 233 280 339
#     4  10  19  37  57  90 120 149 195 235 279 347
#     4  11  22  37  56  89 117 149 197 240 293 336
#     4   8  19  33  57  89 110 146 197 237 277 332
#     4  11  19  38  60  81 117 154 194 242 280 345
#
# _framework density 25.747523000000001
#
# number of rings (size 3 to 8) (size 9 to 14) (size 15 to 20)
#    0.857    1.143    1.429    3.429    0.000    0.000 
#    0.000    2.143    0.000    0.857    0.000    0.000 
#    0.000    0.000    0.000    0.000    0.000    0.000 
#
# Total GULP energy -78121.889865 kJ/mol
# GULP energy per Si atom -5580.134990 kJ/mol
# Density = 2.568892 g / cm^3
# Si number density = 25.747523 Si / 1000 Ang^3
#
#
#
# Elastic Constant Matrix: (Units=GPa)
#
#
# Indices 1 2 3 4 5 6 
#
# 1 85.6581 34.5150 38.0428 -3.9446 6.0740 -4.8069
# 2 34.5150 76.1707 43.4968 8.3311 -6.6814 -8.5207
# 3 38.0428 43.4968 205.7278 21.0979 4.7222 -16.8140
# 4 -3.9446 8.3311 21.0979 35.1664 -7.5760 7.2583
# 5 6.0740 -6.6814 4.7222 -7.5760 35.4076 -3.8043
# 6 -4.8069 -8.5207 -16.8140 7.2583 -3.8043 47.2822
#
#
#
# Elastic Compliance Matrix: (Units=1/GPa)
#
#
# Indices 1 2 3 4 5 6 
#
# 1 0.015599 -0.006830 -0.001891 0.004109 -0.002961 -0.001186
# 2 -0.006830 0.018554 -0.002184 -0.003448 0.004524 0.002766
# 3 -0.001891 -0.002184 0.006329 -0.004292 -0.001614 0.002194
# 4 0.004109 -0.003448 -0.004292 0.034943 0.005983 -0.006613
# 5 -0.002961 0.004524 -0.001614 0.005983 0.031265 0.001537
# 6 -0.001186 0.002766 0.002194 -0.006613 0.001537 0.023446
#
#
# Mechanical properties :
#
#
# Convention : Reuss Voigt Hill
#
# Bulk Modulus (GPa) = 53.55876 66.62954 60.09415
# Shear Modulus (GPa) = 31.61170 40.33804 35.97487
#
# Velocity S-wave (km/s) = 3.50774 3.96242 3.74199
# Velocity P-wave (km/s) = 6.10347 6.84606 6.48540
#
# Compressibility (1/GPa) = 0.01867108
#
# Stress axis : x y z
#
# Youngs Moduli (GPa) = 64.10702 53.89712 158.01008
#
# Poissons Ratio (x) = 0.36814 0.29876
# Poissons Ratio (y) = 0.43788 0.34509
# Poissons Ratio (z) = 0.12121 0.11771
#
# Static dielectric constant tensor:
#      x y z
#    x 2.114960 -0.011530 0.001210 
#    y -0.011530 2.012450 0.020300 
#    z 0.001210 0.020300 2.070970 
# 
# From -- ./inp_files/299141.got.cif
#   From: 2010.05.17/outbox.cif.g08.bks.cpg/sg2_150_cif.got.tgz:299141.got - 2010.06.03 11:33:40.
