data_PCOD9087644
_publ_section_title
;
Structure prediction by ZEFSAII (Michael W. Deem and Ramdas Pophale) SiO2 
 PCOD9087644
Probable space group: P -1
;
_chemical_formula_sum "Si O2"
_cell_formula_units_Z 16
_cell_length_a 8.050574
_cell_length_b 18.226082
_cell_length_c 9.584441
_cell_angle_alpha 78.071490
_cell_angle_beta 60.024867
_cell_angle_gamma 34.504630
_cell_volume 626.957906
_symmetry_space_group_name_H-M "P -1"
_symmetry_group_IT_number 2
_symmetry_cell_setting 'triclinic'
loop_
_space_group_symop_operation_xyz
x,y,z
-x,-y,-z
loop_
_atom_site_type_symbol
_atom_site_label
_atom_site_fract_x
_atom_site_fract_y
_atom_site_fract_z
Si Si1 0.872834 0.030636 0.199617
Si Si2 0.101371 0.461675 0.781166
Si Si3 0.183878 0.118576 0.306603
Si Si4 0.503212 0.448557 0.885453
Si Si5 0.508796 0.755952 0.510135
Si Si6 0.002162 0.662396 0.822741
Si Si7 0.518026 0.863979 0.200112
Si Si8 0.081650 0.805396 0.312780
O O1 0.177637 0.959228 0.206392
O O2 0.921541 0.926614 0.246006
O O3 0.522429 0.190424 0.349504
O O4 0.000000 0.000000 0.000000
O O5 0.154512 0.404734 0.630060
O O6 0.506349 0.319901 0.741167
O O7 0.791879 0.518670 0.969801
O O8 0.970954 0.591737 0.791205
O O9 0.159331 0.212777 0.235673
O O10 0.817647 0.197204 0.377304
O O11 0.164114 0.122922 0.478476
O O12 0.508589 0.956960 0.183011
O O13 0.500000 0.500000 0.000000
O O14 0.875914 0.281218 0.766781
O O15 0.424844 0.520473 0.747392
O O16 0.464975 0.835574 0.377131
O O17 0.837561 0.726517 0.023049
#
# Coordination Sequence:
#
# PCOD9087644 Si02
#       8
#     2   2   2   2   2   2   2   2
#     4  11  20  34  61  95 121 159 205 254 311 368
#     4  10  20  38  66  89 116 169 215 245 300 373
#     4  10  20  34  62  95 119 153 215 265 285 348
#     4  11  23  37  60  89 125 161 199 260 320 364
#     4  10  19  36  65  88 122 162 209 249 305 365
#     4  11  22  37  65  95 120 161 220 253 290 372
#     4  11  18  38  63  91 123 165 214 249 300 369
#     4  10  19  38  61  86 122 166 203 252 306 369
#
# _framework density 25.520052
#
# number of rings (size 3 to 8) (size 9 to 14) (size 15 to 20)
#    0.000    1.500    5.000    3.375    0.000    6.500 
#    0.000    1.250    0.000   13.500    0.000    0.000 
#    0.000    0.000    0.000    0.000    0.000    0.125 
#
# Total GULP energy -89322.327000 kJ/mol
# GULP energy per Si atom -5582.645437 kJ/mol
# Density = 2.546197 g / cm^3
# Si number density = 25.520052 Si / 1000 Ang^3
#
#
#
# Elastic Constant Matrix: (Units=GPa)
#
#
# Indices 1 2 3 4 5 6 
#
# 1 81.0458 44.0335 12.3066 1.9745 8.8165 24.2498
# 2 44.0335 165.7873 59.7643 5.6705 18.8780 68.3717
# 3 12.3066 59.7643 125.3407 9.3687 33.2607 36.6733
# 4 1.9745 5.6705 9.3687 52.1405 13.5902 10.5902
# 5 8.8165 18.8780 33.2607 13.5902 39.4538 22.6881
# 6 24.2498 68.3717 36.6733 10.5902 22.6881 53.5529
#
#
#
# Elastic Compliance Matrix: (Units=1/GPa)
#
#
# Indices 1 2 3 4 5 6 
#
# 1 0.014857 -0.002749 0.001169 0.000551 -0.001066 -0.003676
# 2 -0.002749 0.014646 -0.003156 0.001121 0.006349 -0.018204
# 3 0.001169 -0.003156 0.011880 0.000567 -0.008239 -0.001258
# 4 0.000551 0.001121 0.000567 0.021336 -0.006440 -0.003560
# 5 -0.001066 0.006349 -0.008239 -0.006440 0.042462 -0.018697
# 6 -0.003676 -0.018204 -0.001258 -0.003560 -0.018697 0.053065
#
#
# Mechanical properties :
#
#
# Convention : Reuss Voigt Hill
#
# Bulk Modulus (GPa) = 31.33641 67.15365 49.24503
# Shear Modulus (GPa) = 28.03408 46.10074 37.06741
#
# Velocity S-wave (km/s) = 3.31798 4.25485 3.81528
# Velocity P-wave (km/s) = 5.19465 7.10700 6.22471
#
# Compressibility (1/GPa) = 0.03191176
#
# Stress axis : x y z
#
# Youngs Moduli (GPa) = 67.30742 68.27925 84.17533
#
# Poissons Ratio (x) = 0.18772 -0.09843
# Poissons Ratio (y) = 0.18504 0.26563
# Poissons Ratio (z) = -0.07871 0.21547
#
# Static dielectric constant tensor:
#      x y z
#    x 2.190960 -0.165330 -0.069830 
#    y -0.165330 2.405290 0.230730 
#    z -0.069830 0.230730 2.106300 
# 
# From -- ./inp_files/217445.got.cif
#   From: 2010.05.17/outbox.cif.g08.bks.cpg/sg2_109_cif.got.tgz:217445.got - 2010.06.03 11:33:40.
