data_PCOD9087054
_publ_section_title
;
Structure prediction by ZEFSAII (Michael W. Deem and Ramdas Pophale) SiO2 
 PCOD9087054
Probable space group: P -1
;
_chemical_formula_sum "Si O2"
_cell_formula_units_Z 14
_cell_length_a 8.205438
_cell_length_b 18.135381
_cell_length_c 10.541394
_cell_angle_alpha 150.589741
_cell_angle_beta 82.060104
_cell_angle_gamma 80.785716
_cell_volume 623.291616
_symmetry_space_group_name_H-M "P -1"
_symmetry_group_IT_number 2
_symmetry_cell_setting 'triclinic'
loop_
_space_group_symop_operation_xyz
x,y,z
-x,-y,-z
loop_
_atom_site_type_symbol
_atom_site_label
_atom_site_fract_x
_atom_site_fract_y
_atom_site_fract_z
Si Si1 0.968276 0.762760 0.583783
Si Si2 0.144342 0.494283 0.367095
Si Si3 0.097880 0.076272 0.690069
Si Si4 0.764497 0.108541 0.323133
Si Si5 0.423156 0.115366 0.311306
Si Si6 0.722530 0.320565 0.217437
Si Si7 0.555870 0.112465 0.814021
O O1 0.033383 0.576347 0.369935
O O2 0.146078 0.772964 0.526434
O O3 0.813910 0.787435 0.529161
O O4 0.857759 0.939005 0.957580
O O5 0.198413 0.642207 0.609558
O O6 0.000000 0.500000 0.500000
O O7 0.357182 0.296296 0.054453
O O8 0.169298 0.978698 0.673461
O O9 0.292487 0.027172 0.518758
O O10 0.000000 0.000000 0.500000
O O11 0.898787 0.280984 0.042961
O O12 0.526853 0.221098 0.483367
O O13 0.507608 0.978055 0.215253
O O14 0.500000 0.000000 0.000000
O O15 0.500000 0.500000 0.500000
O O16 0.683572 0.166174 0.966161
#
# Coordination Sequence:
#
# PCOD9087054 Si02
#       7
#     2   2   2   2   2   2   2
#     4  10  20  36  61  84 121 158 210 255 301 360
#     4  11  21  37  57  89 122 156 205 258 305 357
#     4  10  19  36  61  90 124 157 204 250 309 371
#     4  10  20  35  59  88 118 163 202 255 307 363
#     4  10  21  36  58  91 122 156 212 252 299 371
#     4   9  19  35  58  85 121 155 196 248 307 357
#     4  10  22  37  58  93 121 156 200 256 311 364
#
# _framework density 22.461397000000002
#
# number of rings (size 3 to 8) (size 9 to 14) (size 15 to 20)
#    0.000    2.000    1.429    3.429    4.000    0.571 
#    2.571    0.714    0.000    0.857    0.000    0.000 
#    0.000    0.000    0.000    0.000    0.000    0.000 
#
# Total GULP energy -77938.008745 kJ/mol
# GULP energy per Si atom -5567.000625 kJ/mol
# Density = 2.241027 g / cm^3
# Si number density = 22.461397 Si / 1000 Ang^3
#
#
#
# Elastic Constant Matrix: (Units=GPa)
#
#
# Indices 1 2 3 4 5 6 
#
# 1 171.7248 40.3479 28.7349 10.0708 -2.1115 -10.7339
# 2 40.3479 88.8873 19.1509 10.6485 1.1840 5.3813
# 3 28.7349 19.1509 58.9363 -0.5839 -24.4824 1.0980
# 4 10.0708 10.6485 -0.5839 29.8404 -3.7103 -5.9068
# 5 -2.1115 1.1840 -24.4824 -3.7103 30.7167 -10.5081
# 6 -10.7339 5.3813 1.0980 -5.9068 -10.5081 38.2978
#
#
#
# Elastic Compliance Matrix: (Units=1/GPa)
#
#
# Indices 1 2 3 4 5 6 
#
# 1 0.007144 -0.002385 -0.003508 -0.001516 -0.001812 0.001707
# 2 -0.002385 0.015539 -0.008187 -0.007519 -0.010472 -0.006650
# 3 -0.003508 -0.008187 0.034701 0.010727 0.032347 0.009702
# 4 -0.001516 -0.007519 0.010727 0.041406 0.017693 0.011565
# 5 -0.001812 -0.010472 0.032347 0.017693 0.068091 0.021448
# 6 0.001707 -0.006650 0.009702 0.011565 0.021448 0.034914
#
#
# Mechanical properties :
#
#
# Convention : Reuss Voigt Hill
#
# Bulk Modulus (GPa) = 34.21764 55.11286 44.66525
# Shear Modulus (GPa) = 20.85970 35.19196 28.02583
#
# Velocity S-wave (km/s) = 3.05075 3.96255 3.53616
# Velocity P-wave (km/s) = 5.26084 6.74727 6.04988
#
# Compressibility (1/GPa) = 0.02922469
#
# Stress axis : x y z
#
# Youngs Moduli (GPa) = 139.98124 64.35227 28.81762
#
# Poissons Ratio (x) = 0.15345 0.10108
# Poissons Ratio (y) = 0.33379 0.23594
# Poissons Ratio (z) = 0.49102 0.52688
#
# Static dielectric constant tensor:
#      x y z
#    x 1.892410 0.077800 0.108630 
#    y 0.077800 1.678750 -0.177710 
#    z 0.108630 -0.177710 1.748800 
# 
# From -- ./inp_files/405092.got.cif
#   From: 2010.05.17/outbox.cif.g08.bks.cpg/sg2_203_cif.got.tgz:405092.got - 2010.06.03 11:33:40.
