data_PCOD9087005
_publ_section_title
;
Structure prediction by ZEFSAII (Michael W. Deem and Ramdas Pophale) SiO2 
 PCOD9087005
Probable space group: P -1
;
_chemical_formula_sum "Si O2"
_cell_formula_units_Z 16
_cell_length_a 9.732861
_cell_length_b 16.673272
_cell_length_c 5.537477
_cell_angle_alpha 51.876934
_cell_angle_beta 100.542903
_cell_angle_gamma 97.611688
_cell_volume 694.772549
_symmetry_space_group_name_H-M "P -1"
_symmetry_group_IT_number 2
_symmetry_cell_setting 'triclinic'
loop_
_space_group_symop_operation_xyz
x,y,z
-x,-y,-z
loop_
_atom_site_type_symbol
_atom_site_label
_atom_site_fract_x
_atom_site_fract_y
_atom_site_fract_z
Si Si1 0.919290 0.389378 0.713295
Si Si2 0.655749 0.630881 0.758554
Si Si3 0.510496 0.065312 0.133221
Si Si4 0.200384 0.958375 0.696129
Si Si5 0.064613 0.081196 0.051217
Si Si6 0.961659 0.619315 0.731346
Si Si7 0.394190 0.552832 0.554362
Si Si8 0.734299 0.838199 0.350635
O O1 0.955557 0.341674 0.552082
O O2 0.751451 0.401142 0.669237
O O3 0.000000 0.500000 0.500000
O O4 0.985583 0.337972 0.068834
O O5 0.503142 0.627355 0.593769
O O6 0.689899 0.742169 0.674892
O O7 0.792233 0.618402 0.655550
O O8 0.655826 0.537584 0.114529
O O9 0.500000 0.000000 0.500000
O O10 0.667457 0.111115 0.108755
O O11 0.391694 0.145562 0.906676
O O12 0.500000 0.000000 0.000000
O O13 0.184042 0.013554 0.334297
O O14 0.232798 0.058527 0.685479
O O15 0.055425 0.902682 0.822121
O O16 0.129331 0.173640 0.749979
O O17 0.000000 0.000000 0.000000
O O18 0.000000 0.500000 0.000000
O O19 0.500000 0.500000 0.500000
#
# Coordination Sequence:
#
# PCOD9087005 Si02
#       8
#     2   2   2   2   2   2   2   2
#     4  10  19  36  64  84 113 152 214 251 308 388
#     4  11  24  38  61  92 124 161 218 272 319 375
#     4  10  19  36  61  88 119 168 202 242 307 385
#     4   9  18  34  60  87 120 161 203 242 303 381
#     4   9  17  33  59  87 116 156 200 247 300 366
#     4  10  19  38  61  89 110 160 209 256 314 381
#     4  11  23  39  62  88 122 171 211 265 329 381
#     4  10  21  37  58  91 122 158 208 262 308 366
#
# _framework density 23.029118
#
# number of rings (size 3 to 8) (size 9 to 14) (size 15 to 20)
#    0.000    2.000    3.750    1.500    1.750    1.000 
#    0.000    1.250    5.500    0.000    0.000    0.000 
#    0.000    0.000    0.000    0.000    0.000    0.000 
#
# Total GULP energy -89098.969440 kJ/mol
# GULP energy per Si atom -5568.685590 kJ/mol
# Density = 2.297670 g / cm^3
# Si number density = 23.029118 Si / 1000 Ang^3
#
#
#
# Elastic Constant Matrix: (Units=GPa)
#
#
# Indices 1 2 3 4 5 6 
#
# 1 150.9716 21.8504 31.7901 7.4377 10.6912 17.2870
# 2 21.8504 38.1608 35.1742 3.9675 -8.0236 4.0592
# 3 31.7901 35.1742 84.6252 21.6571 -8.5632 15.5567
# 4 7.4377 3.9675 21.6571 39.5017 7.2800 -7.8455
# 5 10.6912 -8.0236 -8.5632 7.2800 38.9755 7.1134
# 6 17.2870 4.0592 15.5567 -7.8455 7.1134 27.1954
#
#
#
# Elastic Compliance Matrix: (Units=1/GPa)
#
#
# Indices 1 2 3 4 5 6 
#
# 1 0.007979 -0.004001 -0.000523 -0.001195 -0.002183 -0.003949
# 2 -0.004001 0.047614 -0.022667 0.010165 0.002050 0.010799
# 3 -0.000523 -0.022667 0.032936 -0.022692 0.011454 -0.024667
# 4 -0.001195 0.010165 -0.022692 0.045939 -0.016587 0.029815
# 5 -0.002183 0.002050 0.011454 -0.016587 0.035877 -0.019640
# 6 -0.003949 0.010799 -0.024667 0.029815 -0.019640 0.065518
#
#
# Mechanical properties :
#
#
# Convention : Reuss Voigt Hill
#
# Bulk Modulus (GPa) = 29.28579 50.15410 39.71995
# Shear Modulus (GPa) = 16.57680 33.46404 25.02042
#
# Velocity S-wave (km/s) = 2.68586 3.81611 3.29974
# Velocity P-wave (km/s) = 4.72894 6.42206 5.63940
#
# Compressibility (1/GPa) = 0.03414625
#
# Stress axis : x y z
#
# Youngs Moduli (GPa) = 125.33393 21.00221 30.36228
#
# Poissons Ratio (x) = 0.08402 0.01589
# Poissons Ratio (y) = 0.50143 0.68822
# Poissons Ratio (z) = 0.06560 0.47606
#
# Static dielectric constant tensor:
#      x y z
#    x 2.015930 -0.192390 -0.012130 
#    y -0.192390 2.432740 0.295370 
#    z -0.012130 0.295370 2.089950 
# 
# From -- ./inp_files/46343.got.cif
#   From: 2010.05.17/outbox.cif.g08.bks.cpg/sg2_24_cif.got.tgz:46343.got - 2010.06.03 11:33:40.
