data_PCOD9087796
_publ_section_title
;
Structure prediction by ZEFSAII (Michael W. Deem and Ramdas Pophale) SiO2 
 PCOD9087796
Probable space group: P -1
;
_chemical_formula_sum "Si O2"
_cell_formula_units_Z 14
_cell_length_a 5.425241
_cell_length_b 17.624103
_cell_length_c 7.623346
_cell_angle_alpha 111.041630
_cell_angle_beta 67.383126
_cell_angle_gamma 93.586843
_cell_volume 625.568328
_symmetry_space_group_name_H-M "P -1"
_symmetry_group_IT_number 2
_symmetry_cell_setting 'triclinic'
loop_
_space_group_symop_operation_xyz
x,y,z
-x,-y,-z
loop_
_atom_site_type_symbol
_atom_site_label
_atom_site_fract_x
_atom_site_fract_y
_atom_site_fract_z
Si Si1 0.485324 0.095859 0.053328
Si Si2 0.442191 0.359848 0.526292
Si Si3 0.098340 0.221341 0.423378
Si Si4 0.879700 0.347959 0.112999
Si Si5 0.676605 0.338258 0.796897
Si Si6 0.981135 0.825767 0.964589
Si Si7 0.993419 0.488240 0.700881
O O1 0.780455 0.126474 0.984565
O O2 0.319642 0.143834 0.298789
O O3 0.301442 0.123215 0.956777
O O4 0.500000 0.000000 0.000000
O O5 0.271949 0.298435 0.411925
O O6 0.718505 0.360311 0.348976
O O7 0.465110 0.327585 0.692026
O O8 0.286612 0.448466 0.641943
O O9 0.888333 0.257561 0.653231
O O10 0.932354 0.200479 0.279623
O O11 0.040759 0.259663 0.004202
O O12 0.055900 0.424611 0.118835
O O13 0.660917 0.350159 0.018654
O O14 0.801740 0.420736 0.761118
O O15 0.000000 0.500000 0.500000
#
# Coordination Sequence:
#
# PCOD9087796 Si02
#       7
#     2   2   2   2   2   2   2
#     4  10  19  36  68  97 122 162 210 251 314 390
#     4  11  20  42  55  85 117 164 208 261 308 363
#     4   9  19  38  61  84 127 154 205 252 313 363
#     4  12  21  39  61  86 123 162 211 259 309 371
#     4  11  23  38  58  88 120 166 213 253 311 369
#     4  10  20  38  63  92 126 161 206 253 318 366
#     4  11  23  39  58  79 124 166 209 267 308 357
#
# _framework density 22.379650000000002
#
# number of rings (size 3 to 8) (size 9 to 14) (size 15 to 20)
#    0.857    0.571    4.286    2.143    0.000    0.571 
#   15.429    0.000    0.000    1.714    0.000    0.000 
#    0.000    0.000    0.000    0.000    0.000    0.000 
#
# Total GULP energy -78035.455122 kJ/mol
# GULP energy per Si atom -5573.961080 kJ/mol
# Density = 2.232871 g / cm^3
# Si number density = 22.379650 Si / 1000 Ang^3
#
#
#
# Elastic Constant Matrix: (Units=GPa)
#
#
# Indices 1 2 3 4 5 6 
#
# 1 116.4841 48.7382 12.9152 2.4028 13.0850 -15.8679
# 2 48.7382 137.6615 26.6202 27.1547 1.4016 -13.9182
# 3 12.9152 26.6202 65.8138 -4.2537 11.8680 -7.0182
# 4 2.4028 27.1547 -4.2537 25.7300 -5.6384 6.3395
# 5 13.0850 1.4016 11.8680 -5.6384 21.6003 -4.0204
# 6 -15.8679 -13.9182 -7.0182 6.3395 -4.0204 33.2538
#
#
#
# Elastic Compliance Matrix: (Units=1/GPa)
#
#
# Indices 1 2 3 4 5 6 
#
# 1 0.011242 -0.004080 0.000951 0.001356 -0.006183 0.002851
# 2 -0.004080 0.013394 -0.005288 -0.015716 0.001470 0.005717
# 3 0.000951 -0.005288 0.019203 0.006703 -0.009049 -0.000079
# 4 0.001356 -0.015716 0.006703 0.062361 0.009964 -0.015200
# 5 -0.006183 0.001470 -0.009049 0.009964 0.057673 0.000828
# 6 0.002851 0.005717 -0.000079 -0.015200 0.000828 0.036806
#
#
# Mechanical properties :
#
#
# Convention : Reuss Voigt Hill
#
# Bulk Modulus (GPa) = 37.03098 55.16740 46.09919
# Shear Modulus (GPa) = 22.07349 31.56254 26.81802
#
# Velocity S-wave (km/s) = 3.14398 3.75950 3.46543
# Velocity P-wave (km/s) = 5.45547 6.59919 6.05440
#
# Compressibility (1/GPa) = 0.02700442
#
# Stress axis : x y z
#
# Youngs Moduli (GPa) = 88.95546 74.65772 52.07430
#
# Poissons Ratio (x) = 0.30462 -0.04952
# Poissons Ratio (y) = 0.36296 0.27538
# Poissons Ratio (z) = -0.08459 0.39481
#
# Static dielectric constant tensor:
#      x y z
#    x 1.919510 -0.026490 -0.025200 
#    y -0.026490 1.800100 0.000080 
#    z -0.025200 0.000080 1.838540 
# 
# From -- ./inp_files/135471.got.cif
#   From: 2010.05.17/outbox.cif.g08.bks.cpg/sg2_68_cif.got.tgz:135471.got - 2010.06.03 11:33:40.
