data_PCOD9087836
_publ_section_title
;
Structure prediction by ZEFSAII (Michael W. Deem and Ramdas Pophale) SiO2 
 PCOD9087836
Probable space group: P -1
;
_chemical_formula_sum "Si O2"
_cell_formula_units_Z 16
_cell_length_a 17.674372
_cell_length_b 7.699294
_cell_length_c 5.252403
_cell_angle_alpha 89.704241
_cell_angle_beta 65.479976
_cell_angle_gamma 101.523383
_cell_volume 634.064824
_symmetry_space_group_name_H-M "P -1"
_symmetry_group_IT_number 2
_symmetry_cell_setting 'triclinic'
loop_
_space_group_symop_operation_xyz
x,y,z
-x,-y,-z
loop_
_atom_site_type_symbol
_atom_site_label
_atom_site_fract_x
_atom_site_fract_y
_atom_site_fract_z
Si Si1 0.819841 0.174189 0.344322
Si Si2 0.603180 0.549108 0.654099
Si Si3 0.697717 0.182390 0.119108
Si Si4 0.184698 0.072188 0.263651
Si Si5 0.231770 0.419716 0.887348
Si Si6 0.452580 0.682489 0.765669
Si Si7 0.918099 0.531680 0.261135
Si Si8 0.970995 0.116192 0.808923
O O1 0.726408 0.180564 0.376157
O O2 0.815379 0.974429 0.442111
O O3 0.864894 0.344250 0.452321
O O4 0.891040 0.194002 0.027521
O O5 0.698866 0.601891 0.421172
O O6 0.552288 0.707567 0.693759
O O7 0.561367 0.403639 0.497000
O O8 0.588176 0.459381 0.953325
O O9 0.736295 0.391890 0.018064
O O10 0.599580 0.161202 0.177058
O O11 0.749521 0.050033 0.920286
O O12 0.085085 0.004076 0.326783
O O13 0.219574 0.264403 0.108130
O O14 0.145722 0.419244 0.857796
O O15 0.956787 0.708995 0.366196
O O16 0.000000 0.500000 0.000000
O O17 0.000000 0.000000 0.000000
#
# Coordination Sequence:
#
# PCOD9087836 Si02
#       8
#     2   2   2   2   2   2   2   2
#     4   9  21  37  55  82 115 152 207 252 304 374
#     4   9  19  36  62  99 122 167 210 262 311 386
#     4   9  21  38  58  86 117 160 196 254 305 375
#     4  11  22  38  58  87 119 158 204 257 309 374
#     4  10  20  39  60  87 123 158 206 255 312 375
#     4   9  18  36  65  92 130 161 213 256 319 377
#     4   9  18  36  58  76 117 155 201 260 300 375
#     4  10  19  37  53  78 114 152 201 254 309 364
#
# _framework density 25.234014999999999
#
# number of rings (size 3 to 8) (size 9 to 14) (size 15 to 20)
#    0.000    2.500    1.250    0.750    5.250    1.000 
#   11.250    0.625    0.000    0.750    0.000    0.000 
#    0.000    0.000    0.000    0.000    0.000    0.000 
#
# Total GULP energy -89223.340205 kJ/mol
# GULP energy per Si atom -5576.458763 kJ/mol
# Density = 2.517658 g / cm^3
# Si number density = 25.234015 Si / 1000 Ang^3
#
#
#
# Elastic Constant Matrix: (Units=GPa)
#
#
# Indices 1 2 3 4 5 6 
#
# 1 132.3161 19.7583 15.1224 5.0144 -3.5455 -53.8103
# 2 19.7583 90.5753 15.2243 -10.8057 -2.6497 -16.2897
# 3 15.1224 15.2243 67.0817 -9.7443 -3.7520 -7.4240
# 4 5.0144 -10.8057 -9.7443 38.1154 -12.8206 4.5482
# 5 -3.5455 -2.6497 -3.7520 -12.8206 33.3572 6.0072
# 6 -53.8103 -16.2897 -7.4240 4.5482 6.0072 38.1714
#
#
#
# Elastic Compliance Matrix: (Units=1/GPa)
#
#
# Indices 1 2 3 4 5 6 
#
# 1 0.020560 0.000209 -0.003081 -0.009585 -0.007371 0.030776
# 2 0.000209 0.012540 -0.001897 0.002818 0.001027 0.004779
# 3 -0.003081 -0.001897 0.016781 0.005997 0.004305 -0.003281
# 4 -0.009585 0.002818 0.005997 0.038030 0.017824 -0.018480
# 5 -0.007371 0.001027 0.004305 0.017824 0.039762 -0.017497
# 6 0.030776 0.004779 -0.003281 -0.018480 -0.017497 0.075939
#
#
# Mechanical properties :
#
#
# Convention : Reuss Voigt Hill
#
# Bulk Modulus (GPa) = 24.78814 43.35369 34.07091
# Shear Modulus (GPa) = 22.06544 37.91999 29.99272
#
# Velocity S-wave (km/s) = 2.96029 3.88072 3.45132
# Velocity P-wave (km/s) = 4.63994 6.10720 5.42342
#
# Compressibility (1/GPa) = 0.04034188
#
# Stress axis : x y z
#
# Youngs Moduli (GPa) = 48.63750 79.74728 59.59063
#
# Poissons Ratio (x) = -0.01663 0.18359
# Poissons Ratio (y) = -0.01014 0.11306
# Poissons Ratio (z) = 0.14985 0.15130
#
# Static dielectric constant tensor:
#      x y z
#    x 2.054880 0.024630 0.020430 
#    y 0.024630 2.216400 0.131130 
#    z 0.020430 0.131130 2.159910 
# 
# From -- ./inp_files/51761.got.cif
#   From: 2010.05.17/outbox.cif.g08.bks.cpg/sg2_26_cif.got.tgz:51761.got - 2010.06.03 11:33:40.
