data_PCOD9087255
_publ_section_title
;
Structure prediction by ZEFSAII (Michael W. Deem and Ramdas Pophale) SiO2 
 PCOD9087255
Probable space group: P -1
;
_chemical_formula_sum "Si O2"
_cell_formula_units_Z 16
_cell_length_a 16.450739
_cell_length_b 9.335972
_cell_length_c 7.755787
_cell_angle_alpha 96.229540
_cell_angle_beta 134.994039
_cell_angle_gamma 106.598862
_cell_volume 717.558465
_symmetry_space_group_name_H-M "P -1"
_symmetry_group_IT_number 2
_symmetry_cell_setting 'triclinic'
loop_
_space_group_symop_operation_xyz
x,y,z
-x,-y,-z
loop_
_atom_site_type_symbol
_atom_site_label
_atom_site_fract_x
_atom_site_fract_y
_atom_site_fract_z
Si Si1 0.160754 0.590725 0.406223
Si Si2 0.692370 0.544663 0.183631
Si Si3 0.786245 0.574333 0.848689
Si Si4 0.896124 0.397818 0.176317
Si Si5 0.846376 0.899873 0.309815
Si Si6 0.778745 0.016380 0.879193
Si Si7 0.083926 0.863425 0.244451
Si Si8 0.606323 0.668969 0.416064
O O1 0.246267 0.569376 0.682059
O O2 0.220713 0.549769 0.327433
O O3 0.154514 0.756269 0.383952
O O4 0.005460 0.450140 0.192315
O O5 0.790725 0.707244 0.240381
O O6 0.665432 0.627211 0.326840
O O7 0.551327 0.433920 0.863315
O O8 0.663615 0.602384 0.644410
O O9 0.808493 0.483025 0.028894
O O10 0.926695 0.748447 0.043705
O O11 0.000000 0.500000 0.500000
O O12 0.802642 0.196785 0.002278
O O13 0.843686 0.982836 0.495765
O O14 0.000000 0.000000 0.500000
O O15 0.779229 0.931916 0.049287
O O16 0.896543 0.078297 0.917943
O O17 0.659174 0.863657 0.569565
#
# Coordination Sequence:
#
# PCOD9087255 Si02
#       8
#     2   2   2   2   2   2   2   2
#     4  10  19  37  63  86 125 170 208 271 324 376
#     4  10  23  44  63  93 129 172 228 261 323 391
#     4  10  19  36  62  91 124 169 213 261 330 384
#     4  11  21  37  61  96 132 161 215 272 330 390
#     4  12  26  39  64 100 133 168 211 278 334 383
#     4  12  22  39  64  95 127 173 214 266 333 381
#     4  11  21  40  63  97 133 161 220 273 324 392
#     4  10  23  41  66  90 126 182 217 265 318 392
#
# _framework density 22.297837000000001
#
# number of rings (size 3 to 8) (size 9 to 14) (size 15 to 20)
#    0.000    1.250    3.750    3.750    1.750    2.500 
#    0.000    1.875    0.000    2.250    0.000    0.000 
#    0.000    0.000    0.000    0.000    0.000    0.000 
#
# Total GULP energy -89265.747850 kJ/mol
# GULP energy per Si atom -5579.109241 kJ/mol
# Density = 2.224709 g / cm^3
# Si number density = 22.297837 Si / 1000 Ang^3
#
#
#
# Elastic Constant Matrix: (Units=GPa)
#
#
# Indices 1 2 3 4 5 6 
#
# 1 42.0758 21.9863 24.6510 -3.8988 -6.7310 -6.3487
# 2 21.9863 103.7095 70.6615 0.2386 -0.1596 -22.8027
# 3 24.6510 70.6615 142.8365 1.1044 -3.4469 -11.5689
# 4 -3.8988 0.2386 1.1044 48.6893 -4.5285 -9.7703
# 5 -6.7310 -0.1596 -3.4469 -4.5285 42.3080 -4.7998
# 6 -6.3487 -22.8027 -11.5689 -9.7703 -4.7998 30.9852
#
#
#
# Elastic Compliance Matrix: (Units=1/GPa)
#
#
# Indices 1 2 3 4 5 6 
#
# 1 0.029040 -0.003103 -0.003009 0.003817 0.005290 0.004566
# 2 -0.003103 0.017516 -0.007312 0.001905 0.000335 0.010177
# 3 -0.003009 -0.007312 0.010969 -0.000886 0.000046 -0.002174
# 4 0.003817 0.001905 -0.000886 0.023209 0.004140 0.009813
# 5 0.005290 0.000335 0.000046 0.004140 0.025678 0.006631
# 6 0.004566 0.010177 -0.002174 0.009813 0.006631 0.044008
#
#
# Mechanical properties :
#
#
# Convention : Reuss Voigt Hill
#
# Bulk Modulus (GPa) = 32.59720 58.13547 45.36634
# Shear Modulus (GPa) = 26.66759 35.81803 31.24281
#
# Velocity S-wave (km/s) = 3.46203 4.01227 3.74727
# Velocity P-wave (km/s) = 5.53459 6.89879 6.25400
#
# Compressibility (1/GPa) = 0.03067748
#
# Stress axis : x y z
#
# Youngs Moduli (GPa) = 34.43553 57.09103 91.16311
#
# Poissons Ratio (x) = 0.17717 0.27427
# Poissons Ratio (y) = 0.10686 0.66658
# Poissons Ratio (z) = 0.10360 0.41745
#
# Static dielectric constant tensor:
#      x y z
#    x 1.927050 -0.049460 -0.060320 
#    y -0.049460 2.077970 -0.270590 
#    z -0.060320 -0.270590 2.135530 
# 
# From -- ./inp_files/342832.got.cif
#   From: 2010.05.17/outbox.cif.g08.bks.cpg/sg2_172_cif.got.tgz:342832.got - 2010.06.03 11:33:40.
