data_PCOD9087931
_publ_section_title
;
Structure prediction by ZEFSAII (Michael W. Deem and Ramdas Pophale) SiO2 
 PCOD9087931
Probable space group: P -1
;
_chemical_formula_sum "Si O2"
_cell_formula_units_Z 16
_cell_length_a 16.500153
_cell_length_b 9.177101
_cell_length_c 5.652303
_cell_angle_alpha 97.932137
_cell_angle_beta 121.327393
_cell_angle_gamma 86.393933
_cell_volume 724.076950
_symmetry_space_group_name_H-M "P -1"
_symmetry_group_IT_number 2
_symmetry_cell_setting 'triclinic'
loop_
_space_group_symop_operation_xyz
x,y,z
-x,-y,-z
loop_
_atom_site_type_symbol
_atom_site_label
_atom_site_fract_x
_atom_site_fract_y
_atom_site_fract_z
Si Si1 0.564604 0.334762 0.304667
Si Si2 0.911268 0.702095 0.920201
Si Si3 0.087313 0.589172 0.883881
Si Si4 0.270193 0.127720 0.224482
Si Si5 0.845644 0.951902 0.375852
Si Si6 0.974239 0.193302 0.475674
Si Si7 0.243986 0.827690 0.340561
Si Si8 0.457054 0.315976 0.640255
O O1 0.666122 0.258282 0.444144
O O2 0.515140 0.297874 0.476332
O O3 0.572733 0.512446 0.355518
O O4 0.510705 0.290042 0.967622
O O5 0.982566 0.618164 0.837369
O O6 0.983340 0.807076 0.198230
O O7 0.882152 0.573155 0.037519
O O8 0.815784 0.792029 0.745095
O O9 0.165771 0.705998 0.121796
O O10 0.070749 0.648683 0.606822
O O11 0.366055 0.210431 0.454333
O O12 0.279310 0.952185 0.236485
O O13 0.234386 0.140587 0.902095
O O14 0.935028 0.851091 0.555109
O O15 0.896900 0.066847 0.297197
O O16 0.803093 0.063571 0.519361
#
# Coordination Sequence:
#
# PCOD9087931 Si02
#       8
#     2   2   2   2   2   2   2   2
#     4  10  25  47  75  96 131 167 217 273 332 390
#     4  10  22  38  57  88 123 167 213 261 309 381
#     4  11  21  36  59  88 124 163 216 260 314 373
#     4  11  24  40  64  89 129 165 214 260 327 391
#     4  10  22  36  56  92 127 167 213 258 324 381
#     4  10  19  37  57  81 128 173 209 263 307 381
#     4  12  24  38  64  94 125 167 211 268 326 388
#     4  10  24  50  71  99 128 171 214 272 334 391
#
# _framework density 22.097097000000002
#
# number of rings (size 3 to 8) (size 9 to 14) (size 15 to 20)
#    0.000    1.500    2.500    1.875    3.500    2.000 
#    0.000    0.000    0.000    0.000    0.000    0.000 
#    0.000    0.000    0.000    0.000    0.000    0.000 
#
# Total GULP energy -89159.111899 kJ/mol
# GULP energy per Si atom -5572.444494 kJ/mol
# Density = 2.204680 g / cm^3
# Si number density = 22.097097 Si / 1000 Ang^3
#
#
#
# Elastic Constant Matrix: (Units=GPa)
#
#
# Indices 1 2 3 4 5 6 
#
# 1 57.1430 25.4407 45.6167 0.6511 14.8586 -10.1621
# 2 25.4407 99.0356 51.0193 -4.7602 23.3757 -6.2154
# 3 45.6167 51.0193 125.8255 12.1197 23.0783 -0.6707
# 4 0.6511 -4.7602 12.1197 45.5103 -3.9130 8.4452
# 5 14.8586 23.3757 23.0783 -3.9130 29.5821 2.5738
# 6 -10.1621 -6.2154 -0.6707 8.4452 2.5738 29.9123
#
#
#
# Elastic Compliance Matrix: (Units=1/GPa)
#
#
# Indices 1 2 3 4 5 6 
#
# 1 0.028488 -0.000334 -0.008515 -0.000824 -0.008414 0.010374
# 2 -0.000334 0.014638 -0.004474 0.001465 -0.007984 0.003101
# 3 -0.008515 -0.004474 0.013820 -0.003917 -0.003303 -0.002122
# 4 -0.000824 0.001465 -0.003917 0.025154 0.006309 -0.007708
# 5 -0.008414 -0.007984 -0.003303 0.006309 0.048670 -0.010561
# 6 0.010374 0.003101 -0.002122 -0.007708 -0.010561 0.040637
#
#
# Mechanical properties :
#
#
# Convention : Reuss Voigt Hill
#
# Bulk Modulus (GPa) = 33.00340 58.46194 45.73267
# Shear Modulus (GPa) = 24.02072 31.66277 27.84175
#
# Velocity S-wave (km/s) = 3.30063 3.78946 3.55346
# Velocity P-wave (km/s) = 5.43080 6.75729 6.13003
#
# Compressibility (1/GPa) = 0.03029991
#
# Stress axis : x y z
#
# Youngs Moduli (GPa) = 35.10239 68.31615 72.35674
#
# Poissons Ratio (x) = 0.02284 0.61609
# Poissons Ratio (y) = 0.01173 0.32375
# Poissons Ratio (z) = 0.29888 0.30567
#
# Static dielectric constant tensor:
#      x y z
#    x 1.910080 0.076550 -0.120410 
#    y 0.076550 1.847640 -0.071400 
#    z -0.120410 -0.071400 1.871630 
# 
# From -- ./inp_files/71004.got.cif
#   From: 2010.05.17/outbox.cif.g08.bks.cpg/sg2_36_cif.got.tgz:71004.got - 2010.06.03 11:33:40.
