data_PCOD9087558
_publ_section_title
;
Structure prediction by ZEFSAII (Michael W. Deem and Ramdas Pophale) SiO2 
 PCOD9087558
Probable space group: P -1
;
_chemical_formula_sum "Si O2"
_cell_formula_units_Z 16
_cell_length_a 16.498007
_cell_length_b 8.460459
_cell_length_c 15.986274
_cell_angle_alpha 72.563572
_cell_angle_beta 27.305611
_cell_angle_gamma 91.250761
_cell_volume 735.170782
_symmetry_space_group_name_H-M "P -1"
_symmetry_group_IT_number 2
_symmetry_cell_setting 'triclinic'
loop_
_space_group_symop_operation_xyz
x,y,z
-x,-y,-z
loop_
_atom_site_type_symbol
_atom_site_label
_atom_site_fract_x
_atom_site_fract_y
_atom_site_fract_z
Si Si1 0.848069 0.695463 0.370383
Si Si2 0.000283 0.159410 0.173100
Si Si3 0.318580 0.795012 0.949400
Si Si4 0.219106 0.974917 0.429485
Si Si5 0.504057 0.615997 0.396317
Si Si6 0.566470 0.058676 0.526062
Si Si7 0.360720 0.449474 0.239814
Si Si8 0.161585 0.388108 0.266152
O O1 0.725715 0.551437 0.423015
O O2 0.698401 0.547899 0.611574
O O3 0.869251 0.905887 0.312507
O O4 0.109555 0.793958 0.132221
O O5 0.963533 0.164990 0.304618
O O6 0.844413 0.200812 0.262443
O O7 0.267032 0.300514 0.878758
O O8 0.545228 0.978234 0.769335
O O9 0.430109 0.845364 0.746445
O O10 0.208971 0.568841 0.131529
O O11 0.093552 0.840774 0.481999
O O12 0.283251 0.208806 0.335579
O O13 0.500000 0.500000 0.500000
O O14 0.509263 0.808990 0.390813
O O15 0.500000 0.000000 0.500000
O O16 0.218445 0.463846 0.298404
O O17 0.636809 0.621733 0.940619
#
# Coordination Sequence:
#
# PCOD9087558 Si02
#       8
#     2   2   2   2   2   2   2   2
#     4  11  23  43  64  90 136 166 213 268 322 383
#     4  10  23  43  64  91 129 168 209 263 321 380
#     4  10  23  38  62  89 129 169 208 267 322 371
#     4   9  19  37  62  92 125 174 215 256 322 378
#     4  12  27  43  68  99 124 169 218 264 328 390
#     4  11  25  45  68  93 130 167 214 268 325 384
#     4   9  20  37  60  95 125 174 210 269 320 368
#     4  10  19  36  64  91 129 164 225 262 311 387
#
# _framework density 21.763650999999999
#
# number of rings (size 3 to 8) (size 9 to 14) (size 15 to 20)
#    0.000    1.750    1.250    2.625    5.250    3.000 
#    0.000    0.625    0.000    0.000    0.000    0.000 
#    0.000    0.000    0.000    0.000    0.000    0.000 
#
# Total GULP energy -89382.869986 kJ/mol
# GULP energy per Si atom -5586.429374 kJ/mol
# Density = 2.171412 g / cm^3
# Si number density = 21.763651 Si / 1000 Ang^3
#
#
#
# Elastic Constant Matrix: (Units=GPa)
#
#
# Indices 1 2 3 4 5 6 
#
# 1 129.3180 31.4376 23.8810 -4.6089 -5.5654 -5.2312
# 2 31.4376 39.3125 8.9287 4.7218 -6.0740 -10.7434
# 3 23.8810 8.9287 73.2525 12.5186 -13.0662 -12.9752
# 4 -4.6089 4.7218 12.5186 25.6599 -9.7324 -7.7206
# 5 -5.5654 -6.0740 -13.0662 -9.7324 28.2695 1.4800
# 6 -5.2312 -10.7434 -12.9752 -7.7206 1.4800 29.5094
#
#
#
# Elastic Compliance Matrix: (Units=1/GPa)
#
#
# Indices 1 2 3 4 5 6 
#
# 1 0.010593 -0.008630 -0.003430 0.004857 0.000398 -0.001521
# 2 -0.008630 0.036215 0.001956 -0.003861 0.005068 0.011251
# 3 -0.003430 0.001956 0.017566 -0.005582 0.005624 0.006085
# 4 0.004857 -0.003861 -0.005582 0.051884 0.014894 0.009828
# 5 0.000398 0.005068 0.005624 0.014894 0.043950 0.006081
# 6 -0.001521 0.011251 0.006085 0.009828 0.006081 0.042656
#
#
# Mechanical properties :
#
#
# Convention : Reuss Voigt Hill
#
# Bulk Modulus (GPa) = 22.64162 41.15308 31.89735
# Shear Modulus (GPa) = 21.02657 28.53013 24.77835
#
# Velocity S-wave (km/s) = 3.11164 3.62457 3.37786
# Velocity P-wave (km/s) = 4.83071 6.03878 5.46821
#
# Compressibility (1/GPa) = 0.04416645
#
# Stress axis : x y z
#
# Youngs Moduli (GPa) = 94.40285 27.61255 56.92737
#
# Poissons Ratio (x) = 0.23829 0.19527
# Poissons Ratio (y) = 0.81466 -0.11133
# Poissons Ratio (z) = 0.32382 -0.05400
#
# Static dielectric constant tensor:
#      x y z
#    x 1.814810 -0.027160 0.001960 
#    y -0.027160 1.801650 -0.005990 
#    z 0.001960 -0.005990 1.816870 
# 
# From -- ./inp_files/48361.got.cif
#   From: 2010.05.17/outbox.cif.g08.bks.cpg/sg2_25_cif.got.tgz:48361.got - 2010.06.03 11:33:40.
