data_PCOD9087654
_publ_section_title
;
Structure prediction by ZEFSAII (Michael W. Deem and Ramdas Pophale) SiO2 
 PCOD9087654
Probable space group: P -1
;
_chemical_formula_sum "Si O2"
_cell_formula_units_Z 16
_cell_length_a 17.328665
_cell_length_b 12.403157
_cell_length_c 7.411604
_cell_angle_alpha 71.349747
_cell_angle_beta 90.027883
_cell_angle_gamma 150.108285
_cell_volume 609.443874
_symmetry_space_group_name_H-M "P -1"
_symmetry_group_IT_number 2
_symmetry_cell_setting 'triclinic'
loop_
_space_group_symop_operation_xyz
x,y,z
-x,-y,-z
loop_
_atom_site_type_symbol
_atom_site_label
_atom_site_fract_x
_atom_site_fract_y
_atom_site_fract_z
Si Si1 0.929650 0.521362 0.905054
Si Si2 0.218877 0.788975 0.271527
Si Si3 0.847603 0.042966 0.836566
Si Si4 0.753350 0.500296 0.929975
Si Si5 0.296342 0.655716 0.396921
Si Si6 0.854786 0.892594 0.258411
Si Si7 0.288970 0.160830 0.427475
Si Si8 0.603231 0.395253 0.327422
O O1 0.792547 0.287586 0.878712
O O2 0.813301 0.460026 0.043676
O O3 0.104254 0.830767 0.654130
O O4 0.000000 0.500000 0.000000
O O5 0.252749 0.968114 0.151506
O O6 0.336380 0.844290 0.333363
O O7 0.000000 0.500000 0.500000
O O8 0.071241 0.348256 0.617720
O O9 0.739658 0.839130 0.777885
O O10 0.839500 0.970739 0.066267
O O11 0.699311 0.394308 0.780805
O O12 0.614468 0.377829 0.128545
O O13 0.947149 0.836198 0.776749
O O14 0.431260 0.760388 0.465149
O O15 0.704586 0.722758 0.504356
O O16 0.801854 0.709225 0.246463
O O17 0.460447 0.307056 0.386319
#
# Coordination Sequence:
#
# PCOD9087654 Si02
#       8
#     2   2   2   2   2   2   2   2
#     4  10  19  36  65  89 116 158 210 250 292 375
#     4   9  16  33  61  90 107 152 207 244 292 359
#     4  11  20  39  69  89 121 162 216 249 298 373
#     4  10  21  39  60  92 119 160 214 248 299 368
#     4  10  21  38  62  91 126 159 204 259 304 365
#     4  11  23  41  64  90 119 170 218 249 295 377
#     4  11  24  42  59  95 125 161 206 258 312 365
#     4  12  26  39  61  91 132 162 202 262 319 348
#
# _framework density 26.253440999999999
#
# number of rings (size 3 to 8) (size 9 to 14) (size 15 to 20)
#    0.000    1.500    6.250    2.250    1.750    3.000 
#    0.000    2.500    0.000    3.750    0.000    0.000 
#    0.000    0.000    0.000    0.000    0.000    0.000 
#
# Total GULP energy -89362.728762 kJ/mol
# GULP energy per Si atom -5585.170548 kJ/mol
# Density = 2.619369 g / cm^3
# Si number density = 26.253441 Si / 1000 Ang^3
#
#
#
# Elastic Constant Matrix: (Units=GPa)
#
#
# Indices 1 2 3 4 5 6 
#
# 1 87.9935 27.0798 11.8099 8.3570 -4.7210 -9.1633
# 2 27.0798 82.3774 33.7489 6.6019 -14.9243 -4.3681
# 3 11.8099 33.7489 47.3829 20.6030 -7.4457 -11.2819
# 4 8.3570 6.6019 20.6030 33.7916 -5.2794 -1.0132
# 5 -4.7210 -14.9243 -7.4457 -5.2794 32.7139 10.7595
# 6 -9.1633 -4.3681 -11.2819 -1.0132 10.7595 38.7134
#
#
#
# Elastic Compliance Matrix: (Units=1/GPa)
#
#
# Indices 1 2 3 4 5 6 
#
# 1 0.013322 -0.005380 0.002970 -0.004219 -0.001786 0.003798
# 2 -0.005380 0.022017 -0.018660 0.009569 0.008665 -0.006385
# 3 0.002970 -0.018660 0.047450 -0.026551 -0.005974 0.013391
# 4 -0.004219 0.009569 -0.026551 0.045942 0.007980 -0.008672
# 5 -0.001786 0.008665 -0.005974 0.007980 0.037985 -0.011534
# 6 0.003798 -0.006385 0.013391 -0.008672 -0.011534 0.032890
#
#
# Mechanical properties :
#
#
# Convention : Reuss Voigt Hill
#
# Bulk Modulus (GPa) = 24.60136 40.33676 32.46906
# Shear Modulus (GPa) = 19.58504 30.71813 25.15159
#
# Velocity S-wave (km/s) = 2.73426 3.42433 3.09856
# Velocity P-wave (km/s) = 4.39992 5.57067 5.01955
#
# Compressibility (1/GPa) = 0.04064815
#
# Stress axis : x y z
#
# Youngs Moduli (GPa) = 75.06398 45.41923 21.07486
#
# Poissons Ratio (x) = 0.24436 -0.06259
# Poissons Ratio (y) = 0.40385 0.39326
# Poissons Ratio (z) = -0.22293 0.84753
#
# Static dielectric constant tensor:
#      x y z
#    x 2.280860 0.067160 0.198370 
#    y 0.067160 2.107130 -0.049410 
#    z 0.198370 -0.049410 1.867060 
# 
# From -- ./inp_files/293578.got.cif
#   From: 2010.05.17/outbox.cif.g08.bks.cpg/sg2_147_cif.got.tgz:293578.got - 2010.06.03 11:33:40.
