data_PCOD9087339
_publ_section_title
;
Structure prediction by ZEFSAII (Michael W. Deem and Ramdas Pophale) SiO2 
 PCOD9087339
Probable space group: P -1
;
_chemical_formula_sum "Si O2"
_cell_formula_units_Z 13
_cell_length_a 20.404213
_cell_length_b 12.954302
_cell_length_c 8.927853
_cell_angle_alpha 50.970389
_cell_angle_beta 137.970954
_cell_angle_gamma 159.811827
_cell_volume 521.489218
_symmetry_space_group_name_H-M "P -1"
_symmetry_group_IT_number 2
_symmetry_cell_setting 'triclinic'
loop_
_space_group_symop_operation_xyz
x,y,z
-x,-y,-z
loop_
_atom_site_type_symbol
_atom_site_label
_atom_site_fract_x
_atom_site_fract_y
_atom_site_fract_z
Si Si1 0.282855 0.846854 0.004733
Si Si2 0.368871 0.143734 0.133260
Si Si3 0.500000 0.500000 0.500000
Si Si4 0.231831 0.458472 0.949490
Si Si5 0.720793 0.726402 0.980394
Si Si6 0.162036 0.845744 0.533422
Si Si7 0.578216 0.281462 0.656547
O O1 0.259422 0.889680 0.085658
O O2 0.531300 0.196752 0.034965
O O3 0.302043 0.712865 0.165954
O O4 0.106324 0.690656 0.727312
O O5 0.194901 0.042851 0.993306
O O6 0.530670 0.288931 0.409384
O O7 0.535877 0.426353 0.044816
O O8 0.605564 0.649030 0.709943
O O9 0.687184 0.842539 0.440827
O O10 0.052170 0.355692 0.732272
O O11 0.143061 0.228320 0.905605
O O12 0.286335 0.477021 0.196061
O O13 0.325568 0.961318 0.596365
#
# Coordination Sequence:
#
# PCOD9087339 Si02
#       7
#     2   2   1   2   2   2   2
#     4  10  22  40  60  85 120 160 199 238 285 345
#     4  10  19  37  61  86 119 160 187 240 295 355
#     4  12  18  40  64  88 114 154 194 248 296 342
#     4  10  21  39  61  91 115 153 198 245 296 335
#     4  10  19  36  63  85 118 148 194 241 298 347
#     4  11  22  38  63  89 119 148 201 249 288 346
#     4  11  21  38  62  87 119 159 197 237 291 345
#
# _framework density 24.928607
#
# number of rings (size 3 to 8) (size 9 to 14) (size 15 to 20)
#    0.000    1.538    6.154    2.308    0.000    3.077 
#    0.000    3.846    0.000    6.462    0.000    0.000 
#    0.000    0.000    0.000    0.000    0.000    0.000 
#
# Total GULP energy -72411.956661 kJ/mol
# GULP energy per Si atom -5570.150512 kJ/mol
# Density = 2.487187 g / cm^3
# Si number density = 24.928607 Si / 1000 Ang^3
#
#
#
# Elastic Constant Matrix: (Units=GPa)
#
#
# Indices 1 2 3 4 5 6 
#
# 1 157.6125 26.3107 54.2650 -0.8727 -14.2603 -20.9758
# 2 26.3107 67.7332 4.7023 -1.0458 -4.8533 -12.7842
# 3 54.2650 4.7023 128.4744 -18.7440 0.7400 7.3583
# 4 -0.8727 -1.0458 -18.7440 31.2461 8.0696 -9.1998
# 5 -14.2603 -4.8533 0.7400 8.0696 32.7984 -2.2980
# 6 -20.9758 -12.7842 7.3583 -9.1998 -2.2980 22.9025
#
#
#
# Elastic Compliance Matrix: (Units=1/GPa)
#
#
# Indices 1 2 3 4 5 6 
#
# 1 0.010123 -0.001287 -0.005010 -0.001123 0.005318 0.010245
# 2 -0.001287 0.017339 -0.000264 0.002780 0.002022 0.009905
# 3 -0.005010 -0.000264 0.011143 0.005761 -0.004337 -0.006437
# 4 -0.001123 0.002780 0.005761 0.042331 -0.009591 0.014714
# 5 0.005318 0.002022 -0.004337 -0.009591 0.036060 0.007158
# 6 0.010245 0.009905 -0.006437 0.014714 0.007158 0.067272
#
#
# Mechanical properties :
#
#
# Convention : Reuss Voigt Hill
#
# Bulk Modulus (GPa) = 39.24131 58.26399 48.75265
# Shear Modulus (GPa) = 24.28541 35.29220 29.78880
#
# Velocity S-wave (km/s) = 3.12460 3.76670 3.46058
# Velocity P-wave (km/s) = 5.36593 6.50696 5.96379
#
# Compressibility (1/GPa) = 0.02548335
#
# Stress axis : x y z
#
# Youngs Moduli (GPa) = 98.78814 57.67231 89.73867
#
# Poissons Ratio (x) = 0.07422 0.44956
# Poissons Ratio (y) = 0.12714 0.02373
# Poissons Ratio (z) = 0.49490 0.01525
#
# Static dielectric constant tensor:
#      x y z
#    x 2.127580 0.016980 0.141920 
#    y 0.016980 2.436830 0.284060 
#    z 0.141920 0.284060 2.186720 
# 
# From -- ./inp_files/354080.got.cif
#   From: 2010.05.17/outbox.cif.g08.bks.cpg/sg2_178_cif.got.tgz:354080.got - 2010.06.03 11:33:40.
