data_PCOD9087195
_publ_section_title
;
Structure prediction by ZEFSAII (Michael W. Deem and Ramdas Pophale) SiO2 
 PCOD9087195
Probable space group: P -1
;
_chemical_formula_sum "Si O2"
_cell_formula_units_Z 12
_cell_length_a 16.733479
_cell_length_b 7.511665
_cell_length_c 8.861361
_cell_angle_alpha 128.743593
_cell_angle_beta 135.080583
_cell_angle_gamma 72.685692
_cell_volume 591.622711
_symmetry_space_group_name_H-M "P -1"
_symmetry_group_IT_number 2
_symmetry_cell_setting 'triclinic'
loop_
_space_group_symop_operation_xyz
x,y,z
-x,-y,-z
loop_
_atom_site_type_symbol
_atom_site_label
_atom_site_fract_x
_atom_site_fract_y
_atom_site_fract_z
Si Si1 0.872414 0.828581 0.248285
Si Si2 0.441622 0.651658 0.838764
Si Si3 0.658943 0.689151 0.726142
Si Si4 0.743342 0.334332 0.840160
Si Si5 0.693338 0.005256 0.317756
Si Si6 0.399592 0.870667 0.183738
O O1 0.793165 0.924093 0.315274
O O2 0.799343 0.803363 0.979592
O O3 0.860290 0.551524 0.118655
O O4 0.000000 0.000000 0.500000
O O5 0.398485 0.410272 0.560753
O O6 0.354264 0.793763 0.722747
O O7 0.421592 0.667995 0.998685
O O8 0.576572 0.790362 0.065631
O O9 0.649857 0.476288 0.721921
O O10 0.609975 0.910273 0.818704
O O11 0.739510 0.126777 0.605096
O O12 0.707907 0.235290 0.905384
O O13 0.500000 0.000000 0.500000
#
# Coordination Sequence:
#
# PCOD9087195 Si02
#       6
#     2   2   2   2   2   2
#     4  10  22  41  64  84 115 165 210 245 289 344
#     4  10  20  35  60  92 124 155 187 245 309 359
#     4   9  23  39  58  87 126 154 199 245 296 352
#     4   9  22  39  58  89 118 157 200 241 298 351
#     4  10  19  36  62  88 120 157 196 243 304 356
#     4  12  22  36  60  94 127 156 190 238 308 371
#
# _framework density 20.283197999999999
#
# number of rings (size 3 to 8) (size 9 to 14) (size 15 to 20)
#    1.000    1.000    3.333    0.000    2.333    4.000 
#    0.000    0.833    0.000    2.000    0.000    0.000 
#    0.000    0.000    0.000    0.000    0.000    0.000 
#
# Total GULP energy -66809.068493 kJ/mol
# GULP energy per Si atom -5567.422374 kJ/mol
# Density = 2.023703 g / cm^3
# Si number density = 20.283198 Si / 1000 Ang^3
#
#
#
# Elastic Constant Matrix: (Units=GPa)
#
#
# Indices 1 2 3 4 5 6 
#
# 1 112.6229 3.4490 81.4657 10.3031 -19.4222 0.5091
# 2 3.4490 45.4459 5.7328 7.4302 -9.8289 -2.9513
# 3 81.4657 5.7328 153.7867 32.3286 -3.2620 2.9054
# 4 10.3031 7.4302 32.3286 21.0751 -4.7470 -6.1689
# 5 -19.4222 -9.8289 -3.2620 -4.7470 42.9147 6.3985
# 6 0.5091 -2.9513 2.9054 -6.1689 6.3985 23.6176
#
#
#
# Elastic Compliance Matrix: (Units=1/GPa)
#
#
# Indices 1 2 3 4 5 6 
#
# 1 0.017627 0.000116 -0.011640 0.011579 0.008118 0.001891
# 2 0.000116 0.024404 0.001178 -0.009655 0.004801 -0.000920
# 3 -0.011640 0.001178 0.018044 -0.025691 -0.005415 -0.007065
# 4 0.011579 -0.009655 -0.025691 0.093384 0.007831 0.023975
# 5 0.008118 0.004801 -0.005415 0.007831 0.029244 -0.004786
# 6 0.001891 -0.000920 -0.007065 0.023975 -0.004786 0.050613
#
#
# Mechanical properties :
#
#
# Convention : Reuss Voigt Hill
#
# Bulk Modulus (GPa) = 25.39141 54.79449 40.09295
# Shear Modulus (GPa) = 18.71702 32.26869 25.49286
#
# Velocity S-wave (km/s) = 3.04103 3.99295 3.54905
# Velocity P-wave (km/s) = 4.98760 6.95209 6.05011
#
# Compressibility (1/GPa) = 0.03938339
#
# Stress axis : x y z
#
# Youngs Moduli (GPa) = 56.72971 40.97708 55.42032
#
# Poissons Ratio (x) = -0.00476 0.64508
# Poissons Ratio (y) = -0.00659 -0.06527
# Poissons Ratio (z) = 0.66032 -0.04826
#
# Static dielectric constant tensor:
#      x y z
#    x 1.749170 0.063490 -0.023470 
#    y 0.063490 1.894970 -0.001270 
#    z -0.023470 -0.001270 1.742690 
# 
# From -- ./inp_files/171983.got.cif
#   From: 2010.05.17/outbox.cif.g08.bks.cpg/sg2_86_cif.got.tgz:171983.got - 2010.06.03 11:33:40.
