data_PCOD9087445
_publ_section_title
;
Structure prediction by ZEFSAII (Michael W. Deem and Ramdas Pophale) SiO2 
 PCOD9087445
Probable space group: P -1
;
_chemical_formula_sum "Si O2"
_cell_formula_units_Z 14
_cell_length_a 7.746032
_cell_length_b 14.562612
_cell_length_c 7.736477
_cell_angle_alpha 57.997972
_cell_angle_beta 87.703746
_cell_angle_gamma 115.037642
_cell_volume 629.590444
_symmetry_space_group_name_H-M "P -1"
_symmetry_group_IT_number 2
_symmetry_cell_setting 'triclinic'
loop_
_space_group_symop_operation_xyz
x,y,z
-x,-y,-z
loop_
_atom_site_type_symbol
_atom_site_label
_atom_site_fract_x
_atom_site_fract_y
_atom_site_fract_z
Si Si1 0.260844 0.397864 0.647534
Si Si2 0.112555 0.126129 0.754209
Si Si3 0.407924 0.379134 0.003066
Si Si4 0.869216 0.062794 0.495299
Si Si5 0.427682 0.177761 0.409964
Si Si6 0.893919 0.311053 0.172333
Si Si7 0.842196 0.484192 0.755799
O O1 0.500000 0.500000 0.500000
O O2 0.194284 0.259764 0.712676
O O3 0.257780 0.382620 0.869118
O O4 0.137208 0.450556 0.496589
O O5 0.305969 0.135652 0.637525
O O6 0.941958 0.107343 0.641908
O O7 0.000000 0.000000 0.000000
O O8 0.599750 0.396325 0.874053
O O9 0.500000 0.500000 0.000000
O O10 0.341131 0.259135 0.244995
O O11 0.899218 0.184206 0.271806
O O12 0.644275 0.944628 0.585733
O O13 0.000000 0.000000 0.500000
O O14 0.670959 0.262795 0.315997
O O15 0.059069 0.403203 0.216171
O O16 0.909355 0.390122 0.921529
#
# Coordination Sequence:
#
# PCOD9087445 Si02
#       7
#     2   2   2   2   2   2   2
#     4  10  19  36  63  93 126 165 216 268 315 367
#     4  11  22  39  61  91 127 166 218 274 314 375
#     4  10  20  34  63  96 123 160 219 266 313 381
#     4  10  21  36  63  91 125 168 216 255 310 384
#     4  10  21  37  60  93 123 173 213 257 324 376
#     4  10  19  37  62  93 136 167 212 253 320 388
#     4   9  19  35  62  91 127 176 197 260 323 368
#
# _framework density 22.23668
#
# number of rings (size 3 to 8) (size 9 to 14) (size 15 to 20)
#    0.000    2.000    1.429    3.000    2.000    0.000 
#    0.000    0.714    0.000   35.143    0.000    0.000 
#    0.000    0.000    0.000    0.000    0.000    0.000 
#
# Total GULP energy -78079.467702 kJ/mol
# GULP energy per Si atom -5577.104836 kJ/mol
# Density = 2.218607 g / cm^3
# Si number density = 22.236680 Si / 1000 Ang^3
#
#
#
# Elastic Constant Matrix: (Units=GPa)
#
#
# Indices 1 2 3 4 5 6 
#
# 1 110.2527 17.1074 46.8955 -3.8023 13.1372 5.8241
# 2 17.1074 131.6916 68.8592 -16.7335 21.3555 15.9306
# 3 46.8955 68.8592 187.7422 -15.9614 24.9618 2.2328
# 4 -3.8023 -16.7335 -15.9614 48.0989 1.4970 7.1179
# 5 13.1372 21.3555 24.9618 1.4970 48.5950 -6.4723
# 6 5.8241 15.9306 2.2328 7.1179 -6.4723 26.6886
#
#
#
# Elastic Compliance Matrix: (Units=1/GPa)
#
#
# Indices 1 2 3 4 5 6 
#
# 1 0.010499 0.000861 -0.002502 0.000880 -0.002413 -0.003415
# 2 0.000861 0.011783 -0.003358 0.004602 -0.005080 -0.009400
# 3 -0.002502 -0.003358 0.007453 0.000963 -0.001533 0.001298
# 4 0.000880 0.004602 0.000963 0.024527 -0.004943 -0.010760
# 5 -0.002413 -0.005080 -0.001533 -0.004943 0.025906 0.011288
# 6 -0.003415 -0.009400 0.001298 -0.010760 0.011288 0.049324
#
#
# Mechanical properties :
#
#
# Convention : Reuss Voigt Hill
#
# Bulk Modulus (GPa) = 50.66783 77.26788 63.96785
# Shear Modulus (GPa) = 34.23010 44.46479 39.34745
#
# Velocity S-wave (km/s) = 3.92772 4.47656 4.21109
# Velocity P-wave (km/s) = 6.58820 7.84492 7.24387
#
# Compressibility (1/GPa) = 0.01973639
#
# Stress axis : x y z
#
# Youngs Moduli (GPa) = 95.24699 84.86617 134.16691
#
# Poissons Ratio (x) = -0.07304 0.33567
# Poissons Ratio (y) = -0.08197 0.45058
# Poissons Ratio (z) = 0.23830 0.28501
#
# Static dielectric constant tensor:
#      x y z
#    x 1.873410 0.022360 0.121140 
#    y 0.022360 1.802740 -0.083400 
#    z 0.121140 -0.083400 1.115260 
# 
# From -- ./inp_files/195279.got.cif
#   From: 2010.05.17/outbox.cif.g08.bks.cpg/sg2_98_cif.got.tgz:195279.got - 2010.06.03 11:33:40.
