data_PCOD9087686
_publ_section_title
;
Structure prediction by ZEFSAII (Michael W. Deem and Ramdas Pophale) SiO2 
 PCOD9087686
Probable space group: P -1
;
_chemical_formula_sum "Si O2"
_cell_formula_units_Z 16
_cell_length_a 10.564939
_cell_length_b 10.708245
_cell_length_c 9.690849
_cell_angle_alpha 45.520777
_cell_angle_beta 128.171660
_cell_angle_gamma 113.968976
_cell_volume 614.272423
_symmetry_space_group_name_H-M "P -1"
_symmetry_group_IT_number 2
_symmetry_cell_setting 'triclinic'
loop_
_space_group_symop_operation_xyz
x,y,z
-x,-y,-z
loop_
_atom_site_type_symbol
_atom_site_label
_atom_site_fract_x
_atom_site_fract_y
_atom_site_fract_z
Si Si1 0.410592 0.962260 0.826621
Si Si2 0.609683 0.755892 0.907363
Si Si3 0.950966 0.853957 0.974526
Si Si4 0.105007 0.130871 0.382078
Si Si5 0.617663 0.379217 0.345865
Si Si6 0.214280 0.533393 0.348842
Si Si7 0.932008 0.407676 0.387973
Si Si8 0.809697 0.374661 0.033899
O O1 0.536566 0.913187 0.828935
O O2 0.302496 0.791367 0.901184
O O3 0.283540 0.115165 0.574685
O O4 0.500000 0.000000 0.000000
O O5 0.797657 0.772004 0.003429
O O6 0.519016 0.739337 0.713387
O O7 0.585256 0.575047 0.111814
O O8 0.897207 0.928518 0.732231
O O9 0.089222 0.703067 0.157147
O O10 0.000000 0.000000 0.000000
O O11 0.991653 0.306214 0.171145
O O12 0.000000 0.000000 0.500000
O O13 0.641166 0.414731 0.495179
O O14 0.787109 0.310035 0.442840
O O15 0.111582 0.373965 0.465397
O O16 0.254254 0.521635 0.223819
O O17 0.832785 0.453282 0.141134
O O18 0.000000 0.500000 0.500000
#
# Coordination Sequence:
#
# PCOD9087686 Si02
#       8
#     2   2   2   2   2   2   2   2
#     4  11  25  41  63  93 133 182 219 264 340 397
#     4  11  24  42  68  93 139 173 223 283 325 400
#     4  11  25  40  67 100 128 171 227 274 326 398
#     4   9  23  43  62  90 132 173 217 267 328 394
#     4  10  22  43  65  98 131 176 221 269 342 389
#     4  10  22  39  65  98 128 168 223 273 329 399
#     4  10  19  36  65  95 122 166 221 264 327 382
#     4  10  21  42  64  93 134 169 220 281 321 395
#
# _framework density 26.047075
#
# number of rings (size 3 to 8) (size 9 to 14) (size 15 to 20)
#    0.000    1.750    2.500    0.375    7.000    4.500 
#    0.000    0.625    0.000    0.000    0.000    0.000 
#    0.000    0.000    0.000    0.000    0.000    0.000 
#
# Total GULP energy -89351.016284 kJ/mol
# GULP energy per Si atom -5584.438518 kJ/mol
# Density = 2.598779 g / cm^3
# Si number density = 26.047075 Si / 1000 Ang^3
#
#
#
# Elastic Constant Matrix: (Units=GPa)
#
#
# Indices 1 2 3 4 5 6 
#
# 1 67.9474 37.2389 53.4273 13.5164 7.2673 -21.7264
# 2 37.2389 129.7973 67.0672 42.1800 10.6437 -5.8736
# 3 53.4273 67.0672 184.1621 56.6193 -14.7256 -15.2037
# 4 13.5164 42.1800 56.6193 68.1638 -9.4008 3.0337
# 5 7.2673 10.6437 -14.7256 -9.4008 51.9119 7.6998
# 6 -21.7264 -5.8736 -15.2037 3.0337 7.6998 29.2760
#
#
#
# Elastic Compliance Matrix: (Units=1/GPa)
#
#
# Indices 1 2 3 4 5 6 
#
# 1 0.028364 -0.003382 -0.005818 -0.000662 -0.007941 0.019507
# 2 -0.003382 0.011739 -0.001827 -0.005579 -0.003521 0.000400
# 3 -0.005818 -0.001827 0.009673 -0.005350 0.002947 0.000119
# 4 -0.000662 -0.005579 -0.005350 0.023788 0.005248 -0.008234
# 5 -0.007941 -0.003521 0.002947 0.005248 0.024679 -0.012104
# 6 0.019507 0.000400 0.000119 -0.008234 -0.012104 0.052813
#
#
# Mechanical properties :
#
#
# Convention : Reuss Voigt Hill
#
# Bulk Modulus (GPa) = 36.07300 77.48597 56.77948
# Shear Modulus (GPa) = 27.41974 44.81525 36.11749
#
# Velocity S-wave (km/s) = 3.24805 4.15245 3.72778
# Velocity P-wave (km/s) = 5.28637 7.26660 6.35410
#
# Compressibility (1/GPa) = 0.02772156
#
# Stress axis : x y z
#
# Youngs Moduli (GPa) = 35.25595 85.18889 103.37739
#
# Poissons Ratio (x) = 0.28815 0.60144
# Poissons Ratio (y) = 0.11925 0.18885
# Poissons Ratio (z) = 0.20511 0.15563
#
# Static dielectric constant tensor:
#      x y z
#    x 2.046630 -0.000080 -0.007530 
#    y -0.000080 2.111640 -0.110340 
#    z -0.007530 -0.110340 2.139250 
# 
# From -- ./inp_files/262173.got.cif
#   From: 2010.05.17/outbox.cif.g08.bks.cpg/sg2_132_cif.got.tgz:262173.got - 2010.06.03 11:33:40.
