data_PCOD9087068
_publ_section_title
;
Structure prediction by ZEFSAII (Michael W. Deem and Ramdas Pophale) SiO2 
 PCOD9087068
Probable space group: P -1
;
_chemical_formula_sum "Si O2"
_cell_formula_units_Z 15
_cell_length_a 9.019860
_cell_length_b 21.771660
_cell_length_c 7.801334
_cell_angle_alpha 72.186157
_cell_angle_beta 145.015649
_cell_angle_gamma 130.209889
_cell_volume 577.278726
_symmetry_space_group_name_H-M "P -1"
_symmetry_group_IT_number 2
_symmetry_cell_setting 'triclinic'
loop_
_space_group_symop_operation_xyz
x,y,z
-x,-y,-z
loop_
_atom_site_type_symbol
_atom_site_label
_atom_site_fract_x
_atom_site_fract_y
_atom_site_fract_z
Si Si1 0.663855 0.167042 0.607130
Si Si2 0.953706 0.087380 0.512096
Si Si3 0.392099 0.639395 0.119023
Si Si4 0.775745 0.607566 0.728510
Si Si5 0.818404 0.446401 0.552293
Si Si6 0.577619 0.124171 0.944162
Si Si7 0.497295 0.274717 0.220064
Si Si8 0.500000 0.000000 0.500000
O O1 0.620988 0.169750 0.768312
O O2 0.570272 0.213082 0.372360
O O3 0.412117 0.060388 0.411548
O O4 0.081471 0.217363 0.932803
O O5 0.365514 0.131690 0.869620
O O6 0.704835 0.986634 0.271642
O O7 0.747447 0.066104 0.510219
O O8 0.933536 0.149065 0.328323
O O9 0.459483 0.690244 0.962164
O O10 0.177788 0.648098 0.039525
O O11 0.108428 0.529450 0.889794
O O12 0.723013 0.659398 0.506786
O O13 0.500000 0.500000 0.500000
O O14 0.584013 0.597243 0.733182
O O15 0.760967 0.361239 0.528231
O O16 0.000000 0.500000 0.500000
#
# Coordination Sequence:
#
# PCOD9087068 Si02
#       8
#     2   2   2   2   2   2   2   1
#     4  11  24  42  62  87 120 157 201 254 305 359
#     4   9  18  34  59  85 107 142 189 233 287 356
#     4  10  21  39  62  89 126 162 199 244 296 354
#     4  10  19  36  61  91 122 161 205 243 289 352
#     4   9  20  38  62  88 119 161 200 238 292 355
#     4   9  18  35  57  82 112 143 182 235 292 349
#     4  11  24  41  60  89 123 158 201 250 299 357
#     4  10  24  42  66  88 116 158 204 252 310 364
#
# _framework density 25.983982000000001
#
# number of rings (size 3 to 8) (size 9 to 14) (size 15 to 20)
#    0.000    2.133    0.000    3.200    0.000    8.533 
#    0.000   19.333    0.000    0.000    0.000    0.000 
#    0.000    0.000    0.000    0.000    0.000    0.000 
#
# Total GULP energy -83646.478127 kJ/mol
# GULP energy per Si atom -5576.431875 kJ/mol
# Density = 2.592484 g / cm^3
# Si number density = 25.983982 Si / 1000 Ang^3
#
#
#
# Elastic Constant Matrix: (Units=GPa)
#
#
# Indices 1 2 3 4 5 6 
#
# 1 176.1283 24.1175 40.1308 -33.1594 -2.2303 14.7541
# 2 24.1175 136.3797 40.1959 -44.1204 -13.9864 -6.8016
# 3 40.1308 40.1959 117.1905 -41.4745 12.9207 9.0633
# 4 -33.1594 -44.1204 -41.4745 42.1632 -1.5528 -6.7602
# 5 -2.2303 -13.9864 12.9207 -1.5528 26.7680 0.5725
# 6 14.7541 -6.8016 9.0633 -6.7602 0.5725 51.6424
#
#
#
# Elastic Compliance Matrix: (Units=1/GPa)
#
#
# Indices 1 2 3 4 5 6 
#
# 1 0.006879 0.000938 -0.000878 0.005436 0.001824 -0.000996
# 2 0.000938 0.013090 -0.000858 0.014435 0.008096 0.003406
# 3 -0.000878 -0.000858 0.014154 0.011976 -0.006644 -0.000705
# 4 0.005436 0.014435 0.011976 0.055958 0.005343 0.005512
# 5 0.001824 0.008096 -0.006644 0.005343 0.045216 0.001909
# 6 -0.000996 0.003406 -0.000705 0.005512 0.001909 0.020921
#
#
# Mechanical properties :
#
#
# Convention : Reuss Voigt Hill
#
# Bulk Modulus (GPa) = 30.74443 70.95410 50.84927
# Shear Modulus (GPa) = 29.64600 45.79833 37.72216
#
# Velocity S-wave (km/s) = 3.38144 4.20284 3.81431
# Velocity P-wave (km/s) = 5.20608 7.13568 6.24585
#
# Compressibility (1/GPa) = 0.03252622
#
# Stress axis : x y z
#
# Youngs Moduli (GPa) = 145.36672 76.39612 70.65369
#
# Poissons Ratio (x) = -0.07166 0.06201
# Poissons Ratio (y) = -0.13636 0.06065
# Poissons Ratio (z) = 0.12759 0.06558
#
# Static dielectric constant tensor:
#      x y z
#    x 1.967560 -0.028620 -0.092040 
#    y -0.028620 2.142690 0.108670 
#    z -0.092040 0.108670 2.068620 
# 
# From -- ./inp_files/223557.got.cif
#   From: 2010.05.17/outbox.cif.g08.bks.cpg/sg2_112_cif.got.tgz:223557.got - 2010.06.03 11:33:40.
