data_PCOD9087129
_publ_section_title
;
Structure prediction by ZEFSAII (Michael W. Deem and Ramdas Pophale) SiO2 
 PCOD9087129
Probable space group: P -1
;
_chemical_formula_sum "Si O2"
_cell_formula_units_Z 14
_cell_length_a 12.600438
_cell_length_b 5.538748
_cell_length_c 8.647172
_cell_angle_alpha 106.056928
_cell_angle_beta 66.410330
_cell_angle_gamma 106.191763
_cell_volume 521.705217
_symmetry_space_group_name_H-M "P -1"
_symmetry_group_IT_number 2
_symmetry_cell_setting 'triclinic'
loop_
_space_group_symop_operation_xyz
x,y,z
-x,-y,-z
loop_
_atom_site_type_symbol
_atom_site_label
_atom_site_fract_x
_atom_site_fract_y
_atom_site_fract_z
Si Si1 0.046750 0.162578 0.354620
Si Si2 0.136892 0.036796 0.986200
Si Si3 0.414443 0.201620 0.121644
Si Si4 0.575431 0.746073 0.219701
Si Si5 0.168591 0.597223 0.550553
Si Si6 0.375444 0.051418 0.446111
Si Si7 0.135033 0.493939 0.872063
O O1 0.117644 0.015132 0.175163
O O2 0.132805 0.427360 0.391159
O O3 0.934192 0.237052 0.349257
O O4 0.000000 0.000000 0.500000
O O5 0.184322 0.312693 0.930350
O O6 0.194223 0.793034 0.870901
O O7 0.000000 0.000000 0.000000
O O8 0.490161 0.475115 0.182286
O O9 0.337008 0.124125 0.308553
O O10 0.360539 0.213943 0.981684
O O11 0.500000 0.000000 0.000000
O O12 0.620405 0.754490 0.375959
O O13 0.501983 0.976498 0.323733
O O14 0.148585 0.405339 0.673815
O O15 0.290558 0.787792 0.496660
O O16 0.000000 0.500000 0.000000
#
# Coordination Sequence:
#
# PCOD9087129 Si02
#       7
#     2   2   2   2   2   2   2
#     4  11  23  39  60  82 122 170 209 266 323 375
#     4  10  19  36  62  81 112 165 212 260 314 378
#     4   9  18  37  64  90 128 163 205 249 314 391
#     4   9  19  39  67  91 124 169 198 253 323 387
#     4  11  24  38  58  91 122 161 215 267 320 380
#     4  10  21  39  61  97 126 159 209 261 321 383
#     4  10  19  38  59  83 117 163 211 261 313 379
#
# _framework density 26.835080000000001
#
# number of rings (size 3 to 8) (size 9 to 14) (size 15 to 20)
#    0.000    2.000    2.857    2.143    2.000    1.143 
#    2.571    4.286    0.000    0.000    0.000    0.000 
#    0.000    0.000    0.000    0.000    0.000    0.000 
#
# Total GULP energy -78159.747661 kJ/mol
# GULP energy per Si atom -5582.839119 kJ/mol
# Density = 2.677400 g / cm^3
# Si number density = 26.835080 Si / 1000 Ang^3
#
#
#
# Elastic Constant Matrix: (Units=GPa)
#
#
# Indices 1 2 3 4 5 6 
#
# 1 86.3760 19.1197 43.9870 -11.5560 23.9889 -15.6658
# 2 19.1197 116.9278 53.1910 -3.1439 20.2178 -13.4001
# 3 43.9870 53.1910 243.1006 -19.5435 22.6029 9.8214
# 4 -11.5560 -3.1439 -19.5435 60.3157 -7.1275 5.0474
# 5 23.9889 20.2178 22.6029 -7.1275 39.6616 -6.4952
# 6 -15.6658 -13.4001 9.8214 5.0474 -6.4952 43.2566
#
#
#
# Elastic Compliance Matrix: (Units=1/GPa)
#
#
# Indices 1 2 3 4 5 6 
#
# 1 0.015830 0.000399 -0.002396 0.000971 -0.007390 0.005178
# 2 0.000399 0.010548 -0.002220 -0.000846 -0.003945 0.003422
# 3 -0.002396 -0.002220 0.005327 0.001320 -0.000714 -0.003026
# 4 0.000971 -0.000846 0.001320 0.017541 0.001921 -0.001968
# 5 -0.007390 -0.003945 -0.000714 0.001921 0.032599 0.000934
# 6 0.005178 0.003422 -0.003026 -0.001968 0.000934 0.027110
#
#
# Mechanical properties :
#
#
# Convention : Reuss Voigt Hill
#
# Bulk Modulus (GPa) = 42.96817 75.44441 59.20629
# Shear Modulus (GPa) = 39.95281 50.65389 45.30335
#
# Velocity S-wave (km/s) = 3.86272 4.34937 4.11325
# Velocity P-wave (km/s) = 5.99507 7.30738 6.68351
#
# Compressibility (1/GPa) = 0.02327304
#
# Stress axis : x y z
#
# Youngs Moduli (GPa) = 63.16926 94.80138 187.70827
#
# Poissons Ratio (x) = -0.03778 0.44967
# Poissons Ratio (y) = -0.02518 0.41663
# Poissons Ratio (z) = 0.15133 0.21042
#
# Static dielectric constant tensor:
#      x y z
#    x -1.995260 -3.820990 -3.639530 
#    y -3.820990 -1.456410 -3.408580 
#    z -3.639530 -3.408580 -1.047970 
# 
# From -- ./inp_files/89342.got.cif
#   From: 2010.05.17/outbox.cif.g08.bks.cpg/sg2_45_cif.got.tgz:89342.got - 2010.06.03 11:33:40.
