data_PCOD9087860
_publ_section_title
;
Structure prediction by ZEFSAII (Michael W. Deem and Ramdas Pophale) SiO2 
 PCOD9087860
Probable space group: P -1
;
_chemical_formula_sum "Si O2"
_cell_formula_units_Z 16
_cell_length_a 11.614002
_cell_length_b 16.754609
_cell_length_c 14.908845
_cell_angle_alpha 34.052540
_cell_angle_beta 151.592592
_cell_angle_gamma 134.969525
_cell_volume 770.175092
_symmetry_space_group_name_H-M "P -1"
_symmetry_group_IT_number 2
_symmetry_cell_setting 'triclinic'
loop_
_space_group_symop_operation_xyz
x,y,z
-x,-y,-z
loop_
_atom_site_type_symbol
_atom_site_label
_atom_site_fract_x
_atom_site_fract_y
_atom_site_fract_z
Si Si1 0.959693 0.814549 0.632647
Si Si2 0.249679 0.847779 0.967730
Si Si3 0.002925 0.326321 0.768961
Si Si4 0.284082 0.556260 0.063681
Si Si5 0.487295 0.251094 0.516174
Si Si6 0.204065 0.341054 0.701185
Si Si7 0.791660 0.837993 0.302380
Si Si8 0.160869 0.322818 0.071019
O O1 0.680446 0.834172 0.455034
O O2 0.967238 0.817095 0.528153
O O3 0.122051 0.894538 0.740627
O O4 0.077767 0.652140 0.884169
O O5 0.246774 0.990608 0.892273
O O6 0.525359 0.790043 0.191548
O O7 0.086913 0.737207 0.007512
O O8 0.773870 0.237093 0.719031
O O9 0.906742 0.494709 0.540271
O O10 0.114295 0.287749 0.784801
O O11 0.179851 0.311532 0.988748
O O12 0.179474 0.483027 0.971827
O O13 0.409648 0.418579 0.330238
O O14 0.504861 0.651948 0.104275
O O15 0.375496 0.235614 0.354491
O O16 0.132629 0.244959 0.658495
#
# Coordination Sequence:
#
# PCOD9087860 Si02
#       8
#     2   2   2   2   2   2   2   2
#     4  11  18  34  58  80 110 138 175 221 273 317
#     4  10  22  37  55  78 113 136 185 221 256 326
#     4  10  19  37  55  81 105 146 174 221 270 309
#     4   9  18  33  52  84 109 136 169 225 269 313
#     4   8  19  31  51  83 109 132 173 217 260 323
#     4  10  21  36  54  80 116 134 181 221 259 325
#     4  11  22  36  54  81 107 150 172 218 272 312
#     4   9  19  34  56  77 105 141 177 219 269 306
#
# _framework density 20.774495999999999
#
# number of rings (size 3 to 8) (size 9 to 14) (size 15 to 20)
#    0.750    1.500    1.250    2.250    0.000    0.500 
#    2.250    3.750    0.000    3.000    0.000    0.000 
#    0.000    0.000    0.000    0.000    0.000    0.000 
#
# Total GULP energy -89128.798188 kJ/mol
# GULP energy per Si atom -5570.549887 kJ/mol
# Density = 2.072721 g / cm^3
# Si number density = 20.774496 Si / 1000 Ang^3
#
#
#
# Elastic Constant Matrix: (Units=GPa)
#
#
# Indices 1 2 3 4 5 6 
#
# 1 103.1344 52.2705 19.5450 13.7050 -13.7354 -27.2091
# 2 52.2705 98.5251 10.8146 15.2306 -0.2837 -20.6566
# 3 19.5450 10.8146 28.7464 16.0353 -8.1848 -8.4350
# 4 13.7050 15.2306 16.0353 22.1154 -7.1742 -3.6083
# 5 -13.7354 -0.2837 -8.1848 -7.1742 24.1661 10.5418
# 6 -27.2091 -20.6566 -8.4350 -3.6083 10.5418 33.0447
#
#
#
# Elastic Compliance Matrix: (Units=1/GPa)
#
#
# Indices 1 2 3 4 5 6 
#
# 1 0.016527 -0.007047 -0.006397 0.001882 0.005008 0.006178
# 2 -0.007047 0.016847 0.005162 -0.012706 -0.009135 0.007573
# 3 -0.006397 0.005162 0.065452 -0.045164 0.001090 0.009388
# 4 0.001882 -0.012706 -0.045164 0.089170 0.018199 -0.013990
# 5 0.005008 -0.009135 0.001090 0.018199 0.057613 -0.017701
# 6 0.006178 0.007573 0.009388 -0.013990 -0.017701 0.046599
#
#
# Mechanical properties :
#
#
# Convention : Reuss Voigt Hill
#
# Bulk Modulus (GPa) = 12.15605 43.96292 28.05948
# Shear Modulus (GPa) = 14.87246 25.71697 20.29471
#
# Velocity S-wave (km/s) = 2.67853 3.52221 3.12894
# Velocity P-wave (km/s) = 3.92813 6.14404 5.15652
#
# Compressibility (1/GPa) = 0.08226357
#
# Stress axis : x y z
#
# Youngs Moduli (GPa) = 60.50849 59.35616 15.27826
#
# Poissons Ratio (x) = 0.41828 0.09773
# Poissons Ratio (y) = 0.42640 -0.07887
# Poissons Ratio (z) = 0.38706 -0.30642
#
# Static dielectric constant tensor:
#      x y z
#    x 1.749320 0.034470 -0.061880 
#    y 0.034470 1.804340 -0.020210 
#    z -0.061880 -0.020210 1.816360 
# 
# From -- ./inp_files/521492.got.cif
#   From: 2010.05.17/outbox.cif.g08.bks.cpg/sg2_261_cif.got.tgz:521492.got - 2010.06.03 11:33:40.
