data_PCOD9087360
_publ_section_title
;
Structure prediction by ZEFSAII (Michael W. Deem and Ramdas Pophale) SiO2 
 PCOD9087360
Probable space group: P -1
;
_chemical_formula_sum "Si O2"
_cell_formula_units_Z 16
_cell_length_a 29.110851
_cell_length_b 11.844492
_cell_length_c 5.282063
_cell_angle_alpha 129.704712
_cell_angle_beta 123.313008
_cell_angle_gamma 31.496927
_cell_volume 732.010050
_symmetry_space_group_name_H-M "P -1"
_symmetry_group_IT_number 2
_symmetry_cell_setting 'triclinic'
loop_
_space_group_symop_operation_xyz
x,y,z
-x,-y,-z
loop_
_atom_site_type_symbol
_atom_site_label
_atom_site_fract_x
_atom_site_fract_y
_atom_site_fract_z
Si Si1 0.857908 0.827201 0.693334
Si Si2 0.813768 0.496208 0.632179
Si Si3 0.712380 0.946357 0.247388
Si Si4 0.067276 0.222463 0.652878
Si Si5 0.622481 0.382235 0.283343
Si Si6 0.228633 0.737115 0.677727
Si Si7 0.551549 0.287523 0.544502
Si Si8 0.927673 0.277999 0.164954
O O1 0.792316 0.826478 0.501765
O O2 0.901898 0.739744 0.428749
O O3 0.925576 0.708431 0.958651
O O4 0.798935 0.096672 0.939651
O O5 0.768670 0.434755 0.471316
O O6 0.855907 0.404851 0.350976
O O7 0.748080 0.766928 0.879448
O O8 0.888423 0.360447 0.881592
O O9 0.677684 0.172987 0.354670
O O10 0.630863 0.044922 0.290515
O O11 0.981530 0.312517 0.444254
O O12 0.146156 0.936910 0.524289
O O13 0.683795 0.378160 0.344116
O O14 0.528014 0.636045 0.460558
O O15 0.596371 0.307491 0.902000
O O16 0.500000 0.500000 0.500000
O O17 0.000000 0.000000 0.000000
#
# Coordination Sequence:
#
# PCOD9087360 Si02
#       8
#     2   2   2   2   2   2   2   2
#     4  10  19  36  63  87 118 172 202 263 307 380
#     4  12  28  38  67  97 130 169 212 275 329 362
#     4  11  22  40  61  97 136 162 206 270 331 373
#     4  10  20  35  65  82 116 161 226 262 295 362
#     4  10  19  38  69  91 126 168 216 251 307 394
#     4  10  21  37  64  94 119 171 221 255 305 385
#     4   9  19  36  65  99 120 166 212 253 307 389
#     4  12  23  45  61  91 129 175 221 264 315 389
#
# _framework density 21.857624000000001
#
# number of rings (size 3 to 8) (size 9 to 14) (size 15 to 20)
#    0.750    0.750    3.750    1.875    1.750    0.000 
#    0.000    4.375    0.000    6.750    0.000    0.000 
#    0.000    0.000    0.000    0.000    0.000    0.000 
#
# Total GULP energy -89365.924599 kJ/mol
# GULP energy per Si atom -5585.370287 kJ/mol
# Density = 2.180787 g / cm^3
# Si number density = 21.857624 Si / 1000 Ang^3
#
#
#
# Elastic Constant Matrix: (Units=GPa)
#
#
# Indices 1 2 3 4 5 6 
#
# 1 120.9904 25.3217 21.6571 11.6397 0.6912 -22.0168
# 2 25.3217 61.2563 12.4229 -8.8986 0.4759 -10.8655
# 3 21.6571 12.4229 76.8534 8.2164 -3.2831 -2.4407
# 4 11.6397 -8.8986 8.2164 43.1058 -1.3977 -8.3307
# 5 0.6912 0.4759 -3.2831 -1.3977 42.5451 -0.9952
# 6 -22.0168 -10.8655 -2.4407 -8.3307 -0.9952 32.8003
#
#
#
# Elastic Compliance Matrix: (Units=1/GPa)
#
#
# Indices 1 2 3 4 5 6 
#
# 1 0.010479 -0.003293 -0.002038 -0.002114 -0.000237 0.005247
# 2 -0.003293 0.020333 -0.002896 0.006804 -0.000033 0.006037
# 3 -0.002038 -0.002896 0.014370 -0.003145 0.001024 -0.002026
# 4 -0.002114 0.006804 -0.003145 0.027258 0.000788 0.007548
# 5 -0.000237 -0.000033 0.001024 0.000788 0.023633 0.000823
# 6 0.005247 0.006037 -0.002026 0.007548 0.000823 0.037801
#
#
# Mechanical properties :
#
#
# Convention : Reuss Voigt Hill
#
# Bulk Modulus (GPa) = 34.80964 41.98928 38.39946
# Shear Modulus (GPa) = 31.26911 37.00344 34.13628
#
# Velocity S-wave (km/s) = 3.78641 4.11899 3.95619
# Velocity P-wave (km/s) = 5.92250 6.47097 6.20280
#
# Compressibility (1/GPa) = 0.02872768
#
# Stress axis : x y z
#
# Youngs Moduli (GPa) = 95.43198 49.18154 69.59027
#
# Poissons Ratio (x) = 0.16195 0.14183
# Poissons Ratio (y) = 0.31425 0.20152
# Poissons Ratio (z) = 0.19449 0.14242
#
# Static dielectric constant tensor:
#      x y z
#    x 1.805520 -0.011860 -0.037150 
#    y -0.011860 1.930130 0.021240 
#    z -0.037150 0.021240 1.804600 
# 
# From -- ./inp_files/128451.got.cif
#   From: 2010.05.17/outbox.cif.g08.bks.cpg/sg2_65_cif.got.tgz:128451.got - 2010.06.03 11:33:40.
