data_PCOD9087284
_publ_section_title
;
Structure prediction by ZEFSAII (Michael W. Deem and Ramdas Pophale) SiO2 
 PCOD9087284
Probable space group: P -1
;
_chemical_formula_sum "Si O2"
_cell_formula_units_Z 16
_cell_length_a 11.085025
_cell_length_b 9.608319
_cell_length_c 13.602385
_cell_angle_alpha 95.170423
_cell_angle_beta 43.019067
_cell_angle_gamma 119.870683
_cell_volume 759.623131
_symmetry_space_group_name_H-M "P -1"
_symmetry_group_IT_number 2
_symmetry_cell_setting 'triclinic'
loop_
_space_group_symop_operation_xyz
x,y,z
-x,-y,-z
loop_
_atom_site_type_symbol
_atom_site_label
_atom_site_fract_x
_atom_site_fract_y
_atom_site_fract_z
Si Si1 0.609641 0.488295 0.337680
Si Si2 0.425494 0.859059 0.902227
Si Si3 0.176453 0.130139 0.275106
Si Si4 0.150353 0.278435 0.480403
Si Si5 0.217312 0.724594 0.217490
Si Si6 0.440939 0.340408 0.955085
Si Si7 0.178520 0.684551 0.844338
Si Si8 0.881548 0.789507 0.039749
O O1 0.500000 0.500000 0.500000
O O2 0.405035 0.388795 0.374013
O O3 0.692579 0.369893 0.298429
O O4 0.805797 0.682297 0.182176
O O5 0.582375 0.802182 0.819750
O O6 0.346626 0.829662 0.836590
O O7 0.592486 0.068641 0.845196
O O8 0.225300 0.744331 0.095374
O O9 0.123000 0.240631 0.377449
O O10 0.230194 0.164778 0.130730
O O11 0.989828 0.920225 0.398756
O O12 0.023854 0.353371 0.598529
O O13 0.331133 0.637994 0.176398
O O14 0.338931 0.309127 0.906230
O O15 0.500000 0.500000 0.000000
O O16 0.000000 0.500000 0.000000
O O17 0.044368 0.752651 0.889258
O O18 0.000000 0.000000 0.000000
#
# Coordination Sequence:
#
# PCOD9087284 Si02
#       8
#     2   2   2   2   2   2   2   2
#     4  11  25  41  65  94 129 163 218 271 311 380
#     4   9  16  35  57  88 117 150 215 255 298 360
#     4   9  19  35  62  90 117 157 200 264 309 370
#     4  10  19  36  62  93 122 149 206 260 325 354
#     4   9  20  31  61  90 117 159 199 260 309 378
#     4  11  23  39  62  86 128 166 218 250 312 377
#     4  10  22  38  65  86 125 170 219 257 307 378
#     4  11  26  45  66  93 131 175 217 258 323 390
#
# _framework density 21.063075999999999
#
# number of rings (size 3 to 8) (size 9 to 14) (size 15 to 20)
#    0.000    2.000    1.250    2.250   10.500    0.000 
#    0.000    4.375    0.000    0.000    0.000    0.000 
#    0.000    0.000    0.000    0.000    0.000    0.000 
#
# Total GULP energy -89232.793859 kJ/mol
# GULP energy per Si atom -5577.049616 kJ/mol
# Density = 2.101514 g / cm^3
# Si number density = 21.063076 Si / 1000 Ang^3
#
#
#
# Elastic Constant Matrix: (Units=GPa)
#
#
# Indices 1 2 3 4 5 6 
#
# 1 35.6539 21.4820 -6.4925 6.5093 -3.3898 -12.5279
# 2 21.4820 99.1511 29.7255 26.9436 -11.7552 -14.2636
# 3 -6.4925 29.7255 76.0761 20.0574 -2.8937 -17.2671
# 4 6.5093 26.9436 20.0574 37.9749 -6.8545 -10.1475
# 5 -3.3898 -11.7552 -2.8937 -6.8545 31.5557 9.9576
# 6 -12.5279 -14.2636 -17.2671 -10.1475 9.9576 29.6843
#
#
#
# Elastic Compliance Matrix: (Units=1/GPa)
#
#
# Indices 1 2 3 4 5 6 
#
# 1 0.044692 -0.010492 0.013456 -0.002248 -0.005537 0.022737
# 2 -0.010492 0.015889 -0.006115 -0.006571 0.004052 -0.003956
# 3 0.013456 -0.006115 0.021493 -0.006261 -0.004872 0.014737
# 4 -0.002248 -0.006571 -0.006261 0.036248 0.003517 0.003463
# 5 -0.005537 0.004052 -0.004872 0.003517 0.037533 -0.014611
# 6 0.022737 -0.003956 0.014737 0.003463 -0.014611 0.056040
#
#
# Mechanical properties :
#
#
# Convention : Reuss Voigt Hill
#
# Bulk Modulus (GPa) = 13.19739 33.36791 23.28265
# Shear Modulus (GPa) = 20.53770 30.92071 25.72921
#
# Velocity S-wave (km/s) = 3.12598 3.83561 3.49883
# Velocity P-wave (km/s) = 4.39411 5.95753 5.23452
#
# Compressibility (1/GPa) = 0.07577258
#
# Stress axis : x y z
#
# Youngs Moduli (GPa) = 22.37514 62.93644 46.52717
#
# Poissons Ratio (x) = 0.66033 -0.62608
# Poissons Ratio (y) = 0.23476 0.28452
# Poissons Ratio (z) = -0.30109 0.38487
#
# Static dielectric constant tensor:
#      x y z
#    x 1.825340 0.001420 0.015280 
#    y 0.001420 1.839000 0.010010 
#    z 0.015280 0.010010 1.846100 
# 
# From -- ./inp_files/515754.got.cif
#   From: 2010.05.17/outbox.cif.g08.bks.cpg/sg2_258_cif.got.tgz:515754.got - 2010.06.03 11:33:40.
