data_PCOD9087072
_publ_section_title
;
Structure prediction by ZEFSAII (Michael W. Deem and Ramdas Pophale) SiO2 
 PCOD9087072
Probable space group: P -1
;
_chemical_formula_sum "Si O2"
_cell_formula_units_Z 16
_cell_length_a 17.373829
_cell_length_b 10.766817
_cell_length_c 5.388527
_cell_angle_alpha 80.853735
_cell_angle_beta 98.090449
_cell_angle_gamma 134.791295
_cell_volume 705.652945
_symmetry_space_group_name_H-M "P -1"
_symmetry_group_IT_number 2
_symmetry_cell_setting 'triclinic'
loop_
_space_group_symop_operation_xyz
x,y,z
-x,-y,-z
loop_
_atom_site_type_symbol
_atom_site_label
_atom_site_fract_x
_atom_site_fract_y
_atom_site_fract_z
Si Si1 0.477495 0.259813 0.182363
Si Si2 0.175289 0.725978 0.095794
Si Si3 0.402664 0.909938 0.169887
Si Si4 0.001669 0.386956 0.346029
Si Si5 0.608982 0.387417 0.677476
Si Si6 0.767115 0.947682 0.854579
Si Si7 0.839258 0.777455 0.683772
Si Si8 0.942915 0.061779 0.283965
O O1 0.547737 0.380037 0.415010
O O2 0.362739 0.201999 0.118423
O O3 0.438286 0.072407 0.287145
O O4 0.544125 0.334739 0.927413
O O5 0.292311 0.826099 0.008031
O O6 0.123005 0.542189 0.245393
O O7 0.198410 0.868932 0.249163
O O8 0.087350 0.673589 0.878007
O O9 0.383246 0.753146 0.330806
O O10 0.500000 0.000000 0.000000
O O11 0.000000 0.500000 0.500000
O O12 0.977525 0.214176 0.440086
O O13 0.731037 0.575321 0.697705
O O14 0.801568 0.873734 0.717402
O O15 0.840226 0.999860 0.109473
O O16 0.944407 0.835549 0.848133
O O17 0.897032 0.877099 0.418613
#
# Coordination Sequence:
#
# PCOD9087072 Si02
#       8
#     2   2   2   2   2   2   2   2
#     4  10  24  43  69  97 129 169 218 269 329 384
#     4   9  19  37  60  92 120 160 211 257 322 383
#     4   9  19  42  63  93 128 166 207 266 324 386
#     4  10  19  36  61  91 124 158 206 265 320 380
#     4  11  24  43  66  99 130 172 217 267 325 386
#     4  10  22  41  65  87 128 169 212 271 319 386
#     4  11  24  40  64  89 128 170 219 265 320 383
#     4  10  23  42  60  93 125 169 218 261 327 384
#
# _framework density 22.674033000000001
#
# number of rings (size 3 to 8) (size 9 to 14) (size 15 to 20)
#    0.000    2.000    0.000    2.250    3.500    1.000 
#   20.250    0.000    0.000    0.000    0.000    0.000 
#    0.000    0.000    0.000    0.000    0.000    0.000 
#
# Total GULP energy -89070.252686 kJ/mol
# GULP energy per Si atom -5566.890793 kJ/mol
# Density = 2.262243 g / cm^3
# Si number density = 22.674033 Si / 1000 Ang^3
#
#
#
# Elastic Constant Matrix: (Units=GPa)
#
#
# Indices 1 2 3 4 5 6 
#
# 1 159.7586 90.7093 37.9454 7.3994 9.8076 51.4582
# 2 90.7093 191.6016 61.8129 -1.3454 17.8726 60.0730
# 3 37.9454 61.8129 64.1429 10.3352 6.0347 24.2067
# 4 7.3994 -1.3454 10.3352 25.1350 0.3321 9.1013
# 5 9.8076 17.8726 6.0347 0.3321 28.9439 13.8466
# 6 51.4582 60.0730 24.2067 9.1013 13.8466 69.0377
#
#
#
# Elastic Compliance Matrix: (Units=1/GPa)
#
#
# Indices 1 2 3 4 5 6 
#
# 1 0.009535 -0.002896 -0.001184 -0.000961 0.000830 -0.004212
# 2 -0.002896 0.010902 -0.007743 0.006496 -0.001764 -0.005116
# 3 -0.001184 -0.007743 0.025416 -0.010556 -0.000048 0.000110
# 4 -0.000961 0.006496 -0.010556 0.047577 0.001726 -0.007853
# 5 0.000830 -0.001764 -0.000048 0.001726 0.038726 -0.007062
# 6 -0.004212 -0.005116 0.000110 -0.007853 -0.007062 0.024489
#
#
# Mechanical properties :
#
#
# Convention : Reuss Voigt Hill
#
# Bulk Modulus (GPa) = 45.02849 88.49314 66.76081
# Shear Modulus (GPa) = 26.63911 39.62569 33.13240
#
# Velocity S-wave (km/s) = 3.43136 4.18499 3.82677
# Velocity P-wave (km/s) = 5.96667 7.90350 7.00238
#
# Compressibility (1/GPa) = 0.02220816
#
# Stress axis : x y z
#
# Youngs Moduli (GPa) = 104.87595 91.72440 39.34461
#
# Poissons Ratio (x) = 0.26562 0.04657
# Poissons Ratio (y) = 0.30370 0.30465
# Poissons Ratio (z) = 0.12415 0.71024
#
# Static dielectric constant tensor:
#      x y z
#    x 1.946810 -0.034230 0.005120 
#    y -0.034230 1.848560 -0.017540 
#    z 0.005120 -0.017540 1.916100 
# 
# From -- ./inp_files/78363.got.cif
#   From: 2010.05.17/outbox.cif.g08.bks.cpg/sg2_40_cif.got.tgz:78363.got - 2010.06.03 11:33:40.
