data_PCOD9087585
_publ_section_title
;
Structure prediction by ZEFSAII (Michael W. Deem and Ramdas Pophale) SiO2 
 PCOD9087585
Probable space group: P -1
;
_chemical_formula_sum "Si O2"
_cell_formula_units_Z 16
_cell_length_a 24.318251
_cell_length_b 18.537149
_cell_length_c 14.962825
_cell_angle_alpha 150.001769
_cell_angle_beta 21.494471
_cell_angle_gamma 161.607979
_cell_volume 771.433724
_symmetry_space_group_name_H-M "P -1"
_symmetry_group_IT_number 2
_symmetry_cell_setting 'triclinic'
loop_
_space_group_symop_operation_xyz
x,y,z
-x,-y,-z
loop_
_atom_site_type_symbol
_atom_site_label
_atom_site_fract_x
_atom_site_fract_y
_atom_site_fract_z
Si Si1 0.850726 0.162607 0.147327
Si Si2 0.762478 0.867137 0.269387
Si Si3 0.635673 0.544353 0.253976
Si Si4 0.647994 0.260310 0.297002
Si Si5 0.918534 0.436496 0.906716
Si Si6 0.627607 0.272631 0.684947
Si Si7 0.409915 0.785740 0.119512
Si Si8 0.904551 0.248329 0.566753
O O1 0.977590 0.361913 0.097091
O O2 0.713572 0.170702 0.429932
O O3 0.641289 0.917855 0.151212
O O4 0.075476 0.250629 0.945401
O O5 0.623276 0.635761 0.283141
O O6 0.589073 0.825906 0.420574
O O7 0.836969 0.038512 0.416323
O O8 0.000000 0.000000 0.000000
O O9 0.500000 0.500000 0.500000
O O10 0.538630 0.311977 0.125876
O O11 0.859680 0.453556 0.251871
O O12 0.605715 0.055781 0.137253
O O13 0.728950 0.355838 0.176254
O O14 0.814318 0.234232 0.783978
O O15 0.658431 0.326904 0.801055
O O16 0.811069 0.509900 0.607688
O O17 0.207527 0.727091 0.311480
#
# Coordination Sequence:
#
# PCOD9087585 Si02
#       8
#     2   2   2   2   2   2   2   2
#     4  10  21  37  64  92 123 157 200 263 302 363
#     4  11  26  41  60  93 133 166 199 250 320 373
#     4  12  26  42  61  91 132 168 203 250 315 376
#     4  10  23  38  69  88 123 158 208 260 302 368
#     4  10  19  41  64  95 115 155 217 260 303 345
#     4  10  19  36  64  95 115 151 212 259 302 344
#     4  11  21  37  65  91 118 160 213 252 297 368
#     4  10  22  37  66  91 121 159 212 253 298 368
#
# _framework density 20.740603
#
# number of rings (size 3 to 8) (size 9 to 14) (size 15 to 20)
#    0.000    1.500    3.750    1.875    5.250    1.000 
#    0.000    4.375    0.000    0.000    0.000    0.000 
#    0.000    0.000    0.000    0.000    0.000    0.000 
#
# Total GULP energy -89319.798958 kJ/mol
# GULP energy per Si atom -5582.487435 kJ/mol
# Density = 2.069340 g / cm^3
# Si number density = 20.740603 Si / 1000 Ang^3
#
#
#
# Elastic Constant Matrix: (Units=GPa)
#
#
# Indices 1 2 3 4 5 6 
#
# 1 55.0916 -1.3163 22.4121 6.2111 10.9474 12.1484
# 2 -1.3163 54.7421 14.6047 8.6458 -7.1547 5.5153
# 3 22.4121 14.6047 79.9152 0.8628 -6.2788 12.2883
# 4 6.2111 8.6458 0.8628 22.1628 2.6395 -2.3179
# 5 10.9474 -7.1547 -6.2788 2.6395 24.8958 -1.8116
# 6 12.1484 5.5153 12.2883 -2.3179 -1.8116 35.6872
#
#
#
# Elastic Compliance Matrix: (Units=1/GPa)
#
#
# Indices 1 2 3 4 5 6 
#
# 1 0.026422 0.003059 -0.007639 -0.007653 -0.012434 -0.007965
# 2 0.003059 0.021966 -0.003840 -0.010221 0.004826 -0.003533
# 3 -0.007639 -0.003840 0.016096 0.002103 0.005953 -0.001910
# 4 -0.007653 -0.010221 0.002103 0.052356 -0.004109 0.006653
# 5 -0.012434 0.004826 0.005953 -0.004109 0.049226 0.003669
# 6 -0.007965 -0.003533 -0.001910 0.006653 0.003669 0.032555
#
#
# Mechanical properties :
#
#
# Convention : Reuss Voigt Hill
#
# Bulk Modulus (GPa) = 20.98778 29.01665 25.00221
# Shear Modulus (GPa) = 21.61304 26.81904 24.21604
#
# Velocity S-wave (km/s) = 3.23160 3.59983 3.42067
# Velocity P-wave (km/s) = 4.90566 5.59455 5.26139
#
# Compressibility (1/GPa) = 0.04764678
#
# Stress axis : x y z
#
# Youngs Moduli (GPa) = 37.84672 45.52395 62.12758
#
# Poissons Ratio (x) = -0.13928 0.47457
# Poissons Ratio (y) = -0.11579 0.23855
# Poissons Ratio (z) = 0.28910 0.17480
#
# Static dielectric constant tensor:
#      x y z
#    x 1.763430 -0.004920 0.013350 
#    y -0.004920 1.783910 -0.012130 
#    z 0.013350 -0.012130 1.756600 
# 
# From -- ./inp_files/206455.got.cif
#   From: 2010.05.17/outbox.cif.g08.bks.cpg/sg2_104_cif.got.tgz:206455.got - 2010.06.03 11:33:40.
