data_PCOD9087240
_publ_section_title
;
Structure prediction by ZEFSAII (Michael W. Deem and Ramdas Pophale) SiO2 
 PCOD9087240
Probable space group: P -1
;
_chemical_formula_sum "Si O2"
_cell_formula_units_Z 14
_cell_length_a 9.907010
_cell_length_b 9.360845
_cell_length_c 10.962046
_cell_angle_alpha 127.658171
_cell_angle_beta 55.066598
_cell_angle_gamma 101.753199
_cell_volume 642.852317
_symmetry_space_group_name_H-M "P -1"
_symmetry_group_IT_number 2
_symmetry_cell_setting 'triclinic'
loop_
_space_group_symop_operation_xyz
x,y,z
-x,-y,-z
loop_
_atom_site_type_symbol
_atom_site_label
_atom_site_fract_x
_atom_site_fract_y
_atom_site_fract_z
Si Si1 0.637294 0.496388 0.823395
Si Si2 0.042954 0.563187 0.215598
Si Si3 0.406228 0.844425 0.008027
Si Si4 0.209939 0.591965 0.881789
Si Si5 0.342369 0.896390 0.519484
Si Si6 0.508793 0.686100 0.521095
Si Si7 0.230885 0.085820 0.436599
O O1 0.810828 0.516901 0.806691
O O2 0.653289 0.298635 0.650233
O O3 0.500000 0.500000 0.000000
O O4 0.554410 0.667170 0.870580
O O5 0.914182 0.434572 0.177342
O O6 0.936598 0.759646 0.423328
O O7 0.122928 0.593573 0.058983
O O8 0.286743 0.917272 0.225555
O O9 0.289950 0.770944 0.930907
O O10 0.500000 0.000000 0.000000
O O11 0.360523 0.407113 0.702867
O O12 0.343882 0.821784 0.619602
O O13 0.500000 0.000000 0.500000
O O14 0.220976 0.029171 0.555018
O O15 0.500000 0.500000 0.500000
O O16 0.614692 0.810558 0.600960
#
# Coordination Sequence:
#
# PCOD9087240 Si02
#       7
#     2   2   2   2   2   2   2
#     4  12  21  41  66  91 124 168 219 261 314 378
#     4  10  22  40  68  93 124 168 216 270 315 369
#     4  12  24  40  66  97 131 170 210 261 320 386
#     4  10  20  39  65  88 127 166 211 254 323 368
#     4  10  20  35  60  94 120 158 213 264 303 365
#     4  10  19  36  62  90 125 165 206 256 316 381
#     4  10  22  37  61  93 127 157 214 263 313 371
#
# _framework density 21.777939
#
# number of rings (size 3 to 8) (size 9 to 14) (size 15 to 20)
#    0.000    1.429    4.286    0.857    0.000    2.286 
#    0.000    1.429    6.286    0.000    0.000    0.000 
#    0.000    0.000    0.000    0.000    0.000    0.000 
#
# Total GULP energy -77979.927796 kJ/mol
# GULP energy per Si atom -5569.994843 kJ/mol
# Density = 2.172837 g / cm^3
# Si number density = 21.777939 Si / 1000 Ang^3
#
#
#
# Elastic Constant Matrix: (Units=GPa)
#
#
# Indices 1 2 3 4 5 6 
#
# 1 151.8501 38.0846 30.6285 19.3061 4.4617 9.6826
# 2 38.0846 114.6186 2.2396 26.3856 1.1226 2.3201
# 3 30.6285 2.2396 72.2135 14.1454 5.5462 2.9484
# 4 19.3061 26.3856 14.1454 28.0604 6.3192 7.9305
# 5 4.4617 1.1226 5.5462 6.3192 26.4487 10.4911
# 6 9.6826 2.3201 2.9484 7.9305 10.4911 30.3046
#
#
#
# Elastic Compliance Matrix: (Units=1/GPa)
#
#
# Indices 1 2 3 4 5 6 
#
# 1 0.008050 -0.002240 -0.003013 -0.001488 0.000470 -0.001881
# 2 -0.002240 0.012174 0.002777 -0.012240 0.001305 0.002265
# 3 -0.003013 0.002777 0.016904 -0.009264 -0.001794 0.002151
# 4 -0.001488 -0.012240 -0.009264 0.057303 -0.006894 -0.010295
# 5 0.000470 0.001305 -0.001794 -0.006894 0.045222 -0.013927
# 6 -0.001881 0.002265 0.002151 -0.010295 -0.013927 0.040732
#
#
# Mechanical properties :
#
#
# Convention : Reuss Voigt Hill
#
# Bulk Modulus (GPa) = 31.07771 53.39862 42.23816
# Shear Modulus (GPa) = 25.50214 34.81134 30.15674
#
# Velocity S-wave (km/s) = 3.42571 4.00242 3.72524
# Velocity P-wave (km/s) = 5.47253 6.77732 6.15957
#
# Compressibility (1/GPa) = 0.03217741
#
# Stress axis : x y z
#
# Youngs Moduli (GPa) = 124.22008 82.14450 59.15683
#
# Poissons Ratio (x) = 0.18400 0.17823
# Poissons Ratio (y) = 0.27825 -0.16430
# Poissons Ratio (z) = 0.37425 -0.22815
#
# Static dielectric constant tensor:
#      x y z
#    x 1.843130 0.006600 0.004360 
#    y 0.006600 1.858200 -0.041770 
#    z 0.004360 -0.041770 1.855650 
# 
# From -- ./inp_files/224085.got.cif
#   From: 2010.05.17/outbox.cif.g08.bks.cpg/sg2_113_cif.got.tgz:224085.got - 2010.06.03 11:33:40.
