data_PCOD9087357
_publ_section_title
;
Structure prediction by ZEFSAII (Michael W. Deem and Ramdas Pophale) SiO2 
 PCOD9087357
Probable space group: P -1
;
_chemical_formula_sum "Si O2"
_cell_formula_units_Z 12
_cell_length_a 10.128074
_cell_length_b 8.645361
_cell_length_c 9.136190
_cell_angle_alpha 69.176366
_cell_angle_beta 54.415119
_cell_angle_gamma 104.076456
_cell_volume 490.030039
_symmetry_space_group_name_H-M "P -1"
_symmetry_group_IT_number 2
_symmetry_cell_setting 'triclinic'
loop_
_space_group_symop_operation_xyz
x,y,z
-x,-y,-z
loop_
_atom_site_type_symbol
_atom_site_label
_atom_site_fract_x
_atom_site_fract_y
_atom_site_fract_z
Si Si1 0.363324 0.743432 0.995905
Si Si2 0.991309 0.734120 0.617400
Si Si3 0.637233 0.670268 0.734105
Si Si4 0.993280 0.132986 0.122845
Si Si5 0.718381 0.670916 0.366938
Si Si6 0.286690 0.019090 0.084364
O O1 0.157758 0.514174 0.211504
O O2 0.320995 0.911847 0.966584
O O3 0.506609 0.757440 0.769679
O O4 0.505852 0.810964 0.025697
O O5 0.846842 0.800513 0.638935
O O6 0.057154 0.796529 0.722020
O O7 0.163350 0.843149 0.348020
O O8 0.689930 0.604220 0.576243
O O9 0.500000 0.500000 0.000000
O O10 0.162190 0.100443 0.079486
O O11 0.111435 0.299543 0.861067
O O12 0.808749 0.911202 0.256699
O O13 0.500000 0.500000 0.500000
#
# Coordination Sequence:
#
# PCOD9087357 Si02
#       6
#     2   2   2   2   2   2
#     4  10  22  34  58  92 123 150 193 246 302 345
#     4  11  20  38  63  87 115 158 200 247 290 346
#     4  10  19  36  63  87 110 155 201 241 286 347
#     4  11  23  37  62  90 118 156 201 244 295 351
#     4  11  23  38  58  90 121 154 200 248 293 347
#     4  11  21  36  57  93 123 151 194 248 296 352
#
# _framework density 24.488295000000001
#
# number of rings (size 3 to 8) (size 9 to 14) (size 15 to 20)
#    0.000    1.333    3.333    4.000    2.333    0.000 
#    0.000    0.833    0.000    9.000    0.000    0.000 
#    0.000    0.000    0.000    0.000    0.000    0.000 
#
# Total GULP energy -66925.646910 kJ/mol
# GULP energy per Si atom -5577.137243 kJ/mol
# Density = 2.443256 g / cm^3
# Si number density = 24.488295 Si / 1000 Ang^3
#
#
#
# Elastic Constant Matrix: (Units=GPa)
#
#
# Indices 1 2 3 4 5 6 
#
# 1 44.5165 26.8681 13.0228 -3.0676 -0.8342 7.5865
# 2 26.8681 115.1139 28.6791 -18.4817 -3.9436 38.3985
# 3 13.0228 28.6791 151.6968 -2.2396 3.0185 22.0458
# 4 -3.0676 -18.4817 -2.2396 52.1536 13.5406 -10.5551
# 5 -0.8342 -3.9436 3.0185 13.5406 23.9741 6.0855
# 6 7.5865 38.3985 22.0458 -10.5551 6.0855 45.0582
#
#
#
# Elastic Compliance Matrix: (Units=1/GPa)
#
#
# Indices 1 2 3 4 5 6 
#
# 1 0.026431 -0.006456 -0.001284 -0.000427 -0.000146 0.001600
# 2 -0.006456 0.014441 -0.000616 0.001324 0.004321 -0.011192
# 3 -0.001284 -0.000616 0.007237 -0.000582 0.000018 -0.002939
# 4 -0.000427 0.001324 -0.000582 0.025156 -0.015772 0.007251
# 5 -0.000146 0.004321 0.000018 -0.015772 0.055080 -0.014800
# 6 0.001600 -0.011192 -0.002939 0.007251 -0.014800 0.036597
#
#
# Mechanical properties :
#
#
# Convention : Reuss Voigt Hill
#
# Bulk Modulus (GPa) = 31.85098 49.82970 40.84034
# Shear Modulus (GPa) = 26.02519 40.42099 33.22309
#
# Velocity S-wave (km/s) = 3.26354 4.06720 3.68733
# Velocity P-wave (km/s) = 5.21879 6.51526 5.90273
#
# Compressibility (1/GPa) = 0.03139621
#
# Stress axis : x y z
#
# Youngs Moduli (GPa) = 37.83387 69.24538 138.18075
#
# Poissons Ratio (x) = 0.44708 0.17748
# Poissons Ratio (y) = 0.24427 0.08510
# Poissons Ratio (z) = 0.04859 0.04265
#
# Static dielectric constant tensor:
#      x y z
#    x 2.045440 -0.055660 0.031380 
#    y -0.055660 2.063020 0.027520 
#    z 0.031380 0.027520 2.034180 
# 
# From -- ./inp_files/248163.got.cif
#   From: 2010.05.17/outbox.cif.g08.bks.cpg/sg2_125_cif.got.tgz:248163.got - 2010.06.03 11:33:40.
