data_PCOD9087035
_publ_section_title
;
Structure prediction by ZEFSAII (Michael W. Deem and Ramdas Pophale) SiO2 
 PCOD9087035
Probable space group: P -1
;
_chemical_formula_sum "Si O2"
_cell_formula_units_Z 14
_cell_length_a 16.355329
_cell_length_b 12.046418
_cell_length_c 8.913639
_cell_angle_alpha 54.075648
_cell_angle_beta 54.897865
_cell_angle_gamma 26.623895
_cell_volume 631.103130
_symmetry_space_group_name_H-M "P -1"
_symmetry_group_IT_number 2
_symmetry_cell_setting 'triclinic'
loop_
_space_group_symop_operation_xyz
x,y,z
-x,-y,-z
loop_
_atom_site_type_symbol
_atom_site_label
_atom_site_fract_x
_atom_site_fract_y
_atom_site_fract_z
Si Si1 0.440576 0.602969 0.734056
Si Si2 0.077115 0.368627 0.246657
Si Si3 0.296181 0.611604 0.625700
Si Si4 0.337884 0.172178 0.652654
Si Si5 0.377077 0.819401 0.922476
Si Si6 0.981760 0.758046 0.870261
Si Si7 0.481424 0.898086 0.218338
O O1 0.293158 0.732129 0.660262
O O2 0.624461 0.422250 0.586996
O O3 0.394996 0.777472 0.758466
O O4 0.469710 0.442553 0.943900
O O5 0.876453 0.578608 0.367948
O O6 0.086179 0.243067 0.205899
O O7 0.271520 0.135046 0.310290
O O8 0.071170 0.527827 0.052214
O O9 0.114321 0.731153 0.714691
O O10 0.455262 0.319965 0.741295
O O11 0.376726 0.236481 0.690194
O O12 0.500000 0.000000 0.500000
O O13 0.374389 0.981525 0.836635
O O14 0.181022 0.996081 0.050296
O O15 0.500000 0.000000 0.000000
#
# Coordination Sequence:
#
# PCOD9087035 Si02
#       7
#     2   2   2   2   2   2   2
#     4  10  23  40  58  84 120 167 210 242 293 359
#     4  10  20  36  59  98 124 153 200 245 317 378
#     4  11  21  37  64  89 118 162 206 251 295 358
#     4  11  23  39  63  93 126 158 195 260 315 359
#     4  10  22  40  59  84 123 163 202 249 303 362
#     4  10  19  36  61  89 125 154 200 257 301 364
#     4  12  20  36  67  92 118 160 198 251 313 364
#
# _framework density 22.183378999999999
#
# number of rings (size 3 to 8) (size 9 to 14) (size 15 to 20)
#    0.000    1.429    2.857    4.286    0.000    1.714 
#    0.000    0.000    0.000    0.000    0.000    0.000 
#    0.000    0.000    0.000    0.000    0.000    0.000 
#
# Total GULP energy -78162.433622 kJ/mol
# GULP energy per Si atom -5583.030973 kJ/mol
# Density = 2.213289 g / cm^3
# Si number density = 22.183379 Si / 1000 Ang^3
#
#
#
# Elastic Constant Matrix: (Units=GPa)
#
#
# Indices 1 2 3 4 5 6 
#
# 1 87.9003 5.1598 19.9367 17.2059 -2.7903 1.6131
# 2 5.1598 56.2201 8.8770 18.7117 3.6875 -15.3554
# 3 19.9367 8.8770 72.4522 23.3671 -4.3839 -6.2551
# 4 17.2059 18.7117 23.3671 40.2296 2.2045 -3.8161
# 5 -2.7903 3.6875 -4.3839 2.2045 26.0398 16.7340
# 6 1.6131 -15.3554 -6.2551 -3.8161 16.7340 31.5807
#
#
#
# Elastic Compliance Matrix: (Units=1/GPa)
#
#
# Indices 1 2 3 4 5 6 
#
# 1 0.013022 -0.000781 -0.002106 -0.004627 0.004309 -0.004304
# 2 -0.000781 0.028182 0.000939 -0.010334 -0.016968 0.021671
# 3 -0.002106 0.000939 0.017714 -0.009806 0.002423 0.001604
# 4 -0.004627 -0.010334 -0.009806 0.037520 -0.003712 -0.000230
# 5 0.004309 -0.016968 0.002423 -0.003712 0.071894 -0.046534
# 6 -0.004304 0.021671 0.001604 -0.000230 -0.046534 0.067369
#
#
# Mechanical properties :
#
#
# Convention : Reuss Voigt Hill
#
# Bulk Modulus (GPa) = 18.17434 31.61330 24.89382
# Shear Modulus (GPa) = 19.38455 31.74328 25.56392
#
# Velocity S-wave (km/s) = 2.95927 3.78689 3.39837
# Velocity P-wave (km/s) = 4.45948 5.77950 5.16186
#
# Compressibility (1/GPa) = 0.05502264
#
# Stress axis : x y z
#
# Youngs Moduli (GPa) = 76.79578 35.48352 56.45146
#
# Poissons Ratio (x) = 0.02771 0.11889
# Poissons Ratio (y) = 0.05996 -0.05302
# Poissons Ratio (z) = 0.16173 -0.03332
#
# Static dielectric constant tensor:
#      x y z
#    x 1.801220 -0.012810 -0.013250 
#    y -0.012810 1.851470 0.014400 
#    z -0.013250 0.014400 1.865240 
# 
# From -- ./inp_files/168902.got.cif
#   From: 2010.05.17/outbox.cif.g08.bks.cpg/sg2_85_cif.got.tgz:168902.got - 2010.06.03 11:33:40.
