data_PCOD9087198
_publ_section_title
;
Structure prediction by ZEFSAII (Michael W. Deem and Ramdas Pophale) SiO2 
 PCOD9087198
Probable space group: P -1
;
_chemical_formula_sum "Si O2"
_cell_formula_units_Z 16
_cell_length_a 20.867292
_cell_length_b 5.388852
_cell_length_c 11.934063
_cell_angle_alpha 73.186455
_cell_angle_beta 138.874909
_cell_angle_gamma 86.198408
_cell_volume 753.929604
_symmetry_space_group_name_H-M "P -1"
_symmetry_group_IT_number 2
_symmetry_cell_setting 'triclinic'
loop_
_space_group_symop_operation_xyz
x,y,z
-x,-y,-z
loop_
_atom_site_type_symbol
_atom_site_label
_atom_site_fract_x
_atom_site_fract_y
_atom_site_fract_z
Si Si1 0.105614 0.930452 0.220775
Si Si2 0.684548 0.213573 0.044908
Si Si3 0.506508 0.980862 0.843263
Si Si4 0.521340 0.741848 0.647613
Si Si5 0.868973 0.681946 0.604588
Si Si6 0.939236 0.798196 0.451067
Si Si7 0.340368 0.616419 0.519032
Si Si8 0.360913 0.784188 0.780981
O O1 0.120741 0.639882 0.343374
O O2 0.213961 0.810506 0.302374
O O3 0.100434 0.191457 0.258938
O O4 0.000000 0.000000 0.000000
O O5 0.665498 0.362782 0.125766
O O6 0.811095 0.993265 0.223245
O O7 0.631341 0.433489 0.841122
O O8 0.605045 0.061965 0.980443
O O9 0.525370 0.851062 0.762347
O O10 0.392763 0.271861 0.636265
O O11 0.475604 0.804148 0.919590
O O12 0.416623 0.679944 0.524618
O O13 0.500000 0.000000 0.500000
O O14 0.937623 0.713590 0.589087
O O15 0.743137 0.901063 0.388160
O O16 0.000000 0.500000 0.500000
O O17 0.000000 0.000000 0.500000
O O18 0.351368 0.687180 0.654866
#
# Coordination Sequence:
#
# PCOD9087198 Si02
#       8
#     2   2   2   2   2   2   2   2
#     4  11  21  39  64  96 129 165 218 267 328 389
#     4  10  23  37  64  95 118 168 210 263 327 388
#     4  10  19  36  62  88 121 156 205 256 325 381
#     4  10  23  42  58  84 129 170 215 261 312 384
#     4  10  21  40  64  93 128 170 206 270 332 378
#     4  11  25  46  68  93 136 173 222 272 324 389
#     4   9  20  36  59  90 124 164 201 265 325 380
#     4   9  18  35  60  92 128 148 194 263 335 387
#
# _framework density 21.22214
#
# number of rings (size 3 to 8) (size 9 to 14) (size 15 to 20)
#    0.000    2.000    1.250    1.500    1.750    7.500 
#    2.250    2.500    0.000    0.000    0.000    0.000 
#    0.000    0.000    0.000    0.000    0.000    0.000 
#
# Total GULP energy -89132.222672 kJ/mol
# GULP energy per Si atom -5570.763917 kJ/mol
# Density = 2.117384 g / cm^3
# Si number density = 21.222140 Si / 1000 Ang^3
#
#
#
# Elastic Constant Matrix: (Units=GPa)
#
#
# Indices 1 2 3 4 5 6 
#
# 1 101.4240 18.7096 43.9378 -21.5520 7.7996 13.0998
# 2 18.7096 59.4972 4.4089 -10.5980 6.0257 2.7176
# 3 43.9378 4.4089 119.0743 -7.7354 15.7165 4.0789
# 4 -21.5520 -10.5980 -7.7354 28.0173 11.9199 -0.6366
# 5 7.7996 6.0257 15.7165 11.9199 39.6480 -14.2006
# 6 13.0998 2.7176 4.0789 -0.6366 -14.2006 32.2613
#
#
#
# Elastic Compliance Matrix: (Units=1/GPa)
#
#
# Indices 1 2 3 4 5 6 
#
# 1 0.017177 -0.000659 -0.003470 0.016312 -0.010700 -0.010869
# 2 -0.000659 0.019998 0.001555 0.011085 -0.008736 -0.005240
# 3 -0.003470 0.001555 0.010657 0.003201 -0.005631 -0.002485
# 4 0.016312 0.011085 0.003201 0.067365 -0.034179 -0.021677
# 5 -0.010700 -0.008736 -0.005631 -0.034179 0.051043 0.027586
# 6 -0.010869 -0.005240 -0.002485 -0.021677 0.027586 0.047881
#
#
# Mechanical properties :
#
#
# Convention : Reuss Voigt Hill
#
# Bulk Modulus (GPa) = 23.42698 46.01201 34.71950
# Shear Modulus (GPa) = 21.41375 34.18128 27.79751
#
# Velocity S-wave (km/s) = 3.17997 4.01763 3.62309
# Velocity P-wave (km/s) = 4.95437 6.57648 5.82219
#
# Compressibility (1/GPa) = 0.04268582
#
# Stress axis : x y z
#
# Youngs Moduli (GPa) = 58.21766 50.00514 93.83511
#
# Poissons Ratio (x) = 0.03294 0.32556
# Poissons Ratio (y) = 0.03835 -0.14593
# Poissons Ratio (z) = 0.20199 -0.07777
#
# Static dielectric constant tensor:
#      x y z
#    x 1.765050 0.016120 0.037400 
#    y 0.016120 1.937290 -0.038170 
#    z 0.037400 -0.038170 1.907150 
# 
# From -- ./inp_files/459441.got.cif
#   From: 2010.05.17/outbox.cif.g08.bks.cpg/sg2_230_cif.got.tgz:459441.got - 2010.06.03 11:33:40.
