data_PCOD9087228
_publ_section_title
;
Structure prediction by ZEFSAII (Michael W. Deem and Ramdas Pophale) SiO2 
 PCOD9087228
Probable space group: P -1
;
_chemical_formula_sum "Si O2"
_cell_formula_units_Z 14
_cell_length_a 8.608060
_cell_length_b 9.473539
_cell_length_c 16.759138
_cell_angle_alpha 124.409962
_cell_angle_beta 51.907040
_cell_angle_gamma 148.582036
_cell_volume 558.194462
_symmetry_space_group_name_H-M "P -1"
_symmetry_group_IT_number 2
_symmetry_cell_setting 'triclinic'
loop_
_space_group_symop_operation_xyz
x,y,z
-x,-y,-z
loop_
_atom_site_type_symbol
_atom_site_label
_atom_site_fract_x
_atom_site_fract_y
_atom_site_fract_z
Si Si1 0.138973 0.689846 0.361473
Si Si2 0.257868 0.729060 0.100419
Si Si3 0.444695 0.740445 0.866382
Si Si4 0.257156 0.125744 0.893735
Si Si5 0.706452 0.599424 0.801769
Si Si6 0.445471 0.803360 0.512701
Si Si7 0.211309 0.262474 0.572874
O O1 0.891345 0.500829 0.453512
O O2 0.953351 0.664209 0.341267
O O3 0.258211 0.577862 0.281430
O O4 0.420072 0.010929 0.391872
O O5 0.889559 0.441262 0.125113
O O6 0.299232 0.960136 0.154275
O O7 0.474581 0.806066 0.127153
O O8 0.398374 0.752528 0.979208
O O9 0.571568 0.633304 0.788049
O O10 0.041278 0.892528 0.820025
O O11 0.434931 0.411418 0.895281
O O12 0.000000 0.000000 0.000000
O O13 0.660664 0.783891 0.416740
O O14 0.500000 0.000000 0.500000
O O15 0.500000 0.500000 0.500000
O O16 0.000000 0.000000 0.500000
#
# Coordination Sequence:
#
# PCOD9087228 Si02
#       7
#     2   2   2   2   2   2   2
#     4  10  21  38  57  86 120 151 189 233 299 354
#     4  10  21  37  57  81 109 146 205 249 286 350
#     4  10  21  36  58  81 111 153 190 243 305 350
#     4  12  24  39  60  87 114 154 211 255 285 345
#     4  12  24  39  60  87 121 159 194 254 306 341
#     4  10  19  36  62  90 113 150 193 233 276 353
#     4   8  16  32  56  80 111 148 184 218 271 350
#
# _framework density 25.080866
#
# number of rings (size 3 to 8) (size 9 to 14) (size 15 to 20)
#    0.000    1.714    1.429    3.429    4.000    0.000 
#    0.000    4.286    0.000    0.000    0.000    0.000 
#    0.000    0.000    0.000    0.000    0.000    0.000 
#
# Total GULP energy -78161.248055 kJ/mol
# GULP energy per Si atom -5582.946290 kJ/mol
# Density = 2.502378 g / cm^3
# Si number density = 25.080866 Si / 1000 Ang^3
#
#
#
# Elastic Constant Matrix: (Units=GPa)
#
#
# Indices 1 2 3 4 5 6 
#
# 1 110.4415 16.1203 26.0926 9.7069 -37.4836 -15.8059
# 2 16.1203 129.9457 -0.2799 13.8642 -2.5441 12.3077
# 3 26.0926 -0.2799 40.5926 9.1804 -27.4056 -5.0601
# 4 9.7069 13.8642 9.1804 29.8299 -5.0345 -5.8334
# 5 -37.4836 -2.5441 -27.4056 -5.0345 41.6325 15.1556
# 6 -15.8059 12.3077 -5.0601 -5.8334 15.1556 49.4086
#
#
#
# Elastic Compliance Matrix: (Units=1/GPa)
#
#
# Indices 1 2 3 4 5 6 
#
# 1 0.013432 -0.001402 -0.000825 -0.001419 0.010912 0.001047
# 2 -0.001402 0.008760 0.002871 -0.004868 0.001840 -0.003476
# 3 -0.000825 0.002871 0.049448 -0.012147 0.033263 -0.007552
# 4 -0.001419 -0.004868 -0.012147 0.040048 -0.007061 0.006409
# 5 0.010912 0.001840 0.033263 -0.007061 0.059615 -0.012681
# 6 0.001047 -0.003476 -0.007552 0.006409 -0.012681 0.025313
#
#
# Mechanical properties :
#
#
# Convention : Reuss Voigt Hill
#
# Bulk Modulus (GPa) = 13.71206 40.53843 27.12524
# Shear Modulus (GPa) = 22.76464 40.11067 31.43765
#
# Velocity S-wave (km/s) = 3.01599 4.00341 3.54425
# Velocity P-wave (km/s) = 4.19610 6.12926 5.25239
#
# Compressibility (1/GPa) = 0.07292851
#
# Stress axis : x y z
#
# Youngs Moduli (GPa) = 74.44742 114.15160 20.22312
#
# Poissons Ratio (x) = 0.16007 0.01669
# Poissons Ratio (y) = 0.10440 -0.05807
# Poissons Ratio (z) = 0.06145 -0.32778
#
# Static dielectric constant tensor:
#      x y z
#    x 2.091000 0.013630 0.016570 
#    y 0.013630 1.884840 -0.037370 
#    z 0.016570 -0.037370 2.116060 
# 
# From -- ./inp_files/343155.got.cif
#   From: 2010.05.17/outbox.cif.g08.bks.cpg/sg2_172_cif.got.tgz:343155.got - 2010.06.03 11:33:40.
