data_PCOD9087888
_publ_section_title
;
Structure prediction by ZEFSAII (Michael W. Deem and Ramdas Pophale) SiO2 
 PCOD9087888
Probable space group: P -1
;
_chemical_formula_sum "Si O2"
_cell_formula_units_Z 16
_cell_length_a 5.795849
_cell_length_b 21.256510
_cell_length_c 20.448409
_cell_angle_alpha 20.864411
_cell_angle_beta 48.226450
_cell_angle_gamma 58.917550
_cell_volume 613.301862
_symmetry_space_group_name_H-M "P -1"
_symmetry_group_IT_number 2
_symmetry_cell_setting 'triclinic'
loop_
_space_group_symop_operation_xyz
x,y,z
-x,-y,-z
loop_
_atom_site_type_symbol
_atom_site_label
_atom_site_fract_x
_atom_site_fract_y
_atom_site_fract_z
Si Si1 0.212748 0.296471 0.561991
Si Si2 0.501306 0.902398 0.737340
Si Si3 0.115696 0.042022 0.139534
Si Si4 0.484639 0.462480 0.616097
Si Si5 0.126063 0.823815 0.702790
Si Si6 0.893232 0.554917 0.879856
Si Si7 0.798922 0.498947 0.754240
Si Si8 0.199597 0.829857 0.436742
O O1 0.204106 0.394862 0.537152
O O2 0.361352 0.475088 0.308896
O O3 0.467295 0.194710 0.625397
O O4 0.917470 0.131274 0.736669
O O5 0.257953 0.957008 0.778580
O O6 0.885972 0.937217 0.651802
O O7 0.539164 0.008367 0.556580
O O8 0.357600 0.672849 0.998271
O O9 0.235688 0.029099 0.204129
O O10 0.377266 0.238235 0.868978
O O11 0.500000 0.500000 0.500000
O O12 0.153736 0.493882 0.672482
O O13 0.003716 0.676318 0.807675
O O14 0.085504 0.653920 0.926609
O O15 0.113802 0.715453 0.631295
O O16 0.500000 0.500000 0.000000
O O17 0.863146 0.692179 0.594111
#
# Coordination Sequence:
#
# PCOD9087888 Si02
#       8
#     2   2   2   2   2   2   2   2
#     4  10  21  40  63  88 121 158 196 244 298 354
#     4  10  19  37  56  79 118 154 200 253 290 347
#     4  10  22  40  63  89 118 159 204 244 297 361
#     4  10  23  41  63  94 123 151 195 245 298 363
#     4  10  22  35  52  82 116 155 201 250 303 351
#     4  11  21  35  54  78 114 157 200 251 304 350
#     4   9  20  39  61  85 116 157 200 243 296 358
#     4  10  20  37  60  85 115 158 206 244 293 361
#
# _framework density 26.088294000000001
#
# number of rings (size 3 to 8) (size 9 to 14) (size 15 to 20)
#    0.000    2.000    0.000    3.000    0.000    8.000 
#    0.000   21.875    0.000    0.000    0.000    0.000 
#    0.000    0.000    0.000    0.000    0.000    0.000 
#
# Total GULP energy -89147.489644 kJ/mol
# GULP energy per Si atom -5571.718103 kJ/mol
# Density = 2.602892 g / cm^3
# Si number density = 26.088294 Si / 1000 Ang^3
#
#
#
# Elastic Constant Matrix: (Units=GPa)
#
#
# Indices 1 2 3 4 5 6 
#
# 1 53.2096 13.8407 23.7753 -4.9125 31.0703 7.1810
# 2 13.8407 67.3703 31.0412 -10.3720 8.5638 4.3456
# 3 23.7753 31.0412 152.0646 -18.4126 31.2029 5.6458
# 4 -4.9125 -10.3720 -18.4126 41.7882 -2.9813 4.4252
# 5 31.0703 8.5638 31.2029 -2.9813 42.7972 3.2986
# 6 7.1810 4.3456 5.6458 4.4252 3.2986 40.3680
#
#
#
# Elastic Compliance Matrix: (Units=1/GPa)
#
#
# Indices 1 2 3 4 5 6 
#
# 1 0.034353 -0.003738 0.000791 0.002156 -0.024305 -0.004070
# 2 -0.003738 0.017245 -0.002890 0.002816 0.001661 -0.001232
# 3 0.000791 -0.002890 0.008660 0.002851 -0.006045 -0.000859
# 4 0.002156 0.002816 0.002851 0.026394 -0.002076 -0.003809
# 5 -0.024305 0.001661 -0.006045 -0.002076 0.044822 0.001555
# 6 -0.004070 -0.001232 -0.000859 -0.003809 0.001555 0.026039
#
#
# Mechanical properties :
#
#
# Convention : Reuss Voigt Hill
#
# Bulk Modulus (GPa) = 20.58274 45.55097 33.06686
# Shear Modulus (GPa) = 26.97149 38.58984 32.78066
#
# Velocity S-wave (km/s) = 3.21885 3.85021 3.54860
# Velocity P-wave (km/s) = 4.66062 6.10440 5.43071
#
# Compressibility (1/GPa) = 0.04858439
#
# Stress axis : x y z
#
# Youngs Moduli (GPa) = 29.10966 57.98881 115.47432
#
# Poissons Ratio (x) = 0.21677 -0.09139
# Poissons Ratio (y) = 0.10882 0.33370
# Poissons Ratio (z) = -0.02304 0.16758
#
# Static dielectric constant tensor:
#      x y z
#    x 2.288750 0.137280 0.003950 
#    y 0.137280 2.146400 -0.044000 
#    z 0.003950 -0.044000 2.104430 
# 
# From -- ./inp_files/141094.got.cif
#   From: 2010.05.17/outbox.cif.g08.bks.cpg/sg2_71_cif.got.tgz:141094.got - 2010.06.03 11:33:40.
