data_PCOD9087136
_publ_section_title
;
Structure prediction by ZEFSAII (Michael W. Deem and Ramdas Pophale) SiO2 
 PCOD9087136
Probable space group: P -1
;
_chemical_formula_sum "Si O2"
_cell_formula_units_Z 16
_cell_length_a 14.919509
_cell_length_b 15.045086
_cell_length_c 7.563922
_cell_angle_alpha 63.818574
_cell_angle_beta 46.727906
_cell_angle_gamma 37.248059
_cell_volume 726.924595
_symmetry_space_group_name_H-M "P -1"
_symmetry_group_IT_number 2
_symmetry_cell_setting 'triclinic'
loop_
_space_group_symop_operation_xyz
x,y,z
-x,-y,-z
loop_
_atom_site_type_symbol
_atom_site_label
_atom_site_fract_x
_atom_site_fract_y
_atom_site_fract_z
Si Si1 0.274004 0.552418 0.217298
Si Si2 0.690280 0.885680 0.452471
Si Si3 0.583599 0.618027 0.269960
Si Si4 0.048192 0.992609 0.207708
Si Si5 0.221012 0.381780 0.313280
Si Si6 0.916309 0.290437 0.047537
Si Si7 0.722031 0.084356 0.374982
Si Si8 0.679132 0.308148 0.716651
O O1 0.231027 0.462543 0.375519
O O2 0.168320 0.656955 0.087678
O O3 0.227956 0.651869 0.354437
O O4 0.496115 0.412282 0.000364
O O5 0.693572 0.777593 0.634782
O O6 0.883391 0.776887 0.174536
O O7 0.500000 0.000000 0.500000
O O8 0.698587 0.980979 0.473844
O O9 0.471327 0.747503 0.452677
O O10 0.427724 0.641686 0.368327
O O11 0.673136 0.635152 0.983925
O O12 0.760755 0.443780 0.233071
O O13 0.176022 0.870309 0.296947
O O14 0.199576 0.915267 0.911645
O O15 0.887835 0.012795 0.349149
O O16 0.956715 0.157631 0.188542
O O17 0.000000 0.500000 0.500000
#
# Coordination Sequence:
#
# PCOD9087136 Si02
#       8
#     2   2   2   2   2   2   2   2
#     4   9  17  31  55  89 115 149 192 231 279 349
#     4  11  22  37  61  87 111 154 204 240 276 349
#     4  10  22  39  60  87 121 150 192 243 292 344
#     4  10  20  37  64  85 118 156 192 233 292 351
#     4  10  19  36  62  83 111 161 197 231 289 345
#     4   9  19  37  58  85 118 155 191 235 291 348
#     4  10  23  38  59  87 120 155 187 243 297 344
#     4   9  18  33  59  89 115 145 193 241 282 342
#
# _framework density 22.010535999999998
#
# number of rings (size 3 to 8) (size 9 to 14) (size 15 to 20)
#    0.000    2.500    2.500    2.250    7.000    1.500 
#    0.000    0.625    0.000    3.000    0.000    0.000 
#    0.000    0.000    0.000    0.000    0.000    0.000 
#
# Total GULP energy -89250.735310 kJ/mol
# GULP energy per Si atom -5578.170957 kJ/mol
# Density = 2.196044 g / cm^3
# Si number density = 22.010536 Si / 1000 Ang^3
#
#
#
# Elastic Constant Matrix: (Units=GPa)
#
#
# Indices 1 2 3 4 5 6 
#
# 1 78.8546 70.6994 26.4456 -17.0169 -20.7572 14.6411
# 2 70.6994 188.7413 64.0307 16.6931 -4.7792 6.3849
# 3 26.4456 64.0307 88.9133 6.8871 -14.8318 -0.9354
# 4 -17.0169 16.6931 6.8871 47.8247 2.7234 -1.7951
# 5 -20.7572 -4.7792 -14.8318 2.7234 31.3506 1.6411
# 6 14.6411 6.3849 -0.9354 -1.7951 1.6411 48.0846
#
#
#
# Elastic Compliance Matrix: (Units=1/GPa)
#
#
# Indices 1 2 3 4 5 6 
#
# 1 0.036236 -0.014906 0.002253 0.016184 0.021859 -0.009152
# 2 -0.014906 0.013390 -0.006229 -0.008400 -0.010185 0.002674
# 3 0.002253 -0.006229 0.016438 0.000143 0.008297 0.000183
# 4 0.016184 -0.008400 0.000143 0.029062 0.007133 -0.002968
# 5 0.021859 -0.010185 0.008297 0.007133 0.048464 -0.006530
# 6 -0.009152 0.002674 0.000183 -0.002968 -0.006530 0.023344
#
#
# Mechanical properties :
#
#
# Convention : Reuss Voigt Hill
#
# Bulk Modulus (GPa) = 35.33681 75.42894 55.38287
# Shear Modulus (GPa) = 23.35022 38.47421 30.91222
#
# Velocity S-wave (km/s) = 3.26063 4.18543 3.75164
# Velocity P-wave (km/s) = 5.50136 7.59612 6.63197
#
# Compressibility (1/GPa) = 0.02829910
#
# Stress axis : x y z
#
# Youngs Moduli (GPa) = 27.59687 74.68424 60.83641
#
# Poissons Ratio (x) = 1.11325 -0.13708
# Poissons Ratio (y) = 0.41136 0.37897
# Poissons Ratio (z) = -0.06218 0.46523
#
# Static dielectric constant tensor:
#      x y z
#    x 1.871850 -0.045810 0.096120 
#    y -0.045810 1.765250 0.002390 
#    z 0.096120 0.002390 1.882260 
# 
# From -- ./inp_files/312927.got.cif
#   From: 2010.05.17/outbox.cif.g08.bks.cpg/sg2_157_cif.got.tgz:312927.got - 2010.06.03 11:33:40.
