data_PCOD9087359
_publ_section_title
;
Structure prediction by ZEFSAII (Michael W. Deem and Ramdas Pophale) SiO2 
 PCOD9087359
Probable space group: P -1
;
_chemical_formula_sum "Si O2"
_cell_formula_units_Z 16
_cell_length_a 14.297490
_cell_length_b 9.457108
_cell_length_c 23.141070
_cell_angle_alpha 152.588283
_cell_angle_beta 148.216804
_cell_angle_gamma 37.568911
_cell_volume 749.349104
_symmetry_space_group_name_H-M "P -1"
_symmetry_group_IT_number 2
_symmetry_cell_setting 'triclinic'
loop_
_space_group_symop_operation_xyz
x,y,z
-x,-y,-z
loop_
_atom_site_type_symbol
_atom_site_label
_atom_site_fract_x
_atom_site_fract_y
_atom_site_fract_z
Si Si1 0.802867 0.319078 0.766109
Si Si2 0.433355 0.161521 0.223482
Si Si3 0.228003 0.218822 0.249766
Si Si4 0.695518 0.365309 0.105930
Si Si5 0.027784 0.866954 0.101139
Si Si6 0.603469 0.925262 0.332987
Si Si7 0.952122 0.808716 0.349294
Si Si8 0.059980 0.162556 0.436979
O O1 0.613705 0.531060 0.727777
O O2 0.816910 0.169177 0.782373
O O3 0.869590 0.072426 0.662549
O O4 0.947652 0.556105 0.933536
O O5 0.266164 0.186728 0.190138
O O6 0.596926 0.123604 0.341028
O O7 0.421621 0.852069 0.068749
O O8 0.129009 0.560536 0.335827
O O9 0.103934 0.990928 0.127930
O O10 0.429910 0.111245 0.341206
O O11 0.581632 0.586257 0.173001
O O12 0.802139 0.593126 0.206924
O O13 0.861696 0.118859 0.128541
O O14 0.775044 0.852317 0.436612
O O15 0.913719 0.032529 0.354464
O O16 0.000000 0.000000 0.500000
O O17 0.000000 0.500000 0.500000
#
# Coordination Sequence:
#
# PCOD9087359 Si02
#       8
#     2   2   2   2   2   2   2   2
#     4  10  20  36  58  88 114 155 194 235 288 344
#     4   9  20  35  63  85 113 152 192 239 291 337
#     4   9  21  37  63  84 117 152 191 243 286 333
#     4  10  19  36  63  87 115 151 196 240 287 339
#     4   9  20  37  61  88 117 147 193 246 283 338
#     4  10  21  39  56  88 119 152 187 245 290 346
#     4  11  22  38  59  89 115 155 197 239 278 345
#     4  12  24  38  59  84 117 156 192 237 295 351
#
# _framework density 21.351863999999999
#
# number of rings (size 3 to 8) (size 9 to 14) (size 15 to 20)
#    0.750    1.250    2.500    1.125    3.500    3.500 
#    0.000    1.875    0.000   11.250    0.000    0.000 
#    0.000    0.000    0.000    0.000    0.000    0.000 
#
# Total GULP energy -89140.200664 kJ/mol
# GULP energy per Si atom -5571.262541 kJ/mol
# Density = 2.130327 g / cm^3
# Si number density = 21.351864 Si / 1000 Ang^3
#
#
#
# Elastic Constant Matrix: (Units=GPa)
#
#
# Indices 1 2 3 4 5 6 
#
# 1 31.6056 23.1566 13.3525 12.0065 -11.8993 1.5449
# 2 23.1566 152.4626 51.8648 -1.9482 -4.7406 -0.0132
# 3 13.3525 51.8648 81.9186 13.0397 -19.6168 3.9800
# 4 12.0065 -1.9482 13.0397 43.5538 -3.9192 -5.5152
# 5 -11.8993 -4.7406 -19.6168 -3.9192 28.1643 6.0600
# 6 1.5449 -0.0132 3.9800 -5.5152 6.0600 27.0028
#
#
#
# Elastic Compliance Matrix: (Units=1/GPa)
#
#
# Indices 1 2 3 4 5 6 
#
# 1 0.052494 -0.009804 0.007149 -0.016382 0.026081 -0.013261
# 2 -0.009804 0.010673 -0.008275 0.005511 -0.008373 0.004790
# 3 0.007149 -0.008275 0.022462 -0.008645 0.018126 -0.009557
# 4 -0.016382 0.005511 -0.008645 0.030769 -0.010047 0.010753
# 5 0.026081 -0.008373 0.018126 -0.010047 0.060608 -0.019821
# 6 -0.013261 0.004790 -0.009557 0.010753 -0.019821 0.045848
#
#
# Mechanical properties :
#
#
# Convention : Reuss Voigt Hill
#
# Bulk Modulus (GPa) = 15.68162 49.19273 32.43718
# Shear Modulus (GPa) = 18.79910 31.58504 25.19207
#
# Velocity S-wave (km/s) = 2.97045 3.85029 3.43863
# Velocity P-wave (km/s) = 4.37322 6.54641 5.56689
#
# Compressibility (1/GPa) = 0.06376892
#
# Stress axis : x y z
#
# Youngs Moduli (GPa) = 19.04969 93.69055 44.51993
#
# Poissons Ratio (x) = 0.91858 -0.31825
# Poissons Ratio (y) = 0.18677 0.36838
# Poissons Ratio (z) = -0.13618 0.77525
#
# Static dielectric constant tensor:
#      x y z
#    x 1.817700 -0.019180 0.028510 
#    y -0.019180 1.858670 -0.020880 
#    z 0.028510 -0.020880 1.789700 
# 
# From -- ./inp_files/597471.got.cif
#   From: 2010.05.17/outbox.cif.g08.bks.cpg/sg2_299_cif.got.tgz:597471.got - 2010.06.03 11:33:40.
