data_PCOD9087563
_publ_section_title
;
Structure prediction by ZEFSAII (Michael W. Deem and Ramdas Pophale) SiO2 
 PCOD9087563
Probable space group: P -1
;
_chemical_formula_sum "Si O2"
_cell_formula_units_Z 14
_cell_length_a 8.966645
_cell_length_b 14.052230
_cell_length_c 23.755735
_cell_angle_alpha 25.021116
_cell_angle_beta 146.950080
_cell_angle_gamma 131.664716
_cell_volume 629.484973
_symmetry_space_group_name_H-M "P -1"
_symmetry_group_IT_number 2
_symmetry_cell_setting 'triclinic'
loop_
_space_group_symop_operation_xyz
x,y,z
-x,-y,-z
loop_
_atom_site_type_symbol
_atom_site_label
_atom_site_fract_x
_atom_site_fract_y
_atom_site_fract_z
Si Si1 0.296889 0.086265 0.221205
Si Si2 0.837806 0.201458 0.758159
Si Si3 0.750453 0.484496 0.888256
Si Si4 0.197471 0.655876 0.212484
Si Si5 0.660463 0.758605 0.608138
Si Si6 0.861305 0.481887 0.284515
Si Si7 0.848856 0.077281 0.349358
O O1 0.496672 0.191938 0.191006
O O2 0.450866 0.997216 0.378365
O O3 0.317728 0.853321 0.315412
O O4 0.956197 0.265302 0.029232
O O5 0.028119 0.362157 0.721356
O O6 0.649574 0.321811 0.691353
O O7 0.056271 0.927044 0.995886
O O8 0.586018 0.715863 0.670753
O O9 0.488391 0.447804 0.857880
O O10 0.000000 0.500000 0.000000
O O11 0.349639 0.460261 0.316933
O O12 0.944516 0.571115 0.203431
O O13 0.988830 0.764234 0.711118
O O14 0.049049 0.187821 0.506953
O O15 0.000000 0.000000 0.500000
#
# Coordination Sequence:
#
# PCOD9087563 Si02
#       7
#     2   2   2   2   2   2   2
#     4  11  22  39  68  95 120 170 209 256 313 371
#     4   9  19  38  66  97 121 163 212 256 307 370
#     4  12  27  41  62  93 131 169 203 260 323 366
#     4   9  18  39  67  90 121 164 204 260 298 366
#     4  11  23  42  64  93 130 160 215 258 309 371
#     4  10  21  40  64  92 131 164 201 265 312 365
#     4  10  19  36  64  92 122 161 210 261 298 363
#
# _framework density 22.240404999999999
#
# number of rings (size 3 to 8) (size 9 to 14) (size 15 to 20)
#    0.857    0.857    4.286    1.714    0.000    6.857 
#    0.000    0.714    0.000    0.000    0.000    0.000 
#    0.000    0.000    0.000    0.000    0.000    0.000 
#
# Total GULP energy -78029.759491 kJ/mol
# GULP energy per Si atom -5573.554249 kJ/mol
# Density = 2.218978 g / cm^3
# Si number density = 22.240405 Si / 1000 Ang^3
#
#
#
# Elastic Constant Matrix: (Units=GPa)
#
#
# Indices 1 2 3 4 5 6 
#
# 1 54.7727 13.7144 18.0462 18.7136 -5.6806 -8.5391
# 2 13.7144 91.5130 11.5383 3.8793 -8.0369 -12.7497
# 3 18.0462 11.5383 70.8104 1.0050 5.4065 -0.5074
# 4 18.7136 3.8793 1.0050 39.3725 -6.8521 2.4846
# 5 -5.6806 -8.0369 5.4065 -6.8521 36.0800 5.8328
# 6 -8.5391 -12.7497 -0.5074 2.4846 5.8328 28.6353
#
#
#
# Elastic Compliance Matrix: (Units=1/GPa)
#
#
# Indices 1 2 3 4 5 6 
#
# 1 0.026334 -0.001409 -0.006332 -0.012526 0.001113 0.007974
# 2 -0.001409 0.012189 -0.001734 -0.000445 0.001921 0.004623
# 3 -0.006332 -0.001734 0.016204 0.002360 -0.003047 -0.001958
# 4 -0.012526 -0.000445 0.002360 0.032702 0.005039 -0.007755
# 5 0.001113 0.001921 -0.003047 0.005039 0.030629 -0.005543
# 6 0.007974 0.004623 -0.001958 -0.007755 -0.005543 0.041126
#
#
# Mechanical properties :
#
#
# Convention : Reuss Voigt Hill
#
# Bulk Modulus (GPa) = 27.95095 33.74378 30.84737
# Shear Modulus (GPa) = 26.30768 32.40403 29.35586
#
# Velocity S-wave (km/s) = 3.44303 3.82119 3.63703
# Velocity P-wave (km/s) = 5.32925 5.88846 5.61582
#
# Compressibility (1/GPa) = 0.03577696
#
# Stress axis : x y z
#
# Youngs Moduli (GPa) = 37.97348 82.04181 61.71446
#
# Poissons Ratio (x) = 0.11556 0.39077
# Poissons Ratio (y) = 0.05349 0.10704
# Poissons Ratio (z) = 0.24045 0.14230
#
# Static dielectric constant tensor:
#      x y z
#    x 1.812620 -0.039260 -0.015920 
#    y -0.039260 1.880200 -0.012130 
#    z -0.015920 -0.012130 1.913240 
# 
# From -- ./inp_files/608180.got.cif
#   From: 2010.05.17/outbox.cif.g08.bks.cpg/sg2_305_cif.got.tgz:608180.got - 2010.06.03 11:33:40.
