data_PCOD9087904
_publ_section_title
;
Structure prediction by ZEFSAII (Michael W. Deem and Ramdas Pophale) SiO2 
 PCOD9087904
Probable space group: P -1
;
_chemical_formula_sum "Si O2"
_cell_formula_units_Z 16
_cell_length_a 20.670227
_cell_length_b 10.586599
_cell_length_c 13.990572
_cell_angle_alpha 148.178142
_cell_angle_beta 156.329322
_cell_angle_gamma 33.731393
_cell_volume 627.104854
_symmetry_space_group_name_H-M "P -1"
_symmetry_group_IT_number 2
_symmetry_cell_setting 'triclinic'
loop_
_space_group_symop_operation_xyz
x,y,z
-x,-y,-z
loop_
_atom_site_type_symbol
_atom_site_label
_atom_site_fract_x
_atom_site_fract_y
_atom_site_fract_z
Si Si1 0.294164 0.223193 0.794278
Si Si2 0.147841 0.275933 0.930809
Si Si3 0.440169 0.852569 0.045298
Si Si4 0.943866 0.984271 0.553461
Si Si5 0.827957 0.928632 0.784676
Si Si6 0.195023 0.690922 0.847651
Si Si7 0.578093 0.647414 0.298077
Si Si8 0.187491 0.636079 0.072261
O O1 0.192509 0.418669 0.704236
O O2 0.205354 0.018468 0.578078
O O3 0.466493 0.110562 0.901309
O O4 0.288829 0.414587 0.998695
O O5 0.003443 0.234202 0.778244
O O6 0.322769 0.098807 0.086672
O O7 0.106426 0.135662 0.688468
O O8 0.182860 0.528473 0.103058
O O9 0.344739 0.639074 0.757299
O O10 0.560152 0.713673 0.203229
O O11 0.101044 0.785264 0.684369
O O12 0.701953 0.810350 0.597133
O O13 0.754904 0.117394 0.720011
O O14 0.988492 0.720194 0.835701
O O15 0.886477 0.107483 0.053999
O O16 0.390155 0.697893 0.114855
#
# Coordination Sequence:
#
# PCOD9087904 Si02
#       8
#     2   2   2   2   2   2   2   2
#     4   9  20  34  59  88 116 142 190 237 287 326
#     4  10  21  37  60  82 122 146 182 236 294 334
#     4  10  21  36  59  90 115 145 180 243 287 341
#     4  10  20  33  59  85 114 149 183 233 288 333
#     4  10  21  37  60  79 113 154 197 228 276 328
#     4  10  19  37  56  85 115 149 192 238 265 337
#     4  10  21  35  60  86 114 146 191 231 290 332
#     4   9  21  38  57  84 112 153 191 235 273 339
#
# _framework density 25.514074000000001
#
# number of rings (size 3 to 8) (size 9 to 14) (size 15 to 20)
#    0.000    2.250    1.250    0.750    5.250    5.000 
#    0.000    1.250    2.750    0.000    0.000    0.000 
#    0.000    0.000    0.000    0.000    0.000    0.000 
#
# Total GULP energy -89294.517267 kJ/mol
# GULP energy per Si atom -5580.907329 kJ/mol
# Density = 2.545600 g / cm^3
# Si number density = 25.514074 Si / 1000 Ang^3
#
#
#
# Elastic Constant Matrix: (Units=GPa)
#
#
# Indices 1 2 3 4 5 6 
#
# 1 96.0238 10.2117 23.8608 10.5507 44.9471 4.1201
# 2 10.2117 69.7831 14.3213 14.7954 12.5401 15.4697
# 3 23.8608 14.3213 50.5026 11.8738 30.5587 -0.6321
# 4 10.5507 14.7954 11.8738 34.1812 11.5507 7.9636
# 5 44.9471 12.5401 30.5587 11.5507 49.0756 10.1297
# 6 4.1201 15.4697 -0.6321 7.9636 10.1297 37.9561
#
#
#
# Elastic Compliance Matrix: (Units=1/GPa)
#
#
# Indices 1 2 3 4 5 6 
#
# 1 0.018835 -0.000538 0.003550 -0.000972 -0.019866 0.003740
# 2 -0.000538 0.017551 -0.004419 -0.004799 0.001229 -0.006489
# 3 0.003550 -0.004419 0.036160 -0.005477 -0.025402 0.009947
# 4 -0.000972 -0.004799 -0.005477 0.035285 -0.001753 -0.004965
# 5 -0.019866 0.001229 -0.025402 -0.001753 0.057315 -0.013696
# 6 0.003740 -0.006489 0.009947 -0.004965 -0.013696 0.033448
#
#
# Mechanical properties :
#
#
# Convention : Reuss Voigt Hill
#
# Bulk Modulus (GPa) = 14.34063 34.78858 24.56460
# Shear Modulus (GPa) = 22.25673 35.43696 28.84684
#
# Velocity S-wave (km/s) = 2.95673 3.73086 3.36612
# Velocity P-wave (km/s) = 4.15803 5.67660 4.97559
#
# Compressibility (1/GPa) = 0.06973193
#
# Stress axis : x y z
#
# Youngs Moduli (GPa) = 53.09377 56.97648 27.65496
#
# Poissons Ratio (x) = 0.03063 -0.09818
# Poissons Ratio (y) = 0.02855 0.12222
# Poissons Ratio (z) = -0.18849 0.25180
#
# Static dielectric constant tensor:
#      x y z
#    x 2.067280 0.004420 -0.011250 
#    y 0.004420 2.059300 0.020970 
#    z -0.011250 0.020970 2.108190 
# 
# From -- ./inp_files/284956.got.cif
#   From: 2010.05.17/outbox.cif.g08.bks.cpg/sg2_143_cif.got.tgz:284956.got - 2010.06.03 11:33:40.
