data_PCOD9087256
_publ_section_title
;
Structure prediction by ZEFSAII (Michael W. Deem and Ramdas Pophale) SiO2 
 PCOD9087256
Probable space group: P -1
;
_chemical_formula_sum "Si O2"
_cell_formula_units_Z 16
_cell_length_a 11.617485
_cell_length_b 8.140960
_cell_length_c 8.828106
_cell_angle_alpha 83.730282
_cell_angle_beta 75.880332
_cell_angle_gamma 118.652430
_cell_volume 685.006359
_symmetry_space_group_name_H-M "P -1"
_symmetry_group_IT_number 2
_symmetry_cell_setting 'triclinic'
loop_
_space_group_symop_operation_xyz
x,y,z
-x,-y,-z
loop_
_atom_site_type_symbol
_atom_site_label
_atom_site_fract_x
_atom_site_fract_y
_atom_site_fract_z
Si Si1 0.135311 0.680969 0.353862
Si Si2 0.431782 0.538531 0.662018
Si Si3 0.152404 0.377194 0.237704
Si Si4 0.916846 0.044051 0.150121
Si Si5 0.603397 0.188727 0.545924
Si Si6 0.630327 0.853160 0.146817
Si Si7 0.391906 0.294836 0.129643
Si Si8 0.942229 0.824707 0.417556
O O1 0.179736 0.593244 0.210086
O O2 0.261414 0.792073 0.421007
O O3 0.000000 0.500000 0.500000
O O4 0.070411 0.809784 0.316411
O O5 0.500000 0.500000 0.500000
O O6 0.350251 0.631361 0.603574
O O7 0.359655 0.337370 0.797961
O O8 0.550449 0.696784 0.722221
O O9 0.253854 0.303816 0.167452
O O10 0.153450 0.350752 0.423184
O O11 0.015919 0.239081 0.195391
O O12 0.778551 0.030471 0.134846
O O13 0.870411 0.872730 0.305092
O O14 0.000000 0.000000 0.000000
O O15 0.503513 0.183504 0.713788
O O16 0.500000 0.000000 0.500000
O O17 0.614876 0.859575 0.970662
O O18 0.500000 0.500000 0.000000
O O19 0.000000 0.000000 0.500000
#
# Coordination Sequence:
#
# PCOD9087256 Si02
#       8
#     2   2   2   2   2   2   2   2
#     4  10  22  40  62  94 131 164 211 265 332 379
#     4   9  20  37  64  92 120 161 215 257 313 387
#     4  10  20  37  64  91 128 168 214 264 325 380
#     4  11  22  39  63  98 126 166 218 271 318 385
#     4  11  25  40  66  98 130 166 212 279 326 382
#     4  10  22  39  64  91 134 166 218 260 327 393
#     4  10  19  36  62  91 125 173 209 262 322 389
#     4   9  22  37  65  90 119 168 217 263 318 388
#
# _framework density 23.357448000000002
#
# number of rings (size 3 to 8) (size 9 to 14) (size 15 to 20)
#    0.000    2.000    1.250    2.250   12.250    1.000 
#    0.000    1.250    5.500    0.000    0.000    0.000 
#    0.000    0.000    0.000    0.000    0.000    0.000 
#
# Total GULP energy -89189.841909 kJ/mol
# GULP energy per Si atom -5574.365119 kJ/mol
# Density = 2.330429 g / cm^3
# Si number density = 23.357448 Si / 1000 Ang^3
#
#
#
# Elastic Constant Matrix: (Units=GPa)
#
#
# Indices 1 2 3 4 5 6 
#
# 1 81.0004 16.5744 12.4822 22.2707 8.6981 26.2954
# 2 16.5744 67.1186 8.8665 25.7373 13.9174 13.0855
# 3 12.4822 8.8665 97.8212 29.9723 7.5349 10.0397
# 4 22.2707 25.7373 29.9723 34.0231 12.8629 5.8855
# 5 8.6981 13.9174 7.5349 12.8629 31.4652 11.8102
# 6 26.2954 13.0855 10.0397 5.8855 11.8102 42.4504
#
#
#
# Elastic Compliance Matrix: (Units=1/GPa)
#
#
# Indices 1 2 3 4 5 6 
#
# 1 0.019778 0.003114 0.003687 -0.018014 0.004450 -0.012824
# 2 0.003114 0.023912 0.005401 -0.023476 -0.000430 -0.007203
# 3 0.003687 0.005401 0.015994 -0.020903 0.003485 -0.005803
# 4 -0.018014 -0.023476 -0.020903 0.081747 -0.019602 0.017458
# 5 0.004450 -0.000430 0.003485 -0.019602 0.042648 -0.012595
# 6 -0.012824 -0.007203 -0.005803 0.017458 -0.012595 0.036177
#
#
# Mechanical properties :
#
#
# Convention : Reuss Voigt Hill
#
# Bulk Modulus (GPa) = 11.89237 35.75405 23.82321
# Shear Modulus (GPa) = 22.33315 35.45554 28.89435
#
# Velocity S-wave (km/s) = 3.09552 3.90032 3.52099
# Velocity P-wave (km/s) = 4.22834 5.96858 5.17217
#
# Compressibility (1/GPa) = 0.08408755
#
# Stress axis : x y z
#
# Youngs Moduli (GPa) = 50.56049 41.81965 62.52184
#
# Poissons Ratio (x) = -0.13022 -0.23050
# Poissons Ratio (y) = -0.15744 -0.33766
# Poissons Ratio (z) = -0.18641 -0.22585
#
# Static dielectric constant tensor:
#      x y z
#    x 1.926540 -0.047680 0.001200 
#    y -0.047680 2.057530 -0.080800 
#    z 0.001200 -0.080800 1.981960 
# 
# From -- ./inp_files/217017.got.cif
#   From: 2010.05.17/outbox.cif.g08.bks.cpg/sg2_109_cif.got.tgz:217017.got - 2010.06.03 11:33:40.
