data_PCOD9087606
_publ_section_title
;
Structure prediction by ZEFSAII (Michael W. Deem and Ramdas Pophale) SiO2 
 PCOD9087606
Probable space group: P -1
;
_chemical_formula_sum "Si O2"
_cell_formula_units_Z 16
_cell_length_a 17.456480
_cell_length_b 5.037551
_cell_length_c 10.644231
_cell_angle_alpha 121.678923
_cell_angle_beta 122.106586
_cell_angle_gamma 60.801972
_cell_volume 645.840259
_symmetry_space_group_name_H-M "P -1"
_symmetry_group_IT_number 2
_symmetry_cell_setting 'triclinic'
loop_
_space_group_symop_operation_xyz
x,y,z
-x,-y,-z
loop_
_atom_site_type_symbol
_atom_site_label
_atom_site_fract_x
_atom_site_fract_y
_atom_site_fract_z
Si Si1 0.995590 0.545755 0.356186
Si Si2 0.124404 0.137561 0.192056
Si Si3 0.470565 0.766692 0.656513
Si Si4 0.152840 0.800646 0.655190
Si Si5 0.651960 0.552715 0.381407
Si Si6 0.778729 0.348291 0.058886
Si Si7 0.337812 0.135115 0.076289
Si Si8 0.229825 0.601169 0.303449
O O1 0.025328 0.259951 0.208049
O O2 0.088901 0.683321 0.467818
O O3 0.000000 0.500000 0.500000
O O4 0.903133 0.818930 0.297205
O O5 0.146547 0.433461 0.209758
O O6 0.155908 0.845719 0.045918
O O7 0.190646 0.980074 0.331420
O O8 0.500000 0.500000 0.500000
O O9 0.433181 0.598102 0.698562
O O10 0.552258 0.912181 0.818614
O O11 0.390063 0.080784 0.612834
O O12 0.262320 0.663395 0.680405
O O13 0.154359 0.675773 0.768038
O O14 0.703010 0.519193 0.551176
O O15 0.712322 0.708055 0.057231
O O16 0.704790 0.144776 0.979770
O O17 0.294340 0.440203 0.204850
#
# Coordination Sequence:
#
# PCOD9087606 Si02
#       8
#     2   2   2   2   2   2   2   2
#     4  11  25  43  73  97 137 167 228 282 327 403
#     4  10  21  40  66  98 128 178 218 273 322 384
#     4  12  25  39  68 105 135 169 230 284 325 388
#     4  11  27  45  65 102 132 182 217 272 344 397
#     4  12  24  39  66  99 136 174 216 282 332 394
#     4  10  24  44  69  93 139 180 221 265 330 410
#     4  10  22  41  65  95 132 174 221 274 326 387
#     4  10  19  36  64  96 131 166 215 268 333 377
#
# _framework density 24.77393
#
# number of rings (size 3 to 8) (size 9 to 14) (size 15 to 20)
#    0.000    1.250    2.500    2.625    8.750    0.500 
#    0.000    4.375    0.000    0.000    0.000    0.000 
#    0.000    0.000    0.000    0.000    0.000    0.000 
#
# Total GULP energy -89284.758715 kJ/mol
# GULP energy per Si atom -5580.297420 kJ/mol
# Density = 2.471754 g / cm^3
# Si number density = 24.773930 Si / 1000 Ang^3
#
#
#
# Elastic Constant Matrix: (Units=GPa)
#
#
# Indices 1 2 3 4 5 6 
#
# 1 78.4991 45.0067 9.1021 -10.4344 6.1345 -14.9312
# 2 45.0067 159.5059 28.2602 -27.3944 -0.9510 -1.8703
# 3 9.1021 28.2602 89.9649 -23.1328 7.8880 -12.2269
# 4 -10.4344 -27.3944 -23.1328 31.8126 4.6720 -4.4643
# 5 6.1345 -0.9510 7.8880 4.6720 36.1462 1.7153
# 6 -14.9312 -1.8703 -12.2269 -4.4643 1.7153 35.1340
#
#
#
# Elastic Compliance Matrix: (Units=1/GPa)
#
#
# Indices 1 2 3 4 5 6 
#
# 1 0.017968 -0.004429 0.002915 0.006270 -0.005061 0.009458
# 2 -0.004429 0.008538 -0.001268 0.004690 0.000709 -0.001308
# 3 0.002915 -0.001268 0.016672 0.014209 -0.006434 0.009093
# 4 0.006270 0.004690 0.014209 0.051641 -0.011427 0.014979
# 5 -0.005061 0.000709 -0.006434 -0.011427 0.031773 -0.007356
# 6 0.009458 -0.001308 0.009093 0.014979 -0.007356 0.037839
#
#
# Mechanical properties :
#
#
# Convention : Reuss Voigt Hill
#
# Bulk Modulus (GPa) = 26.58538 54.74531 40.66534
# Shear Modulus (GPa) = 27.39211 36.99195 32.19203
#
# Velocity S-wave (km/s) = 3.32879 3.86836 3.60867
# Velocity P-wave (km/s) = 5.05262 6.48831 5.81494
#
# Compressibility (1/GPa) = 0.03761466
#
# Stress axis : x y z
#
# Youngs Moduli (GPa) = 55.65358 117.12275 59.98011
#
# Poissons Ratio (x) = 0.51872 -0.17482
# Poissons Ratio (y) = 0.24648 0.07604
# Poissons Ratio (z) = -0.16221 0.14848
#
# Static dielectric constant tensor:
#      x y z
#    x 2.197580 0.049190 0.028330 
#    y 0.049190 1.925470 0.002510 
#    z 0.028330 0.002510 2.115350 
# 
# From -- ./inp_files/459578.got.cif
#   From: 2010.05.17/outbox.cif.g08.bks.cpg/sg2_230_cif.got.tgz:459578.got - 2010.06.03 11:33:40.
