data_PCOD9087944
_publ_section_title
;
Structure prediction by ZEFSAII (Michael W. Deem and Ramdas Pophale) SiO2 
 PCOD9087944
Probable space group: P -1
;
_chemical_formula_sum "Si O2"
_cell_formula_units_Z 14
_cell_length_a 17.040331
_cell_length_b 8.991002
_cell_length_c 11.746778
_cell_angle_alpha 138.870584
_cell_angle_beta 29.287945
_cell_angle_gamma 127.066144
_cell_volume 570.831350
_symmetry_space_group_name_H-M "P -1"
_symmetry_group_IT_number 2
_symmetry_cell_setting 'triclinic'
loop_
_space_group_symop_operation_xyz
x,y,z
-x,-y,-z
loop_
_atom_site_type_symbol
_atom_site_label
_atom_site_fract_x
_atom_site_fract_y
_atom_site_fract_z
Si Si1 0.376494 0.497537 0.835296
Si Si2 0.107476 0.659366 0.104031
Si Si3 0.287930 0.934192 0.331416
Si Si4 0.830597 0.803033 0.977940
Si Si5 0.896317 0.614348 0.534512
Si Si6 0.970463 0.194598 0.961020
Si Si7 0.631252 0.722897 0.756672
O O1 0.291760 0.575533 0.867403
O O2 0.554590 0.551713 0.670074
O O3 0.274850 0.681253 0.158595
O O4 0.328798 0.257879 0.793599
O O5 0.017758 0.439832 0.068091
O O6 0.096991 0.788578 0.073167
O O7 0.000894 0.760712 0.406296
O O8 0.278505 0.116198 0.344357
O O9 0.477163 0.894629 0.104094
O O10 0.144737 0.027927 0.649336
O O11 0.838868 0.734632 0.794820
O O12 0.983819 0.625276 0.732202
O O13 0.853753 0.065303 0.108081
O O14 0.738775 0.598644 0.648659
#
# Coordination Sequence:
#
# PCOD9087944 Si02
#       7
#     2   2   2   2   2   2   2
#     4   9  20  38  54  87 108 144 180 225 275 323
#     4  10  22  35  60  80 108 147 186 230 264 319
#     4   9  18  34  58  84 106 142 184 227 264 327
#     4  10  22  34  57  87 111 138 185 230 271 321
#     4  10  19  37  57  85 108 144 178 227 273 324
#     4  11  21  36  56  86 109 142 189 224 274 319
#     4   9  19  34  60  80 112 142 183 221 277 317
#
# _framework density 24.525635999999999
#
# number of rings (size 3 to 8) (size 9 to 14) (size 15 to 20)
#    0.857    1.429    1.429    2.571    2.000    4.000 
#    0.000    0.714    3.143    1.714    0.000    0.000 
#    0.000    0.000    0.000    0.000    0.000    0.000 
#
# Total GULP energy -78114.138354 kJ/mol
# GULP energy per Si atom -5579.581311 kJ/mol
# Density = 2.446981 g / cm^3
# Si number density = 24.525636 Si / 1000 Ang^3
#
#
#
# Elastic Constant Matrix: (Units=GPa)
#
#
# Indices 1 2 3 4 5 6 
#
# 1 151.9972 28.4483 4.3590 -5.0684 -26.9500 -16.0906
# 2 28.4483 142.4060 -3.1078 -3.7262 -7.8089 3.4717
# 3 4.3590 -3.1078 25.0607 3.7959 -3.9768 -8.0197
# 4 -5.0684 -3.7262 3.7959 23.4735 4.0295 2.3688
# 5 -26.9500 -7.8089 -3.9768 4.0295 26.7786 1.7515
# 6 -16.0906 3.4717 -8.0197 2.3688 1.7515 20.1512
#
#
#
# Elastic Compliance Matrix: (Units=1/GPa)
#
#
# Indices 1 2 3 4 5 6 
#
# 1 0.009138 -0.001513 0.002240 -0.000912 0.008716 0.007799
# 2 -0.001513 0.007458 0.000355 0.000929 0.000730 -0.002524
# 3 0.002240 0.000355 0.049964 -0.011496 0.010063 0.022089
# 4 -0.000912 0.000929 -0.011496 0.046944 -0.008750 -0.010222
# 5 0.008716 0.000730 0.010063 -0.008750 0.048639 0.007639
# 6 0.007799 -0.002524 0.022089 -0.010222 0.007639 0.065615
#
#
# Mechanical properties :
#
#
# Convention : Reuss Voigt Hill
#
# Bulk Modulus (GPa) = 14.55057 42.09588 28.32322
# Shear Modulus (GPa) = 20.12048 33.39828 26.75938
#
# Velocity S-wave (km/s) = 2.86734 3.69422 3.30673
# Velocity P-wave (km/s) = 4.11192 5.94959 5.11398
#
# Compressibility (1/GPa) = 0.06872582
#
# Stress axis : x y z
#
# Youngs Moduli (GPa) = 109.42748 134.08353 20.01426
#
# Poissons Ratio (x) = 0.20284 -0.04483
# Poissons Ratio (y) = 0.16554 -0.00711
# Poissons Ratio (z) = -0.24509 -0.04766
#
# Static dielectric constant tensor:
#      x y z
#    x 2.013040 0.039740 0.021540 
#    y 0.039740 1.957540 0.009500 
#    z 0.021540 0.009500 2.031830 
# 
# From -- ./inp_files/390824.got.cif
#   From: 2010.05.17/outbox.cif.g08.bks.cpg/sg2_196_cif.got.tgz:390824.got - 2010.06.03 11:33:40.
