data_PCOD9087830
_publ_section_title
;
Structure prediction by ZEFSAII (Michael W. Deem and Ramdas Pophale) SiO2 
 PCOD9087830
Probable space group: P -1
;
_chemical_formula_sum "Si O2"
_cell_formula_units_Z 16
_cell_length_a 7.348679
_cell_length_b 7.319858
_cell_length_c 18.111405
_cell_angle_alpha 102.664866
_cell_angle_beta 108.485623
_cell_angle_gamma 123.283264
_cell_volume 670.698181
_symmetry_space_group_name_H-M "P -1"
_symmetry_group_IT_number 2
_symmetry_cell_setting 'triclinic'
loop_
_space_group_symop_operation_xyz
x,y,z
-x,-y,-z
loop_
_atom_site_type_symbol
_atom_site_label
_atom_site_fract_x
_atom_site_fract_y
_atom_site_fract_z
Si Si1 0.193074 0.841916 0.936184
Si Si2 0.195531 0.455903 0.940261
Si Si3 0.754688 0.927310 0.883816
Si Si4 0.089293 0.211683 0.694848
Si Si5 0.808137 0.646228 0.603727
Si Si6 0.758778 0.698704 0.442323
Si Si7 0.823451 0.314334 0.234482
Si Si8 0.466281 0.547048 0.126347
O O1 0.057696 0.556794 0.912624
O O2 0.153657 0.821201 0.841495
O O3 0.500000 0.000000 0.000000
O O4 0.167871 0.957781 0.013628
O O5 0.409774 0.538019 0.916071
O O6 0.333199 0.575330 0.047530
O O7 0.993881 0.155886 0.888290
O O8 0.483878 0.839667 0.814914
O O9 0.721199 0.682330 0.861321
O O10 0.215783 0.345869 0.643396
O O11 0.046994 0.393933 0.737906
O O12 0.301392 0.240119 0.773921
O O13 0.862278 0.908814 0.635526
O O14 0.803399 0.597225 0.511088
O O15 0.533814 0.424275 0.588339
O O16 0.031596 0.678793 0.676640
O O17 0.000000 0.000000 0.500000
#
# Coordination Sequence:
#
# PCOD9087830 Si02
#       8
#     2   2   2   2   2   2   2   2
#     4  10  19  37  52  78 122 155 198 250 278 336
#     4  11  20  35  56  76 116 165 197 240 298 330
#     4  10  21  37  54  81 118 158 206 247 282 347
#     4  10  21  40  61  92 125 149 202 251 288 364
#     4  10  22  42  69  86 120 161 183 244 315 354
#     4   9  21  45  66  93 120 148 195 241 299 377
#     4  10  22  40  60  92 124 154 205 251 291 352
#     4  10  22  35  54  85 116 155 204 247 290 344
#
# _framework density 23.855737000000001
#
# number of rings (size 3 to 8) (size 9 to 14) (size 15 to 20)
#    0.000    2.000    3.750    0.750    3.500    3.500 
#    4.500    5.625    0.000    0.000    0.000    0.000 
#    0.000    0.000    0.000    0.000    0.000    0.000 
#
# Total GULP energy -89131.585003 kJ/mol
# GULP energy per Si atom -5570.724063 kJ/mol
# Density = 2.380144 g / cm^3
# Si number density = 23.855737 Si / 1000 Ang^3
#
#
#
# Elastic Constant Matrix: (Units=GPa)
#
#
# Indices 1 2 3 4 5 6 
#
# 1 61.8642 19.2631 28.2704 -10.3605 4.5436 1.7702
# 2 19.2631 116.0068 19.7911 8.9461 3.9591 4.2368
# 3 28.2704 19.7911 138.7535 -26.9304 22.4260 3.2563
# 4 -10.3605 8.9461 -26.9304 45.2411 -5.3084 5.4207
# 5 4.5436 3.9591 22.4260 -5.3084 35.8380 -5.4379
# 6 1.7702 4.2368 3.2563 5.4207 -5.4379 29.7229
#
#
#
# Elastic Compliance Matrix: (Units=1/GPa)
#
#
# Indices 1 2 3 4 5 6 
#
# 1 0.018924 -0.002895 -0.002760 0.003386 -0.000007 -0.001031
# 2 -0.002895 0.009624 -0.001354 -0.003360 -0.000425 -0.000516
# 3 -0.002760 -0.001354 0.009899 0.005221 -0.005324 -0.002653
# 4 0.003386 -0.003360 0.005221 0.027275 -0.000087 -0.005285
# 5 -0.000007 -0.000425 -0.005324 -0.000087 0.032266 0.006563
# 6 -0.001031 -0.000516 -0.002653 -0.005285 0.006563 0.036234
#
#
# Mechanical properties :
#
#
# Convention : Reuss Voigt Hill
#
# Bulk Modulus (GPa) = 40.93606 50.14152 45.53879
# Shear Modulus (GPa) = 31.97266 38.78040 35.37653
#
# Velocity S-wave (km/s) = 3.66491 4.03627 3.85507
# Velocity P-wave (km/s) = 5.92502 6.54112 6.24068
#
# Compressibility (1/GPa) = 0.02442834
#
# Stress axis : x y z
#
# Youngs Moduli (GPa) = 52.84238 103.90258 101.02287
#
# Poissons Ratio (x) = 0.30076 0.27886
# Poissons Ratio (y) = 0.15296 0.13683
# Poissons Ratio (z) = 0.14587 0.14073
#
# Static dielectric constant tensor:
#      x y z
#    x 2.190650 -0.055350 0.040910 
#    y -0.055350 2.018220 0.000580 
#    z 0.040910 0.000580 1.957040 
# 
# From -- ./inp_files/327972.got.cif
#   From: 2010.05.17/outbox.cif.g08.bks.cpg/sg2_164_cif.got.tgz:327972.got - 2010.06.03 11:33:40.
