data_PCOD9087167
_publ_section_title
;
Structure prediction by ZEFSAII (Michael W. Deem and Ramdas Pophale) SiO2 
 PCOD9087167
Probable space group: P -1
;
_chemical_formula_sum "Si O2"
_cell_formula_units_Z 14
_cell_length_a 18.825155
_cell_length_b 8.950845
_cell_length_c 27.503430
_cell_angle_alpha 151.853814
_cell_angle_beta 18.609450
_cell_angle_gamma 149.977373
_cell_volume 683.462226
_symmetry_space_group_name_H-M "P -1"
_symmetry_group_IT_number 2
_symmetry_cell_setting 'triclinic'
loop_
_space_group_symop_operation_xyz
x,y,z
-x,-y,-z
loop_
_atom_site_type_symbol
_atom_site_label
_atom_site_fract_x
_atom_site_fract_y
_atom_site_fract_z
Si Si1 0.337225 0.871191 0.524179
Si Si2 0.009629 0.983335 0.691281
Si Si3 0.847274 0.465607 0.867881
Si Si4 0.640421 0.376056 0.788455
Si Si5 0.306449 0.867360 0.699678
Si Si6 0.945708 0.301077 0.650571
Si Si7 0.401746 0.165274 0.413204
O O1 0.161911 0.057136 0.662711
O O2 0.161223 0.575523 0.575946
O O3 0.500000 0.000000 0.500000
O O4 0.525569 0.839465 0.351603
O O5 0.838238 0.643373 0.711763
O O6 0.877459 0.254072 0.835143
O O7 0.197206 0.982791 0.527741
O O8 0.908316 0.281928 0.726900
O O9 0.039672 0.794490 0.841593
O O10 0.597871 0.526246 0.039301
O O11 0.720799 0.375640 0.791791
O O12 0.620879 0.020871 0.675904
O O13 0.381070 0.539890 0.535989
O O14 0.370811 0.867115 0.714446
O O15 0.000000 0.000000 0.500000
#
# Coordination Sequence:
#
# PCOD9087167 Si02
#       7
#     2   2   2   2   2   2   2
#     4  10  19  36  62  86 109 145 199 241 276 329
#     4   9  20  36  57  85 110 151 195 234 281 335
#     4  11  21  37  56  84 122 148 190 230 296 345
#     4  11  22  35  57  86 117 155 182 241 290 342
#     4   9  18  34  57  83 106 152 187 241 275 335
#     4  11  23  39  61  87 114 151 195 238 282 336
#     4   9  18  34  58  82 112 142 203 234 274 329
#
# _framework density 20.483941000000002
#
# number of rings (size 3 to 8) (size 9 to 14) (size 15 to 20)
#    0.000    2.000    1.429    3.857    0.000    2.857 
#    0.000    0.000    0.000    5.143    0.000    0.000 
#    0.000    0.000    0.000    0.000    0.000    0.000 
#
# Total GULP energy -77984.364913 kJ/mol
# GULP energy per Si atom -5570.311780 kJ/mol
# Density = 2.043732 g / cm^3
# Si number density = 20.483941 Si / 1000 Ang^3
#
#
#
# Elastic Constant Matrix: (Units=GPa)
#
#
# Indices 1 2 3 4 5 6 
#
# 1 133.7123 35.4283 26.8803 -7.1280 -33.1035 13.9431
# 2 35.4283 55.5069 28.1962 -14.8152 -11.0866 13.2267
# 3 26.8803 28.1962 56.8571 -12.9340 -24.3141 14.7169
# 4 -7.1280 -14.8152 -12.9340 18.7115 8.4949 -10.1369
# 5 -33.1035 -11.0866 -24.3141 8.4949 35.5358 -10.0705
# 6 13.9431 13.2267 14.7169 -10.1369 -10.0705 32.6997
#
#
#
# Elastic Compliance Matrix: (Units=1/GPa)
#
#
# Indices 1 2 3 4 5 6 
#
# 1 0.011545 -0.007378 0.001791 -0.005727 0.010700 -0.001224
# 2 -0.007378 0.032092 -0.012163 0.017653 -0.009957 -0.001955
# 3 0.001791 -0.012163 0.032185 0.003015 0.018091 -0.003823
# 4 -0.005727 0.017653 0.003015 0.081427 -0.012920 0.015208
# 5 0.010700 -0.009957 0.018091 -0.012920 0.051357 0.003134
# 6 -0.001224 -0.001955 -0.003823 0.015208 0.003134 0.039294
#
#
# Mechanical properties :
#
#
# Convention : Reuss Voigt Hill
#
# Bulk Modulus (GPa) = 24.80087 47.45398 36.12743
# Shear Modulus (GPa) = 16.84399 27.76082 22.30241
#
# Velocity S-wave (km/s) = 2.87069 3.68536 3.30324
# Velocity P-wave (km/s) = 4.80849 6.42852 5.67660
#
# Compressibility (1/GPa) = 0.04032116
#
# Stress axis : x y z
#
# Youngs Moduli (GPa) = 86.61639 31.16007 31.07070
#
# Poissons Ratio (x) = 0.22990 -0.05564
# Poissons Ratio (y) = 0.63907 0.37791
# Poissons Ratio (z) = -0.15510 0.37900
#
# Static dielectric constant tensor:
#      x y z
#    x 1.775700 -0.039380 -0.047400 
#    y -0.039380 1.716630 -0.030230 
#    z -0.047400 -0.030230 1.722500 
# 
# From -- ./inp_files/183221.got.cif
#   From: 2010.05.17/outbox.cif.g08.bks.cpg/sg2_92_cif.got.tgz:183221.got - 2010.06.03 11:33:40.
