data_PCOD9087671
_publ_section_title
;
Structure prediction by ZEFSAII (Michael W. Deem and Ramdas Pophale) SiO2 
 PCOD9087671
Probable space group: P -1
;
_chemical_formula_sum "Si O2"
_cell_formula_units_Z 14
_cell_length_a 16.380420
_cell_length_b 8.378787
_cell_length_c 11.082283
_cell_angle_alpha 70.766890
_cell_angle_beta 32.264450
_cell_angle_gamma 54.466904
_cell_volume 613.082370
_symmetry_space_group_name_H-M "P -1"
_symmetry_group_IT_number 2
_symmetry_cell_setting 'triclinic'
loop_
_space_group_symop_operation_xyz
x,y,z
-x,-y,-z
loop_
_atom_site_type_symbol
_atom_site_label
_atom_site_fract_x
_atom_site_fract_y
_atom_site_fract_z
Si Si1 0.097314 0.770332 0.318323
Si Si2 0.329207 0.103366 0.522915
Si Si3 0.472753 0.699178 0.799316
Si Si4 0.882221 0.248942 0.436323
Si Si5 0.910644 0.385841 0.885809
Si Si6 0.847641 0.701182 0.059873
Si Si7 0.337965 0.733207 0.687617
O O1 0.066232 0.716667 0.502933
O O2 0.119671 0.629334 0.213360
O O3 0.300125 0.736221 0.083179
O O4 0.928502 0.017918 0.440462
O O5 0.482117 0.134030 0.272628
O O6 0.305797 0.159065 0.681322
O O7 0.130812 0.280564 0.661102
O O8 0.338501 0.895224 0.561218
O O9 0.669486 0.459032 0.620864
O O10 0.396049 0.742371 0.748349
O O11 0.036267 0.218746 0.157231
O O12 0.792773 0.614431 0.040291
O O13 0.853411 0.251988 0.062558
O O14 0.000000 0.500000 0.000000
O O15 0.500000 0.500000 0.500000
#
# Coordination Sequence:
#
# PCOD9087671 Si02
#       7
#     2   2   2   2   2   2   2
#     4  10  25  41  66  93 122 169 222 260 306 368
#     4  11  22  40  63  92 131 166 202 259 324 382
#     4  11  22  42  62  91 126 168 212 259 311 383
#     4  11  22  43  67  88 127 173 213 256 316 381
#     4  10  21  39  60  91 124 163 206 265 306 367
#     4  10  19  36  65  92 119 166 204 244 324 376
#     4  11  24  34  58  97 129 160 208 261 316 377
#
# _framework density 22.835429999999999
#
# number of rings (size 3 to 8) (size 9 to 14) (size 15 to 20)
#    0.000    1.429    2.857    3.857    4.000    1.714 
#    0.000    0.000    0.000    1.714    0.000    0.000 
#    0.000    0.000    0.000    0.000    0.000    0.000 
#
# Total GULP energy -78220.363790 kJ/mol
# GULP energy per Si atom -5587.168842 kJ/mol
# Density = 2.278346 g / cm^3
# Si number density = 22.835430 Si / 1000 Ang^3
#
#
#
# Elastic Constant Matrix: (Units=GPa)
#
#
# Indices 1 2 3 4 5 6 
#
# 1 65.2157 -3.3596 18.4567 -3.8909 0.6968 8.5285
# 2 -3.3596 69.6089 -0.4882 10.2602 -10.9062 -5.9354
# 3 18.4567 -0.4882 75.2518 2.2072 -9.2794 -10.4997
# 4 -3.8909 10.2602 2.2072 27.7260 -1.7176 2.9850
# 5 0.6968 -10.9062 -9.2794 -1.7176 31.9607 -0.8513
# 6 8.5285 -5.9354 -10.4997 2.9850 -0.8513 31.4374
#
#
#
# Elastic Compliance Matrix: (Units=1/GPa)
#
#
# Indices 1 2 3 4 5 6 
#
# 1 0.018216 -0.000758 -0.005928 0.003970 -0.002363 -0.007506
# 2 -0.000758 0.016661 0.001895 -0.006563 0.006027 0.004771
# 3 -0.005928 0.001895 0.016667 -0.003372 0.005647 0.008006
# 4 0.003970 -0.006563 -0.003372 0.040022 -0.001348 -0.007279
# 5 -0.002363 0.006027 0.005647 -0.001348 0.035090 0.004743
# 6 -0.007506 0.004771 0.008006 -0.007279 0.004743 0.038239
#
#
# Mechanical properties :
#
#
# Convention : Reuss Voigt Hill
#
# Bulk Modulus (GPa) = 23.83034 26.58825 25.20930
# Shear Modulus (GPa) = 26.53026 31.25597 28.89312
#
# Velocity S-wave (km/s) = 3.41222 3.70367 3.56093
# Velocity P-wave (km/s) = 5.09732 5.47342 5.28871
#
# Compressibility (1/GPa) = 0.04196331
#
# Stress axis : x y z
#
# Youngs Moduli (GPa) = 54.89688 60.02008 59.99824
#
# Poissons Ratio (x) = 0.04549 0.35566
# Poissons Ratio (y) = 0.04161 -0.11371
# Poissons Ratio (z) = 0.32542 -0.11375
#
# Static dielectric constant tensor:
#      x y z
#    x 1.704780 -0.054160 -0.186750 
#    y -0.054160 1.849230 -0.080520 
#    z -0.186750 -0.080520 1.700980 
# 
# From -- ./inp_files/461974.got.cif
#   From: 2010.05.17/outbox.cif.g08.bks.cpg/sg2_231_cif.got.tgz:461974.got - 2010.06.03 11:33:40.
