data_PCOD9087539
_publ_section_title
;
Structure prediction by ZEFSAII (Michael W. Deem and Ramdas Pophale) SiO2 
 PCOD9087539
Probable space group: P -1
;
_chemical_formula_sum "Si O2"
_cell_formula_units_Z 16
_cell_length_a 9.537548
_cell_length_b 15.448273
_cell_length_c 10.495879
_cell_angle_alpha 68.533540
_cell_angle_beta 97.148274
_cell_angle_gamma 145.260433
_cell_volume 773.471451
_symmetry_space_group_name_H-M "P -1"
_symmetry_group_IT_number 2
_symmetry_cell_setting 'triclinic'
loop_
_space_group_symop_operation_xyz
x,y,z
-x,-y,-z
loop_
_atom_site_type_symbol
_atom_site_label
_atom_site_fract_x
_atom_site_fract_y
_atom_site_fract_z
Si Si1 0.704720 0.825179 0.110654
Si Si2 0.271287 0.592813 0.976079
Si Si3 0.996184 0.269996 0.229735
Si Si4 0.261065 0.324669 0.641009
Si Si5 0.230653 0.875185 0.198790
Si Si6 0.546284 0.156059 0.307603
Si Si7 0.348614 0.026272 0.856213
Si Si8 0.971583 0.090337 0.495369
O O1 0.486510 0.732618 0.033297
O O2 0.657521 0.695351 0.222387
O O3 0.674201 0.876828 0.198627
O O4 0.000000 0.000000 0.000000
O O5 0.191736 0.442884 0.077124
O O6 0.392249 0.703569 0.802170
O O7 0.000000 0.500000 0.000000
O O8 0.809140 0.238871 0.305716
O O9 0.824562 0.120932 0.187033
O O10 0.101772 0.244728 0.342682
O O11 0.500000 0.500000 0.500000
O O12 0.095274 0.170241 0.606203
O O13 0.059233 0.287822 0.693348
O O14 0.402178 0.025524 0.242192
O O15 0.359787 0.847705 0.201626
O O16 0.254945 0.941961 0.031293
O O17 0.333274 0.046017 0.454193
O O18 0.000000 0.000000 0.500000
#
# Coordination Sequence:
#
# PCOD9087539 Si02
#       8
#     2   2   2   2   2   2   2   2
#     4  12  21  39  65  90 118 165 212 244 301 377
#     4  10  21  38  59  94 124 151 196 259 316 350
#     4  10  21  36  60  90 117 154 198 255 305 348
#     4  11  23  40  59  85 124 161 200 253 312 361
#     4   9  18  36  62  87 116 159 207 251 293 362
#     4   9  18  38  61  82 113 159 199 243 298 364
#     4  10  19  36  64  90 116 157 218 247 290 375
#     4  11  22  40  56  82 120 160 201 243 295 367
#
# _framework density 20.685960999999999
#
# number of rings (size 3 to 8) (size 9 to 14) (size 15 to 20)
#    0.000    1.750    2.500    2.625    1.750    0.000 
#    2.250    1.875    0.000    0.000    0.000    0.000 
#    0.000    0.000    0.000    0.000    0.000    0.000 
#
# Total GULP energy -89187.469340 kJ/mol
# GULP energy per Si atom -5574.216834 kJ/mol
# Density = 2.063888 g / cm^3
# Si number density = 20.685961 Si / 1000 Ang^3
#
#
#
# Elastic Constant Matrix: (Units=GPa)
#
#
# Indices 1 2 3 4 5 6 
#
# 1 109.0248 26.6532 38.6308 -7.9051 -3.3448 -1.2984
# 2 26.6532 46.1765 3.6097 -1.3829 -1.4711 11.2736
# 3 38.6308 3.6097 84.0453 -20.5492 9.1783 7.0049
# 4 -7.9051 -1.3829 -20.5492 31.6552 0.4695 -2.1951
# 5 -3.3448 -1.4711 9.1783 0.4695 39.5931 -2.3437
# 6 -1.2984 11.2736 7.0049 -2.1951 -2.3437 21.5817
#
#
#
# Elastic Compliance Matrix: (Units=1/GPa)
#
#
# Indices 1 2 3 4 5 6 
#
# 1 0.014319 -0.009711 -0.007507 -0.001172 0.003111 0.008589
# 2 -0.009711 0.031410 0.005142 0.001012 -0.001968 -0.018771
# 3 -0.007507 0.005142 0.018935 0.010110 -0.005476 -0.008850
# 4 -0.001172 0.001012 0.010110 0.037924 -0.002875 -0.000336
# 5 0.003111 -0.001968 -0.005476 -0.002875 0.027084 0.005642
# 6 0.008589 -0.018771 -0.008850 -0.000336 0.005642 0.060109
#
#
# Mechanical properties :
#
#
# Convention : Reuss Voigt Hill
#
# Bulk Modulus (GPa) = 24.68415 41.89266 33.28840
# Shear Modulus (GPa) = 21.98403 29.92287 25.95345
#
# Velocity S-wave (km/s) = 3.26352 3.80745 3.54593
# Velocity P-wave (km/s) = 5.11463 6.29481 5.73516
#
# Compressibility (1/GPa) = 0.04051183
#
# Stress axis : x y z
#
# Youngs Moduli (GPa) = 69.83767 31.83706 52.81106
#
# Poissons Ratio (x) = 0.30917 0.39644
# Poissons Ratio (y) = 0.67820 -0.27154
# Poissons Ratio (z) = 0.52425 -0.16370
#
# Static dielectric constant tensor:
#      x y z
#    x 1.915600 0.061920 0.143920 
#    y 0.061920 1.808790 0.057670 
#    z 0.143920 0.057670 1.869700 
# 
# From -- ./inp_files/274734.got.cif
#   From: 2010.05.17/outbox.cif.g08.bks.cpg/sg2_138_cif.got.tgz:274734.got - 2010.06.03 11:33:40.
