data_PCOD9087137
_publ_section_title
;
Structure prediction by ZEFSAII (Michael W. Deem and Ramdas Pophale) SiO2 
 PCOD9087137
Probable space group: P -1
;
_chemical_formula_sum "Si O2"
_cell_formula_units_Z 12
_cell_length_a 25.986055
_cell_length_b 8.833757
_cell_length_c 12.174160
_cell_angle_alpha 143.889887
_cell_angle_beta 157.672479
_cell_angle_gamma 28.813986
_cell_volume 511.644473
_symmetry_space_group_name_H-M "P -1"
_symmetry_group_IT_number 2
_symmetry_cell_setting 'triclinic'
loop_
_space_group_symop_operation_xyz
x,y,z
-x,-y,-z
loop_
_atom_site_type_symbol
_atom_site_label
_atom_site_fract_x
_atom_site_fract_y
_atom_site_fract_z
Si Si1 0.780868 0.019298 0.837999
Si Si2 0.813793 0.232762 0.632676
Si Si3 0.891234 0.409436 0.167365
Si Si4 0.002778 0.565594 0.199040
Si Si5 0.204711 0.009173 0.781451
Si Si6 0.530310 0.258691 0.672501
O O1 0.821173 0.749573 0.670970
O O2 0.614396 0.176261 0.671151
O O3 0.927839 0.814331 0.097620
O O4 0.804561 0.273223 0.981014
O O5 0.641761 0.406004 0.457598
O O6 0.792515 0.166736 0.424865
O O7 0.881970 0.447968 0.894572
O O8 0.954205 0.899226 0.766468
O O9 0.761606 0.733815 0.041141
O O10 0.000000 0.500000 0.500000
O O11 0.967833 0.757912 0.354972
O O12 0.337176 0.779112 0.998585
O O13 0.500000 0.000000 0.500000
#
# Coordination Sequence:
#
# PCOD9087137 Si02
#       6
#     2   2   2   2   2   2
#     4   9  18  34  59  80 115 151 183 235 282 326
#     4  10  19  36  62  83 113 149 187 233 284 332
#     4   9  20  38  59  84 116 146 190 233 282 338
#     4   9  18  36  59  83 111 147 195 233 273 332
#     4  10  20  36  62  84 111 153 189 228 287 333
#     4  11  20  38  60  82 117 152 188 232 282 332
#
# _framework density 23.453786000000001
#
# number of rings (size 3 to 8) (size 9 to 14) (size 15 to 20)
#    0.000    2.333    3.333    0.500    0.000    2.667 
#    0.000   45.000    0.000    0.000    0.000    0.000 
#    0.000    0.000    0.000    0.000    0.000    0.000 
#
# Total GULP energy -66959.417752 kJ/mol
# GULP energy per Si atom -5579.951479 kJ/mol
# Density = 2.340040 g / cm^3
# Si number density = 23.453786 Si / 1000 Ang^3
#
#
#
# Elastic Constant Matrix: (Units=GPa)
#
#
# Indices 1 2 3 4 5 6 
#
# 1 108.4610 57.4184 34.3180 0.8095 19.9308 -39.3476
# 2 57.4184 101.5610 39.9928 5.2556 30.8203 -24.3783
# 3 34.3180 39.9928 60.9954 11.0147 -5.4057 -25.6153
# 4 0.8095 5.2556 11.0147 32.4576 -15.9214 2.8613
# 5 19.9308 30.8203 -5.4057 -15.9214 42.1849 2.6784
# 6 -39.3476 -24.3783 -25.6153 2.8613 2.6784 66.6878
#
#
#
# Elastic Compliance Matrix: (Units=1/GPa)
#
#
# Indices 1 2 3 4 5 6 
#
# 1 0.016303 -0.003804 -0.003844 -0.002446 -0.006792 0.007130
# 2 -0.003804 0.025594 -0.013223 -0.011160 -0.023026 0.003436
# 3 -0.003844 -0.013223 0.030464 -0.001278 0.014640 0.004066
# 4 -0.002446 -0.011160 -0.001278 0.047480 0.027647 -0.009161
# 5 -0.006792 -0.023026 0.014640 0.027647 0.056699 -0.010265
# 6 0.007130 0.003436 0.004066 -0.009161 -0.010265 0.022825
#
#
# Mechanical properties :
#
#
# Convention : Reuss Voigt Hill
#
# Bulk Modulus (GPa) = 32.66179 59.38622 46.02400
# Shear Modulus (GPa) = 19.89539 37.55195 28.72367
#
# Velocity S-wave (km/s) = 2.91569 4.00572 3.50336
# Velocity P-wave (km/s) = 5.02904 6.83885 6.00255
#
# Compressibility (1/GPa) = 0.03061682
#
# Stress axis : x y z
#
# Youngs Moduli (GPa) = 61.33834 39.07151 32.82617
#
# Poissons Ratio (x) = 0.14864 0.12620
# Poissons Ratio (y) = 0.23334 0.43407
# Poissons Ratio (z) = 0.23581 0.51665
#
# Static dielectric constant tensor:
#      x y z
#    x 1.984040 0.011920 -0.024960 
#    y 0.011920 1.945160 0.005070 
#    z -0.024960 0.005070 1.907040 
# 
# From -- ./inp_files/170518.got.cif
#   From: 2010.05.17/outbox.cif.g08.bks.cpg/sg2_86_cif.got.tgz:170518.got - 2010.06.03 11:33:40.
