data_PCOD9087117
_publ_section_title
;
Structure prediction by ZEFSAII (Michael W. Deem and Ramdas Pophale) SiO2 
 PCOD9087117
Probable space group: P -1
;
_chemical_formula_sum "Si O2"
_cell_formula_units_Z 16
_cell_length_a 20.346511
_cell_length_b 24.415563
_cell_length_c 12.180569
_cell_angle_alpha 152.248007
_cell_angle_beta 152.741107
_cell_angle_gamma 15.817997
_cell_volume 733.768963
_symmetry_space_group_name_H-M "P -1"
_symmetry_group_IT_number 2
_symmetry_cell_setting 'triclinic'
loop_
_space_group_symop_operation_xyz
x,y,z
-x,-y,-z
loop_
_atom_site_type_symbol
_atom_site_label
_atom_site_fract_x
_atom_site_fract_y
_atom_site_fract_z
Si Si1 0.775691 0.561387 0.251890
Si Si2 0.224217 0.815137 0.089284
Si Si3 0.466671 0.726129 0.619943
Si Si4 0.273782 0.643209 0.071631
Si Si5 0.986421 0.406324 0.720376
Si Si6 0.793605 0.541478 0.987717
Si Si7 0.417894 0.921303 0.518159
Si Si8 0.706094 0.903963 0.048233
O O1 0.733511 0.567982 0.072408
O O2 0.518509 0.789614 0.325245
O O3 0.000000 0.500000 0.500000
O O4 0.845074 0.393954 0.120911
O O5 0.151569 0.787809 0.039783
O O6 0.345537 0.860564 0.381552
O O7 0.447090 0.590665 0.964648
O O8 0.000000 0.000000 0.000000
O O9 0.299158 0.725797 0.348305
O O10 0.702739 0.555614 0.582255
O O11 0.339046 0.935184 0.772744
O O12 0.572726 0.668548 0.798325
O O13 0.077352 0.417548 0.769282
O O14 0.179923 0.168693 0.597456
O O15 0.000000 0.500000 0.000000
O O16 0.014668 0.301701 0.858985
O O17 0.648191 0.848498 0.768954
O O18 0.500000 0.000000 0.000000
#
# Coordination Sequence:
#
# PCOD9087117 Si02
#       8
#     2   2   2   2   2   2   2   2
#     4  11  25  44  65  89 132 182 223 267 319 398
#     4  10  22  41  65  97 128 169 217 269 330 389
#     4  11  22  41  64 100 136 161 219 280 330 382
#     4  10  24  42  64  94 130 174 213 271 331 382
#     4  10  19  36  61  99 129 158 211 274 325 378
#     4  11  23  39  65  95 132 181 217 264 324 388
#     4  11  21  39  64  96 128 168 218 268 331 383
#     4  12  20  36  65  98 128 166 213 272 333 379
#
# _framework density 21.805228
#
# number of rings (size 3 to 8) (size 9 to 14) (size 15 to 20)
#    0.000    1.250    5.000    2.250    0.000    4.000 
#    0.000    4.375    0.000    0.000    0.000    0.000 
#    0.000    0.000    0.000    0.000    0.000    0.000 
#
# Total GULP energy -89373.529209 kJ/mol
# GULP energy per Si atom -5585.845576 kJ/mol
# Density = 2.175560 g / cm^3
# Si number density = 21.805228 Si / 1000 Ang^3
#
#
#
# Elastic Constant Matrix: (Units=GPa)
#
#
# Indices 1 2 3 4 5 6 
#
# 1 131.4189 35.2979 47.9489 14.6957 4.0421 25.8648
# 2 35.2979 97.3522 38.4090 27.7744 -0.9238 33.4936
# 3 47.9489 38.4090 138.6555 21.6453 27.6190 21.4375
# 4 14.6957 27.7744 21.6453 34.5734 3.2354 3.6728
# 5 4.0421 -0.9238 27.6190 3.2354 33.7428 7.3532
# 6 25.8648 33.4936 21.4375 3.6728 7.3532 32.6142
#
#
#
# Elastic Compliance Matrix: (Units=1/GPa)
#
#
# Indices 1 2 3 4 5 6 
#
# 1 0.010042 0.000701 -0.002704 -0.002636 0.002863 -0.007255
# 2 0.000701 0.023914 -0.002521 -0.016286 0.009368 -0.023736
# 3 -0.002704 -0.002521 0.011022 -0.002907 -0.008426 -0.000284
# 4 -0.002636 -0.016286 -0.002907 0.043663 -0.005660 0.017086
# 5 0.002863 0.009368 -0.008426 -0.005660 0.040210 -0.014781
# 6 -0.007255 -0.023736 -0.000284 0.017086 -0.014781 0.062387
#
#
# Mechanical properties :
#
#
# Convention : Reuss Voigt Hill
#
# Bulk Modulus (GPa) = 27.83154 67.85980 47.84567
# Shear Modulus (GPa) = 23.55599 36.57079 30.06339
#
# Velocity S-wave (km/s) = 3.29034 4.09975 3.71715
# Velocity P-wave (km/s) = 5.21791 7.32114 6.35711
#
# Compressibility (1/GPa) = 0.03593046
#
# Stress axis : x y z
#
# Youngs Moduli (GPa) = 99.58015 41.81704 90.73090
#
# Poissons Ratio (x) = -0.02932 0.24534
# Poissons Ratio (y) = -0.06982 0.22870
# Poissons Ratio (z) = 0.26927 0.10541
#
# Static dielectric constant tensor:
#      x y z
#    x 1.866150 -0.002800 -0.011130 
#    y -0.002800 1.824150 -0.024760 
#    z -0.011130 -0.024760 1.849430 
# 
# From -- ./inp_files/467205.got.cif
#   From: 2010.05.17/outbox.cif.g08.bks.cpg/sg2_234_cif.got.tgz:467205.got - 2010.06.03 11:33:40.
