data_PCOD9087100
_publ_section_title
;
Structure prediction by ZEFSAII (Michael W. Deem and Ramdas Pophale) SiO2 
 PCOD9087100
Probable space group: P -1
;
_chemical_formula_sum "Si O2"
_cell_formula_units_Z 16
_cell_length_a 12.101025
_cell_length_b 9.986366
_cell_length_c 8.663949
_cell_angle_alpha 44.168275
_cell_angle_beta 59.825888
_cell_angle_gamma 66.275168
_cell_volume 629.145396
_symmetry_space_group_name_H-M "P -1"
_symmetry_group_IT_number 2
_symmetry_cell_setting 'triclinic'
loop_
_space_group_symop_operation_xyz
x,y,z
-x,-y,-z
loop_
_atom_site_type_symbol
_atom_site_label
_atom_site_fract_x
_atom_site_fract_y
_atom_site_fract_z
Si Si1 0.352883 0.456680 0.142624
Si Si2 0.015825 0.725159 0.840467
Si Si3 0.720561 0.365223 0.420686
Si Si4 0.064724 0.228175 0.793962
Si Si5 0.742775 0.744486 0.927657
Si Si6 0.573344 0.074687 0.632682
Si Si7 0.166038 0.653416 0.322674
Si Si8 0.325996 0.055750 0.657747
O O1 0.288329 0.388100 0.087762
O O2 0.261789 0.629720 0.131296
O O3 0.349560 0.274490 0.408462
O O4 0.500000 0.500000 0.000000
O O5 0.887391 0.813176 0.772035
O O6 0.159260 0.742024 0.667558
O O7 0.997393 0.775869 0.990311
O O8 0.000000 0.500000 0.000000
O O9 0.591558 0.285977 0.510485
O O10 0.750901 0.303000 0.624565
O O11 0.725077 0.595845 0.203321
O O12 0.114012 0.443197 0.567542
O O13 0.183885 0.076863 0.805345
O O14 0.961102 0.218838 0.738090
O O15 0.644049 0.926711 0.824947
O O16 0.432832 0.009995 0.749409
O O17 0.643064 0.057860 0.429120
#
# Coordination Sequence:
#
# PCOD9087100 Si02
#       8
#     2   2   2   2   2   2   2   2
#     4  10  20  37  64  93 125 171 213 258 320 387
#     4  10  19  36  61  95 128 164 208 263 324 376
#     4  11  22  38  68  98 128 163 213 268 321 383
#     4  10  19  37  63  92 128 168 219 260 318 383
#     4  10  21  39  65  92 125 171 209 261 324 377
#     4  10  22  42  64  92 129 169 220 259 326 380
#     4  10  20  34  64  97 125 166 214 262 319 385
#     4   9  21  40  64  88 125 177 214 267 316 382
#
# _framework density 25.431322999999999
#
# number of rings (size 3 to 8) (size 9 to 14) (size 15 to 20)
#    0.000    2.000    2.500    2.250    5.250    0.500 
#    2.250    3.125    8.250    0.000    0.000    0.000 
#    0.000    0.000    0.000    0.000    0.000    0.000 
#
# Total GULP energy -89554.229185 kJ/mol
# GULP energy per Si atom -5597.139324 kJ/mol
# Density = 2.537344 g / cm^3
# Si number density = 25.431323 Si / 1000 Ang^3
#
#
#
# Elastic Constant Matrix: (Units=GPa)
#
#
# Indices 1 2 3 4 5 6 
#
# 1 119.7719 1.7356 14.1616 -8.4710 19.8591 5.7159
# 2 1.7356 51.2689 12.7831 0.1692 -0.4239 0.2376
# 3 14.1616 12.7831 61.9170 2.4172 -2.1240 6.2960
# 4 -8.4710 0.1692 2.4172 31.3908 2.6170 -0.3574
# 5 19.8591 -0.4239 -2.1240 2.6170 28.2765 -10.2904
# 6 5.7159 0.2376 6.2960 -0.3574 -10.2904 36.5673
#
#
#
# Elastic Compliance Matrix: (Units=1/GPa)
#
#
# Indices 1 2 3 4 5 6 
#
# 1 0.010667 0.000205 -0.002564 0.003818 -0.009434 -0.003845
# 2 0.000205 0.020583 -0.004367 0.000285 0.000027 0.000596
# 3 -0.002564 -0.004367 0.018017 -0.002294 0.002585 -0.001968
# 4 0.003818 0.000285 -0.002294 0.033591 -0.006587 -0.001729
# 5 -0.009434 0.000027 0.002585 -0.006587 0.048068 0.014492
# 6 -0.003845 0.000596 -0.001968 -0.001729 0.014492 0.032344
#
#
# Mechanical properties :
#
#
# Convention : Reuss Voigt Hill
#
# Bulk Modulus (GPa) = 27.92064 32.25758 30.08911
# Shear Modulus (GPa) = 26.50245 32.86542 29.68394
#
# Velocity S-wave (km/s) = 3.23169 3.59879 3.42017
# Velocity P-wave (km/s) = 4.99277 5.47541 5.23965
#
# Compressibility (1/GPa) = 0.03581580
#
# Stress axis : x y z
#
# Youngs Moduli (GPa) = 93.74688 48.58260 55.50295
#
# Poissons Ratio (x) = -0.00998 0.14230
# Poissons Ratio (y) = -0.01925 0.24240
# Poissons Ratio (z) = 0.24035 0.21218
#
# Static dielectric constant tensor:
#      x y z
#    x 2.017490 -0.038230 -0.012830 
#    y -0.038230 1.999850 -0.028470 
#    z -0.012830 -0.028470 2.072560 
# 
# From -- ./inp_files/261500.got.cif
#   From: 2010.05.17/outbox.cif.g08.bks.cpg/sg2_131_cif.got.tgz:261500.got - 2010.06.03 11:33:40.
