data_PCOD9087999
_publ_section_title
;
Structure prediction by ZEFSAII (Michael W. Deem and Ramdas Pophale) SiO2 
 PCOD9087999
Probable space group: P -1
;
_chemical_formula_sum "Si O2"
_cell_formula_units_Z 16
_cell_length_a 25.544737
_cell_length_b 8.633017
_cell_length_c 7.776315
_cell_angle_alpha 52.298772
_cell_angle_beta 148.467274
_cell_angle_gamma 129.009589
_cell_volume 684.917906
_symmetry_space_group_name_H-M "P -1"
_symmetry_group_IT_number 2
_symmetry_cell_setting 'triclinic'
loop_
_space_group_symop_operation_xyz
x,y,z
-x,-y,-z
loop_
_atom_site_type_symbol
_atom_site_label
_atom_site_fract_x
_atom_site_fract_y
_atom_site_fract_z
Si Si1 0.361343 0.778669 0.194351
Si Si2 0.783212 0.885871 0.128618
Si Si3 0.437109 0.329140 0.315575
Si Si4 0.028773 0.843376 0.428899
Si Si5 0.846661 0.539267 0.326382
Si Si6 0.263660 0.119594 0.605222
Si Si7 0.927507 0.183437 0.837400
Si Si8 0.611840 0.473921 0.282685
O O1 0.470702 0.755327 0.446887
O O2 0.365756 0.726681 0.444571
O O3 0.257592 0.620088 0.933736
O O4 0.349162 0.999828 0.967586
O O5 0.814577 0.706452 0.238274
O O6 0.866056 0.107079 0.194540
O O7 0.787558 0.865684 0.362986
O O8 0.660569 0.844721 0.770720
O O9 0.500000 0.500000 0.500000
O O10 0.383386 0.458561 0.946219
O O11 0.045961 0.795612 0.308704
O O12 0.932003 0.668770 0.344351
O O13 0.002143 0.062946 0.212736
O O14 0.906844 0.393771 0.691390
O O15 0.182019 0.984877 0.342282
O O16 0.310717 0.343618 0.521474
O O17 0.500000 0.500000 0.000000
#
# Coordination Sequence:
#
# PCOD9087999 Si02
#       8
#     2   2   2   2   2   2   2   2
#     4  10  20  36  64  83 111 154 194 229 276 338
#     4  10  21  35  55  82 117 149 183 234 289 331
#     4  10  19  37  58  82 116 151 185 235 287 328
#     4  10  20  37  56  82 114 143 186 239 272 336
#     4  11  20  35  59  85 113 148 185 229 289 334
#     4   9  19  37  57  84 114 148 192 231 279 338
#     4   9  20  36  58  82 109 149 189 226 282 338
#     4   9  19  32  56  83 107 146 192 230 271 330
#
# _framework density 23.360462999999999
#
# number of rings (size 3 to 8) (size 9 to 14) (size 15 to 20)
#    0.000    2.250    1.250    1.500    0.000    6.000 
#    0.000    2.500    2.750    4.500    0.000    0.000 
#    0.000    0.000    0.000    0.000    0.000    0.000 
#
# Total GULP energy -89164.940959 kJ/mol
# GULP energy per Si atom -5572.808810 kJ/mol
# Density = 2.330729 g / cm^3
# Si number density = 23.360463 Si / 1000 Ang^3
#
#
#
# Elastic Constant Matrix: (Units=GPa)
#
#
# Indices 1 2 3 4 5 6 
#
# 1 30.0630 20.0797 9.6032 5.7454 20.6332 -0.7563
# 2 20.0797 82.6300 31.7390 16.0906 13.0146 10.1827
# 3 9.6032 31.7390 96.2906 6.9077 12.6305 5.6608
# 4 5.7454 16.0906 6.9077 51.2712 6.4647 8.4681
# 5 20.6332 13.0146 12.6305 6.4647 27.6939 8.3043
# 6 -0.7563 10.1827 5.6608 8.4681 8.3043 21.2761
#
#
#
# Elastic Compliance Matrix: (Units=1/GPa)
#
#
# Indices 1 2 3 4 5 6 
#
# 1 0.102400 -0.018443 0.004256 -0.003282 -0.082213 0.044729
# 2 -0.018443 0.018634 -0.004916 -0.002624 0.011330 -0.011643
# 3 0.004256 -0.004916 0.012399 -0.000038 -0.007105 0.001993
# 4 -0.003282 -0.002624 -0.000038 0.021890 0.000967 -0.007940
# 5 -0.082213 0.011330 -0.007105 0.000967 0.109974 -0.049763
# 6 0.044729 -0.011643 0.001993 -0.007940 -0.049763 0.076217
#
#
# Mechanical properties :
#
#
# Convention : Reuss Voigt Hill
#
# Bulk Modulus (GPa) = 10.50119 36.86971 23.68545
# Shear Modulus (GPa) = 12.15183 29.88569 21.01876
#
# Velocity S-wave (km/s) = 2.28324 3.58065 3.00285
# Velocity P-wave (km/s) = 3.38466 5.73689 4.70998
#
# Compressibility (1/GPa) = 0.09522733
#
# Stress axis : x y z
#
# Youngs Moduli (GPa) = 9.76560 53.66662 80.65443
#
# Poissons Ratio (x) = 0.98977 -0.34330
# Poissons Ratio (y) = 0.18011 0.39650
# Poissons Ratio (z) = -0.04157 0.26383
#
# Static dielectric constant tensor:
#      x y z
#    x 1.952430 0.079140 0.063620 
#    y 0.079140 1.805490 -0.279490 
#    z 0.063620 -0.279490 1.019490 
# 
# From -- ./inp_files/215375.got.cif
#   From: 2010.05.17/outbox.cif.g08.bks.cpg/sg2_108_cif.got.tgz:215375.got - 2010.06.03 11:33:40.
