data_PCOD9087095
_publ_section_title
;
Structure prediction by ZEFSAII (Michael W. Deem and Ramdas Pophale) SiO2 
 PCOD9087095
Probable space group: P -1
;
_chemical_formula_sum "Si O2"
_cell_formula_units_Z 14
_cell_length_a 8.670823
_cell_length_b 6.628715
_cell_length_c 17.073819
_cell_angle_alpha 87.787614
_cell_angle_beta 37.623496
_cell_angle_gamma 82.375306
_cell_volume 590.187415
_symmetry_space_group_name_H-M "P -1"
_symmetry_group_IT_number 2
_symmetry_cell_setting 'triclinic'
loop_
_space_group_symop_operation_xyz
x,y,z
-x,-y,-z
loop_
_atom_site_type_symbol
_atom_site_label
_atom_site_fract_x
_atom_site_fract_y
_atom_site_fract_z
Si Si1 0.324970 0.495704 0.417063
Si Si2 0.854443 0.538175 0.286709
Si Si3 0.728522 0.872255 0.461751
Si Si4 0.593375 0.624770 0.163534
Si Si5 0.555878 0.989758 0.069531
Si Si6 0.051013 0.217312 0.334624
Si Si7 0.943241 0.266604 0.942832
O O1 0.565294 0.552268 0.370632
O O2 0.344777 0.255184 0.432088
O O3 0.378327 0.570240 0.308152
O O4 0.935964 0.376632 0.445445
O O5 0.856014 0.700374 0.352521
O O6 0.942886 0.319636 0.294227
O O7 0.035634 0.596705 0.144929
O O8 0.500000 0.000000 0.500000
O O9 0.922142 0.020050 0.405106
O O10 0.770933 0.760766 0.137668
O O11 0.521397 0.765080 0.115522
O O12 0.766199 0.411549 0.072724
O O13 0.349499 0.147156 0.199958
O O14 0.827979 0.063823 0.973485
O O15 0.500000 0.000000 0.000000
#
# Coordination Sequence:
#
# PCOD9087095 Si02
#       7
#     2   2   2   2   2   2   2
#     4  10  21  38  61  92 126 163 211 266 313 374
#     4  10  19  36  61  94 125 160 213 264 312 370
#     4  11  18  34  61  94 124 163 209 258 316 372
#     4  10  24  45  67  94 128 171 220 261 322 382
#     4  12  26  43  65  97 132 170 217 263 322 389
#     4  11  22  36  60  95 131 164 208 263 319 376
#     4  10  23  45  68  91 127 175 214 269 316 379
#
# _framework density 23.721277000000001
#
# number of rings (size 3 to 8) (size 9 to 14) (size 15 to 20)
#    0.000    1.429    2.857    3.000    0.000    6.286 
#    2.571    1.429    0.000    0.000    0.000    0.000 
#    0.000    0.000    0.000    0.000    0.000    0.000 
#
# Total GULP energy -78310.825629 kJ/mol
# GULP energy per Si atom -5593.630402 kJ/mol
# Density = 2.366729 g / cm^3
# Si number density = 23.721277 Si / 1000 Ang^3
#
#
#
# Elastic Constant Matrix: (Units=GPa)
#
#
# Indices 1 2 3 4 5 6 
#
# 1 54.6861 23.8369 27.2598 -28.9233 -2.8516 3.4629
# 2 23.8369 89.0087 32.7516 -36.3164 3.1400 -2.7655
# 3 27.2598 32.7516 123.9988 -30.0435 7.1907 -5.1309
# 4 -28.9233 -36.3164 -30.0435 46.2665 -10.7201 1.2731
# 5 -2.8516 3.1400 7.1907 -10.7201 39.1197 -15.8650
# 6 3.4629 -2.7655 -5.1309 1.2731 -15.8650 35.1920
#
#
#
# Elastic Compliance Matrix: (Units=1/GPa)
#
#
# Indices 1 2 3 4 5 6 
#
# 1 0.029948 0.000473 -0.002509 0.019256 0.007676 -0.000512
# 2 0.000473 0.017111 -0.001458 0.013537 0.003525 0.002185
# 3 -0.002509 -0.001458 0.009955 0.003628 -0.000383 0.001280
# 4 0.019256 0.013537 0.003628 0.050049 0.015307 0.004788
# 5 0.007676 0.003525 -0.000383 0.015307 0.036299 0.015276
# 6 -0.000512 0.002185 0.001280 0.004788 0.015276 0.035538
#
#
# Mechanical properties :
#
#
# Convention : Reuss Voigt Hill
#
# Bulk Modulus (GPa) = 19.98914 48.37670 34.18292
# Shear Modulus (GPa) = 24.68352 36.37200 30.52776
#
# Velocity S-wave (km/s) = 3.22928 3.91999 3.59128
# Velocity P-wave (km/s) = 4.72750 6.39739 5.62476
#
# Compressibility (1/GPa) = 0.05002716
#
# Stress axis : x y z
#
# Youngs Moduli (GPa) = 33.39105 58.44070 100.44779
#
# Poissons Ratio (x) = -0.02766 0.25207
# Poissons Ratio (y) = -0.01580 0.14642
# Poissons Ratio (z) = 0.08379 0.08519
#
# Static dielectric constant tensor:
#      x y z
#    x 1.943840 -0.037000 -0.004940 
#    y -0.037000 1.909280 0.004010 
#    z -0.004940 0.004010 1.883740 
# 
# From -- ./inp_files/323648.got.cif
#   From: 2010.05.17/outbox.cif.g08.bks.cpg/sg2_162_cif.got.tgz:323648.got - 2010.06.03 11:33:40.
