data_PCOD9087203
_publ_section_title
;
Structure prediction by ZEFSAII (Michael W. Deem and Ramdas Pophale) SiO2 
 PCOD9087203
Probable space group: P -1
;
_chemical_formula_sum "Si O2"
_cell_formula_units_Z 15
_cell_length_a 13.127090
_cell_length_b 10.226863
_cell_length_c 14.207429
_cell_angle_alpha 70.773627
_cell_angle_beta 130.594132
_cell_angle_gamma 148.282793
_cell_volume 629.973123
_symmetry_space_group_name_H-M "P -1"
_symmetry_group_IT_number 2
_symmetry_cell_setting 'triclinic'
loop_
_space_group_symop_operation_xyz
x,y,z
-x,-y,-z
loop_
_atom_site_type_symbol
_atom_site_label
_atom_site_fract_x
_atom_site_fract_y
_atom_site_fract_z
Si Si1 0.375086 0.233469 0.672861
Si Si2 0.874097 0.068805 0.216846
Si Si3 0.211456 0.604725 0.395968
Si Si4 0.172153 0.416865 0.598163
Si Si5 0.843085 0.990563 0.870976
Si Si6 0.500000 0.500000 0.500000
Si Si7 0.015979 0.348439 0.053780
Si Si8 0.846322 0.143036 0.656601
O O1 0.443868 0.423682 0.599895
O O2 0.647470 0.379770 0.785105
O O3 0.339921 0.203301 0.772824
O O4 0.071830 0.899240 0.525426
O O5 0.961166 0.289608 0.271876
O O6 0.156910 0.230548 0.343860
O O7 0.821627 0.086214 0.077454
O O8 0.200022 0.573268 0.508570
O O9 0.189293 0.746563 0.334160
O O10 0.517850 0.816522 0.497403
O O11 0.057536 0.346527 0.648560
O O12 0.495822 0.656142 0.743764
O O13 0.932424 0.106206 0.790642
O O14 0.930876 0.199163 0.940279
O O15 0.000000 0.000000 0.000000
O O16 0.000000 0.500000 0.000000
#
# Coordination Sequence:
#
# PCOD9087203 Si02
#       8
#     2   2   2   2   2   1   2   2
#     4  10  23  41  68  96 124 167 222 274 324 389
#     4  10  21  37  61  90 125 166 215 269 323 380
#     4   9  19  35  59  96 123 151 209 277 324 368
#     4  10  22  40  67  94 122 168 220 265 322 392
#     4  11  27  44  61  94 137 175 214 264 327 389
#     4  10  20  36  60  92 124 156 208 270 324 376
#     4  11  25  44  66  96 135 176 218 269 327 387
#     4  10  19  36  62  88 127 167 206 262 322 381
#
# _framework density 23.810541000000001
#
# number of rings (size 3 to 8) (size 9 to 14) (size 15 to 20)
#    0.000    1.867    0.000    3.200    0.000   16.000 
#    0.000    0.000    0.000    0.000    0.000    0.000 
#    0.000    0.000    0.000    0.000    0.000    0.000 
#
# Total GULP energy -83588.236154 kJ/mol
# GULP energy per Si atom -5572.549077 kJ/mol
# Density = 2.375635 g / cm^3
# Si number density = 23.810541 Si / 1000 Ang^3
#
#
#
# Elastic Constant Matrix: (Units=GPa)
#
#
# Indices 1 2 3 4 5 6 
#
# 1 69.2340 39.1096 43.6094 -10.0071 -7.7092 14.1742
# 2 39.1096 103.3736 37.0127 -22.7739 -2.0388 19.3673
# 3 43.6094 37.0127 108.7820 -20.8153 5.8901 3.6343
# 4 -10.0071 -22.7739 -20.8153 44.1044 -1.5409 -12.8279
# 5 -7.7092 -2.0388 5.8901 -1.5409 29.1159 -2.0198
# 6 14.1742 19.3673 3.6343 -12.8279 -2.0198 53.1281
#
#
#
# Elastic Compliance Matrix: (Units=1/GPa)
#
#
# Indices 1 2 3 4 5 6 
#
# 1 0.024410 -0.005794 -0.008540 -0.002425 0.007371 -0.004121
# 2 -0.005794 0.013787 -0.001428 0.004450 -0.000205 -0.002316
# 3 -0.008540 -0.001428 0.014158 0.004645 -0.004787 0.002770
# 4 -0.002425 0.004450 0.004645 0.028249 0.000610 0.005551
# 5 0.007371 -0.000205 -0.004787 0.000610 0.037284 0.000000
# 6 -0.004121 -0.002316 0.002770 0.005551 0.000000 0.021917
#
#
# Mechanical properties :
#
#
# Convention : Reuss Voigt Hill
#
# Bulk Modulus (GPa) = 48.00647 57.87257 52.93952
# Shear Modulus (GPa) = 28.04705 36.04686 32.04696
#
# Velocity S-wave (km/s) = 3.43582 3.89511 3.67265
# Velocity P-wave (km/s) = 5.99545 6.67738 6.34558
#
# Compressibility (1/GPa) = 0.02083053
#
# Stress axis : x y z
#
# Youngs Moduli (GPa) = 40.96732 72.53025 70.63358
#
# Poissons Ratio (x) = 0.42025 0.60318
# Poissons Ratio (y) = 0.23737 0.10089
# Poissons Ratio (z) = 0.34984 0.10360
#
# Static dielectric constant tensor:
#      x y z
#    x 1.950810 -0.062510 -0.009810 
#    y -0.062510 1.873590 -0.037200 
#    z -0.009810 -0.037200 1.893040 
# 
# From -- ./inp_files/532483.got.cif
#   From: 2010.05.17/outbox.cif.g08.bks.cpg/sg2_267_cif.got.tgz:532483.got - 2010.06.03 11:33:40.
