data_PCOD9087302
_publ_section_title
;
Structure prediction by ZEFSAII (Michael W. Deem and Ramdas Pophale) SiO2 
 PCOD9087302
Probable space group: P -1
;
_chemical_formula_sum "Si O2"
_cell_formula_units_Z 16
_cell_length_a 21.024688
_cell_length_b 8.895941
_cell_length_c 8.605584
_cell_angle_alpha 109.280499
_cell_angle_beta 44.435659
_cell_angle_gamma 75.471120
_cell_volume 719.618197
_symmetry_space_group_name_H-M "P -1"
_symmetry_group_IT_number 2
_symmetry_cell_setting 'triclinic'
loop_
_space_group_symop_operation_xyz
x,y,z
-x,-y,-z
loop_
_atom_site_type_symbol
_atom_site_label
_atom_site_fract_x
_atom_site_fract_y
_atom_site_fract_z
Si Si1 0.209838 0.541830 0.740231
Si Si2 0.108985 0.755862 0.316430
Si Si3 0.430453 0.423547 0.145688
Si Si4 0.678236 0.947814 0.721506
Si Si5 0.943786 0.741531 0.239818
Si Si6 0.355719 0.016557 0.836887
Si Si7 0.081417 0.247077 0.335317
Si Si8 0.356688 0.390409 0.930731
O O1 0.300489 0.572133 0.535709
O O2 0.277381 0.285647 0.490026
O O3 0.191914 0.568339 0.966321
O O4 0.057488 0.725848 0.001078
O O5 0.005043 0.780874 0.599563
O O6 0.229924 0.654199 0.179324
O O7 0.000000 0.000000 0.500000
O O8 0.500000 0.500000 0.000000
O O9 0.381609 0.399261 0.067739
O O10 0.546583 0.172331 0.940023
O O11 0.796246 0.927493 0.486863
O O12 0.657092 0.969344 0.950537
O O13 0.932342 0.749790 0.451149
O O14 0.000000 0.500000 0.000000
O O15 0.502225 0.764057 0.452959
O O16 0.332834 0.230611 0.900778
O O17 0.239196 0.064358 0.974330
O O18 0.000000 0.500000 0.500000
#
# Coordination Sequence:
#
# PCOD9087302 Si02
#       8
#     2   2   2   2   2   2   2   2
#     4  10  21  42  66  90 126 176 218 261 324 391
#     4  11  25  43  65  94 136 175 210 267 343 396
#     4  12  27  42  63  96 135 173 217 270 328 393
#     4  10  20  41  68  94 127 172 215 264 327 390
#     4   8  18  33  60  90 116 156 208 257 311 370
#     4  10  21  38  71 101 127 163 219 280 314 379
#     4  10  19  36  62  96 125 159 212 265 312 380
#     4  11  24  40  64 100 129 167 223 270 323 380
#
# _framework density 22.234013000000001
#
# number of rings (size 3 to 8) (size 9 to 14) (size 15 to 20)
#    0.000    1.750    2.500    1.125    3.500    5.000 
#    0.000    4.375    0.000    0.000    0.000    0.000 
#    0.000    0.000    0.000    0.000    0.000    0.000 
#
# Total GULP energy -89213.673829 kJ/mol
# GULP energy per Si atom -5575.854614 kJ/mol
# Density = 2.218341 g / cm^3
# Si number density = 22.234013 Si / 1000 Ang^3
#
#
#
# Elastic Constant Matrix: (Units=GPa)
#
#
# Indices 1 2 3 4 5 6 
#
# 1 83.6204 13.8465 51.7282 -1.0388 -32.1832 -13.7903
# 2 13.8465 68.7626 32.2287 2.7239 -30.8122 -2.3329
# 3 51.7282 32.2287 102.1222 -2.9516 -49.4295 -9.4219
# 4 -1.0388 2.7239 -2.9516 26.2161 3.4385 -17.3343
# 5 -32.1832 -30.8122 -49.4295 3.4385 48.3314 1.2268
# 6 -13.7903 -2.3329 -9.4219 -17.3343 1.2268 33.9211
#
#
#
# Elastic Compliance Matrix: (Units=1/GPa)
#
#
# Indices 1 2 3 4 5 6 
#
# 1 0.019864 0.002613 -0.005977 0.004416 0.008249 0.008553
# 2 0.002613 0.021168 -0.001307 -0.004571 0.014241 -0.000696
# 3 -0.005977 -0.001307 0.022293 0.003173 0.017642 0.004656
# 4 0.004416 -0.004571 0.003173 0.061960 -0.002001 0.034098
# 5 0.008249 0.014241 0.017642 -0.002001 0.053287 0.006283
# 6 0.008553 -0.000696 0.004656 0.034098 0.006283 0.051400
#
#
# Mechanical properties :
#
#
# Convention : Reuss Voigt Hill
#
# Bulk Modulus (GPa) = 18.52485 50.01246 34.26865
# Shear Modulus (GPa) = 19.43195 32.14050 25.78623
#
# Velocity S-wave (km/s) = 2.95951 3.80617 3.40923
# Velocity P-wave (km/s) = 4.47528 6.46981 5.56267
#
# Compressibility (1/GPa) = 0.05398155
#
# Stress axis : x y z
#
# Youngs Moduli (GPa) = 50.34333 47.24088 44.85811
#
# Poissons Ratio (x) = -0.12343 0.26811
# Poissons Ratio (y) = -0.13154 0.05865
# Poissons Ratio (z) = 0.30089 0.06177
#
# Static dielectric constant tensor:
#      x y z
#    x 1.833100 0.060930 -0.025520 
#    y 0.060930 1.804940 -0.025340 
#    z -0.025520 -0.025340 1.854880 
# 
# From -- ./inp_files/351765.got.cif
#   From: 2010.05.17/outbox.cif.g08.bks.cpg/sg2_176_cif.got.tgz:351765.got - 2010.06.03 11:33:40.
