data_PCOD9087743
_publ_section_title
;
Structure prediction by ZEFSAII (Michael W. Deem and Ramdas Pophale) SiO2 
 PCOD9087743
Probable space group: P -1
;
_chemical_formula_sum "Si O2"
_cell_formula_units_Z 13
_cell_length_a 9.568895
_cell_length_b 14.554865
_cell_length_c 7.923996
_cell_angle_alpha 137.815448
_cell_angle_beta 110.732609
_cell_angle_gamma 46.098466
_cell_volume 504.016913
_symmetry_space_group_name_H-M "P -1"
_symmetry_group_IT_number 2
_symmetry_cell_setting 'triclinic'
loop_
_space_group_symop_operation_xyz
x,y,z
-x,-y,-z
loop_
_atom_site_type_symbol
_atom_site_label
_atom_site_fract_x
_atom_site_fract_y
_atom_site_fract_z
Si Si1 0.725663 0.063132 0.440753
Si Si2 0.099232 0.054602 0.000910
Si Si3 0.301951 0.650671 0.960795
Si Si4 0.500000 0.500000 0.500000
Si Si5 0.549411 0.992788 0.811623
Si Si6 0.920175 0.390540 0.982352
Si Si7 0.218014 0.427349 0.195142
O O1 0.758092 0.086041 0.286762
O O2 0.516635 0.108275 0.433777
O O3 0.730897 0.188286 0.733815
O O4 0.910096 0.840214 0.261539
O O5 0.911507 0.238406 0.077276
O O6 0.226123 0.083350 0.202573
O O7 0.000000 0.000000 0.000000
O O8 0.472138 0.550721 0.756704
O O9 0.291814 0.532604 0.924580
O O10 0.326854 0.482376 0.415033
O O11 0.400917 0.200872 0.954493
O O12 0.500000 0.000000 0.000000
O O13 0.868521 0.464817 0.871848
O O14 0.028353 0.449300 0.206907
#
# Coordination Sequence:
#
# PCOD9087743 Si02
#       7
#     2   2   2   1   2   2   2
#     4   9  20  41  70 100 131 174 222 274 336 399
#     4  10  19  36  66  99 130 164 214 275 330 394
#     4  11  24  43  67  96 134 180 228 279 333 399
#     4  12  28  44  62  96 138 180 228 280 338 392
#     4   9  19  39  69 101 135 173 216 273 335 401
#     4   9  20  43  71  97 131 173 221 278 340 405
#     4  10  22  42  65  99 137 173 219 271 340 410
#
# _framework density 25.792786
#
# number of rings (size 3 to 8) (size 9 to 14) (size 15 to 20)
#    0.000    2.154    0.000    3.692    0.000    7.385 
#    0.000   11.538    0.000    0.000    0.000    0.000 
#    0.000    0.000    0.000    0.000    0.000    0.000 
#
# Total GULP energy -72440.612538 kJ/mol
# GULP energy per Si atom -5572.354811 kJ/mol
# Density = 2.573408 g / cm^3
# Si number density = 25.792786 Si / 1000 Ang^3
#
#
#
# Elastic Constant Matrix: (Units=GPa)
#
#
# Indices 1 2 3 4 5 6 
#
# 1 199.4969 36.5234 99.4082 -24.1479 36.2704 -3.4412
# 2 36.5234 99.2745 36.7392 6.3195 8.6083 1.6582
# 3 99.4082 36.7392 133.1360 -16.2112 24.5446 1.4370
# 4 -24.1479 6.3195 -16.2112 20.6461 -2.5075 2.8732
# 5 36.2704 8.6083 24.5446 -2.5075 38.9988 -20.9844
# 6 -3.4412 1.6582 1.4370 2.8732 -20.9844 45.7944
#
#
#
# Elastic Compliance Matrix: (Units=1/GPa)
#
#
# Indices 1 2 3 4 5 6 
#
# 1 0.009738 -0.001776 -0.004553 0.007909 -0.006705 -0.002630
# 2 -0.001776 0.012398 -0.003224 -0.008376 0.000569 0.000305
# 3 -0.004553 -0.003224 0.013486 0.006111 -0.004916 -0.003285
# 4 0.007909 -0.008376 0.006111 0.064982 -0.009276 -0.007622
# 5 -0.006705 0.000569 -0.004916 -0.009276 0.045610 0.021112
# 6 -0.002630 0.000305 -0.003285 -0.007622 0.021112 0.031883
#
#
# Mechanical properties :
#
#
# Convention : Reuss Voigt Hill
#
# Bulk Modulus (GPa) = 60.54316 86.36098 73.45207
# Shear Modulus (GPa) = 24.66609 38.37029 31.51819
#
# Velocity S-wave (km/s) = 3.09579 3.86117 3.49947
# Velocity P-wave (km/s) = 6.02515 7.30982 6.69836
#
# Compressibility (1/GPa) = 0.01651714
#
# Stress axis : x y z
#
# Youngs Moduli (GPa) = 102.69508 80.65774 74.14986
#
# Poissons Ratio (x) = 0.14321 0.33761
# Poissons Ratio (y) = 0.18234 0.23903
# Poissons Ratio (z) = 0.46758 0.26001
#
# Static dielectric constant tensor:
#      x y z
#    x 1.888750 -0.214400 0.247320 
#    y -0.214400 1.855900 0.288050 
#    z 0.247320 0.288050 1.772890 
# 
# From -- ./inp_files/204810.got.cif
#   From: 2010.05.17/outbox.cif.g08.bks.cpg/sg2_103_cif.got.tgz:204810.got - 2010.06.03 11:33:40.
