data_PCOD9087292
_publ_section_title
;
Structure prediction by ZEFSAII (Michael W. Deem and Ramdas Pophale) SiO2 
 PCOD9087292
Probable space group: P -1
;
_chemical_formula_sum "Si O2"
_cell_formula_units_Z 16
_cell_length_a 19.070949
_cell_length_b 8.856580
_cell_length_c 21.733639
_cell_angle_alpha 42.473087
_cell_angle_beta 21.999537
_cell_angle_gamma 32.841267
_cell_volume 730.086764
_symmetry_space_group_name_H-M "P -1"
_symmetry_group_IT_number 2
_symmetry_cell_setting 'triclinic'
loop_
_space_group_symop_operation_xyz
x,y,z
-x,-y,-z
loop_
_atom_site_type_symbol
_atom_site_label
_atom_site_fract_x
_atom_site_fract_y
_atom_site_fract_z
Si Si1 0.398600 0.126814 0.146234
Si Si2 0.563232 0.306855 0.853137
Si Si3 0.921534 0.966600 0.507321
Si Si4 0.166847 0.188692 0.022692
Si Si5 0.952472 0.219556 0.067691
Si Si6 0.645623 0.605728 0.371455
Si Si7 0.579850 0.127052 0.263724
Si Si8 0.452357 0.383457 0.416095
O O1 0.172480 0.213747 0.345333
O O2 0.452396 0.869094 0.136039
O O3 0.406282 0.323573 0.031670
O O4 0.609663 0.022763 0.053259
O O5 0.482323 0.603521 0.803294
O O6 0.842715 0.148666 0.689571
O O7 0.699136 0.277016 0.571407
O O8 0.000000 0.000000 0.500000
O O9 0.123917 0.075967 0.030512
O O10 0.917851 0.356359 0.210132
O O11 0.173561 0.446495 0.922710
O O12 0.734239 0.215315 0.243996
O O13 0.130520 0.086612 0.905071
O O14 0.500000 0.500000 0.500000
O O15 0.632304 0.658144 0.439236
O O16 0.541667 0.907168 0.334011
O O17 0.432861 0.260940 0.405997
#
# Coordination Sequence:
#
# PCOD9087292 Si02
#       8
#     2   2   2   2   2   2   2   2
#     4  10  19  36  66  91 126 171 222 257 320 388
#     4  10  21  40  61 100 129 172 218 275 319 378
#     4  10  19  36  62  93 130 167 216 268 313 383
#     4  10  19  39  60  92 122 171 220 253 323 396
#     4  10  21  35  63  89 129 164 205 268 322 387
#     4  11  24  40  63  94 128 172 210 267 331 395
#     4  11  23  40  60  96 137 156 218 272 328 381
#     4  12  20  40  65  95 125 166 214 270 328 380
#
# _framework density 21.915203999999999
#
# number of rings (size 3 to 8) (size 9 to 14) (size 15 to 20)
#    0.000    1.500    5.000    1.500    0.000    1.000 
#    2.250    0.625    0.000    5.250    0.000    0.000 
#    0.000    0.000    0.000    0.000    0.000    0.000 
#
# Total GULP energy -89165.915938 kJ/mol
# GULP energy per Si atom -5572.869746 kJ/mol
# Density = 2.186532 g / cm^3
# Si number density = 21.915204 Si / 1000 Ang^3
#
#
#
# Elastic Constant Matrix: (Units=GPa)
#
#
# Indices 1 2 3 4 5 6 
#
# 1 50.5679 18.6382 8.0599 -3.8712 -4.0195 -8.8609
# 2 18.6382 83.9016 15.1287 -23.4372 3.7095 -0.7375
# 3 8.0599 15.1287 89.7080 -14.9545 0.3788 12.6385
# 4 -3.8712 -23.4372 -14.9545 31.1435 3.2462 8.6652
# 5 -4.0195 3.7095 0.3788 3.2462 39.4799 -0.6872
# 6 -8.8609 -0.7375 12.6385 8.6652 -0.6872 19.1206
#
#
#
# Elastic Compliance Matrix: (Units=1/GPa)
#
#
# Indices 1 2 3 4 5 6 
#
# 1 0.027314 -0.008553 -0.006364 -0.012908 0.005100 0.022568
# 2 -0.008553 0.018549 0.002612 0.018348 -0.004381 -0.013447
# 3 -0.006364 0.002612 0.016817 0.015382 -0.002686 -0.021032
# 4 -0.012908 0.018348 0.015382 0.065296 -0.009344 -0.045368
# 5 0.005100 -0.004381 -0.002686 -0.009344 0.027214 0.009182
# 6 0.022568 -0.013447 -0.021032 -0.045368 0.009182 0.097031
#
#
# Mechanical properties :
#
#
# Convention : Reuss Voigt Hill
#
# Bulk Modulus (GPa) = 26.26810 34.20345 30.23578
# Shear Modulus (GPa) = 17.26986 30.10550 23.68768
#
# Velocity S-wave (km/s) = 2.81023 3.71040 3.29124
# Velocity P-wave (km/s) = 4.74786 5.83071 5.31692
#
# Compressibility (1/GPa) = 0.03806898
#
# Stress axis : x y z
#
# Youngs Moduli (GPa) = 36.61139 53.91232 59.46319
#
# Poissons Ratio (x) = 0.46111 0.37845
# Poissons Ratio (y) = 0.31313 -0.15532
# Poissons Ratio (z) = 0.23301 -0.14082
#
# Static dielectric constant tensor:
#      x y z
#    x 1.854850 0.012820 0.048060 
#    y 0.012820 1.847200 -0.008770 
#    z 0.048060 -0.008770 1.852570 
# 
# From -- ./inp_files/613588.got.cif
#   From: 2010.05.17/outbox.cif.g08.bks.cpg/sg2_307_cif.got.tgz:613588.got - 2010.06.03 11:33:40.
