data_PCOD9087595
_publ_section_title
;
Structure prediction by ZEFSAII (Michael W. Deem and Ramdas Pophale) SiO2 
 PCOD9087595
Probable space group: P -1
;
_chemical_formula_sum "Si O2"
_cell_formula_units_Z 16
_cell_length_a 9.493437
_cell_length_b 13.189842
_cell_length_c 7.474616
_cell_angle_alpha 46.614903
_cell_angle_beta 114.505079
_cell_angle_gamma 113.074010
_cell_volume 610.776325
_symmetry_space_group_name_H-M "P -1"
_symmetry_group_IT_number 2
_symmetry_cell_setting 'triclinic'
loop_
_space_group_symop_operation_xyz
x,y,z
-x,-y,-z
loop_
_atom_site_type_symbol
_atom_site_label
_atom_site_fract_x
_atom_site_fract_y
_atom_site_fract_z
Si Si1 0.814793 0.374808 0.255981
Si Si2 0.678491 0.419199 0.488433
Si Si3 0.715854 0.727901 0.105745
Si Si4 0.671132 0.641202 0.769610
Si Si5 0.958686 0.797270 0.602910
Si Si6 0.987103 0.101149 0.094948
Si Si7 0.340783 0.891059 0.016531
Si Si8 0.571359 0.133388 0.264454
O O1 0.813232 0.409179 0.423632
O O2 0.670057 0.249231 0.299866
O O3 0.962084 0.320229 0.313647
O O4 0.765167 0.509808 0.969352
O O5 0.711008 0.578880 0.385067
O O6 0.507666 0.405004 0.322863
O O7 0.662065 0.277996 0.766520
O O8 0.679714 0.689451 0.922452
O O9 0.571600 0.806789 0.979990
O O10 0.885787 0.825106 0.068232
O O11 0.768767 0.761053 0.551299
O O12 0.996567 0.805700 0.825825
O O13 0.014807 0.947340 0.357964
O O14 0.804735 0.085151 0.966361
O O15 0.313284 0.913708 0.765135
O O16 0.500000 0.000000 0.000000
O O17 0.500000 0.000000 0.500000
#
# Coordination Sequence:
#
# PCOD9087595 Si02
#       8
#     2   2   2   2   2   2   2   2
#     4  11  19  38  62  96 118 161 218 249 300 372
#     4  11  22  41  64  92 134 163 198 259 315 369
#     4  10  21  40  65  94 122 167 211 254 306 365
#     4  10  19  36  64  95 129 157 206 261 310 357
#     4  10  20  35  62  93 123 158 211 265 298 359
#     4  10  22  39  60  90 125 165 208 257 311 361
#     4  12  27  43  61  92 129 165 205 258 322 366
#     4  12  23  39  66  93 122 160 215 253 299 381
#
# _framework density 26.196169000000001
#
# number of rings (size 3 to 8) (size 9 to 14) (size 15 to 20)
#    0.000    1.250    3.750    3.375    3.500    1.000 
#    0.000    3.750    0.000    0.000    0.000    0.000 
#    0.000    0.000    0.000    0.000    0.000    0.000 
#
# Total GULP energy -89632.855638 kJ/mol
# GULP energy per Si atom -5602.053477 kJ/mol
# Density = 2.613655 g / cm^3
# Si number density = 26.196169 Si / 1000 Ang^3
#
#
#
# Elastic Constant Matrix: (Units=GPa)
#
#
# Indices 1 2 3 4 5 6 
#
# 1 148.3217 28.3521 29.3996 -13.6718 -4.8686 9.0652
# 2 28.3521 75.3399 14.0189 -7.6842 -2.6371 2.1359
# 3 29.3996 14.0189 98.9633 -25.1489 -13.1732 5.9694
# 4 -13.6718 -7.6842 -25.1489 30.2338 8.4425 -2.5973
# 5 -4.8686 -2.6371 -13.1732 8.4425 36.6106 -14.5728
# 6 9.0652 2.1359 5.9694 -2.5973 -14.5728 46.6179
#
#
#
# Elastic Compliance Matrix: (Units=1/GPa)
#
#
# Indices 1 2 3 4 5 6 
#
# 1 0.007723 -0.002437 -0.001530 0.001656 -0.000593 -0.001287
# 2 -0.002437 0.014541 -0.000860 0.001884 -0.000013 0.000019
# 3 -0.001530 -0.000860 0.013438 0.009614 0.002302 -0.000129
# 4 0.001656 0.001884 0.009614 0.044109 -0.006888 -0.001335
# 5 -0.000593 -0.000013 0.002302 -0.006888 0.033609 0.009944
# 6 -0.001287 0.000019 -0.000129 -0.001335 0.009944 0.024751
#
#
# Mechanical properties :
#
#
# Convention : Reuss Voigt Hill
#
# Bulk Modulus (GPa) = 38.38907 51.79623 45.09265
# Shear Modulus (GPa) = 31.94714 39.41609 35.68162
#
# Velocity S-wave (km/s) = 3.49597 3.88319 3.69466
# Velocity P-wave (km/s) = 5.56615 6.31830 5.95411
#
# Compressibility (1/GPa) = 0.02604908
#
# Stress axis : x y z
#
# Youngs Moduli (GPa) = 129.48365 68.76877 74.41398
#
# Poissons Ratio (x) = 0.16760 0.11383
# Poissons Ratio (y) = 0.31556 0.06400
# Poissons Ratio (z) = 0.19806 0.05915
#
# Static dielectric constant tensor:
#      x y z
#    x 2.031420 0.021160 0.028470 
#    y 0.021160 2.149910 0.026320 
#    z 0.028470 0.026320 2.062880 
# 
# From -- ./inp_files/205424.got.cif
#   From: 2010.05.17/outbox.cif.g08.bks.cpg/sg2_103_cif.got.tgz:205424.got - 2010.06.03 11:33:40.
