data_PCOD9087569
_publ_section_title
;
Structure prediction by ZEFSAII (Michael W. Deem and Ramdas Pophale) SiO2 
 PCOD9087569
Probable space group: P -1
;
_chemical_formula_sum "Si O2"
_cell_formula_units_Z 15
_cell_length_a 15.246305
_cell_length_b 7.259013
_cell_length_c 12.928275
_cell_angle_alpha 115.821336
_cell_angle_beta 145.222133
_cell_angle_gamma 51.615850
_cell_volume 630.805630
_symmetry_space_group_name_H-M "P -1"
_symmetry_group_IT_number 2
_symmetry_cell_setting 'triclinic'
loop_
_space_group_symop_operation_xyz
x,y,z
-x,-y,-z
loop_
_atom_site_type_symbol
_atom_site_label
_atom_site_fract_x
_atom_site_fract_y
_atom_site_fract_z
Si Si1 0.805228 0.755622 0.464145
Si Si2 0.718475 0.838047 0.163728
Si Si3 0.145162 0.346894 0.187067
Si Si4 0.378897 0.658468 0.262870
Si Si5 0.087532 0.676639 0.867279
Si Si6 0.758360 0.417404 0.488128
Si Si7 0.485051 0.186303 0.375570
Si Si8 0.000000 0.000000 0.500000
O O1 0.791497 0.735129 0.324492
O O2 0.816729 0.528704 0.478675
O O3 0.973061 0.769254 0.674358
O O4 0.623853 0.979879 0.386024
O O5 0.781410 0.608323 0.094600
O O6 0.835663 0.959730 0.278459
O O7 0.500000 0.000000 0.000000
O O8 0.194488 0.518167 0.340587
O O9 0.326740 0.154959 0.259830
O O10 0.057056 0.270522 0.170975
O O11 0.000000 0.500000 0.000000
O O12 0.546749 0.542361 0.319412
O O13 0.392304 0.435252 0.285150
O O14 0.409486 0.798623 0.418899
O O15 0.204431 0.778233 0.052142
O O16 0.863426 0.143523 0.496736
#
# Coordination Sequence:
#
# PCOD9087569 Si02
#       8
#     2   2   2   2   2   2   2   1
#     4  11  24  44  66  96 136 173 213 277 342 386
#     4  12  26  46  72  95 133 180 226 274 335 400
#     4  10  19  36  64  92 126 170 217 261 323 396
#     4  10  21  41  63  98 128 172 226 267 322 403
#     4  11  22  41  65  94 134 171 218 276 332 388
#     4  10  23  39  65  95 135 170 219 276 326 395
#     4  10  21  38  68  93 130 175 218 270 329 393
#     4  12  22  44  70  98 128 174 228 270 328 396
#
# _framework density 23.779115999999998
#
# number of rings (size 3 to 8) (size 9 to 14) (size 15 to 20)
#    0.000    1.333    4.000    2.800    0.000    5.333 
#    2.400    1.333    0.000    0.000    0.000    0.000 
#    0.000    0.000    0.000    0.000    0.000    0.000 
#
# Total GULP energy -83626.764700 kJ/mol
# GULP energy per Si atom -5575.117647 kJ/mol
# Density = 2.372499 g / cm^3
# Si number density = 23.779116 Si / 1000 Ang^3
#
#
#
# Elastic Constant Matrix: (Units=GPa)
#
#
# Indices 1 2 3 4 5 6 
#
# 1 66.3839 34.7868 31.7924 2.2615 0.8345 -23.2839
# 2 34.7868 41.1260 16.4313 -4.0454 17.6427 -21.1992
# 3 31.7924 16.4313 143.8348 8.1965 -0.0919 -2.4230
# 4 2.2615 -4.0454 8.1965 29.4042 5.3804 1.6368
# 5 0.8345 17.6427 -0.0919 5.3804 40.1720 -14.6642
# 6 -23.2839 -21.1992 -2.4230 1.6368 -14.6642 46.7619
#
#
#
# Elastic Compliance Matrix: (Units=1/GPa)
#
#
# Indices 1 2 3 4 5 6 
#
# 1 0.039848 -0.037188 -0.003733 -0.011436 0.020543 0.009632
# 2 -0.037188 0.074519 -0.001344 0.019297 -0.033022 0.004166
# 3 -0.003733 -0.001344 0.008018 -0.002077 0.000273 -0.001894
# 4 -0.011436 0.019297 -0.002077 0.041023 -0.014889 -0.003159
# 5 0.020543 -0.033022 0.000273 -0.014889 0.044525 0.009757
# 6 0.009632 0.004166 -0.001894 -0.003159 0.009757 0.031141
#
#
# Mechanical properties :
#
#
# Convention : Reuss Voigt Hill
#
# Bulk Modulus (GPa) = 26.41490 46.37395 36.39442
# Shear Modulus (GPa) = 14.87113 34.48988 24.68051
#
# Velocity S-wave (km/s) = 2.50349 3.81258 3.22515
# Velocity P-wave (km/s) = 4.41465 6.23902 5.40437
#
# Compressibility (1/GPa) = 0.03785743
#
# Stress axis : x y z
#
# Youngs Moduli (GPa) = 25.09510 13.41931 124.72567
#
# Poissons Ratio (x) = 0.49903 0.46555
# Poissons Ratio (y) = 0.93323 0.16760
# Poissons Ratio (z) = 0.09367 0.01803
#
# Static dielectric constant tensor:
#      x y z
#    x 1.953970 0.104530 0.030820 
#    y 0.104530 2.022220 -0.032620 
#    z 0.030820 -0.032620 1.903020 
# 
# From -- ./inp_files/169268.got.cif
#   From: 2010.05.17/outbox.cif.g08.bks.cpg/sg2_85_cif.got.tgz:169268.got - 2010.06.03 11:33:40.
