data_PCOD9087618
_publ_section_title
;
Structure prediction by ZEFSAII (Michael W. Deem and Ramdas Pophale) SiO2 
 PCOD9087618
Probable space group: P -1
;
_chemical_formula_sum "Si O2"
_cell_formula_units_Z 14
_cell_length_a 10.952871
_cell_length_b 9.287483
_cell_length_c 12.031823
_cell_angle_alpha 44.861797
_cell_angle_beta 35.973475
_cell_angle_gamma 46.483005
_cell_volume 487.246199
_symmetry_space_group_name_H-M "P -1"
_symmetry_group_IT_number 2
_symmetry_cell_setting 'triclinic'
loop_
_space_group_symop_operation_xyz
x,y,z
-x,-y,-z
loop_
_atom_site_type_symbol
_atom_site_label
_atom_site_fract_x
_atom_site_fract_y
_atom_site_fract_z
Si Si1 0.209247 0.889135 0.179998
Si Si2 0.270035 0.636319 0.860892
Si Si3 0.191546 0.226857 0.401599
Si Si4 0.500000 0.500000 0.000000
Si Si5 0.382206 0.083714 0.752569
Si Si6 0.970202 0.719384 0.748630
Si Si7 0.554569 0.343507 0.661880
Si Si8 0.000000 0.000000 0.000000
O O1 0.392575 0.792274 0.189028
O O2 0.033450 0.759209 0.383363
O O3 0.084510 0.117471 0.198433
O O4 0.312970 0.889931 0.980634
O O5 0.422210 0.576703 0.673369
O O6 0.126488 0.867254 0.872972
O O7 0.426319 0.570920 0.887096
O O8 0.115692 0.480423 0.050629
O O9 0.272277 0.433247 0.222079
O O10 0.158656 0.169022 0.327466
O O11 0.392067 0.038610 0.400366
O O12 0.420050 0.236191 0.737620
O O13 0.175744 0.149113 0.791685
O O14 0.217335 0.662104 0.557936
#
# Coordination Sequence:
#
# PCOD9087618 Si02
#       8
#     2   2   2   1   2   2   2   1
#     4  11  19  36  70 110 127 160 221 285 334 381
#     4  11  24  44  65  96 134 174 224 269 325 391
#     4  10  19  36  64  98 139 162 208 272 332 384
#     4  10  20  40  68  90 134 176 206 272 326 382
#     4  12  22  42  66  90 134 180 214 264 331 397
#     4  10  19  37  67 109 127 156 218 288 331 385
#     4  11  21  38  73 102 128 165 222 280 332 380
#     4  12  30  48  62  88 142 194 212 260 340 400
#
# _framework density 28.732908999999999
#
# number of rings (size 3 to 8) (size 9 to 14) (size 15 to 20)
#    0.000    1.143    5.714    3.000    0.000    0.571 
#    2.571    6.429    0.000    0.000    0.000    0.000 
#    0.000    0.000    0.000    0.000    0.000    0.000 
#
# Total GULP energy -78146.513885 kJ/mol
# GULP energy per Si atom -5581.893849 kJ/mol
# Density = 2.866751 g / cm^3
# Si number density = 28.732909 Si / 1000 Ang^3
#
#
#
# Elastic Constant Matrix: (Units=GPa)
#
#
# Indices 1 2 3 4 5 6 
#
# 1 79.8925 39.6895 32.2317 -3.9034 -13.0470 23.6300
# 2 39.6895 141.2589 47.7998 30.1764 -8.6751 42.9375
# 3 32.2317 47.7998 151.4525 12.7586 -20.5926 29.9066
# 4 -3.9034 30.1764 12.7586 52.7102 6.8146 2.6862
# 5 -13.0470 -8.6751 -20.5926 6.8146 54.9778 -11.0229
# 6 23.6300 42.9375 29.9066 2.6862 -11.0229 49.0406
#
#
#
# Elastic Compliance Matrix: (Units=1/GPa)
#
#
# Indices 1 2 3 4 5 6 
#
# 1 0.016533 -0.003680 -0.001770 0.003745 0.001508 -0.003531
# 2 -0.003680 0.012311 -0.000957 -0.006667 -0.000082 -0.008075
# 3 -0.001770 -0.000957 0.008271 -0.001727 0.002186 -0.002767
# 4 0.003745 -0.006667 -0.001727 0.023732 -0.003134 0.003081
# 5 0.001508 -0.000082 0.002186 -0.003134 0.020292 0.002745
# 6 -0.003531 -0.008075 -0.002767 0.003081 0.002745 0.031298
#
#
# Mechanical properties :
#
#
# Convention : Reuss Voigt Hill
#
# Bulk Modulus (GPa) = 41.15488 68.00510 54.57999
# Shear Modulus (GPa) = 37.49524 48.20459 42.84991
#
# Velocity S-wave (km/s) = 3.61634 4.10039 3.86595
# Velocity P-wave (km/s) = 5.63840 6.79242 6.24214
#
# Compressibility (1/GPa) = 0.02429846
#
# Stress axis : x y z
#
# Youngs Moduli (GPa) = 60.48583 81.22985 120.91073
#
# Poissons Ratio (x) = 0.29896 0.21404
# Poissons Ratio (y) = 0.22262 0.11573
# Poissons Ratio (z) = 0.10707 0.07775
#
# Static dielectric constant tensor:
#      x y z
#    x 2.545940 -0.408190 -0.080190 
#    y -0.408190 2.725310 -0.005130 
#    z -0.080190 -0.005130 2.237970 
# 
# From -- ./inp_files/259278.got.cif
#   From: 2010.05.17/outbox.cif.g08.bks.cpg/sg2_130_cif.got.tgz:259278.got - 2010.06.03 11:33:40.
