data_PCOD9087634
_publ_section_title
;
Structure prediction by ZEFSAII (Michael W. Deem and Ramdas Pophale) SiO2 
 PCOD9087634
Probable space group: P -1
;
_chemical_formula_sum "Si O2"
_cell_formula_units_Z 16
_cell_length_a 7.990845
_cell_length_b 12.618834
_cell_length_c 11.694899
_cell_angle_alpha 132.556774
_cell_angle_beta 72.821378
_cell_angle_gamma 124.666108
_cell_volume 706.637620
_symmetry_space_group_name_H-M "P -1"
_symmetry_group_IT_number 2
_symmetry_cell_setting 'triclinic'
loop_
_space_group_symop_operation_xyz
x,y,z
-x,-y,-z
loop_
_atom_site_type_symbol
_atom_site_label
_atom_site_fract_x
_atom_site_fract_y
_atom_site_fract_z
Si Si1 0.306588 0.915866 0.056895
Si Si2 0.880454 0.773632 0.903448
Si Si3 0.763032 0.395216 0.009079
Si Si4 0.854455 0.049798 0.224713
Si Si5 0.874267 0.973887 0.660543
Si Si6 0.401715 0.575441 0.163956
Si Si7 0.933385 0.725028 0.335733
Si Si8 0.662130 0.169790 0.525360
O O1 0.288413 0.759659 0.014485
O O2 0.098961 0.850152 0.979170
O O3 0.500000 0.000000 0.000000
O O4 0.307153 0.047923 0.240806
O O5 0.746890 0.592099 0.854950
O O6 0.949777 0.802084 0.777360
O O7 0.781299 0.887096 0.037985
O O8 0.761644 0.542823 0.189193
O O9 0.654135 0.342441 0.871111
O O10 0.000000 0.500000 0.000000
O O11 0.710436 0.112921 0.351337
O O12 0.932511 0.993436 0.277609
O O13 0.825887 0.810986 0.482786
O O14 0.947277 0.140763 0.692424
O O15 0.438714 0.715851 0.355007
O O16 0.500000 0.500000 0.000000
O O17 0.109496 0.732989 0.388230
O O18 0.500000 0.000000 0.500000
#
# Coordination Sequence:
#
# PCOD9087634 Si02
#       8
#     2   2   2   2   2   2   2   2
#     4  11  22  36  60  90 122 160 206 249 303 368
#     4  10  20  40  59  85 121 164 206 247 311 366
#     4  12  20  42  66  88 118 162 210 251 300 364
#     4   9  20  35  58  81 118 159 193 247 308 361
#     4   9  18  34  57  87 114 149 202 248 300 351
#     4  12  25  39  64  93 121 159 210 262 305 364
#     4  10  19  36  65  86 113 163 208 252 301 361
#     4  11  22  37  57  90 123 156 204 256 308 365
#
# _framework density 22.642439
#
# number of rings (size 3 to 8) (size 9 to 14) (size 15 to 20)
#    0.000    1.500    3.750    1.500    0.000    7.500 
#    0.000    0.625    0.000    0.000    0.000    0.000 
#    0.000    0.000    0.000    0.000    0.000    0.000 
#
# Total GULP energy -89118.686127 kJ/mol
# GULP energy per Si atom -5569.917883 kJ/mol
# Density = 2.259090 g / cm^3
# Si number density = 22.642439 Si / 1000 Ang^3
#
#
#
# Elastic Constant Matrix: (Units=GPa)
#
#
# Indices 1 2 3 4 5 6 
#
# 1 51.3484 -6.3877 16.8713 1.4822 -8.9045 -4.3508
# 2 -6.3877 113.1193 54.9286 2.4540 -27.4140 -2.8494
# 3 16.8713 54.9286 178.8825 -3.7841 -57.1869 18.6842
# 4 1.4822 2.4540 -3.7841 36.4286 3.2812 -5.3963
# 5 -8.9045 -27.4140 -57.1869 3.2812 39.4923 -8.5183
# 6 -4.3508 -2.8494 18.6842 -5.3963 -8.5183 29.2389
#
#
#
# Elastic Compliance Matrix: (Units=1/GPa)
#
#
# Indices 1 2 3 4 5 6 
#
# 1 0.022332 0.003976 -0.001986 -0.000974 0.006440 0.006676
# 2 0.003976 0.012083 -0.002409 -0.001094 0.006996 0.005145
# 3 -0.001986 -0.002409 0.011132 -0.000362 0.013196 -0.003866
# 4 -0.000974 -0.001094 -0.000362 0.028438 -0.002922 0.004377
# 5 0.006440 0.006996 0.013196 -0.002922 0.052711 0.008025
# 6 0.006676 0.005145 -0.003866 0.004377 0.008025 0.041312
#
#
# Mechanical properties :
#
#
# Convention : Reuss Voigt Hill
#
# Bulk Modulus (GPa) = 22.36738 52.68606 37.52672
# Shear Modulus (GPa) = 27.21047 39.56117 33.38582
#
# Velocity S-wave (km/s) = 3.47038 4.18450 3.84406
# Velocity P-wave (km/s) = 5.09490 6.83125 6.02595
#
# Compressibility (1/GPa) = 0.04470797
#
# Stress axis : x y z
#
# Youngs Moduli (GPa) = 44.77783 82.75799 89.83010
#
# Poissons Ratio (x) = -0.32900 0.17842
# Poissons Ratio (y) = -0.17801 0.21643
# Poissons Ratio (z) = 0.08894 0.19939
#
# Static dielectric constant tensor:
#      x y z
#    x 1.952240 -0.012210 -0.041810 
#    y -0.012210 1.771230 -0.023280 
#    z -0.041810 -0.023280 2.093870 
# 
# From -- ./inp_files/393034.got.cif
#   From: 2010.05.17/outbox.cif.g08.bks.cpg/sg2_197_cif.got.tgz:393034.got - 2010.06.03 11:33:40.
