data_PCOD9087120
_publ_section_title
;
Structure prediction by ZEFSAII (Michael W. Deem and Ramdas Pophale) SiO2 
 PCOD9087120
Probable space group: P -1
;
_chemical_formula_sum "Si O2"
_cell_formula_units_Z 14
_cell_length_a 13.295268
_cell_length_b 23.137929
_cell_length_c 16.761125
_cell_angle_alpha 162.107043
_cell_angle_beta 24.819719
_cell_angle_gamma 157.766324
_cell_volume 583.334493
_symmetry_space_group_name_H-M "P -1"
_symmetry_group_IT_number 2
_symmetry_cell_setting 'triclinic'
loop_
_space_group_symop_operation_xyz
x,y,z
-x,-y,-z
loop_
_atom_site_type_symbol
_atom_site_label
_atom_site_fract_x
_atom_site_fract_y
_atom_site_fract_z
Si Si1 0.457917 0.699760 0.269374
Si Si2 0.490606 0.687329 0.047720
Si Si3 0.460879 0.804578 0.823973
Si Si4 0.679163 0.741457 0.723881
Si Si5 0.965638 0.766944 0.237614
Si Si6 0.871291 0.639764 0.595632
Si Si7 0.287845 0.839805 0.248654
O O1 0.139267 0.631943 0.417222
O O2 0.617820 0.909764 0.483583
O O3 0.500000 0.500000 0.000000
O O4 0.537631 0.769229 0.211172
O O5 0.317486 0.429685 0.843011
O O6 0.765413 0.741751 0.873016
O O7 0.310882 0.753111 0.205057
O O8 0.719094 0.871011 0.784063
O O9 0.373883 0.597485 0.559696
O O10 0.200666 0.748015 0.993760
O O11 0.500000 0.000000 0.000000
O O12 0.500000 0.500000 0.500000
O O13 0.914366 0.754768 0.629490
O O14 0.500443 0.799485 0.989275
O O15 0.016213 0.739321 0.258569
O O16 0.000000 0.000000 0.500000
#
# Coordination Sequence:
#
# PCOD9087120 Si02
#       7
#     2   2   2   2   2   2   2
#     4  12  26  46  67  96 146 182 227 282 339 414
#     4  11  23  44  70  96 132 179 232 284 341 404
#     4  10  19  36  62 101 134 169 222 277 342 398
#     4   8  18  38  65  95 133 167 220 281 331 395
#     4  11  21  39  66 100 137 175 223 288 339 401
#     4  10  22  43  68  92 134 178 226 279 340 400
#     4  10  23  41  69 100 134 184 230 273 346 407
#
# _framework density 23.999953000000001
#
# number of rings (size 3 to 8) (size 9 to 14) (size 15 to 20)
#    0.000    1.714    1.429    2.571    0.000    4.000 
#    5.143    1.429    0.000    0.000    0.000    0.000 
#    0.000    0.000    0.000    0.000    0.000    0.000 
#
# Total GULP energy -78300.710680 kJ/mol
# GULP energy per Si atom -5592.907906 kJ/mol
# Density = 2.394533 g / cm^3
# Si number density = 23.999953 Si / 1000 Ang^3
#
#
#
# Elastic Constant Matrix: (Units=GPa)
#
#
# Indices 1 2 3 4 5 6 
#
# 1 99.1811 20.5118 20.7225 0.3503 -3.7602 -10.6332
# 2 20.5118 50.6863 24.7367 -6.0618 1.5522 -5.0996
# 3 20.7225 24.7367 112.1715 8.1819 15.2997 0.3164
# 4 0.3503 -6.0618 8.1819 45.4199 -5.4356 -1.8101
# 5 -3.7602 1.5522 15.2997 -5.4356 48.7415 1.2722
# 6 -10.6332 -5.0996 0.3164 -1.8101 1.2722 38.7576
#
#
#
# Elastic Compliance Matrix: (Units=1/GPa)
#
#
# Indices 1 2 3 4 5 6 
#
# 1 0.011498 -0.003702 -0.001504 -0.000039 0.001404 0.002632
# 2 -0.003702 0.024504 -0.005187 0.004449 0.000995 0.002426
# 3 -0.001504 -0.005187 0.011083 -0.003175 -0.003752 -0.001211
# 4 -0.000039 0.004449 -0.003175 0.023659 0.003449 0.001592
# 5 0.001404 0.000995 -0.003752 0.003449 0.022156 -0.000019
# 6 0.002632 0.002426 -0.001211 0.001592 -0.000019 0.026928
#
#
# Mechanical properties :
#
#
# Convention : Reuss Voigt Hill
#
# Bulk Modulus (GPa) = 38.02265 43.77566 40.89915
# Shear Modulus (GPa) = 33.47160 39.65499 36.56329
#
# Velocity S-wave (km/s) = 3.73856 4.06925 3.90740
# Velocity P-wave (km/s) = 5.87477 6.35279 6.11845
#
# Compressibility (1/GPa) = 0.02630011
#
# Stress axis : x y z
#
# Youngs Moduli (GPa) = 86.97249 40.80889 90.22534
#
# Poissons Ratio (x) = 0.15107 0.13568
# Poissons Ratio (y) = 0.32197 0.46800
# Poissons Ratio (z) = 0.13079 0.21168
#
# Static dielectric constant tensor:
#      x y z
#    x 2.009530 -0.038910 0.048860 
#    y -0.038910 1.957250 -0.042100 
#    z 0.048860 -0.042100 2.010590 
# 
# From -- ./inp_files/205371.got.cif
#   From: 2010.05.17/outbox.cif.g08.bks.cpg/sg2_103_cif.got.tgz:205371.got - 2010.06.03 11:33:40.
