data_PCOD9087537
_publ_section_title
;
Structure prediction by ZEFSAII (Michael W. Deem and Ramdas Pophale) SiO2 
 PCOD9087537
Probable space group: P -1
;
_chemical_formula_sum "Si O2"
_cell_formula_units_Z 16
_cell_length_a 10.242114
_cell_length_b 22.637030
_cell_length_c 19.260863
_cell_angle_alpha 154.483166
_cell_angle_beta 157.534668
_cell_angle_gamma 34.897610
_cell_volume 732.504950
_symmetry_space_group_name_H-M "P -1"
_symmetry_group_IT_number 2
_symmetry_cell_setting 'triclinic'
loop_
_space_group_symop_operation_xyz
x,y,z
-x,-y,-z
loop_
_atom_site_type_symbol
_atom_site_label
_atom_site_fract_x
_atom_site_fract_y
_atom_site_fract_z
Si Si1 0.940353 0.155946 0.791555
Si Si2 0.711757 0.027544 0.331986
Si Si3 0.141714 0.662342 0.662228
Si Si4 0.290022 0.447830 0.273292
Si Si5 0.745875 0.924126 0.717391
Si Si6 0.123347 0.633460 0.773380
Si Si7 0.990321 0.140480 0.951925
Si Si8 0.610899 0.284847 0.469058
O O1 0.605346 0.124358 0.547231
O O2 0.892482 0.089767 0.774116
O O3 0.245453 0.086224 0.827001
O O4 0.014012 0.319729 0.013996
O O5 0.372760 0.027672 0.213376
O O6 0.775698 0.176872 0.484825
O O7 0.000000 0.000000 0.500000
O O8 0.435564 0.619493 0.711392
O O9 0.287925 0.680070 0.831140
O O10 0.963439 0.794706 0.693681
O O11 0.866868 0.527975 0.383787
O O12 0.500000 0.500000 0.500000
O O13 0.180886 0.583795 0.323655
O O14 0.932271 0.036927 0.877576
O O15 0.714843 0.657578 0.589796
O O16 0.215443 0.729853 0.986441
O O17 0.393127 0.196425 0.209122
#
# Coordination Sequence:
#
# PCOD9087537 Si02
#       8
#     2   2   2   2   2   2   2   2
#     4  11  24  41  61  89 130 166 198 258 320 358
#     4  10  23  41  59  92 133 163 202 254 312 371
#     4  10  19  36  64  90 114 164 204 251 303 363
#     4  11  22  41  64  93 125 154 211 262 308 365
#     4  11  23  40  60  91 128 165 206 249 304 376
#     4   8  18  35  60  88 116 147 210 261 285 352
#     4  10  21  39  61  88 123 158 212 254 298 367
#     4   9  19  38  63  87 121 156 205 261 292 358
#
# _framework density 21.842856000000001
#
# number of rings (size 3 to 8) (size 9 to 14) (size 15 to 20)
#    0.750    1.250    2.500    0.375    3.500    2.500 
#    0.000    7.500    0.000    0.000    0.000    0.000 
#    0.000    0.000    0.000    0.000    0.000    0.000 
#
# Total GULP energy -89223.959001 kJ/mol
# GULP energy per Si atom -5576.497438 kJ/mol
# Density = 2.179314 g / cm^3
# Si number density = 21.842856 Si / 1000 Ang^3
#
#
#
# Elastic Constant Matrix: (Units=GPa)
#
#
# Indices 1 2 3 4 5 6 
#
# 1 118.6351 25.1704 32.5137 8.9436 -21.2298 17.4226
# 2 25.1704 111.7988 40.0151 32.6658 3.4951 21.5567
# 3 32.5137 40.0151 54.0772 24.9483 -5.6058 7.7288
# 4 8.9436 32.6658 24.9483 34.0496 3.9782 8.6985
# 5 -21.2298 3.4951 -5.6058 3.9782 31.7104 6.2317
# 6 17.4226 21.5567 7.7288 8.6985 6.2317 26.5129
#
#
#
# Elastic Compliance Matrix: (Units=1/GPa)
#
#
# Indices 1 2 3 4 5 6 
#
# 1 0.013198 0.000396 -0.007201 0.002918 0.009118 -0.009996
# 2 0.000396 0.015011 -0.006741 -0.007509 -0.000063 -0.008021
# 3 -0.007201 -0.006741 0.036938 -0.020510 0.003997 0.005235
# 4 0.002918 -0.007509 -0.020510 0.053045 -0.006371 -0.005739
# 5 0.009118 -0.000063 0.003997 -0.006371 0.042082 -0.014906
# 6 -0.009996 -0.008021 0.005235 -0.005739 -0.014906 0.054669
#
#
# Mechanical properties :
#
#
# Convention : Reuss Voigt Hill
#
# Bulk Modulus (GPa) = 26.27764 53.32329 39.80046
# Shear Modulus (GPa) = 19.62930 30.90871 25.26900
#
# Velocity S-wave (km/s) = 3.00102 3.76579 3.40495
# Velocity P-wave (km/s) = 4.90557 6.58586 5.80681
#
# Compressibility (1/GPa) = 0.03805516
#
# Stress axis : x y z
#
# Youngs Moduli (GPa) = 75.76647 66.61751 27.07221
#
# Poissons Ratio (x) = -0.02635 0.19493
# Poissons Ratio (y) = -0.02997 0.18250
# Poissons Ratio (z) = 0.54556 0.44909
#
# Static dielectric constant tensor:
#      x y z
#    x 1.816790 0.006160 0.025200 
#    y 0.006160 1.789530 0.007810 
#    z 0.025200 0.007810 1.897220 
# 
# From -- ./inp_files/562691.got.cif
#   From: 2010.05.17/outbox.cif.g08.bks.cpg/sg2_282_cif.got.tgz:562691.got - 2010.06.03 11:33:40.
