data_PCOD9087662
_publ_section_title
;
Structure prediction by ZEFSAII (Michael W. Deem and Ramdas Pophale) SiO2 
 PCOD9087662
Probable space group: P -1
;
_chemical_formula_sum "Si O2"
_cell_formula_units_Z 16
_cell_length_a 9.528448
_cell_length_b 25.309737
_cell_length_c 15.366033
_cell_angle_alpha 161.416330
_cell_angle_beta 141.277956
_cell_angle_gamma 49.860654
_cell_volume 649.750068
_symmetry_space_group_name_H-M "P -1"
_symmetry_group_IT_number 2
_symmetry_cell_setting 'triclinic'
loop_
_space_group_symop_operation_xyz
x,y,z
-x,-y,-z
loop_
_atom_site_type_symbol
_atom_site_label
_atom_site_fract_x
_atom_site_fract_y
_atom_site_fract_z
Si Si1 0.288779 0.345903 0.394246
Si Si2 0.991571 0.737309 0.036481
Si Si3 0.921023 0.079895 0.364348
Si Si4 0.603786 0.155898 0.474038
Si Si5 0.683053 0.813152 0.147973
Si Si6 0.804635 0.337062 0.589491
Si Si7 0.198111 0.781392 0.783924
Si Si8 0.653589 0.620706 0.345218
O O1 0.540370 0.342579 0.475410
O O2 0.347589 0.468545 0.701153
O O3 0.137318 0.376553 0.290146
O O4 0.114988 0.125594 0.993311
O O5 0.194123 0.705526 0.140719
O O6 0.773579 0.720106 0.970991
O O7 0.155485 0.960290 0.438646
O O8 0.752441 0.075401 0.360431
O O9 0.820593 0.158652 0.360727
O O10 0.209463 0.209757 0.742611
O O11 0.497282 0.261096 0.526249
O O12 0.372900 0.990099 0.155176
O O13 0.389126 0.751291 0.893647
O O14 0.873008 0.348410 0.539206
O O15 0.000000 0.500000 0.000000
O O16 0.942304 0.748295 0.654034
O O17 0.500000 0.500000 0.000000
#
# Coordination Sequence:
#
# PCOD9087662 Si02
#       8
#     2   2   2   2   2   2   2   2
#     4  11  19  39  62  84 109 151 197 229 284 334
#     4   8  15  31  61  89 105 138 189 245 281 323
#     4  10  19  36  65  91 108 141 193 247 283 328
#     4  10  19  38  63  87 111 146 194 237 285 335
#     4   8  15  32  58  89 114 132 183 246 290 322
#     4  12  22  34  55  86 117 147 193 236 272 331
#     4  11  21  38  58  85 115 151 191 233 285 335
#     4  12  26  39  52  81 125 162 184 226 287 343
#
# _framework density 24.624853999999999
#
# number of rings (size 3 to 8) (size 9 to 14) (size 15 to 20)
#    0.000    1.750    3.750    3.750    0.000    0.000 
#    0.000    9.375    0.000    0.000    0.000    0.000 
#    0.000    0.000    0.000    0.000    0.000    0.000 
#
# Total GULP energy -89502.025869 kJ/mol
# GULP energy per Si atom -5593.876617 kJ/mol
# Density = 2.456881 g / cm^3
# Si number density = 24.624854 Si / 1000 Ang^3
#
#
#
# Elastic Constant Matrix: (Units=GPa)
#
#
# Indices 1 2 3 4 5 6 
#
# 1 78.6013 28.6067 18.4864 -26.0468 -7.1537 5.8722
# 2 28.6067 98.2383 42.6006 -43.2506 12.6826 7.4598
# 3 18.4864 42.6006 82.6911 -38.8790 -11.7288 9.7002
# 4 -26.0468 -43.2506 -38.8790 58.3473 8.5935 3.4672
# 5 -7.1537 12.6826 -11.7288 8.5935 35.9019 -9.1228
# 6 5.8722 7.4598 9.7002 3.4672 -9.1228 30.7462
#
#
#
# Elastic Compliance Matrix: (Units=1/GPa)
#
#
# Indices 1 2 3 4 5 6 
#
# 1 0.015708 -0.002792 0.001175 0.005505 0.002531 -0.002563
# 2 -0.002792 0.022836 -0.005112 0.015300 -0.016501 -0.010016
# 3 0.001175 -0.005112 0.020430 0.009902 0.005062 -0.005044
# 4 0.005505 0.015300 0.009902 0.040776 -0.015148 -0.016980
# 5 0.002531 -0.016501 0.005062 -0.015148 0.043683 0.016592
# 6 -0.002563 -0.010016 -0.005044 -0.016980 0.016592 0.043873
#
#
# Mechanical properties :
#
#
# Convention : Reuss Voigt Hill
#
# Bulk Modulus (GPa) = 21.97105 48.76865 35.36985
# Shear Modulus (GPa) = 23.15484 36.32155 29.73819
#
# Velocity S-wave (km/s) = 3.06976 3.84473 3.47890
# Velocity P-wave (km/s) = 4.63749 6.28943 5.52554
#
# Compressibility (1/GPa) = 0.04551443
#
# Stress axis : x y z
#
# Youngs Moduli (GPa) = 63.66011 43.79009 48.94825
#
# Poissons Ratio (x) = 0.12227 -0.05749
# Poissons Ratio (y) = 0.17775 0.25024
# Poissons Ratio (z) = -0.07477 0.22387
#
# Static dielectric constant tensor:
#      x y z
#    x 1.875400 0.025540 -0.004890 
#    y 0.025540 1.962830 0.034100 
#    z -0.004890 0.034100 2.073750 
# 
# From -- ./inp_files/205429.got.cif
#   From: 2010.05.17/outbox.cif.g08.bks.cpg/sg2_103_cif.got.tgz:205429.got - 2010.06.03 11:33:40.
