data_PCOD9087729
_publ_section_title
;
Structure prediction by ZEFSAII (Michael W. Deem and Ramdas Pophale) SiO2 
 PCOD9087729
Probable space group: P -1
;
_chemical_formula_sum "Si O2"
_cell_formula_units_Z 14
_cell_length_a 10.813537
_cell_length_b 11.285808
_cell_length_c 6.668402
_cell_angle_alpha 83.924832
_cell_angle_beta 86.728505
_cell_angle_gamma 129.128159
_cell_volume 619.610741
_symmetry_space_group_name_H-M "P -1"
_symmetry_group_IT_number 2
_symmetry_cell_setting 'triclinic'
loop_
_space_group_symop_operation_xyz
x,y,z
-x,-y,-z
loop_
_atom_site_type_symbol
_atom_site_label
_atom_site_fract_x
_atom_site_fract_y
_atom_site_fract_z
Si Si1 0.634817 0.456367 0.966937
Si Si2 0.505591 0.017625 0.731005
Si Si3 0.602100 0.614316 0.650071
Si Si4 0.839537 0.965279 0.608352
Si Si5 0.147791 0.746593 0.427811
Si Si6 0.623119 0.882764 0.002833
Si Si7 0.896965 0.480907 0.198087
O O1 0.528463 0.447210 0.154556
O O2 0.498585 0.295691 0.891603
O O3 0.758653 0.462608 0.093153
O O4 0.715409 0.589304 0.764374
O O5 0.686999 0.179697 0.723026
O O6 0.500000 0.000000 0.500000
O O7 0.518291 0.896034 0.850706
O O8 0.368237 0.016903 0.836039
O O9 0.500000 0.500000 0.500000
O O10 0.696220 0.794237 0.563113
O O11 0.781264 0.934561 0.858331
O O12 0.848897 0.112055 0.537576
O O13 0.000000 0.000000 0.500000
O O14 0.149393 0.659999 0.633020
O O15 0.998446 0.627084 0.315706
O O16 0.000000 0.500000 0.000000
#
# Coordination Sequence:
#
# PCOD9087729 Si02
#       7
#     2   2   2   2   2   2   2
#     4  10  22  41  65  97 131 177 237 282 342 413
#     4  10  19  36  66  94 131 174 228 291 347 411
#     4  10  24  44  71  95 133 187 239 286 336 413
#     4  10  23  43  69  99 145 189 233 283 352 427
#     4  10  24  41  63 105 138 182 235 283 361 418
#     4   9  20  38  62  97 130 172 228 287 342 407
#     4  11  24  41  67 100 141 182 224 296 360 422
#
# _framework density 22.594830999999999
#
# number of rings (size 3 to 8) (size 9 to 14) (size 15 to 20)
#    0.000    2.000    0.000    1.714    4.000    8.000 
#    0.000    3.571    0.000    0.000    0.000    0.000 
#    0.000    0.000    0.000    0.000    0.000    0.000 
#
# Total GULP energy -77982.139067 kJ/mol
# GULP energy per Si atom -5570.152790 kJ/mol
# Density = 2.254340 g / cm^3
# Si number density = 22.594831 Si / 1000 Ang^3
#
#
#
# Elastic Constant Matrix: (Units=GPa)
#
#
# Indices 1 2 3 4 5 6 
#
# 1 101.4399 43.5546 52.4673 2.4729 -14.4585 -3.5996
# 2 43.5546 138.1219 50.2280 -5.5317 12.5157 -15.4662
# 3 52.4673 50.2280 85.6662 12.4684 8.4263 -1.5021
# 4 2.4729 -5.5317 12.4684 31.6633 -7.9125 -0.1794
# 5 -14.4585 12.5157 8.4263 -7.9125 47.3613 0.4498
# 6 -3.5996 -15.4662 -1.5021 -0.1794 0.4498 24.9773
#
#
#
# Elastic Compliance Matrix: (Units=1/GPa)
#
#
# Indices 1 2 3 4 5 6 
#
# 1 0.017656 -0.002049 -0.011166 0.004843 0.008723 0.000482
# 2 -0.002049 0.010845 -0.005339 0.003696 -0.001983 0.006161
# 3 -0.011166 -0.005339 0.024077 -0.011607 -0.008189 -0.003403
# 4 0.004843 0.003696 -0.011607 0.038685 0.009007 0.002404
# 5 0.008723 -0.001983 -0.008189 0.009007 0.027271 -0.000890
# 6 0.000482 0.006161 -0.003403 0.002404 -0.000890 0.043749
#
#
# Mechanical properties :
#
#
# Convention : Reuss Voigt Hill
#
# Bulk Modulus (GPa) = 64.64101 68.63642 66.63872
# Shear Modulus (GPa) = 24.44402 32.73225 28.58813
#
# Velocity S-wave (km/s) = 3.29270 3.81026 3.56090
# Velocity P-wave (km/s) = 6.56709 7.05694 6.81642
#
# Compressibility (1/GPa) = 0.01547005
#
# Stress axis : x y z
#
# Youngs Moduli (GPa) = 56.63881 92.20667 41.53270
#
# Poissons Ratio (x) = 0.18897 0.46376
# Poissons Ratio (y) = 0.11607 0.22172
# Poissons Ratio (z) = 0.63244 0.49225
#
# Static dielectric constant tensor:
#      x y z
#    x 1.925890 -0.190580 -0.010690 
#    y -0.190580 2.084300 -0.040610 
#    z -0.010690 -0.040610 1.828440 
# 
# From -- ./inp_files/69944.got.cif
#   From: 2010.05.17/outbox.cif.g08.bks.cpg/sg2_35_cif.got.tgz:69944.got - 2010.06.03 11:33:40.
