data_PCOD9087623
_publ_section_title
;
Structure prediction by ZEFSAII (Michael W. Deem and Ramdas Pophale) SiO2 
 PCOD9087623
Probable space group: P -1
;
_chemical_formula_sum "Si O2"
_cell_formula_units_Z 16
_cell_length_a 8.082441
_cell_length_b 11.227257
_cell_length_c 13.526260
_cell_angle_alpha 121.685908
_cell_angle_beta 48.352789
_cell_angle_gamma 92.714705
_cell_volume 687.032726
_symmetry_space_group_name_H-M "P -1"
_symmetry_group_IT_number 2
_symmetry_cell_setting 'triclinic'
loop_
_space_group_symop_operation_xyz
x,y,z
-x,-y,-z
loop_
_atom_site_type_symbol
_atom_site_label
_atom_site_fract_x
_atom_site_fract_y
_atom_site_fract_z
Si Si1 0.507891 0.735628 0.272578
Si Si2 0.529706 0.122786 0.847764
Si Si3 0.422052 0.693912 0.776585
Si Si4 0.730332 0.817843 0.833736
Si Si5 0.657332 0.093688 0.276838
Si Si6 0.977240 0.770823 0.129498
Si Si7 0.040663 0.045439 0.615021
Si Si8 0.675646 0.342250 0.506027
O O1 0.469073 0.751405 0.177189
O O2 0.794092 0.694876 0.154746
O O3 0.397495 0.646091 0.343669
O O4 0.325377 0.914829 0.463398
O O5 0.799387 0.043040 0.759709
O O6 0.508555 0.981872 0.736987
O O7 0.300446 0.212201 0.051525
O O8 0.631538 0.726628 0.760728
O O9 0.273860 0.834476 0.816499
O O10 0.563243 0.522615 0.594710
O O11 0.235145 0.689754 0.932239
O O12 0.023868 0.758995 0.672866
O O13 0.500000 0.000000 0.000000
O O14 0.554095 0.245282 0.456285
O O15 0.848993 0.945453 0.202727
O O16 0.989638 0.795637 0.252789
O O17 0.000000 0.000000 0.500000
#
# Coordination Sequence:
#
# PCOD9087623 Si02
#       8
#     2   2   2   2   2   2   2   2
#     4  10  23  39  65  96 136 171 223 279 338 398
#     4  10  22  39  71 101 126 170 232 288 330 386
#     4  12  26  44  65 100 137 183 223 274 345 407
#     4  12  23  45  74 100 129 174 237 284 331 395
#     4  11  24  40  68  99 127 178 229 282 326 391
#     4  11  22  41  71  97 132 174 235 284 327 387
#     4  10  19  36  65 102 128 161 223 288 330 380
#     4  12  27  43  66  98 146 179 215 279 347 412
#
# _framework density 23.288557000000001
#
# number of rings (size 3 to 8) (size 9 to 14) (size 15 to 20)
#    0.000    1.000    3.750    3.000    7.000    0.500 
#    0.000    0.625    0.000    0.000    0.000    0.000 
#    0.000    0.000    0.000    0.000    0.000    0.000 
#
# Total GULP energy -89076.238481 kJ/mol
# GULP energy per Si atom -5567.264905 kJ/mol
# Density = 2.323555 g / cm^3
# Si number density = 23.288557 Si / 1000 Ang^3
#
#
#
# Elastic Constant Matrix: (Units=GPa)
#
#
# Indices 1 2 3 4 5 6 
#
# 1 79.4681 10.1036 15.2823 0.3304 0.6579 9.3929
# 2 10.1036 65.3246 54.1773 -9.6784 -4.3187 -7.5235
# 3 15.2823 54.1773 60.8026 -10.9950 -10.2489 -12.5491
# 4 0.3304 -9.6784 -10.9950 46.3820 0.1095 13.6201
# 5 0.6579 -4.3187 -10.2489 0.1095 19.1991 -5.5618
# 6 9.3929 -7.5235 -12.5491 13.6201 -5.5618 23.1955
#
#
#
# Elastic Compliance Matrix: (Units=1/GPa)
#
#
# Indices 1 2 3 4 5 6 
#
# 1 0.017743 0.012414 -0.021764 0.003399 -0.015429 -0.020628
# 2 0.012414 0.082431 -0.091145 0.008140 -0.042948 -0.042679
# 3 -0.021764 -0.091145 0.127505 -0.009428 0.068711 0.070243
# 4 0.003399 0.008140 -0.009428 0.027614 -0.009977 -0.022443
# 5 -0.015429 -0.042948 0.068711 -0.009977 0.096643 0.058522
# 6 -0.020628 -0.042679 0.070243 -0.022443 0.058522 0.102835
#
#
# Mechanical properties :
#
#
# Convention : Reuss Voigt Hill
#
# Bulk Modulus (GPa) = 37.47019 40.52463 38.99741
# Shear Modulus (GPa) = 7.52269 26.15748 16.84009
#
# Velocity S-wave (km/s) = 1.79923 3.35504 2.69198
# Velocity P-wave (km/s) = 4.52115 5.69625 5.14237
#
# Compressibility (1/GPa) = 0.02668788
#
# Stress axis : x y z
#
# Youngs Moduli (GPa) = 56.36179 12.13138 7.84285
#
# Poissons Ratio (x) = -0.15059 0.17069
# Poissons Ratio (y) = -0.69965 0.71483
# Poissons Ratio (z) = 1.22666 1.10571
#
# Static dielectric constant tensor:
#      x y z
#    x 1.940290 -0.094660 0.035260 
#    y -0.094660 1.983340 -0.069720 
#    z 0.035260 -0.069720 1.924140 
# 
# From -- ./inp_files/500647.got.cif
#   From: 2010.05.17/outbox.cif.g08.bks.cpg/sg2_251_cif.got.tgz:500647.got - 2010.06.03 11:33:40.
