data_PCOD9087755
_publ_section_title
;
Structure prediction by ZEFSAII (Michael W. Deem and Ramdas Pophale) SiO2 
 PCOD9087755
Probable space group: P -1
;
_chemical_formula_sum "Si O2"
_cell_formula_units_Z 14
_cell_length_a 18.501489
_cell_length_b 8.025536
_cell_length_c 9.911891
_cell_angle_alpha 51.366896
_cell_angle_beta 35.929822
_cell_angle_gamma 37.245561
_cell_volume 521.839816
_symmetry_space_group_name_H-M "P -1"
_symmetry_group_IT_number 2
_symmetry_cell_setting 'triclinic'
loop_
_space_group_symop_operation_xyz
x,y,z
-x,-y,-z
loop_
_atom_site_type_symbol
_atom_site_label
_atom_site_fract_x
_atom_site_fract_y
_atom_site_fract_z
Si Si1 0.659865 0.712707 0.951093
Si Si2 0.174526 0.028798 0.742464
Si Si3 0.130754 0.855505 0.175453
Si Si4 0.013788 0.596166 0.784650
Si Si5 0.800933 0.007776 0.586585
Si Si6 0.479925 0.153781 0.631423
Si Si7 0.642464 0.576728 0.610358
O O1 0.719452 0.463625 0.887640
O O2 0.779400 0.779699 0.746030
O O3 0.621590 0.660701 0.181739
O O4 0.500000 0.000000 0.000000
O O5 0.043565 0.363062 0.761248
O O6 0.206167 0.922198 0.596938
O O7 0.344384 0.935558 0.584642
O O8 0.117691 0.939276 0.994707
O O9 0.976063 0.886892 0.428836
O O10 0.125812 0.074685 0.161891
O O11 0.180568 0.539329 0.559614
O O12 0.000000 0.500000 0.000000
O O13 0.662299 0.301131 0.717105
O O14 0.392824 0.308012 0.547832
O O15 0.513633 0.862299 0.737927
#
# Coordination Sequence:
#
# PCOD9087755 Si02
#       7
#     2   2   2   2   2   2   2
#     4  12  25  39  58  86 129 162 194 236 298 367
#     4  10  19  36  67  90 116 150 201 256 293 346
#     4  10  22  39  61  86 119 156 205 246 290 348
#     4   8  17  36  60  89 115 145 196 253 296 340
#     4  11  22  39  61  87 121 157 200 244 299 352
#     4  10  21  39  60  92 120 154 198 247 303 346
#     4   9  20  37  64  88 115 152 204 253 290 345
#
# _framework density 26.828156
#
# number of rings (size 3 to 8) (size 9 to 14) (size 15 to 20)
#    0.000    2.000    1.429    1.714    2.000    4.000 
#    0.000    0.714    3.143    0.000    0.000    0.000 
#    0.000    0.000    0.000    0.000    0.000    0.000 
#
# Total GULP energy -78398.629474 kJ/mol
# GULP energy per Si atom -5599.902105 kJ/mol
# Density = 2.676709 g / cm^3
# Si number density = 26.828156 Si / 1000 Ang^3
#
#
#
# Elastic Constant Matrix: (Units=GPa)
#
#
# Indices 1 2 3 4 5 6 
#
# 1 58.7629 27.0417 11.7658 2.5013 10.7326 -17.8881
# 2 27.0417 219.4838 10.3596 15.4789 -6.8037 17.4490
# 3 11.7658 10.3596 98.8427 -2.5428 -2.5102 0.8779
# 4 2.5013 15.4789 -2.5428 29.5687 3.5703 10.0793
# 5 10.7326 -6.8037 -2.5102 3.5703 29.9101 -3.2459
# 6 -17.8881 17.4490 0.8779 10.0793 -3.2459 41.6580
#
#
#
# Elastic Compliance Matrix: (Units=1/GPa)
#
#
# Indices 1 2 3 4 5 6 
#
# 1 0.024947 -0.003942 -0.002973 -0.003615 -0.008293 0.012654
# 2 -0.003942 0.005512 -0.000059 -0.001702 0.002498 -0.003394
# 3 -0.002973 -0.000059 0.010573 0.001596 0.001561 -0.001739
# 4 -0.003615 -0.001702 0.001596 0.039414 -0.004831 -0.010786
# 5 -0.008293 0.002498 0.001561 -0.004831 0.037627 -0.000540
# 6 0.012654 -0.003394 -0.001739 -0.010786 -0.000540 0.033465
#
#
# Mechanical properties :
#
#
# Convention : Reuss Voigt Hill
#
# Bulk Modulus (GPa) = 36.91838 52.82485 44.87162
# Shear Modulus (GPa) = 28.65143 42.08884 35.37014
#
# Velocity S-wave (km/s) = 3.27151 3.96514 3.63491
# Velocity P-wave (km/s) = 5.29729 6.37934 5.86333
#
# Compressibility (1/GPa) = 0.02708678
#
# Stress axis : x y z
#
# Youngs Moduli (GPa) = 40.08461 181.42983 94.57849
#
# Poissons Ratio (x) = 0.71511 0.28114
# Poissons Ratio (y) = 0.15799 0.00555
# Poissons Ratio (z) = 0.11915 0.01065
#
# Static dielectric constant tensor:
#      x y z
#    x 2.099860 0.002250 0.024110 
#    y 0.002250 2.128490 -0.046170 
#    z 0.024110 -0.046170 2.073680 
# 
# From -- ./inp_files/153723.got.cif
#   From: 2010.05.17/outbox.cif.g08.bks.cpg/sg2_77_cif.got.tgz:153723.got - 2010.06.03 11:33:40.
