data_PCOD9087442
_publ_section_title
;
Structure prediction by ZEFSAII (Michael W. Deem and Ramdas Pophale) SiO2 
 PCOD9087442
Probable space group: P -1
;
_chemical_formula_sum "Si O2"
_cell_formula_units_Z 16
_cell_length_a 13.840800
_cell_length_b 11.793740
_cell_length_c 7.983696
_cell_angle_alpha 68.311977
_cell_angle_beta 66.903902
_cell_angle_gamma 34.009351
_cell_volume 668.002384
_symmetry_space_group_name_H-M "P -1"
_symmetry_group_IT_number 2
_symmetry_cell_setting 'triclinic'
loop_
_space_group_symop_operation_xyz
x,y,z
-x,-y,-z
loop_
_atom_site_type_symbol
_atom_site_label
_atom_site_fract_x
_atom_site_fract_y
_atom_site_fract_z
Si Si1 0.647484 0.686267 0.109170
Si Si2 0.782461 0.905769 0.503336
Si Si3 0.443835 0.075858 0.235087
Si Si4 0.695290 0.256645 0.492417
Si Si5 0.772046 0.956694 0.107385
Si Si6 0.324928 0.599037 0.880344
Si Si7 0.291494 0.715473 0.162522
Si Si8 0.006156 0.363229 0.164436
O O1 0.506614 0.903255 0.172481
O O2 0.598426 0.600382 0.123856
O O3 0.801901 0.521494 0.223966
O O4 0.694864 0.717984 0.892358
O O5 0.847832 0.874183 0.288733
O O6 0.910861 0.739243 0.654655
O O7 0.651246 0.911781 0.563706
O O8 0.698632 0.109980 0.522698
O O9 0.604569 0.019764 0.179315
O O10 0.500000 0.500000 0.500000
O O11 0.784531 0.241136 0.282565
O O12 0.779103 0.206793 0.643680
O O13 0.896744 0.805011 0.951899
O O14 0.723476 0.140541 0.998340
O O15 0.503491 0.510838 0.828383
O O16 0.227548 0.683524 0.077928
O O17 0.000000 0.500000 0.000000
#
# Coordination Sequence:
#
# PCOD9087442 Si02
#       8
#     2   2   2   2   2   2   2   2
#     4  11  22  41  67  96 125 174 213 264 324 378
#     4  12  24  41  66 100 131 168 216 262 325 388
#     4  11  21  39  68  97 129 158 217 278 318 371
#     4  10  20  35  63  94 124 166 209 259 319 371
#     4  12  23  41  66  98 132 166 212 265 326 383
#     4  10  20  37  62  93 125 157 215 268 312 374
#     4  10  19  36  63  93 124 164 205 267 324 365
#     4  12  24  45  65  89 135 179 209 257 325 394
#
# _framework density 23.952013000000001
#
# number of rings (size 3 to 8) (size 9 to 14) (size 15 to 20)
#    0.000    1.000    6.250    2.625    0.000    0.500 
#    0.000    2.500    0.000    0.000    0.000    0.000 
#    0.000    0.000    0.000    0.000    0.000    0.000 
#
# Total GULP energy -89159.099688 kJ/mol
# GULP energy per Si atom -5572.443730 kJ/mol
# Density = 2.389750 g / cm^3
# Si number density = 23.952013 Si / 1000 Ang^3
#
#
#
# Elastic Constant Matrix: (Units=GPa)
#
#
# Indices 1 2 3 4 5 6 
#
# 1 32.9610 19.2436 26.3615 -7.6082 16.9405 -3.2354
# 2 19.2436 54.8722 24.0700 -23.4878 13.8020 5.2454
# 3 26.3615 24.0700 195.8082 -7.2993 38.8142 1.7659
# 4 -7.6082 -23.4878 -7.2993 29.5515 10.3956 -1.9066
# 5 16.9405 13.8020 38.8142 10.3956 29.8227 5.2675
# 6 -3.2354 5.2454 1.7659 -1.9066 5.2675 2.5666
#
#
#
# Elastic Compliance Matrix: (Units=1/GPa)
#
#
# Indices 1 2 3 4 5 6 
#
# 1 -0.002897 -0.017806 -0.009574 -0.044963 0.057997 -0.113104
# 2 -0.017806 0.051167 0.002055 0.039837 -0.019872 -0.058054
# 3 -0.009574 0.002055 0.006001 -0.001494 0.001564 -0.024716
# 4 -0.044963 0.039837 -0.001494 0.033102 0.027257 -0.168416
# 5 0.057997 -0.019872 0.001564 0.027257 -0.039570 0.214108
# 6 -0.113104 -0.058054 -0.024716 -0.168416 0.214108 -0.181837
#
#
# Mechanical properties :
#
#
# Convention : Reuss Voigt Hill
#
# Bulk Modulus (GPa) = 276.18710 46.99907 161.59308
# Shear Modulus (GPa) = -60.84395 26.65259 -17.09568
#
# Velocity S-wave (km/s) = -5.04555 3.33941 -2.67450
# Velocity P-wave (km/s) = 9.03412 5.87653 7.62066
#
# Compressibility (1/GPa) = 0.00362073
#
# Stress axis : x y z
#
# Youngs Moduli (GPa) = -345.15188 19.54375 166.65190
#
# Poissons Ratio (x) = 0.34800 1.59548
# Poissons Ratio (y) = -6.14593 -0.34251
# Poissons Ratio (z) = -3.30438 -0.04017
#
# Static dielectric constant tensor:
#      x y z
#    x 1.995010 0.032510 -0.021350 
#    y 0.032510 1.918190 0.060560 
#    z -0.021350 0.060560 2.000800 
# 
# From -- ./inp_files/302820.got.cif
#   From: 2010.05.17/outbox.cif.g08.bks.cpg/sg2_152_cif.got.tgz:302820.got - 2010.06.03 11:33:40.
