data_PCOD9087985
_publ_section_title
;
Structure prediction by ZEFSAII (Michael W. Deem and Ramdas Pophale) SiO2 
 PCOD9087985
Probable space group: P -1
;
_chemical_formula_sum "Si O2"
_cell_formula_units_Z 16
_cell_length_a 8.442407
_cell_length_b 14.571002
_cell_length_c 14.870697
_cell_angle_alpha 130.409147
_cell_angle_beta 145.979903
_cell_angle_gamma 67.579845
_cell_volume 725.251038
_symmetry_space_group_name_H-M "P -1"
_symmetry_group_IT_number 2
_symmetry_cell_setting 'triclinic'
loop_
_space_group_symop_operation_xyz
x,y,z
-x,-y,-z
loop_
_atom_site_type_symbol
_atom_site_label
_atom_site_fract_x
_atom_site_fract_y
_atom_site_fract_z
Si Si1 0.511527 0.873700 0.142340
Si Si2 0.850394 0.678337 0.766301
Si Si3 0.687270 0.247466 0.214934
Si Si4 0.653283 0.867022 0.390208
Si Si5 0.398308 0.299430 0.587545
Si Si6 0.787299 0.977273 0.701268
Si Si7 0.595457 0.888483 0.822550
Si Si8 0.534299 0.532052 0.687245
O O1 0.510330 0.828710 0.010773
O O2 0.187591 0.769400 0.957329
O O3 0.733536 0.869306 0.325190
O O4 0.515859 0.019189 0.231239
O O5 0.644418 0.766979 0.722529
O O6 0.811352 0.621336 0.812642
O O7 0.709952 0.559700 0.556895
O O8 0.598134 0.165674 0.213110
O O9 0.610465 0.375381 0.273978
O O10 0.046168 0.281163 0.391881
O O11 0.572280 0.727468 0.310181
O O12 0.879074 0.962255 0.630922
O O13 0.378583 0.921418 0.303793
O O14 0.432307 0.171311 0.479032
O O15 0.598212 0.434781 0.725056
O O16 0.073327 0.019419 0.926989
#
# Coordination Sequence:
#
# PCOD9087985 Si02
#       8
#     2   2   2   2   2   2   2   2
#     4  12  20  34  59  89 111 143 187 240 281 324
#     4  10  21  33  59  88 109 136 199 246 256 328
#     4  11  23  36  59  84 116 152 185 231 279 343
#     4   9  21  33  56  87 113 150 184 228 285 342
#     4  10  19  37  58  79 116 158 178 223 293 334
#     4   9  18  36  57  82 117 145 183 230 289 331
#     4  11  21  35  60  89 113 140 191 237 290 322
#     4  10  21  38  56  84 113 152 191 229 282 320
#
# _framework density 22.061326000000001
#
# number of rings (size 3 to 8) (size 9 to 14) (size 15 to 20)
#    0.750    1.000    3.750    1.125    1.750    0.000 
#    0.000    3.750    0.000    0.000    0.000    0.000 
#    0.000    0.000    0.000    0.000    0.000    0.000 
#
# Total GULP energy -89250.011425 kJ/mol
# GULP energy per Si atom -5578.125714 kJ/mol
# Density = 2.201111 g / cm^3
# Si number density = 22.061326 Si / 1000 Ang^3
#
#
#
# Elastic Constant Matrix: (Units=GPa)
#
#
# Indices 1 2 3 4 5 6 
#
# 1 50.3622 29.7318 21.2581 6.5884 -0.8926 13.8434
# 2 29.7318 143.7130 26.3315 11.8643 -0.8051 31.7591
# 3 21.2581 26.3315 40.3655 5.0813 -13.5332 0.3464
# 4 6.5884 11.8643 5.0813 35.6950 9.1632 -5.9303
# 5 -0.8926 -0.8051 -13.5332 9.1632 32.6800 7.9385
# 6 13.8434 31.7591 0.3464 -5.9303 7.9385 41.0893
#
#
#
# Elastic Compliance Matrix: (Units=1/GPa)
#
#
# Indices 1 2 3 4 5 6 
#
# 1 0.029943 -0.001019 -0.015225 -0.004032 -0.002111 -0.009346
# 2 -0.001019 0.010350 -0.005148 -0.004279 0.001358 -0.008493
# 3 -0.015225 -0.005148 0.042629 -0.005264 0.017465 0.004615
# 4 -0.004032 -0.004279 -0.005264 0.037238 -0.016039 0.013183
# 5 -0.002111 0.001358 0.017465 -0.016039 0.045102 -0.011514
# 6 -0.009346 -0.008493 0.004615 0.013183 -0.011514 0.038139
#
#
# Mechanical properties :
#
#
# Convention : Reuss Voigt Hill
#
# Bulk Modulus (GPa) = 24.91401 43.23150 34.07276
# Shear Modulus (GPa) = 19.26300 32.36747 25.81524
#
# Velocity S-wave (km/s) = 2.95813 3.83451 3.42447
# Velocity P-wave (km/s) = 4.79426 6.26444 5.57800
#
# Compressibility (1/GPa) = 0.04013806
#
# Stress axis : x y z
#
# Youngs Moduli (GPa) = 33.39665 96.61716 23.45843
#
# Poissons Ratio (x) = 0.09843 0.35715
# Poissons Ratio (y) = 0.03402 0.12077
# Poissons Ratio (z) = 0.50846 0.49741
#
# Static dielectric constant tensor:
#      x y z
#    x 1.902260 0.056460 -0.014130 
#    y 0.056460 1.821710 -0.014120 
#    z -0.014130 -0.014120 1.830290 
# 
# From -- ./inp_files/503124.got.cif
#   From: 2010.05.17/outbox.cif.g08.bks.cpg/sg2_252_cif.got.tgz:503124.got - 2010.06.03 11:33:40.
