data_PCOD9087801
_publ_section_title
;
Structure prediction by ZEFSAII (Michael W. Deem and Ramdas Pophale) SiO2 
 PCOD9087801
Probable space group: P -1
;
_chemical_formula_sum "Si O2"
_cell_formula_units_Z 14
_cell_length_a 9.175322
_cell_length_b 18.314387
_cell_length_c 4.982936
_cell_angle_alpha 84.228750
_cell_angle_beta 126.732541
_cell_angle_gamma 126.025403
_cell_volume 500.315791
_symmetry_space_group_name_H-M "P -1"
_symmetry_group_IT_number 2
_symmetry_cell_setting 'triclinic'
loop_
_space_group_symop_operation_xyz
x,y,z
-x,-y,-z
loop_
_atom_site_type_symbol
_atom_site_label
_atom_site_fract_x
_atom_site_fract_y
_atom_site_fract_z
Si Si1 0.515415 0.817815 0.305047
Si Si2 0.004921 0.687478 0.948088
Si Si3 0.191315 0.593868 0.491406
Si Si4 0.708168 0.754745 0.231605
Si Si5 0.564144 0.581103 0.835586
Si Si6 0.609511 0.939695 0.876701
Si Si7 0.884778 0.121401 0.765769
O O1 0.223406 0.739456 0.951018
O O2 0.661708 0.779827 0.459417
O O3 0.543350 0.860982 0.609659
O O4 0.640273 0.905530 0.198975
O O5 0.076787 0.632076 0.206898
O O6 0.048000 0.783649 0.051431
O O7 0.717873 0.606393 0.730496
O O8 0.326960 0.564279 0.492841
O O9 0.000000 0.500000 0.500000
O O10 0.430995 0.690960 0.855408
O O11 0.921909 0.847381 0.260757
O O12 0.731923 0.676363 0.191824
O O13 0.500000 0.500000 0.000000
O O14 0.374518 0.929837 0.639890
O O15 0.825767 0.044271 0.949417
#
# Coordination Sequence:
#
# PCOD9087801 Si02
#       7
#     2   2   2   2   2   2   2
#     4  11  23  43  67 102 136 186 229 284 346 411
#     4  10  19  38  64  95 142 178 229 278 346 407
#     4  10  19  36  69 100 135 179 222 286 346 408
#     4   9  20  36  62 100 134 178 227 281 339 410
#     4   9  18  36  64 100 132 178 228 283 341 417
#     4  10  23  42  67  96 137 189 228 284 350 396
#     4   9  20  39  63  97 135 186 228 285 337 413
#
# _framework density 27.982326
#
# number of rings (size 3 to 8) (size 9 to 14) (size 15 to 20)
#    0.857    1.429    1.429    1.714    0.000    6.286 
#    2.571    5.714    0.000    1.714    0.000    0.000 
#    0.000    0.000    0.000    0.000    0.000    0.000 
#
# Total GULP energy -78165.516296 kJ/mol
# GULP energy per Si atom -5583.251164 kJ/mol
# Density = 2.791864 g / cm^3
# Si number density = 27.982326 Si / 1000 Ang^3
#
#
#
# Elastic Constant Matrix: (Units=GPa)
#
#
# Indices 1 2 3 4 5 6 
#
# 1 200.1109 55.4025 27.0229 9.9920 22.2255 24.9295
# 2 55.4025 210.6970 23.9328 -10.2821 11.9886 26.4411
# 3 27.0229 23.9328 42.2235 4.1013 2.0203 -4.8002
# 4 9.9920 -10.2821 4.1013 43.3601 4.0399 19.9814
# 5 22.2255 11.9886 2.0203 4.0399 46.2038 3.5802
# 6 24.9295 26.4411 -4.8002 19.9814 3.5802 39.8668
#
#
#
# Elastic Compliance Matrix: (Units=1/GPa)
#
#
# Indices 1 2 3 4 5 6 
#
# 1 0.006532 -0.000402 -0.004492 0.001257 -0.002583 -0.004757
# 2 -0.000402 0.006708 -0.004902 0.005745 -0.001250 -0.007555
# 3 -0.004492 -0.004902 0.031923 -0.010146 0.001775 0.014830
# 4 0.001257 0.005745 -0.010146 0.036319 -0.002987 -0.023753
# 5 -0.002583 -0.001250 0.001775 -0.002987 0.023233 0.002068
# 6 -0.004757 -0.007555 0.014830 -0.023753 0.002068 0.046574
#
#
# Mechanical properties :
#
#
# Convention : Reuss Voigt Hill
#
# Bulk Modulus (GPa) = 39.10611 73.97197 56.53904
# Shear Modulus (GPa) = 27.86987 48.99770 38.43378
#
# Velocity S-wave (km/s) = 3.15934 4.18906 3.71010
# Velocity P-wave (km/s) = 5.22630 7.06331 6.21307
#
# Compressibility (1/GPa) = 0.02557145
#
# Stress axis : x y z
#
# Youngs Moduli (GPa) = 153.09845 149.06820 31.32515
#
# Poissons Ratio (x) = 0.05994 0.14070
# Poissons Ratio (y) = 0.06156 0.15356
# Poissons Ratio (z) = 0.68766 0.73076
#
# Static dielectric constant tensor:
#      x y z
#    x 3.282760 0.347380 1.966360 
#    y 0.347380 2.360860 0.874550 
#    z 1.966360 0.874550 6.753020 
# 
# From -- ./inp_files/52975.got.cif
#   From: 2010.05.17/outbox.cif.g08.bks.cpg/sg2_27_cif.got.tgz:52975.got - 2010.06.03 11:33:40.
