data_PCOD9087297
_publ_section_title
;
Structure prediction by ZEFSAII (Michael W. Deem and Ramdas Pophale) SiO2 
 PCOD9087297
Probable space group: P -1
;
_chemical_formula_sum "Si O2"
_cell_formula_units_Z 16
_cell_length_a 10.517622
_cell_length_b 8.654506
_cell_length_c 12.745906
_cell_angle_alpha 49.248799
_cell_angle_beta 120.156879
_cell_angle_gamma 88.542493
_cell_volume 639.875726
_symmetry_space_group_name_H-M "P -1"
_symmetry_group_IT_number 2
_symmetry_cell_setting 'triclinic'
loop_
_space_group_symop_operation_xyz
x,y,z
-x,-y,-z
loop_
_atom_site_type_symbol
_atom_site_label
_atom_site_fract_x
_atom_site_fract_y
_atom_site_fract_z
Si Si1 0.415372 0.678367 0.543890
Si Si2 0.820003 0.409162 0.812701
Si Si3 0.436712 0.204283 0.795772
Si Si4 0.872370 0.645652 0.542269
Si Si5 0.620397 0.140183 0.342582
Si Si6 0.203702 0.387287 0.059225
Si Si7 0.245963 0.944521 0.154370
Si Si8 0.860122 0.285465 0.306487
O O1 0.610071 0.599768 0.632187
O O2 0.434717 0.446244 0.711131
O O3 0.331804 0.889530 0.501084
O O4 0.310629 0.749924 0.361693
O O5 0.896655 0.441561 0.722335
O O6 0.853099 0.500963 0.896643
O O7 0.839878 0.146150 0.927034
O O8 0.242416 0.304425 0.629517
O O9 0.584924 0.085630 0.819147
O O10 0.500000 0.000000 0.000000
O O11 0.061013 0.609759 0.625613
O O12 0.741292 0.890131 0.444938
O O13 0.415645 0.248573 0.205971
O O14 0.676302 0.316359 0.238404
O O15 0.164805 0.193522 0.076887
O O16 0.136348 0.606565 0.851606
O O17 0.000000 0.000000 0.500000
#
# Coordination Sequence:
#
# PCOD9087297 Si02
#       8
#     2   2   2   2   2   2   2   2
#     4  10  19  36  62  95 127 161 215 276 322 369
#     4  10  20  37  66  98 129 168 215 274 328 383
#     4  11  22  35  63  97 130 170 211 269 331 386
#     4  11  20  42  64  91 133 176 210 263 346 385
#     4  10  21  37  67  93 123 166 228 268 320 388
#     4  11  22  39  70  99 122 171 229 274 320 381
#     4  11  20  38  65 101 130 160 225 277 320 383
#     4  10  25  41  62  90 136 178 210 269 337 399
#
# _framework density 25.004856
#
# number of rings (size 3 to 8) (size 9 to 14) (size 15 to 20)
#    0.000    1.500    3.750    1.875    1.750    8.500 
#    0.000    1.250    5.500    0.000    0.000    0.000 
#    0.000    0.000    0.000    0.000    0.000    0.000 
#
# Total GULP energy -89357.977543 kJ/mol
# GULP energy per Si atom -5584.873596 kJ/mol
# Density = 2.494794 g / cm^3
# Si number density = 25.004856 Si / 1000 Ang^3
#
#
#
# Elastic Constant Matrix: (Units=GPa)
#
#
# Indices 1 2 3 4 5 6 
#
# 1 46.5594 50.3164 16.6578 -13.2253 -7.5935 11.3825
# 2 50.3164 162.2460 48.9801 12.0581 -6.2723 -2.1580
# 3 16.6578 48.9801 126.8740 9.9538 -21.6369 10.8151
# 4 -13.2253 12.0581 9.9538 32.2971 5.0496 7.1559
# 5 -7.5935 -6.2723 -21.6369 5.0496 37.5738 -3.7575
# 6 11.3825 -2.1580 10.8151 7.1559 -3.7575 51.5643
#
#
#
# Elastic Compliance Matrix: (Units=1/GPa)
#
#
# Indices 1 2 3 4 5 6 
#
# 1 0.060213 -0.021411 -0.000679 0.036873 0.001342 -0.019065
# 2 -0.021411 0.014761 -0.002444 -0.015216 -0.000432 0.007937
# 3 -0.000679 -0.002444 0.010228 -0.003122 0.005639 -0.001253
# 4 0.036873 -0.015216 -0.003122 0.057345 -0.006246 -0.016535
# 5 0.001342 -0.000432 0.005639 -0.006246 0.031063 0.001634
# 6 -0.019065 0.007937 -0.001253 -0.016535 0.001634 0.026610
#
#
# Mechanical properties :
#
#
# Convention : Reuss Voigt Hill
#
# Bulk Modulus (GPa) = 27.67417 63.06534 45.36975
# Shear Modulus (GPa) = 19.13281 38.93540 29.03411
#
# Velocity S-wave (km/s) = 2.76916 3.95031 3.41125
# Velocity P-wave (km/s) = 4.61691 6.78841 5.80510
#
# Compressibility (1/GPa) = 0.03613478
#
# Stress axis : x y z
#
# Youngs Moduli (GPa) = 16.60782 67.74639 97.77301
#
# Poissons Ratio (x) = 1.45049 0.06638
# Poissons Ratio (y) = 0.35558 0.23894
# Poissons Ratio (z) = 0.01127 0.16556
#
# Static dielectric constant tensor:
#      x y z
#    x 2.016180 0.039140 0.039850 
#    y 0.039140 2.044000 -0.012890 
#    z 0.039850 -0.012890 2.016980 
# 
# From -- ./inp_files/418964.got.cif
#   From: 2010.05.17/outbox.cif.g08.bks.cpg/sg2_210_cif.got.tgz:418964.got - 2010.06.03 11:33:40.
