data_PCOD9087289
_publ_section_title
;
Structure prediction by ZEFSAII (Michael W. Deem and Ramdas Pophale) SiO2 
 PCOD9087289
Probable space group: P -1
;
_chemical_formula_sum "Si O2"
_cell_formula_units_Z 16
_cell_length_a 5.677377
_cell_length_b 17.370772
_cell_length_c 22.656123
_cell_angle_alpha 20.608562
_cell_angle_beta 96.787197
_cell_angle_gamma 109.319222
_cell_volume 606.443142
_symmetry_space_group_name_H-M "P -1"
_symmetry_group_IT_number 2
_symmetry_cell_setting 'triclinic'
loop_
_space_group_symop_operation_xyz
x,y,z
-x,-y,-z
loop_
_atom_site_type_symbol
_atom_site_label
_atom_site_fract_x
_atom_site_fract_y
_atom_site_fract_z
Si Si1 0.519811 0.568021 0.101640
Si Si2 0.878146 0.728244 0.596493
Si Si3 0.217451 0.774872 0.077413
Si Si4 0.466108 0.687605 0.820530
Si Si5 0.595990 0.140586 0.192443
Si Si6 0.921380 0.185353 0.835787
Si Si7 0.088337 0.161186 0.739745
Si Si8 0.142429 0.183484 0.596691
O O1 0.350850 0.334177 0.314695
O O2 0.674002 0.492412 0.113893
O O3 0.306294 0.599349 0.032449
O O4 0.748862 0.874285 0.919123
O O5 0.907658 0.485620 0.780898
O O6 0.737946 0.662516 0.573402
O O7 0.199020 0.033806 0.387500
O O8 0.036313 0.641319 0.230161
O O9 0.212704 0.007053 0.880066
O O10 0.568713 0.958484 0.972710
O O11 0.314591 0.778630 0.793854
O O12 0.500000 0.500000 0.000000
O O13 0.729940 0.992654 0.277310
O O14 0.222930 0.966427 0.308829
O O15 0.082477 0.321011 0.680663
O O16 0.000000 0.000000 0.000000
O O17 0.228632 0.316271 0.570000
#
# Coordination Sequence:
#
# PCOD9087289 Si02
#       8
#     2   2   2   2   2   2   2   2
#     4  10  19  36  62  93 126 167 224 267 313 370
#     4  11  21  37  60  97 126 168 214 276 313 368
#     4  10  20  37  65  95 124 160 211 265 315 382
#     4   9  20  39  60  88 132 175 216 261 320 381
#     4   9  20  41  59  86 122 176 215 258 313 383
#     4   9  19  38  64  94 124 159 206 256 327 387
#     4  10  20  37  64  92 125 173 211 255 319 394
#     4  10  22  37  61  89 129 168 210 257 322 376
#
# _framework density 26.383346
#
# number of rings (size 3 to 8) (size 9 to 14) (size 15 to 20)
#    0.000    2.250    1.250    1.875    1.750    2.000 
#    0.000   28.125    0.000    6.750    0.000    0.000 
#    0.000    0.000    0.000    0.000    0.000    0.000 
#
# Total GULP energy -89285.441555 kJ/mol
# GULP energy per Si atom -5580.340097 kJ/mol
# Density = 2.632330 g / cm^3
# Si number density = 26.383346 Si / 1000 Ang^3
#
#
#
# Elastic Constant Matrix: (Units=GPa)
#
#
# Indices 1 2 3 4 5 6 
#
# 1 102.2595 37.9345 19.0532 5.9680 -0.5636 -2.4787
# 2 37.9345 168.0482 11.4132 47.7413 -0.8535 -33.5760
# 3 19.0532 11.4132 77.3930 14.8324 -15.8452 2.6871
# 4 5.9680 47.7413 14.8324 43.4941 -11.9000 0.8730
# 5 -0.5636 -0.8535 -15.8452 -11.9000 35.6949 4.6022
# 6 -2.4787 -33.5760 2.6871 0.8730 4.6022 36.7196
#
#
#
# Elastic Compliance Matrix: (Units=1/GPa)
#
#
# Indices 1 2 3 4 5 6 
#
# 1 0.011553 -0.004242 -0.002794 0.004266 0.000660 -0.003078
# 2 -0.004242 0.015052 0.000275 -0.018422 -0.007642 0.014853
# 3 -0.002794 0.000275 0.015516 -0.003565 0.005884 -0.001725
# 4 0.004266 -0.018422 -0.003565 0.048847 0.016852 -0.019570
# 5 0.000660 -0.007642 0.005884 0.016852 0.037684 -0.012497
# 6 -0.003078 0.014853 -0.001725 -0.019570 -0.012497 0.042764
#
#
# Mechanical properties :
#
#
# Convention : Reuss Voigt Hill
#
# Bulk Modulus (GPa) = 34.96617 53.83361 44.39989
# Shear Modulus (GPa) = 25.71056 41.80171 33.75614
#
# Velocity S-wave (km/s) = 3.12508 3.98477 3.58082
# Velocity P-wave (km/s) = 5.12869 6.45134 5.82766
#
# Compressibility (1/GPa) = 0.02859907
#
# Stress axis : x y z
#
# Youngs Moduli (GPa) = 86.55516 66.43681 64.44823
#
# Poissons Ratio (x) = 0.28182 0.18009
# Poissons Ratio (y) = 0.36716 -0.01772
# Poissons Ratio (z) = 0.24187 -0.01827
#
# Static dielectric constant tensor:
#      x y z
#    x 2.208720 0.005990 -0.027040 
#    y 0.005990 2.181750 -0.023240 
#    z -0.027040 -0.023240 2.093480 
# 
# From -- ./inp_files/604958.got.cif
#   From: 2010.05.17/outbox.cif.g08.bks.cpg/sg2_303_cif.got.tgz:604958.got - 2010.06.03 11:33:40.
