data_PCOD9087561
_publ_section_title
;
Structure prediction by ZEFSAII (Michael W. Deem and Ramdas Pophale) SiO2 
 PCOD9087561
Probable space group: P -1
;
_chemical_formula_sum "Si O2"
_cell_formula_units_Z 16
_cell_length_a 14.782109
_cell_length_b 15.740098
_cell_length_c 10.638046
_cell_angle_alpha 62.032130
_cell_angle_beta 45.518894
_cell_angle_gamma 26.881902
_cell_volume 698.954396
_symmetry_space_group_name_H-M "P -1"
_symmetry_group_IT_number 2
_symmetry_cell_setting 'triclinic'
loop_
_space_group_symop_operation_xyz
x,y,z
-x,-y,-z
loop_
_atom_site_type_symbol
_atom_site_label
_atom_site_fract_x
_atom_site_fract_y
_atom_site_fract_z
Si Si1 0.306793 0.329912 0.288286
Si Si2 0.838513 0.219668 0.736924
Si Si3 0.525311 0.354722 0.196664
Si Si4 0.388481 0.400998 0.911113
Si Si5 0.892375 0.300992 0.230459
Si Si6 0.316131 0.757581 0.599748
Si Si7 0.500091 0.956704 0.870335
Si Si8 0.702294 0.721052 0.067726
O O1 0.443405 0.300619 0.284994
O O2 0.000000 0.500000 0.500000
O O3 0.469568 0.123850 0.229838
O O4 0.303904 0.405065 0.119414
O O5 0.755574 0.387725 0.699542
O O6 0.649934 0.292622 0.764487
O O7 0.714669 0.265204 0.959337
O O8 0.155265 0.966722 0.589439
O O9 0.683699 0.257763 0.240564
O O10 0.155083 0.624992 0.915351
O O11 0.432945 0.285441 0.847549
O O12 0.636270 0.520508 0.407375
O O13 0.860002 0.208519 0.318634
O O14 0.196737 0.126355 0.100660
O O15 0.477801 0.086181 0.801574
O O16 0.729809 0.762818 0.881113
O O17 0.000000 0.500000 0.000000
#
# Coordination Sequence:
#
# PCOD9087561 Si02
#       8
#     2   2   2   2   2   2   2   2
#     4  10  23  45  65  90 124 169 216 267 313 375
#     4  10  21  41  65  95 127 174 212 260 323 366
#     4  10  21  41  65  92 128 167 217 268 305 383
#     4  10  20  40  66  90 132 164 206 264 319 385
#     4  11  22  40  61  95 135 167 207 263 326 384
#     4  11  23  38  62  98 131 167 214 261 317 386
#     4  10  22  40  62  88 126 170 205 259 328 368
#     4  10  19  36  64  92 115 163 210 251 307 385
#
# _framework density 22.891335999999999
#
# number of rings (size 3 to 8) (size 9 to 14) (size 15 to 20)
#    0.000    1.750    2.500    2.625    0.000    3.500 
#    6.750    0.625    0.000    0.000    0.000    0.000 
#    0.000    0.000    0.000    0.000    0.000    0.000 
#
# Total GULP energy -89353.992562 kJ/mol
# GULP energy per Si atom -5584.624535 kJ/mol
# Density = 2.283923 g / cm^3
# Si number density = 22.891336 Si / 1000 Ang^3
#
#
#
# Elastic Constant Matrix: (Units=GPa)
#
#
# Indices 1 2 3 4 5 6 
#
# 1 129.2223 29.0670 30.7272 15.4941 16.0671 21.8907
# 2 29.0670 101.3989 7.3543 23.1527 17.3810 12.0201
# 3 30.7272 7.3543 47.8146 10.3376 3.3160 9.4137
# 4 15.4941 23.1527 10.3376 29.9819 3.0745 8.8193
# 5 16.0671 17.3810 3.3160 3.0745 13.2385 4.1035
# 6 21.8907 12.0201 9.4137 8.8193 4.1035 51.1765
#
#
#
# Elastic Compliance Matrix: (Units=1/GPa)
#
#
# Indices 1 2 3 4 5 6 
#
# 1 0.011037 -0.000259 -0.005440 -0.001815 -0.010495 -0.002505
# 2 -0.000259 0.015210 0.001336 -0.010115 -0.017465 -0.000564
# 3 -0.005440 0.001336 0.025952 -0.006731 0.000416 -0.001634
# 4 -0.001815 -0.010115 -0.006731 0.044770 0.008002 -0.003966
# 5 -0.010495 -0.017465 0.000416 0.008002 0.109759 -0.001665
# 6 -0.002505 -0.000564 -0.001634 -0.003966 -0.001665 0.021862
#
#
# Mechanical properties :
#
#
# Convention : Reuss Voigt Hill
#
# Bulk Modulus (GPa) = 23.00184 45.85921 34.43053
# Shear Modulus (GPa) = 19.85654 32.96519 26.41087
#
# Velocity S-wave (km/s) = 2.94841 3.79895 3.40037
# Velocity P-wave (km/s) = 4.65412 6.27053 5.52180
#
# Compressibility (1/GPa) = 0.04347478
#
# Stress axis : x y z
#
# Youngs Moduli (GPa) = 90.60213 65.74769 38.53213
#
# Poissons Ratio (x) = 0.01703 0.20960
# Poissons Ratio (y) = 0.02347 -0.05149
# Poissons Ratio (z) = 0.49283 -0.08786
#
# Static dielectric constant tensor:
#      x y z
#    x 1.871980 0.032670 0.029590 
#    y 0.032670 1.897870 -0.008170 
#    z 0.029590 -0.008170 1.867350 
# 
# From -- ./inp_files/455692.got.cif
#   From: 2010.05.17/outbox.cif.g08.bks.cpg/sg2_228_cif.got.tgz:455692.got - 2010.06.03 11:33:40.
