data_PCOD9087326
_publ_section_title
;
Structure prediction by ZEFSAII (Michael W. Deem and Ramdas Pophale) SiO2 
 PCOD9087326
Probable space group: P -1
;
_chemical_formula_sum "Si O2"
_cell_formula_units_Z 16
_cell_length_a 14.710852
_cell_length_b 8.556889
_cell_length_c 12.123851
_cell_angle_alpha 100.648745
_cell_angle_beta 38.177957
_cell_angle_gamma 120.751511
_cell_volume 739.843834
_symmetry_space_group_name_H-M "P -1"
_symmetry_group_IT_number 2
_symmetry_cell_setting 'triclinic'
loop_
_space_group_symop_operation_xyz
x,y,z
-x,-y,-z
loop_
_atom_site_type_symbol
_atom_site_label
_atom_site_fract_x
_atom_site_fract_y
_atom_site_fract_z
Si Si1 0.963186 0.137303 0.239544
Si Si2 0.808672 0.424517 0.836102
Si Si3 0.649599 0.118372 0.775546
Si Si4 0.705746 0.825014 0.145183
Si Si5 0.333392 0.874104 0.881215
Si Si6 0.444115 0.124309 0.505668
Si Si7 0.139886 0.076681 0.476170
Si Si8 0.496185 0.475708 0.131979
O O1 0.032044 0.346739 0.256810
O O2 0.760571 0.022887 0.368904
O O3 0.958108 0.001490 0.323303
O O4 0.115545 0.170668 0.013562
O O5 0.787993 0.340861 0.721529
O O6 0.798455 0.277405 0.916776
O O7 0.621342 0.403618 0.027856
O O8 0.522558 0.062350 0.782707
O O9 0.756082 0.023716 0.647785
O O10 0.500000 0.000000 0.000000
O O11 0.578489 0.753058 0.365826
O O12 0.593860 0.679319 0.130748
O O13 0.751333 0.036965 0.096337
O O14 0.404819 0.775847 0.722656
O O15 0.500000 0.000000 0.500000
O O16 0.292253 0.311449 0.348742
O O17 0.000000 0.000000 0.500000
O O18 0.500000 0.500000 0.000000
#
# Coordination Sequence:
#
# PCOD9087326 Si02
#       8
#     2   2   2   2   2   2   2   2
#     4  11  23  42  60  93 127 156 203 260 305 360
#     4  10  21  36  64  89 120 164 204 244 308 373
#     4  10  19  36  63  83 123 163 202 233 314 359
#     4  10  23  38  68  87 119 165 205 250 312 360
#     4  10  19  40  64  86 121 166 204 251 301 361
#     4  10  21  43  63  88 120 161 212 258 301 357
#     4  12  24  38  59  95 132 158 196 255 306 365
#     4  11  21  40  61  91 123 161 204 247 306 370
#
# _framework density 21.626187999999999
#
# number of rings (size 3 to 8) (size 9 to 14) (size 15 to 20)
#    0.000    1.500    3.750    2.625    5.250    0.500 
#    4.500    9.375    0.000    0.000    0.000    0.000 
#    0.000    0.000    0.000    0.000    0.000    0.000 
#
# Total GULP energy -89310.158526 kJ/mol
# GULP energy per Si atom -5581.884908 kJ/mol
# Density = 2.157697 g / cm^3
# Si number density = 21.626188 Si / 1000 Ang^3
#
#
#
# Elastic Constant Matrix: (Units=GPa)
#
#
# Indices 1 2 3 4 5 6 
#
# 1 69.5387 2.1661 -8.0207 -7.1685 -5.0568 6.9071
# 2 2.1661 66.0995 19.0685 1.8885 5.9044 7.8192
# 3 -8.0207 19.0685 57.9112 12.1550 3.2506 5.8903
# 4 -7.1685 1.8885 12.1550 40.0092 2.3248 1.7518
# 5 -5.0568 5.9044 3.2506 2.3248 34.3483 5.3726
# 6 6.9071 7.8192 5.8903 1.7518 5.3726 29.3352
#
#
#
# Elastic Compliance Matrix: (Units=1/GPa)
#
#
# Indices 1 2 3 4 5 6 
#
# 1 0.015552 -0.000956 0.002317 0.002163 0.002794 -0.004513
# 2 -0.000956 0.017291 -0.005610 0.000972 -0.002192 -0.002914
# 3 0.002317 -0.005610 0.020891 -0.005547 0.000164 -0.002944
# 4 0.002163 0.000972 -0.005547 0.027127 -0.000989 -0.001093
# 5 0.002794 -0.002192 0.000164 -0.000989 0.030844 -0.005697
# 6 -0.004513 -0.002914 -0.002944 -0.001093 -0.005697 0.037628
#
#
# Mechanical properties :
#
#
# Convention : Reuss Voigt Hill
#
# Bulk Modulus (GPa) = 22.10658 24.44191 23.27425
# Shear Modulus (GPa) = 28.91694 32.76089 30.83891
#
# Velocity S-wave (km/s) = 3.66064 3.89636 3.78034
# Velocity P-wave (km/s) = 5.30202 5.61860 5.46260
#
# Compressibility (1/GPa) = 0.04523540
#
# Stress axis : x y z
#
# Youngs Moduli (GPa) = 64.30084 57.83262 47.86848
#
# Poissons Ratio (x) = 0.05526 -0.11090
# Poissons Ratio (y) = 0.06144 0.26856
# Poissons Ratio (z) = -0.14897 0.32447
#
# Static dielectric constant tensor:
#      x y z
#    x 1.816310 0.021730 0.019580 
#    y 0.021730 1.842310 -0.004270 
#    z 0.019580 -0.004270 1.866210 
# 
# From -- ./inp_files/208801.got.cif
#   From: 2010.05.17/outbox.cif.g08.bks.cpg/sg2_105_cif.got.tgz:208801.got - 2010.06.03 11:33:40.
