data_PCOD9087219
_publ_section_title
;
Structure prediction by ZEFSAII (Michael W. Deem and Ramdas Pophale) SiO2 
 PCOD9087219
Probable space group: P -1
;
_chemical_formula_sum "Si O2"
_cell_formula_units_Z 16
_cell_length_a 12.170408
_cell_length_b 8.689956
_cell_length_c 18.383929
_cell_angle_alpha 52.479662
_cell_angle_beta 34.280851
_cell_angle_gamma 75.948426
_cell_volume 705.694450
_symmetry_space_group_name_H-M "P -1"
_symmetry_group_IT_number 2
_symmetry_cell_setting 'triclinic'
loop_
_space_group_symop_operation_xyz
x,y,z
-x,-y,-z
loop_
_atom_site_type_symbol
_atom_site_label
_atom_site_fract_x
_atom_site_fract_y
_atom_site_fract_z
Si Si1 0.873794 0.008494 0.863205
Si Si2 0.508360 0.510011 0.267802
Si Si3 0.962462 0.742872 0.761520
Si Si4 0.633035 0.535379 0.490812
Si Si5 0.952283 0.263049 0.621830
Si Si6 0.830284 0.385439 0.055062
Si Si7 0.237288 0.120213 0.285547
Si Si8 0.420395 0.948051 0.352795
O O1 0.108989 0.207996 0.721375
O O2 0.818145 0.165015 0.800044
O O3 0.937686 0.886167 0.799792
O O4 0.654563 0.791265 0.089460
O O5 0.527808 0.475539 0.352013
O O6 0.226171 0.350647 0.455058
O O7 0.622456 0.416784 0.180978
O O8 0.770394 0.689829 0.817377
O O9 0.216697 0.888129 0.539936
O O10 0.942356 0.529925 0.877537
O O11 0.500000 0.500000 0.500000
O O12 0.648750 0.310520 0.560071
O O13 0.000000 0.500000 0.500000
O O14 0.810795 0.066263 0.695619
O O15 0.684333 0.104473 0.200252
O O16 0.000000 0.500000 0.000000
O O17 0.419446 0.115383 0.242252
O O18 0.000000 0.000000 0.500000
#
# Coordination Sequence:
#
# PCOD9087219 Si02
#       8
#     2   2   2   2   2   2   2   2
#     4   9  20  40  60  87 121 162 209 246 306 368
#     4  10  22  42  61  87 125 161 208 259 304 370
#     4   9  21  40  66  91 118 162 208 256 306 370
#     4  11  25  38  60  88 125 169 203 256 318 362
#     4  10  19  36  62  89 121 163 205 246 308 377
#     4  11  25  41  65  91 121 166 218 251 300 373
#     4   9  17  35  61  87 121 152 194 254 310 361
#     4  11  23  40  61  92 126 160 203 260 314 364
#
# _framework density 22.672699999999999
#
# number of rings (size 3 to 8) (size 9 to 14) (size 15 to 20)
#    0.000    2.000    0.000    4.500    5.250    3.000 
#    0.000    5.000    0.000    0.000    0.000    0.000 
#    0.000    0.000    0.000    0.000    0.000    0.000 
#
# Total GULP energy -89145.602726 kJ/mol
# GULP energy per Si atom -5571.600170 kJ/mol
# Density = 2.262110 g / cm^3
# Si number density = 22.672700 Si / 1000 Ang^3
#
#
#
# Elastic Constant Matrix: (Units=GPa)
#
#
# Indices 1 2 3 4 5 6 
#
# 1 119.3176 4.0886 40.4503 3.8860 3.0633 24.1975
# 2 4.0886 18.2068 -0.9133 -6.1244 1.6872 5.8140
# 3 40.4503 -0.9133 108.2672 -11.1159 7.5554 11.0956
# 4 3.8860 -6.1244 -11.1159 20.0885 9.5481 4.6921
# 5 3.0633 1.6872 7.5554 9.5481 34.3536 -5.9947
# 6 24.1975 5.8140 11.0956 4.6921 -5.9947 31.7341
#
#
#
# Elastic Compliance Matrix: (Units=1/GPa)
#
#
# Indices 1 2 3 4 5 6 
#
# 1 0.011152 -0.001625 -0.003806 -0.003075 -0.000355 -0.006487
# 2 -0.001625 0.086797 0.012067 0.053932 -0.027349 -0.032023
# 3 -0.003806 0.012067 0.014442 0.019538 -0.010469 -0.009225
# 4 -0.003075 0.053932 0.019538 0.107082 -0.043125 -0.038347
# 5 -0.000355 -0.027349 -0.010469 -0.043125 0.049063 0.024586
# 6 -0.006487 -0.032023 -0.009225 -0.038347 0.024586 0.055865
#
#
# Mechanical properties :
#
#
# Convention : Reuss Voigt Hill
#
# Bulk Modulus (GPa) = 7.95785 37.00477 22.48131
# Shear Modulus (GPa) = 14.16362 30.71296 22.43829
#
# Velocity S-wave (km/s) = 2.50211 3.68451 3.14930
# Velocity P-wave (km/s) = 3.44455 5.87006 4.81261
#
# Compressibility (1/GPa) = 0.12566202
#
# Stress axis : x y z
#
# Youngs Moduli (GPa) = 89.67032 11.52114 69.24127
#
# Poissons Ratio (x) = 0.01873 0.26356
# Poissons Ratio (y) = 0.14574 -0.83555
# Poissons Ratio (z) = 0.34132 -0.13903
#
# Static dielectric constant tensor:
#      x y z
#    x 1.944890 -0.047770 0.038230 
#    y -0.047770 1.886160 -0.055660 
#    z 0.038230 -0.055660 1.852480 
# 
# From -- ./inp_files/532149.got.cif
#   From: 2010.05.17/outbox.cif.g08.bks.cpg/sg2_267_cif.got.tgz:532149.got - 2010.06.03 11:33:40.
