data_PCOD9087502
_publ_section_title
;
Structure prediction by ZEFSAII (Michael W. Deem and Ramdas Pophale) SiO2 
 PCOD9087502
Probable space group: P -1
;
_chemical_formula_sum "Si O2"
_cell_formula_units_Z 16
_cell_length_a 8.041594
_cell_length_b 22.550844
_cell_length_c 15.145930
_cell_angle_alpha 19.545368
_cell_angle_beta 43.110887
_cell_angle_gamma 40.622674
_cell_volume 596.895120
_symmetry_space_group_name_H-M "P -1"
_symmetry_group_IT_number 2
_symmetry_cell_setting 'triclinic'
loop_
_space_group_symop_operation_xyz
x,y,z
-x,-y,-z
loop_
_atom_site_type_symbol
_atom_site_label
_atom_site_fract_x
_atom_site_fract_y
_atom_site_fract_z
Si Si1 0.149017 0.129775 0.962596
Si Si2 0.930961 0.709793 0.827975
Si Si3 0.743495 0.592045 0.610480
Si Si4 0.174730 0.270151 0.352114
Si Si5 0.177495 0.850497 0.207312
Si Si6 0.291237 0.360395 0.723269
Si Si7 0.601815 0.348796 0.866124
Si Si8 0.601730 0.274172 0.290037
O O1 0.844920 0.165449 0.025739
O O2 0.187536 0.290355 0.659245
O O3 0.215750 0.188871 0.949187
O O4 0.281563 0.941676 0.122965
O O5 0.892125 0.798064 0.621106
O O6 0.098185 0.790774 0.715693
O O7 0.657242 0.699182 0.979639
O O8 0.101355 0.493243 0.055408
O O9 0.618291 0.447863 0.815371
O O10 0.547097 0.735952 0.547621
O O11 0.020254 0.479161 0.704098
O O12 0.469406 0.191776 0.379652
O O13 0.996235 0.246280 0.535103
O O14 0.422205 0.731744 0.222647
O O15 0.000000 0.000000 0.000000
O O16 0.356659 0.498627 0.431896
O O17 0.500000 0.500000 0.000000
#
# Coordination Sequence:
#
# PCOD9087502 Si02
#       8
#     2   2   2   2   2   2   2   2
#     4   9  20  35  59  85 114 152 190 239 294 355
#     4  10  19  36  64  86 112 156 198 247 291 337
#     4   9  17  34  58  89 116 143 192 252 288 335
#     4  10  21  36  56  88 118 148 198 246 283 347
#     4  12  23  38  52  84 126 158 187 235 298 360
#     4   9  19  36  60  83 114 152 194 239 291 344
#     4   9  16  35  61  90 112 141 201 249 285 337
#     4  10  20  33  56  92 116 144 192 249 294 334
#
# _framework density 26.805378000000001
#
# number of rings (size 3 to 8) (size 9 to 14) (size 15 to 20)
#    0.000    2.250    1.250    4.875    1.750    0.000 
#    6.750    2.500    0.000    0.750    0.000    0.000 
#    0.000    0.000    0.000    0.000    0.000    0.000 
#
# Total GULP energy -89440.113791 kJ/mol
# GULP energy per Si atom -5590.007112 kJ/mol
# Density = 2.674437 g / cm^3
# Si number density = 26.805378 Si / 1000 Ang^3
#
#
#
# Elastic Constant Matrix: (Units=GPa)
#
#
# Indices 1 2 3 4 5 6 
#
# 1 166.1940 41.8095 50.4058 16.1345 -22.6589 -25.1080
# 2 41.8095 83.0535 28.1113 14.9846 -16.0296 -26.4969
# 3 50.4058 28.1113 54.8815 6.7828 -1.2284 -7.7355
# 4 16.1345 14.9846 6.7828 31.9963 -3.0891 -14.4201
# 5 -22.6589 -16.0296 -1.2284 -3.0891 36.1062 3.7888
# 6 -25.1080 -26.4969 -7.7355 -14.4201 3.7888 56.7128
#
#
#
# Elastic Compliance Matrix: (Units=1/GPa)
#
#
# Indices 1 2 3 4 5 6 
#
# 1 0.009822 0.000009 -0.008365 -0.001549 0.005493 0.002450
# 2 0.000009 0.018828 -0.008163 -0.003562 0.007120 0.006305
# 3 -0.008365 -0.008163 0.029524 -0.000332 -0.007576 -0.003069
# 4 -0.001549 -0.003562 -0.000332 0.036914 -0.000141 0.007000
# 5 0.005493 0.007120 -0.007576 -0.000141 0.033779 0.002433
# 6 0.002450 0.006305 -0.003069 0.007000 0.002433 0.022862
#
#
# Mechanical properties :
#
#
# Convention : Reuss Voigt Hill
#
# Bulk Modulus (GPa) = 39.78738 60.53136 50.15937
# Shear Modulus (GPa) = 25.88691 37.21655 31.55173
#
# Velocity S-wave (km/s) = 3.11100 3.73016 3.43456
# Velocity P-wave (km/s) = 5.27065 6.41740 5.87208
#
# Compressibility (1/GPa) = 0.02513359
#
# Stress axis : x y z
#
# Youngs Moduli (GPa) = 101.81708 53.11319 33.87021
#
# Poissons Ratio (x) = -0.00046 0.28333
# Poissons Ratio (y) = -0.00087 0.27650
# Poissons Ratio (z) = 0.85172 0.43358
#
# Static dielectric constant tensor:
#      x y z
#    x 2.331270 0.191050 0.184740 
#    y 0.191050 2.311580 0.267920 
#    z 0.184740 0.267920 2.398170 
# 
# From -- ./inp_files/563405.got.cif
#   From: 2010.05.17/outbox.cif.g08.bks.cpg/sg2_282_cif.got.tgz:563405.got - 2010.06.03 11:33:40.
