data_PCOD9087556
_publ_section_title
;
Structure prediction by ZEFSAII (Michael W. Deem and Ramdas Pophale) SiO2 
 PCOD9087556
Probable space group: P -1
;
_chemical_formula_sum "Si O2"
_cell_formula_units_Z 16
_cell_length_a 23.077996
_cell_length_b 13.026493
_cell_length_c 9.545459
_cell_angle_alpha 134.484945
_cell_angle_beta 133.310181
_cell_angle_gamma 22.472154
_cell_volume 774.728152
_symmetry_space_group_name_H-M "P -1"
_symmetry_group_IT_number 2
_symmetry_cell_setting 'triclinic'
loop_
_space_group_symop_operation_xyz
x,y,z
-x,-y,-z
loop_
_atom_site_type_symbol
_atom_site_label
_atom_site_fract_x
_atom_site_fract_y
_atom_site_fract_z
Si Si1 0.784107 0.817453 0.074149
Si Si2 0.435487 0.661989 0.405302
Si Si3 0.614189 0.664299 0.700123
Si Si4 0.524010 0.594933 0.023022
Si Si5 0.341278 0.335795 0.539796
Si Si6 0.919375 0.480448 0.702562
Si Si7 0.700178 0.732230 0.112562
Si Si8 0.155733 0.295929 0.490163
O O1 0.732450 0.798991 0.103509
O O2 0.897898 0.775623 0.261291
O O3 0.882088 0.575371 0.892374
O O4 0.636292 0.095913 0.007636
O O5 0.500000 0.500000 0.500000
O O6 0.567223 0.574512 0.503907
O O7 0.284784 0.991559 0.472565
O O8 0.405041 0.585760 0.170160
O O9 0.673499 0.628297 0.617547
O O10 0.461334 0.985780 0.806689
O O11 0.717282 0.551001 0.894551
O O12 0.621207 0.571887 0.233264
O O13 0.500000 0.500000 0.000000
O O14 0.183542 0.501781 0.482242
O O15 0.500000 0.000000 0.500000
O O16 0.849299 0.700023 0.681756
O O17 0.812188 0.594212 0.292897
O O18 0.000000 0.500000 0.500000
#
# Coordination Sequence:
#
# PCOD9087556 Si02
#       8
#     2   2   2   2   2   2   2   2
#     4  11  22  39  62  96 129 174 213 267 329 392
#     4  11  24  39  64  93 130 170 214 269 335 395
#     4  10  20  36  59  95 124 163 215 272 322 378
#     4  12  23  40  65  93 132 175 218 268 333 392
#     4  12  21  39  65  97 131 167 226 276 317 387
#     4  11  23  38  65  96 130 165 223 272 321 380
#     4  10  19  36  64  91 125 161 216 273 320 374
#     4  11  22  40  65  96 125 170 220 269 319 394
#
# _framework density 20.652405000000002
#
# number of rings (size 3 to 8) (size 9 to 14) (size 15 to 20)
#    0.000    1.000    5.000    3.750    0.000    3.000 
#    0.000    0.625    2.750    1.500    0.000    0.000 
#    0.000    0.000    0.000    0.000    0.000    0.000 
#
# Total GULP energy -89073.922829 kJ/mol
# GULP energy per Si atom -5567.120177 kJ/mol
# Density = 2.060540 g / cm^3
# Si number density = 20.652405 Si / 1000 Ang^3
#
#
#
# Elastic Constant Matrix: (Units=GPa)
#
#
# Indices 1 2 3 4 5 6 
#
# 1 108.6928 22.2726 26.7227 -7.2369 -4.9181 -9.1605
# 2 22.2726 31.9735 10.7125 -14.4445 3.7148 -6.1575
# 3 26.7227 10.7125 155.6610 -7.9230 7.3043 -13.5683
# 4 -7.2369 -14.4445 -7.9230 25.4948 -3.9965 2.6990
# 5 -4.9181 3.7148 7.3043 -3.9965 47.0671 -12.9960
# 6 -9.1605 -6.1575 -13.5683 2.6990 -12.9960 21.5453
#
#
#
# Elastic Compliance Matrix: (Units=1/GPa)
#
#
# Indices 1 2 3 4 5 6 
#
# 1 0.011485 -0.007874 -0.001318 -0.001550 0.002935 0.003767
# 2 -0.007874 0.049529 -0.000129 0.024926 -0.000595 0.007245
# 3 -0.001318 -0.000129 0.007047 0.001344 -0.000112 0.003605
# 4 -0.001550 0.024926 0.001344 0.053524 0.002849 0.002324
# 5 0.002935 -0.000595 -0.000112 0.002849 0.026443 0.016601
# 6 0.003767 0.007245 0.003605 0.002324 0.016601 0.062078
#
#
# Mechanical properties :
#
#
# Convention : Reuss Voigt Hill
#
# Bulk Modulus (GPa) = 20.23490 46.19365 33.21427
# Shear Modulus (GPa) = 20.38967 34.59607 27.49287
#
# Velocity S-wave (km/s) = 3.14551 4.09731 3.65255
# Velocity P-wave (km/s) = 4.79702 6.69326 5.82285
#
# Compressibility (1/GPa) = 0.04941957
#
# Stress axis : x y z
#
# Youngs Moduli (GPa) = 87.07079 20.19004 141.89991
#
# Poissons Ratio (x) = 0.15898 0.18702
# Poissons Ratio (y) = 0.68563 0.01826
# Poissons Ratio (z) = 0.11476 0.00260
#
# Static dielectric constant tensor:
#      x y z
#    x 1.824580 0.001630 0.066320 
#    y 0.001630 1.706210 -0.006820 
#    z 0.066320 -0.006820 1.824080 
# 
# From -- ./inp_files/281608.got.cif
#   From: 2010.05.17/outbox.cif.g08.bks.cpg/sg2_141_cif.got.tgz:281608.got - 2010.06.03 11:33:40.
