data_PCOD9087865
_publ_section_title
;
Structure prediction by ZEFSAII (Michael W. Deem and Ramdas Pophale) SiO2 
 PCOD9087865
Probable space group: P -1
;
_chemical_formula_sum "Si O2"
_cell_formula_units_Z 14
_cell_length_a 18.615892
_cell_length_b 7.873941
_cell_length_c 9.153578
_cell_angle_alpha 125.933683
_cell_angle_beta 143.781289
_cell_angle_gamma 75.935245
_cell_volume 562.556108
_symmetry_space_group_name_H-M "P -1"
_symmetry_group_IT_number 2
_symmetry_cell_setting 'triclinic'
loop_
_space_group_symop_operation_xyz
x,y,z
-x,-y,-z
loop_
_atom_site_type_symbol
_atom_site_label
_atom_site_fract_x
_atom_site_fract_y
_atom_site_fract_z
Si Si1 0.844257 0.045210 0.076704
Si Si2 0.412774 0.014371 0.230716
Si Si3 0.154509 0.257218 0.670958
Si Si4 0.650377 0.273242 0.293115
Si Si5 0.905279 0.227409 0.754775
Si Si6 0.344014 0.420470 0.308541
Si Si7 0.837186 0.753029 0.661768
O O1 0.005148 0.235604 0.443382
O O2 0.745497 0.128151 0.036726
O O3 0.798341 0.788370 0.950806
O O4 0.811722 0.950543 0.807683
O O5 0.428667 0.276135 0.358749
O O6 0.500000 0.000000 0.500000
O O7 0.435947 0.918225 0.067660
O O8 0.192714 0.282769 0.576280
O O9 0.127115 0.985480 0.521429
O O10 0.276344 0.449969 0.065483
O O11 0.754801 0.205882 0.518153
O O12 0.583242 0.364442 0.350784
O O13 0.740206 0.503105 0.455087
O O14 0.000000 0.500000 0.000000
O O15 0.004779 0.191619 0.016022
#
# Coordination Sequence:
#
# PCOD9087865 Si02
#       7
#     2   2   2   2   2   2   2
#     4   8  17  32  51  83 107 147 178 216 274 318
#     4  10  21  37  60  81 103 143 197 238 265 310
#     4  11  17  33  55  86 123 146 170 223 287 336
#     4  10  19  37  55  84 109 145 187 228 265 335
#     4   9  16  28  51  81 114 146 179 213 263 332
#     4   9  20  33  57  84 110 144 181 228 281 320
#     4   9  19  31  54  87 119 148 170 223 283 333
#
# _framework density 24.886405
#
# number of rings (size 3 to 8) (size 9 to 14) (size 15 to 20)
#    0.857    1.714    1.429    3.000    0.000    4.000 
#    0.000    4.286    0.000    1.714    0.000    0.000 
#    0.000    0.000    0.000    0.000    0.000    0.000 
#
# Total GULP energy -78093.897797 kJ/mol
# GULP energy per Si atom -5578.135557 kJ/mol
# Density = 2.482976 g / cm^3
# Si number density = 24.886405 Si / 1000 Ang^3
#
#
#
# Elastic Constant Matrix: (Units=GPa)
#
#
# Indices 1 2 3 4 5 6 
#
# 1 76.5183 9.3692 61.8910 4.4873 -19.2561 7.9549
# 2 9.3692 63.0067 49.0595 -3.4679 -23.3613 -8.7063
# 3 61.8910 49.0595 138.0379 -12.3643 -48.5308 -8.6094
# 4 4.4873 -3.4679 -12.3643 32.0652 1.8371 -9.3710
# 5 -19.2561 -23.3613 -48.5308 1.8371 51.3065 6.4509
# 6 7.9549 -8.7063 -8.6094 -9.3710 6.4509 33.7074
#
#
#
# Elastic Compliance Matrix: (Units=1/GPa)
#
#
# Indices 1 2 3 4 5 6 
#
# 1 0.028155 0.006379 -0.017142 -0.013639 -0.000614 -0.013049
# 2 0.006379 0.024345 -0.010384 -0.002234 0.003635 0.000814
# 3 -0.017142 -0.010384 0.023708 0.012506 0.009678 0.009043
# 4 -0.013639 -0.002234 0.012506 0.042618 0.001992 0.017303
# 5 -0.000614 0.003635 0.009678 0.001992 0.030209 -0.001672
# 6 -0.013049 0.000814 0.009043 0.017303 -0.001672 0.040397
#
#
# Mechanical properties :
#
#
# Convention : Reuss Voigt Hill
#
# Bulk Modulus (GPa) = 29.48658 57.57803 43.53231
# Shear Modulus (GPa) = 20.57344 33.89868 27.23606
#
# Velocity S-wave (km/s) = 2.87835 3.69472 3.31178
# Velocity P-wave (km/s) = 4.78756 6.43334 5.67047
#
# Compressibility (1/GPa) = 0.03391373
#
# Stress axis : x y z
#
# Youngs Moduli (GPa) = 35.51776 41.07555 42.17996
#
# Poissons Ratio (x) = -0.26204 0.72306
# Poissons Ratio (y) = -0.22658 0.43801
# Poissons Ratio (z) = 0.60886 0.42654
#
# Static dielectric constant tensor:
#      x y z
#    x 2.080750 0.065550 0.031070 
#    y 0.065550 2.055070 0.035690 
#    z 0.031070 0.035690 1.991250 
# 
# From -- ./inp_files/342297.got.cif
#   From: 2010.05.17/outbox.cif.g08.bks.cpg/sg2_172_cif.got.tgz:342297.got - 2010.06.03 11:33:40.
