data_PCOD9087382
_publ_section_title
;
Structure prediction by ZEFSAII (Michael W. Deem and Ramdas Pophale) SiO2 
 PCOD9087382
Probable space group: P -1
;
_chemical_formula_sum "Si O2"
_cell_formula_units_Z 16
_cell_length_a 9.960299
_cell_length_b 25.127793
_cell_length_c 18.862925
_cell_angle_alpha 163.145000
_cell_angle_beta 147.133589
_cell_angle_gamma 41.411868
_cell_volume 697.946584
_symmetry_space_group_name_H-M "P -1"
_symmetry_group_IT_number 2
_symmetry_cell_setting 'triclinic'
loop_
_space_group_symop_operation_xyz
x,y,z
-x,-y,-z
loop_
_atom_site_type_symbol
_atom_site_label
_atom_site_fract_x
_atom_site_fract_y
_atom_site_fract_z
Si Si1 0.378235 0.247873 0.956798
Si Si2 0.656256 0.810153 0.672405
Si Si3 0.944744 0.752318 0.587960
Si Si4 0.779237 0.943457 0.487733
Si Si5 0.658968 0.899303 0.536658
Si Si6 0.257178 0.493801 0.433926
Si Si7 0.829213 0.134610 0.537186
Si Si8 0.942285 0.680655 0.742190
O O1 0.404654 0.243893 0.878893
O O2 0.093235 0.275395 0.871650
O O3 0.322951 0.027307 0.679776
O O4 0.600940 0.373963 0.267095
O O5 0.364672 0.774649 0.470061
O O6 0.683037 0.701942 0.617981
O O7 0.816499 0.746241 0.600557
O O8 0.808237 0.043324 0.046769
O O9 0.066542 0.582264 0.420915
O O10 0.725862 0.755713 0.437921
O O11 0.771812 0.884332 0.489928
O O12 0.055633 0.977903 0.614768
O O13 0.633462 0.099757 0.607814
O O14 0.830687 0.115427 0.917210
O O15 0.500000 0.500000 0.500000
O O16 0.916650 0.685376 0.822559
O O17 0.000000 0.500000 0.500000
#
# Coordination Sequence:
#
# PCOD9087382 Si02
#       8
#     2   2   2   2   2   2   2   2
#     4   9  19  36  60  86 114 155 201 241 298 356
#     4  10  19  36  63  89 112 160 209 253 282 358
#     4  10  21  36  60  90 121 150 213 248 295 349
#     4   9  19  35  61  88 118 150 207 256 289 347
#     4  10  21  36  63  91 116 158 202 259 291 347
#     4  12  25  40  61  90 131 160 190 253 313 367
#     4   9  18  32  63  85 110 148 208 251 281 348
#     4  11  23  38  60  89 128 163 196 240 315 371
#
# _framework density 22.924389999999999
#
# number of rings (size 3 to 8) (size 9 to 14) (size 15 to 20)
#    0.750    1.250    2.500    1.500    3.500    1.000 
#    0.000    3.125    5.500    3.750    0.000    0.000 
#    0.000    0.000    0.000    0.000    0.000    0.000 
#
# Total GULP energy -89192.115529 kJ/mol
# GULP energy per Si atom -5574.507221 kJ/mol
# Density = 2.287221 g / cm^3
# Si number density = 22.924390 Si / 1000 Ang^3
#
#
#
# Elastic Constant Matrix: (Units=GPa)
#
#
# Indices 1 2 3 4 5 6 
#
# 1 100.3908 29.0078 0.3405 16.2641 -23.6143 9.9683
# 2 29.0078 163.4614 2.4984 -3.2466 0.7416 8.6958
# 3 0.3405 2.4984 35.7217 -14.2368 -5.3321 5.3443
# 4 16.2641 -3.2466 -14.2368 28.7395 -0.6224 -3.9958
# 5 -23.6143 0.7416 -5.3321 -0.6224 26.6929 -10.8924
# 6 9.9683 8.6958 5.3443 -3.9958 -10.8924 34.4679
#
#
#
# Elastic Compliance Matrix: (Units=1/GPa)
#
#
# Indices 1 2 3 4 5 6 
#
# 1 0.015521 -0.002955 -0.001836 -0.009812 0.013021 -0.000481
# 2 -0.002955 0.006790 0.000184 0.002219 -0.003411 -0.001708
# 3 -0.001836 0.000184 0.036665 0.019180 0.005657 -0.001189
# 4 -0.009812 0.002219 0.019180 0.050699 -0.001853 0.004596
# 5 0.013021 -0.003411 0.005657 -0.001853 0.055718 0.013611
# 6 -0.000481 -0.001708 -0.001189 0.004596 0.013611 0.034601
#
#
# Mechanical properties :
#
#
# Convention : Reuss Voigt Hill
#
# Bulk Modulus (GPa) = 20.09547 40.36303 30.22925
# Shear Modulus (GPa) = 22.14394 35.82855 28.98625
#
# Velocity S-wave (km/s) = 3.11135 3.95764 3.55974
# Velocity P-wave (km/s) = 4.65751 6.20719 5.48733
#
# Compressibility (1/GPa) = 0.04976246
#
# Stress axis : x y z
#
# Youngs Moduli (GPa) = 64.42704 147.28476 27.27377
#
# Poissons Ratio (x) = 0.43518 0.05008
# Poissons Ratio (y) = 0.19036 -0.00502
# Poissons Ratio (z) = 0.11830 -0.02710
#
# Static dielectric constant tensor:
#      x y z
#    x 1.962900 -0.013800 0.096010 
#    y -0.013800 1.863410 0.013150 
#    z 0.096010 0.013150 1.976870 
# 
# From -- ./inp_files/563435.got.cif
#   From: 2010.05.17/outbox.cif.g08.bks.cpg/sg2_282_cif.got.tgz:563435.got - 2010.06.03 11:33:40.
