data_PCOD9087667
_publ_section_title
;
Structure prediction by ZEFSAII (Michael W. Deem and Ramdas Pophale) SiO2 
 PCOD9087667
Probable space group: P -1
;
_chemical_formula_sum "Si O2"
_cell_formula_units_Z 16
_cell_length_a 9.071441
_cell_length_b 12.518109
_cell_length_c 14.655477
_cell_angle_alpha 128.365683
_cell_angle_beta 52.318318
_cell_angle_gamma 141.808477
_cell_volume 780.192088
_symmetry_space_group_name_H-M "P -1"
_symmetry_group_IT_number 2
_symmetry_cell_setting 'triclinic'
loop_
_space_group_symop_operation_xyz
x,y,z
-x,-y,-z
loop_
_atom_site_type_symbol
_atom_site_label
_atom_site_fract_x
_atom_site_fract_y
_atom_site_fract_z
Si Si1 0.305098 0.831930 0.761291
Si Si2 0.141695 0.952338 0.364589
Si Si3 0.900068 0.844242 0.202080
Si Si4 0.201224 0.037343 0.015879
Si Si5 0.820848 0.513525 0.846439
Si Si6 0.215160 0.889706 0.636170
Si Si7 0.483014 0.570578 0.915247
Si Si8 0.779636 0.219176 0.609633
O O1 0.150676 0.793738 0.707214
O O2 0.114888 0.662029 0.807731
O O3 0.562976 0.884079 0.669737
O O4 0.355099 0.000107 0.880835
O O5 0.097771 0.796109 0.358934
O O6 0.038976 0.894616 0.271258
O O7 0.000000 0.000000 0.500000
O O8 0.677608 0.628382 0.171965
O O9 0.832725 0.972316 0.283877
O O10 0.065915 0.900866 0.079330
O O11 0.372081 0.243195 0.095370
O O12 0.000000 0.000000 0.000000
O O13 0.696483 0.594746 0.903709
O O14 0.746550 0.358861 0.723176
O O15 0.698810 0.437018 0.950568
O O16 0.107220 0.758017 0.520182
O O17 0.511649 0.021540 0.598517
#
# Coordination Sequence:
#
# PCOD9087667 Si02
#       8
#     2   2   2   2   2   2   2   2
#     4  11  23  40  65  99 132 170 216 274 329 385
#     4  11  25  45  64  87 131 184 223 258 328 394
#     4  12  22  41  67  98 132 172 216 267 329 393
#     4  12  21  40  68 103 135 162 215 277 331 388
#     4  11  20  38  63  98 132 163 213 279 325 387
#     4  10  19  36  65  91 120 166 218 271 317 381
#     4  11  21  36  67 103 131 165 212 271 338 388
#     4  10  21  38  62  90 122 168 224 263 320 385
#
# _framework density 20.507770000000001
#
# number of rings (size 3 to 8) (size 9 to 14) (size 15 to 20)
#    0.000    1.000    6.250    2.250    0.000    1.000 
#    2.250    3.125    0.000    0.000    0.000    0.000 
#    0.000    0.000    0.000    0.000    0.000    0.000 
#
# Total GULP energy -89205.884267 kJ/mol
# GULP energy per Si atom -5575.367767 kJ/mol
# Density = 2.046109 g / cm^3
# Si number density = 20.507770 Si / 1000 Ang^3
#
#
#
# Elastic Constant Matrix: (Units=GPa)
#
#
# Indices 1 2 3 4 5 6 
#
# 1 77.2046 27.6510 38.3680 -11.2600 16.0512 2.0887
# 2 27.6510 79.0318 14.2219 -2.7090 2.2080 9.6970
# 3 38.3680 14.2219 107.7769 -6.2003 0.7686 4.0955
# 4 -11.2600 -2.7090 -6.2003 26.3422 3.7966 -3.9747
# 5 16.0512 2.2080 0.7686 3.7966 33.5585 -5.6719
# 6 2.0887 9.6970 4.0955 -3.9747 -5.6719 19.7530
#
#
#
# Elastic Compliance Matrix: (Units=1/GPa)
#
#
# Indices 1 2 3 4 5 6 
#
# 1 0.021774 -0.005938 -0.006407 0.008836 -0.010771 0.000626
# 2 -0.005938 0.015479 0.000218 -0.002102 0.000838 -0.007199
# 3 -0.006407 0.000218 0.011524 -0.000563 0.002652 -0.001171
# 4 0.008836 -0.002102 -0.000563 0.043537 -0.007865 0.006716
# 5 -0.010771 0.000838 0.002652 -0.007865 0.037297 0.009305
# 6 0.000626 -0.007199 -0.001171 0.006716 0.009305 0.058359
#
#
# Mechanical properties :
#
#
# Convention : Reuss Voigt Hill
#
# Bulk Modulus (GPa) = 40.77738 47.16614 43.97176
# Shear Modulus (GPa) = 22.68614 28.18223 25.43419
#
# Velocity S-wave (km/s) = 3.32960 3.71107 3.52550
# Velocity P-wave (km/s) = 5.89141 6.43520 6.16930
#
# Compressibility (1/GPa) = 0.02452340
#
# Stress axis : x y z
#
# Youngs Moduli (GPa) = 45.92538 64.60219 86.77844
#
# Poissons Ratio (x) = 0.38363 0.55596
# Poissons Ratio (y) = 0.27272 -0.01892
# Poissons Ratio (z) = 0.29423 -0.01409
#
# Static dielectric constant tensor:
#      x y z
#    x 1.743320 -0.010110 0.015260 
#    y -0.010110 1.760770 -0.029580 
#    z 0.015260 -0.029580 1.797830 
# 
# From -- ./inp_files/474844.got.cif
#   From: 2010.05.17/outbox.cif.g08.bks.cpg/sg2_238_cif.got.tgz:474844.got - 2010.06.03 11:33:40.
