data_PCOD9087102
_publ_section_title
;
Structure prediction by ZEFSAII (Michael W. Deem and Ramdas Pophale) SiO2 
 PCOD9087102
Probable space group: P -1
;
_chemical_formula_sum "Si O2"
_cell_formula_units_Z 14
_cell_length_a 23.156823
_cell_length_b 13.128265
_cell_length_c 5.065415
_cell_angle_alpha 64.397278
_cell_angle_beta 119.651704
_cell_angle_gamma 156.936748
_cell_volume 523.061944
_symmetry_space_group_name_H-M "P -1"
_symmetry_group_IT_number 2
_symmetry_cell_setting 'triclinic'
loop_
_space_group_symop_operation_xyz
x,y,z
-x,-y,-z
loop_
_atom_site_type_symbol
_atom_site_label
_atom_site_fract_x
_atom_site_fract_y
_atom_site_fract_z
Si Si1 0.967173 0.248721 0.502999
Si Si2 0.354227 0.663230 0.234254
Si Si3 0.664186 0.792065 0.650213
Si Si4 0.830464 0.414176 0.894262
Si Si5 0.090922 0.211564 0.761300
Si Si6 0.589318 0.909767 0.227524
Si Si7 0.684024 0.598057 0.204996
O O1 0.074715 0.477290 0.274936
O O2 0.986405 0.155721 0.517660
O O3 0.047682 0.378819 0.826384
O O4 0.790796 0.988363 0.483617
O O5 0.282816 0.646223 0.294584
O O6 0.348523 0.521091 0.468691
O O7 0.529026 0.927871 0.230625
O O8 0.237542 0.492023 0.921254
O O9 0.500000 0.500000 0.500000
O O10 0.646945 0.897382 0.560739
O O11 0.697933 0.751919 0.999525
O O12 0.721348 0.150356 0.057365
O O13 0.159117 0.225391 0.706990
O O14 0.000000 0.000000 0.000000
O O15 0.451487 0.653371 0.015942
#
# Coordination Sequence:
#
# PCOD9087102 Si02
#       7
#     2   2   2   2   2   2   2
#     4  11  24  44  69 102 132 175 223 276 334 392
#     4  10  22  38  64 101 128 175 219 274 337 392
#     4  10  23  46  65  96 134 177 225 271 335 401
#     4  11  25  44  71 100 134 174 225 277 330 391
#     4  10  19  36  61  95 135 162 218 276 335 383
#     4  10  24  42  62  95 136 178 221 269 327 400
#     4  10  20  39  65  95 128 172 219 271 333 390
#
# _framework density 26.765474000000001
#
# number of rings (size 3 to 8) (size 9 to 14) (size 15 to 20)
#    0.000    1.714    2.857    0.429    2.000    4.000 
#    5.143    0.000    0.000    0.000    0.000    0.000 
#    0.000    0.000    0.000    0.000    0.000    0.000 
#
# Total GULP energy -78139.812697 kJ/mol
# GULP energy per Si atom -5581.415193 kJ/mol
# Density = 2.670455 g / cm^3
# Si number density = 26.765474 Si / 1000 Ang^3
#
#
#
# Elastic Constant Matrix: (Units=GPa)
#
#
# Indices 1 2 3 4 5 6 
#
# 1 81.2897 42.9068 37.6191 10.2718 21.6289 9.7521
# 2 42.9068 135.3607 25.4259 -12.7295 6.1933 29.8408
# 3 37.6191 25.4259 110.1214 -6.4254 12.7403 1.7675
# 4 10.2718 -12.7295 -6.4254 37.0056 -2.5715 1.0881
# 5 21.6289 6.1933 12.7403 -2.5715 52.0926 -5.0976
# 6 9.7521 29.8408 1.7675 1.0881 -5.0976 43.5972
#
#
#
# Elastic Compliance Matrix: (Units=1/GPa)
#
#
# Indices 1 2 3 4 5 6 
#
# 1 0.021349 -0.006043 -0.005583 -0.009454 -0.007348 -0.001036
# 2 -0.006043 0.011248 -0.000196 0.005761 0.000880 -0.006380
# 3 -0.005583 -0.000196 0.011237 0.003398 -0.000159 0.000824
# 4 -0.009454 0.005761 0.003398 0.032551 0.003788 -0.002336
# 5 -0.007348 0.000880 -0.000159 0.003788 0.022722 0.003610
# 6 -0.001036 -0.006380 0.000824 -0.002336 0.003610 0.027983
#
#
# Mechanical properties :
#
#
# Convention : Reuss Voigt Hill
#
# Bulk Modulus (GPa) = 49.52831 59.85281 54.69056
# Shear Modulus (GPa) = 31.75343 41.26042 36.50692
#
# Velocity S-wave (km/s) = 3.44809 3.93052 3.69718
# Velocity P-wave (km/s) = 5.86491 6.55814 6.22119
#
# Compressibility (1/GPa) = 0.02019047
#
# Stress axis : x y z
#
# Youngs Moduli (GPa) = 46.84044 88.90405 88.99458
#
# Poissons Ratio (x) = 0.53725 0.49683
# Poissons Ratio (y) = 0.28306 0.01743
# Poissons Ratio (z) = 0.26150 0.01741
#
# Static dielectric constant tensor:
#      x y z
#    x 2.115320 0.031690 0.063670 
#    y 0.031690 2.269290 -0.122340 
#    z 0.063670 -0.122340 2.246780 
# 
# From -- ./inp_files/65512.got.cif
#   From: 2010.05.17/outbox.cif.g08.bks.cpg/sg2_33_cif.got.tgz:65512.got - 2010.06.03 11:33:40.
