data_PCOD9087905
_publ_section_title
;
Structure prediction by ZEFSAII (Michael W. Deem and Ramdas Pophale) SiO2 
 PCOD9087905
Probable space group: P -1
;
_chemical_formula_sum "Si O2"
_cell_formula_units_Z 16
_cell_length_a 15.849391
_cell_length_b 13.793247
_cell_length_c 7.484761
_cell_angle_alpha 116.000826
_cell_angle_beta 77.404339
_cell_angle_gamma 150.851316
_cell_volume 663.636596
_symmetry_space_group_name_H-M "P -1"
_symmetry_group_IT_number 2
_symmetry_cell_setting 'triclinic'
loop_
_space_group_symop_operation_xyz
x,y,z
-x,-y,-z
loop_
_atom_site_type_symbol
_atom_site_label
_atom_site_fract_x
_atom_site_fract_y
_atom_site_fract_z
Si Si1 0.341050 0.139626 0.086702
Si Si2 0.050484 0.006831 0.745494
Si Si3 0.034121 0.699560 0.679450
Si Si4 0.392962 0.415916 0.154314
Si Si5 0.059241 0.891063 0.306683
Si Si6 0.666490 0.342383 0.150459
Si Si7 0.711857 0.485829 0.610259
Si Si8 0.910779 0.433145 0.177387
O O1 0.425468 0.354342 0.227799
O O2 0.498675 0.223893 0.045300
O O3 0.209905 0.989785 0.203246
O O4 0.197215 0.965958 0.848120
O O5 0.999859 0.069044 0.746741
O O6 0.179539 0.169330 0.986190
O O7 0.140329 0.035566 0.565955
O O8 0.864464 0.733105 0.647078
O O9 0.089318 0.667341 0.767521
O O10 0.839799 0.542161 0.702700
O O11 0.007779 0.627522 0.429892
O O12 0.426561 0.579325 0.301556
O O13 0.500000 0.500000 0.000000
O O14 0.865718 0.612670 0.209021
O O15 0.623258 0.321887 0.359901
O O16 0.713745 0.268079 0.075594
O O17 0.000000 0.500000 0.000000
#
# Coordination Sequence:
#
# PCOD9087905 Si02
#       8
#     2   2   2   2   2   2   2   2
#     4  12  23  40  65  94 134 170 215 264 323 386
#     4  10  19  37  56  85 120 174 225 250 317 377
#     4  10  22  41  71  95 122 173 219 266 339 393
#     4  12  24  34  56  92 136 173 215 259 311 386
#     4  10  21  37  63  87 125 175 216 264 314 381
#     4  10  24  40  64  99 127 166 222 272 326 389
#     4  10  20  41  62  86 133 174 213 265 317 384
#     4  10  22  45  71  96 126 165 219 280 336 392
#
# _framework density 24.109582
#
# number of rings (size 3 to 8) (size 9 to 14) (size 15 to 20)
#    0.000    1.500    2.500    2.625    1.750    2.000 
#    0.000    0.625    0.000    0.000    0.000    0.000 
#    0.000    0.000    0.000    0.000    0.000    0.000 
#
# Total GULP energy -89208.344626 kJ/mol
# GULP energy per Si atom -5575.521539 kJ/mol
# Density = 2.405471 g / cm^3
# Si number density = 24.109582 Si / 1000 Ang^3
#
#
#
# Elastic Constant Matrix: (Units=GPa)
#
#
# Indices 1 2 3 4 5 6 
#
# 1 126.5582 22.5497 26.9165 -11.1032 -9.6227 16.2545
# 2 22.5497 70.9700 18.5754 -23.8643 -6.9717 23.4632
# 3 26.9165 18.5754 98.3906 -25.1202 -18.1156 13.4910
# 4 -11.1032 -23.8643 -25.1202 31.8201 9.9619 -8.0992
# 5 -9.6227 -6.9717 -18.1156 9.9619 35.4697 -10.9862
# 6 16.2545 23.4632 13.4910 -8.0992 -10.9862 37.6360
#
#
#
# Elastic Compliance Matrix: (Units=1/GPa)
#
#
# Indices 1 2 3 4 5 6 
#
# 1 0.008867 -0.001739 -0.001793 -0.000328 0.000623 -0.001991
# 2 -0.001739 0.023179 0.001093 0.015726 -0.003398 -0.011699
# 3 -0.001793 0.001093 0.013769 0.009506 0.003545 -0.001762
# 4 -0.000328 0.015726 0.009506 0.052063 -0.008073 -0.004222
# 5 0.000623 -0.003398 0.003545 -0.008073 0.034536 0.008922
# 6 -0.001991 -0.011699 -0.001762 -0.004222 0.008922 0.037051
#
#
# Mechanical properties :
#
#
# Convention : Reuss Voigt Hill
#
# Bulk Modulus (GPa) = 24.42767 48.00022 36.21395
# Shear Modulus (GPa) = 26.59744 36.17698 31.38721
#
# Velocity S-wave (km/s) = 3.32503 3.87786 3.61204
# Velocity P-wave (km/s) = 4.98950 6.32478 5.69640
#
# Compressibility (1/GPa) = 0.04093718
#
# Stress axis : x y z
#
# Youngs Moduli (GPa) = 112.77641 43.14334 72.62680
#
# Poissons Ratio (x) = 0.07501 0.13025
# Poissons Ratio (y) = 0.19606 -0.07939
# Poissons Ratio (z) = 0.20225 -0.04716
#
# Static dielectric constant tensor:
#      x y z
#    x 11.397160 6.217460 -2.293480 
#    y 6.217460 6.116030 -1.486970 
#    z -2.293480 -1.486970 2.528690 
# 
# From -- ./inp_files/315747.got.cif
#   From: 2010.05.17/outbox.cif.g08.bks.cpg/sg2_158_cif.got.tgz:315747.got - 2010.06.03 11:33:40.
