data_PCOD9087989
_publ_section_title
;
Structure prediction by ZEFSAII (Michael W. Deem and Ramdas Pophale) SiO2 
 PCOD9087989
Probable space group: P -1
;
_chemical_formula_sum "Si O2"
_cell_formula_units_Z 16
_cell_length_a 9.428699
_cell_length_b 14.106300
_cell_length_c 14.704443
_cell_angle_alpha 137.098321
_cell_angle_beta 95.135831
_cell_angle_gamma 118.199222
_cell_volume 806.689506
_symmetry_space_group_name_H-M "P -1"
_symmetry_group_IT_number 2
_symmetry_cell_setting 'triclinic'
loop_
_space_group_symop_operation_xyz
x,y,z
-x,-y,-z
loop_
_atom_site_type_symbol
_atom_site_label
_atom_site_fract_x
_atom_site_fract_y
_atom_site_fract_z
Si Si1 0.656280 0.382377 0.077977
Si Si2 0.376202 0.048457 0.998804
Si Si3 0.099755 0.284989 0.056477
Si Si4 0.475184 0.431277 0.846969
Si Si5 0.166470 0.651112 0.289926
Si Si6 0.366901 0.200603 0.292307
Si Si7 0.163553 0.317428 0.284412
Si Si8 0.504241 0.157775 0.714940
O O1 0.672664 0.563253 0.205928
O O2 0.912974 0.519146 0.190525
O O3 0.500792 0.207515 0.029351
O O4 0.546880 0.242861 0.878871
O O5 0.411138 0.176641 0.177160
O O6 0.094009 0.820650 0.807863
O O7 0.500000 0.000000 0.000000
O O8 0.273915 0.369442 0.048499
O O9 0.152440 0.487954 0.218093
O O10 0.147818 0.250931 0.132676
O O11 0.828950 0.050994 0.851902
O O12 0.399768 0.211000 0.691449
O O13 0.500000 0.500000 0.000000
O O14 0.259171 0.696742 0.224430
O O15 0.345051 0.898329 0.518408
O O16 0.238084 0.250063 0.308496
O O17 0.614073 0.407584 0.501489
#
# Coordination Sequence:
#
# PCOD9087989 Si02
#       8
#     2   2   2   2   2   2   2   2
#     4  11  20  35  59  82 110 149 182 226 284 328
#     4  11  23  37  56  86 121 150 182 232 285 336
#     4  10  19  37  58  80 112 148 186 227 277 336
#     4   9  19  36  58  83 113 144 180 232 283 326
#     4  10  21  36  57  81 109 146 186 225 273 335
#     4  10  21  38  59  82 110 149 196 236 273 329
#     4  10  21  38  60  82 109 150 194 234 276 330
#     4   9  21  39  55  79 111 144 186 230 272 331
#
# _framework density 19.834150000000001
#
# number of rings (size 3 to 8) (size 9 to 14) (size 15 to 20)
#    0.000    2.000    0.000    4.875    0.000    4.000 
#    0.000   10.000    0.000    0.000    0.000    0.000 
#    0.000    0.000    0.000    0.000    0.000    0.000 
#
# Total GULP energy -89238.477082 kJ/mol
# GULP energy per Si atom -5577.404818 kJ/mol
# Density = 1.978901 g / cm^3
# Si number density = 19.834150 Si / 1000 Ang^3
#
#
#
# Elastic Constant Matrix: (Units=GPa)
#
#
# Indices 1 2 3 4 5 6 
#
# 1 137.1841 43.6126 20.4902 -5.8844 -4.2761 -6.2353
# 2 43.6126 85.7902 11.0134 -0.5726 -1.9530 3.3263
# 3 20.4902 11.0134 77.4664 11.6472 11.3941 8.9793
# 4 -5.8844 -0.5726 11.6472 25.7553 7.6970 4.8354
# 5 -4.2761 -1.9530 11.3941 7.6970 43.4029 17.3310
# 6 -6.2353 3.3263 8.9793 4.8354 17.3310 43.5777
#
#
#
# Elastic Compliance Matrix: (Units=1/GPa)
#
#
# Indices 1 2 3 4 5 6 
#
# 1 0.009277 -0.004448 -0.002467 0.002751 0.000151 0.001810
# 2 -0.004448 0.014115 -0.000725 -0.000371 0.001262 -0.002025
# 3 -0.002467 -0.000725 0.015186 -0.006392 -0.002429 -0.001751
# 4 0.002751 -0.000371 -0.006392 0.044168 -0.005513 -0.000969
# 5 0.000151 0.001262 -0.002429 -0.005513 0.028903 -0.010457
# 6 0.001810 -0.002025 -0.001751 -0.000969 -0.010457 0.027988
#
#
# Mechanical properties :
#
#
# Convention : Reuss Voigt Hill
#
# Bulk Modulus (GPa) = 42.92265 50.07479 46.49872
# Shear Modulus (GPa) = 30.73461 37.56880 34.15171
#
# Velocity S-wave (km/s) = 3.94074 4.35690 4.15404
# Velocity P-wave (km/s) = 6.51104 7.11419 6.81929
#
# Compressibility (1/GPa) = 0.02329772
#
# Stress axis : x y z
#
# Youngs Moduli (GPa) = 107.79400 70.84516 65.85034
#
# Poissons Ratio (x) = 0.31510 0.16246
# Poissons Ratio (y) = 0.47944 0.04777
# Poissons Ratio (z) = 0.26594 0.05139
#
# Static dielectric constant tensor:
#      x y z
#    x 1.736800 -0.040280 -0.018900 
#    y -0.040280 1.706030 0.020580 
#    z -0.018900 0.020580 1.691650 
# 
# From -- ./inp_files/313284.got.cif
#   From: 2010.05.17/outbox.cif.g08.bks.cpg/sg2_157_cif.got.tgz:313284.got - 2010.06.03 11:33:40.
