data_PCOD9087894
_publ_section_title
;
Structure prediction by ZEFSAII (Michael W. Deem and Ramdas Pophale) SiO2 
 PCOD9087894
Probable space group: P -1
;
_chemical_formula_sum "Si O2"
_cell_formula_units_Z 14
_cell_length_a 12.082295
_cell_length_b 5.458174
_cell_length_c 10.319580
_cell_angle_alpha 83.425075
_cell_angle_beta 80.762891
_cell_angle_gamma 109.846140
_cell_volume 621.271972
_symmetry_space_group_name_H-M "P -1"
_symmetry_group_IT_number 2
_symmetry_cell_setting 'triclinic'
loop_
_space_group_symop_operation_xyz
x,y,z
-x,-y,-z
loop_
_atom_site_type_symbol
_atom_site_label
_atom_site_fract_x
_atom_site_fract_y
_atom_site_fract_z
Si Si1 0.525890 0.979894 0.650158
Si Si2 0.898771 0.514232 0.921061
Si Si3 0.824042 0.801506 0.310087
Si Si4 0.385567 0.434823 0.427829
Si Si5 0.894844 0.914877 0.713404
Si Si6 0.255849 0.734814 0.815442
Si Si7 0.097249 0.574865 0.363369
O O1 0.601555 0.283680 0.653713
O O2 0.500000 0.000000 0.500000
O O3 0.591835 0.771496 0.661691
O O4 0.397218 0.863546 0.751237
O O5 0.882261 0.789520 0.868029
O O6 0.940189 0.435001 0.780852
O O7 0.777454 0.328056 0.023886
O O8 0.000000 0.500000 0.000000
O O9 0.726180 0.689241 0.447612
O O10 0.798987 0.548100 0.234261
O O11 0.800040 0.049560 0.234681
O O12 0.960292 0.926698 0.331936
O O13 0.500000 0.500000 0.500000
O O14 0.852221 0.658176 0.644972
O O15 0.834565 0.113829 0.660851
O O16 0.000000 0.500000 0.500000
#
# Coordination Sequence:
#
# PCOD9087894 Si02
#       7
#     2   2   2   2   2   2   2
#     4  10  16  28  38  62  90 144 169 196 233 310
#     4  10  22  34  51  80 109 136 164 213 261 311
#     4  12  19  29  47  71 105 140 165 208 257 308
#     4  10  16  28  41  61  94 143 170 194 243 307
#     4  10  22  35  53  77 103 135 175 212 259 302
#     4  12  20  27  46  67 107 140 167 199 258 304
#     4  10  22  41  57  70 102 144 179 213 251 305
#
# _framework density 22.534414000000002
#
# number of rings (size 3 to 8) (size 9 to 14) (size 15 to 20)
#    0.857    0.571    7.143    2.143    2.000    1.143 
#    0.000    0.000    0.000    0.000    0.000    0.000 
#    0.000    6.857    0.000    0.000    0.000    0.000 
#
# Total GULP energy -77994.329263 kJ/mol
# GULP energy per Si atom -5571.023519 kJ/mol
# Density = 2.248312 g / cm^3
# Si number density = 22.534414 Si / 1000 Ang^3
#
#
#
# Elastic Constant Matrix: (Units=GPa)
#
#
# Indices 1 2 3 4 5 6 
#
# 1 52.9383 60.8627 36.4504 -6.7096 -8.1143 0.4202
# 2 60.8627 198.6274 33.7322 -24.6514 -1.5814 -43.0121
# 3 36.4504 33.7322 147.2423 -27.9425 -8.9429 4.1884
# 4 -6.7096 -24.6514 -27.9425 38.8874 2.9907 -5.9427
# 5 -8.1143 -1.5814 -8.9429 2.9907 25.6266 -9.9430
# 6 0.4202 -43.0121 4.1884 -5.9427 -9.9430 57.2044
#
#
#
# Elastic Compliance Matrix: (Units=1/GPa)
#
#
# Indices 1 2 3 4 5 6 
#
# 1 0.041259 -0.014837 -0.008062 -0.010221 0.006326 -0.010831
# 2 -0.014837 0.012468 0.002114 0.008434 -0.000231 0.010165
# 3 -0.008062 0.002114 0.009648 0.007097 0.000823 0.001823
# 4 -0.010221 0.008434 0.007097 0.035906 -0.000745 0.009497
# 5 0.006326 -0.000231 0.000823 -0.000745 0.044229 0.007330
# 6 -0.010831 0.010165 0.001823 0.009497 0.007330 0.027331
#
#
# Mechanical properties :
#
#
# Convention : Reuss Voigt Hill
#
# Bulk Modulus (GPa) = 45.86216 73.43321 59.64768
# Shear Modulus (GPa) = 22.76051 42.19452 32.47752
#
# Velocity S-wave (km/s) = 3.18155 4.33187 3.80049
# Velocity P-wave (km/s) = 5.82173 7.59461 6.76649
#
# Compressibility (1/GPa) = 0.02180447
#
# Stress axis : x y z
#
# Youngs Moduli (GPa) = 24.23714 80.20667 103.64828
#
# Poissons Ratio (x) = 1.19001 0.83564
# Poissons Ratio (y) = 0.35960 -0.21911
# Poissons Ratio (z) = 0.19541 -0.16955
#
# Static dielectric constant tensor:
#      x y z
#    x 1.902330 -0.126050 -0.011490 
#    y -0.126050 2.008620 0.015270 
#    z -0.011490 0.015270 1.802660 
# 
# From -- ./inp_files/101709.got.cif
#   From: 2010.05.17/outbox.cif.g08.bks.cpg/sg2_51_cif.got.tgz:101709.got - 2010.06.03 11:33:40.
