data_PCOD9087571
_publ_section_title
;
Structure prediction by ZEFSAII (Michael W. Deem and Ramdas Pophale) SiO2 
 PCOD9087571
Probable space group: P -1
;
_chemical_formula_sum "Si O2"
_cell_formula_units_Z 16
_cell_length_a 16.434640
_cell_length_b 9.224973
_cell_length_c 11.495232
_cell_angle_alpha 75.052292
_cell_angle_beta 152.961594
_cell_angle_gamma 114.124557
_cell_volume 699.002499
_symmetry_space_group_name_H-M "P -1"
_symmetry_group_IT_number 2
_symmetry_cell_setting 'triclinic'
loop_
_space_group_symop_operation_xyz
x,y,z
-x,-y,-z
loop_
_atom_site_type_symbol
_atom_site_label
_atom_site_fract_x
_atom_site_fract_y
_atom_site_fract_z
Si Si1 0.768498 0.801322 0.191929
Si Si2 0.606069 0.304891 0.836150
Si Si3 0.442071 0.562143 0.671037
Si Si4 0.282776 0.501118 0.710505
Si Si5 0.105791 0.049683 0.447741
Si Si6 0.692401 0.170710 0.204805
Si Si7 0.821871 0.493838 0.854714
Si Si8 0.167599 0.153839 0.245652
O O1 0.846104 0.656689 0.343954
O O2 0.742061 0.838255 0.285443
O O3 0.591456 0.721105 0.894490
O O4 0.900442 0.975805 0.268073
O O5 0.540735 0.435460 0.794463
O O6 0.770662 0.401810 0.931163
O O7 0.398081 0.181802 0.538168
O O8 0.689485 0.221393 0.056178
O O9 0.260130 0.488099 0.545339
O O10 0.369476 0.599088 0.449437
O O11 0.290050 0.670306 0.732634
O O12 0.500000 0.500000 0.000000
O O13 0.112427 0.132111 0.316968
O O14 0.148872 0.887816 0.525882
O O15 0.500000 0.000000 0.000000
O O16 0.836692 0.679524 0.845181
O O17 0.000000 0.500000 0.000000
O O18 0.000000 0.000000 0.000000
#
# Coordination Sequence:
#
# PCOD9087571 Si02
#       8
#     2   2   2   2   2   2   2   2
#     4  10  21  40  63  98 135 188 226 274 351 417
#     4  11  23  45  74  97 138 187 233 281 353 414
#     4  10  20  41  72  93 131 182 236 275 345 416
#     4  10  19  36  64  92 131 177 222 272 338 414
#     4  11  25  39  66 103 144 178 225 290 350 405
#     4  12  22  39  65 104 140 168 227 291 342 411
#     4  11  27  47  71 101 132 184 244 296 333 415
#     4  11  25  45  71  99 142 184 229 280 352 421
#
# _framework density 22.889759999999999
#
# number of rings (size 3 to 8) (size 9 to 14) (size 15 to 20)
#    0.000    1.250    3.750    4.500    3.500    4.500 
#    2.250    0.625    0.000    0.000    0.000    0.000 
#    0.000    0.000    0.000    0.000    0.000    0.000 
#
# Total GULP energy -89209.314646 kJ/mol
# GULP energy per Si atom -5575.582165 kJ/mol
# Density = 2.283766 g / cm^3
# Si number density = 22.889760 Si / 1000 Ang^3
#
#
#
# Elastic Constant Matrix: (Units=GPa)
#
#
# Indices 1 2 3 4 5 6 
#
# 1 103.1358 51.5619 24.5173 10.6754 -23.1949 28.2049
# 2 51.5619 103.0630 23.8424 8.9835 -16.2699 9.4410
# 3 24.5173 23.8424 69.1428 17.4941 -14.4925 -5.0232
# 4 10.6754 8.9835 17.4941 35.8927 0.4050 -8.1553
# 5 -23.1949 -16.2699 -14.4925 0.4050 30.4973 -4.1391
# 6 28.2049 9.4410 -5.0232 -8.1553 -4.1391 57.3940
#
#
#
# Elastic Compliance Matrix: (Units=1/GPa)
#
#
# Indices 1 2 3 4 5 6 
#
# 1 0.017644 -0.005942 -0.001822 -0.004768 0.008370 -0.007926
# 2 -0.005942 0.013402 -0.001967 -0.000512 0.001784 0.000599
# 3 -0.001822 -0.001967 0.019508 -0.008031 0.007255 0.002308
# 4 -0.004768 -0.000512 -0.008031 0.034799 -0.007344 0.006139
# 5 0.008370 0.001784 0.007255 -0.007344 0.043424 -0.001684
# 6 -0.007926 0.000599 0.002308 0.006139 -0.001684 0.022173
#
#
# Mechanical properties :
#
#
# Convention : Reuss Voigt Hill
#
# Bulk Modulus (GPa) = 32.16552 52.79830 42.48191
# Shear Modulus (GPa) = 27.65848 36.45146 32.05497
#
# Velocity S-wave (km/s) = 3.47988 3.99492 3.74626
# Velocity P-wave (km/s) = 5.49809 6.66300 6.10838
#
# Compressibility (1/GPa) = 0.03108919
#
# Stress axis : x y z
#
# Youngs Moduli (GPa) = 56.67783 74.61463 51.26206
#
# Poissons Ratio (x) = 0.44339 0.09341
# Poissons Ratio (y) = 0.33680 0.10085
# Poissons Ratio (z) = 0.10328 0.14680
#
# Static dielectric constant tensor:
#      x y z
#    x 1.977480 0.042290 0.092290 
#    y 0.042290 1.919560 0.024730 
#    z 0.092290 0.024730 1.919540 
# 
# From -- ./inp_files/461182.got.cif
#   From: 2010.05.17/outbox.cif.g08.bks.cpg/sg2_231_cif.got.tgz:461182.got - 2010.06.03 11:33:40.
