data_PCOD9087974
_publ_section_title
;
Structure prediction by ZEFSAII (Michael W. Deem and Ramdas Pophale) SiO2 
 PCOD9087974
Probable space group: P -1
;
_chemical_formula_sum "Si O2"
_cell_formula_units_Z 16
_cell_length_a 22.224303
_cell_length_b 9.236350
_cell_length_c 18.803906
_cell_angle_alpha 37.813758
_cell_angle_beta 17.876854
_cell_angle_gamma 39.401718
_cell_volume 721.976731
_symmetry_space_group_name_H-M "P -1"
_symmetry_group_IT_number 2
_symmetry_cell_setting 'triclinic'
loop_
_space_group_symop_operation_xyz
x,y,z
-x,-y,-z
loop_
_atom_site_type_symbol
_atom_site_label
_atom_site_fract_x
_atom_site_fract_y
_atom_site_fract_z
Si Si1 0.025301 0.564312 0.153050
Si Si2 0.497589 0.589148 0.814903
Si Si3 0.543029 0.517406 0.361908
Si Si4 0.622195 0.743887 0.471516
Si Si5 0.414885 0.950349 0.876128
Si Si6 0.271008 0.307410 0.282233
Si Si7 0.978244 0.015007 0.390700
Si Si8 0.084458 0.558775 0.530737
O O1 0.844493 0.735685 0.255689
O O2 0.033117 0.577832 0.225104
O O3 0.970156 0.293072 0.308170
O O4 0.235398 0.585485 0.871815
O O5 0.509966 0.600510 0.712586
O O6 0.700950 0.453391 0.668506
O O7 0.485654 0.858406 0.754637
O O8 0.321925 0.469888 0.095820
O O9 0.500000 0.500000 0.500000
O O10 0.387917 0.394436 0.537231
O O11 0.531317 0.798801 0.255553
O O12 0.500000 0.000000 0.500000
O O13 0.526524 0.760278 0.877049
O O14 0.182662 0.955896 0.141465
O O15 0.123799 0.431317 0.459367
O O16 0.193131 0.071282 0.430909
O O17 0.996256 0.827920 0.508603
#
# Coordination Sequence:
#
# PCOD9087974 Si02
#       8
#     2   2   2   2   2   2   2   2
#     4  10  25  42  63  95 126 162 209 257 315 376
#     4  10  20  38  61  91 127 168 207 249 301 366
#     4  11  25  45  68  90 119 165 215 263 320 367
#     4  11  25  46  66  90 122 163 214 269 314 363
#     4  10  20  39  59  90 129 164 201 253 304 365
#     4  11  20  34  61  93 130 168 206 239 300 376
#     4  11  20  34  59  91 131 166 197 244 306 366
#     4  10  19  37  57  91 133 164 198 246 302 367
#
# _framework density 22.161377999999999
#
# number of rings (size 3 to 8) (size 9 to 14) (size 15 to 20)
#    0.000    1.500    2.500    3.000    1.750    1.000 
#    0.000    3.125    0.000    0.000    0.000    0.000 
#    0.000    0.000    0.000    0.000    0.000    0.000 
#
# Total GULP energy -89360.851272 kJ/mol
# GULP energy per Si atom -5585.053204 kJ/mol
# Density = 2.211094 g / cm^3
# Si number density = 22.161378 Si / 1000 Ang^3
#
#
#
# Elastic Constant Matrix: (Units=GPa)
#
#
# Indices 1 2 3 4 5 6 
#
# 1 100.3292 1.3198 22.3868 6.7667 25.2077 -5.6354
# 2 1.3198 53.9450 -0.5425 11.6785 -3.6488 -13.5500
# 3 22.3868 -0.5425 76.5484 19.8487 15.5945 -10.8310
# 4 6.7667 11.6785 19.8487 29.3320 5.4469 -3.9843
# 5 25.2077 -3.6488 15.5945 5.4469 35.9238 2.3066
# 6 -5.6354 -13.5500 -10.8310 -3.9843 2.3066 36.8351
#
#
#
# Elastic Compliance Matrix: (Units=1/GPa)
#
#
# Indices 1 2 3 4 5 6 
#
# 1 0.012519 -0.000511 -0.001829 0.000312 -0.008201 0.001737
# 2 -0.000511 0.023205 0.003908 -0.011043 0.002162 0.008277
# 3 -0.001829 0.003908 0.018532 -0.012001 -0.004905 0.005616
# 4 0.000312 -0.011043 -0.012001 0.046799 -0.003080 -0.002288
# 5 -0.008201 0.002162 -0.004905 -0.003080 0.036699 -0.004533
# 6 0.001737 0.008277 0.005616 -0.002288 -0.004533 0.032146
#
#
# Mechanical properties :
#
#
# Convention : Reuss Voigt Hill
#
# Bulk Modulus (GPa) = 17.42400 30.79456 24.10928
# Shear Modulus (GPa) = 26.89696 34.26208 30.57952
#
# Velocity S-wave (km/s) = 3.48758 3.93622 3.71867
# Velocity P-wave (km/s) = 4.90887 5.88083 5.41670
#
# Compressibility (1/GPa) = 0.05739210
#
# Stress axis : x y z
#
# Youngs Moduli (GPa) = 79.87749 43.09395 53.96108
#
# Poissons Ratio (x) = 0.02201 0.09871
# Poissons Ratio (y) = 0.04079 -0.21088
# Poissons Ratio (z) = 0.14612 -0.16841
#
# Static dielectric constant tensor:
#      x y z
#    x 1.822930 0.003300 0.023480 
#    y 0.003300 1.857670 -0.018470 
#    z 0.023480 -0.018470 1.841150 
# 
# From -- ./inp_files/447877.got.cif
#   From: 2010.05.17/outbox.cif.g08.bks.cpg/sg2_224_cif.got.tgz:447877.got - 2010.06.03 11:33:40.
