data_PCOD9087470
_publ_section_title
;
Structure prediction by ZEFSAII (Michael W. Deem and Ramdas Pophale) SiO2 
 PCOD9087470
Probable space group: P -1
;
_chemical_formula_sum "Si O2"
_cell_formula_units_Z 16
_cell_length_a 10.554285
_cell_length_b 10.447819
_cell_length_c 7.305278
_cell_angle_alpha 91.924495
_cell_angle_beta 106.373346
_cell_angle_gamma 122.971460
_cell_volume 630.660233
_symmetry_space_group_name_H-M "P -1"
_symmetry_group_IT_number 2
_symmetry_cell_setting 'triclinic'
loop_
_space_group_symop_operation_xyz
x,y,z
-x,-y,-z
loop_
_atom_site_type_symbol
_atom_site_label
_atom_site_fract_x
_atom_site_fract_y
_atom_site_fract_z
Si Si1 0.390205 0.063664 0.926052
Si Si2 0.757737 0.126384 0.462115
Si Si3 0.445712 0.529542 0.173879
Si Si4 0.349393 0.253016 0.410103
Si Si5 0.383841 0.690045 0.718826
Si Si6 0.840923 0.078333 0.839207
Si Si7 0.926359 0.600183 0.508135
Si Si8 0.900659 0.577821 0.928171
O O1 0.333246 0.033388 0.694207
O O2 0.500387 0.237237 0.056847
O O3 0.500000 0.000000 0.000000
O O4 0.237236 0.973152 0.995031
O O5 0.705709 0.225823 0.344222
O O6 0.732538 0.110453 0.666325
O O7 0.950255 0.228112 0.513364
O O8 0.368452 0.377008 0.272801
O O9 0.597904 0.666148 0.365067
O O10 0.500000 0.500000 0.000000
O O11 0.286941 0.533187 0.097540
O O12 0.502345 0.253984 0.408370
O O13 0.191302 0.076584 0.285614
O O14 0.008322 0.249122 0.935223
O O15 0.750166 0.493682 0.343957
O O16 0.000000 0.500000 0.500000
O O17 0.909382 0.605160 0.716488
O O18 0.000000 0.500000 0.000000
#
# Coordination Sequence:
#
# PCOD9087470 Si02
#       8
#     2   2   2   2   2   2   2   2
#     4   9  19  35  55  90 138 181 221 283 354 418
#     4  10  20  36  58  97 145 178 222 291 356 422
#     4  11  27  52  76 104 143 194 249 298 367 442
#     4  10  24  47  72  99 142 194 241 300 357 438
#     4   9  18  35  63  94 130 183 229 284 352 417
#     4  11  24  42  66 109 142 189 243 295 363 433
#     4  10  19  36  63  96 143 183 223 291 358 417
#     4  12  25  47  74 112 148 191 246 305 362 438
#
# _framework density 25.370238000000001
#
# number of rings (size 3 to 8) (size 9 to 14) (size 15 to 20)
#    0.000    1.750    2.500    1.500    0.000   10.000 
#    2.250    0.625    0.000    0.000    0.000    0.000 
#    0.000    0.000    0.000    0.000    0.000    0.000 
#
# Total GULP energy -89322.658584 kJ/mol
# GULP energy per Si atom -5582.666162 kJ/mol
# Density = 2.531249 g / cm^3
# Si number density = 25.370238 Si / 1000 Ang^3
#
#
#
# Elastic Constant Matrix: (Units=GPa)
#
#
# Indices 1 2 3 4 5 6 
#
# 1 65.9836 28.4578 35.6683 6.9508 -11.8068 4.5293
# 2 28.4578 120.7852 20.4904 21.7856 7.2821 -0.4710
# 3 35.6683 20.4904 165.8457 34.1910 -10.8105 4.0323
# 4 6.9508 21.7856 34.1910 39.9595 4.2421 -2.2663
# 5 -11.8068 7.2821 -10.8105 4.2421 29.6108 3.6622
# 6 4.5293 -0.4710 4.0323 -2.2663 3.6622 18.2963
#
#
#
# Elastic Compliance Matrix: (Units=1/GPa)
#
#
# Indices 1 2 3 4 5 6 
#
# 1 0.021162 -0.005113 -0.003281 0.000572 0.009210 -0.006420
# 2 -0.005113 0.010502 0.000479 -0.004731 -0.003971 0.001639
# 3 -0.003281 0.000479 0.008462 -0.007399 0.003041 -0.002566
# 4 0.000572 -0.004731 -0.007399 0.035007 -0.007209 0.007146
# 5 0.009210 -0.003971 0.003041 -0.007209 0.042093 -0.012371
# 6 -0.006420 0.001639 -0.002566 0.007146 -0.012371 0.060214
#
#
# Mechanical properties :
#
#
# Convention : Reuss Voigt Hill
#
# Bulk Modulus (GPa) = 41.15937 57.98305 49.57121
# Shear Modulus (GPa) = 24.82996 35.43986 30.13491
#
# Velocity S-wave (km/s) = 3.13182 3.74158 3.45019
# Velocity P-wave (km/s) = 5.41631 6.44750 5.95427
#
# Compressibility (1/GPa) = 0.02429581
#
# Stress axis : x y z
#
# Youngs Moduli (GPa) = 47.25363 95.22244 118.17179
#
# Poissons Ratio (x) = 0.48686 0.38775
# Poissons Ratio (y) = 0.24160 -0.05658
# Poissons Ratio (z) = 0.15505 -0.04559
#
# Static dielectric constant tensor:
#      x y z
#    x 1.970550 -0.171100 -0.013730 
#    y -0.171100 2.087990 -0.013950 
#    z -0.013730 -0.013950 2.008010 
# 
# From -- ./inp_files/76487.got.cif
#   From: 2010.05.17/outbox.cif.g08.bks.cpg/sg2_39_cif.got.tgz:76487.got - 2010.06.03 11:33:40.
