data_PCOD9087773
_publ_section_title
;
Structure prediction by ZEFSAII (Michael W. Deem and Ramdas Pophale) SiO2 
 PCOD9087773
Probable space group: P -1
;
_chemical_formula_sum "Si O2"
_cell_formula_units_Z 16
_cell_length_a 13.773050
_cell_length_b 10.579990
_cell_length_c 12.495595
_cell_angle_alpha 46.731790
_cell_angle_beta 31.977825
_cell_angle_gamma 44.363069
_cell_volume 658.727718
_symmetry_space_group_name_H-M "P -1"
_symmetry_group_IT_number 2
_symmetry_cell_setting 'triclinic'
loop_
_space_group_symop_operation_xyz
x,y,z
-x,-y,-z
loop_
_atom_site_type_symbol
_atom_site_label
_atom_site_fract_x
_atom_site_fract_y
_atom_site_fract_z
Si Si1 0.295630 0.054802 0.561711
Si Si2 0.770793 0.582945 0.137535
Si Si3 0.205852 0.212043 0.331230
Si Si4 0.651407 0.990513 0.002471
Si Si5 0.710627 0.061026 0.147516
Si Si6 0.202932 0.682545 0.383622
Si Si7 0.729671 0.431417 0.850077
Si Si8 0.491495 0.623621 0.581750
O O1 0.206464 0.077095 0.750927
O O2 0.397360 0.834681 0.581936
O O3 0.174630 0.130848 0.524383
O O4 0.474956 0.131371 0.343927
O O5 0.624083 0.619008 0.356031
O O6 0.689613 0.447968 0.224449
O O7 0.723550 0.783541 0.012094
O O8 0.000000 0.500000 0.000000
O O9 0.415996 0.071890 0.179572
O O10 0.224702 0.411163 0.219213
O O11 0.020276 0.238166 0.415486
O O12 0.734756 0.976550 0.055160
O O13 0.719583 0.146623 0.795008
O O14 0.777317 0.237479 0.978868
O O15 0.184706 0.602274 0.329660
O O16 0.356173 0.517667 0.399888
O O17 0.500000 0.500000 0.000000
#
# Coordination Sequence:
#
# PCOD9087773 Si02
#       8
#     2   2   2   2   2   2   2   2
#     4  10  19  36  67  96 132 171 217 262 327 380
#     4  11  26  48  72  93 128 171 221 279 336 384
#     4  11  22  39  64  95 136 178 215 263 320 393
#     4  10  22  43  67  96 134 171 218 275 326 381
#     4   9  18  34  64  95 131 177 203 261 324 383
#     4  11  25  39  68  98 135 175 218 261 330 395
#     4  11  18  38  59  94 144 181 207 259 325 384
#     4  11  25  45  68  99 129 170 218 278 325 387
#
# _framework density 24.289247
#
# number of rings (size 3 to 8) (size 9 to 14) (size 15 to 20)
#    0.000    1.500    6.250    1.125    3.500    1.500 
#    0.000    3.750    0.000    0.000    0.000    0.000 
#    0.000    0.000    0.000    0.000    0.000    0.000 
#
# Total GULP energy -89531.082262 kJ/mol
# GULP energy per Si atom -5595.692641 kJ/mol
# Density = 2.423396 g / cm^3
# Si number density = 24.289247 Si / 1000 Ang^3
#
#
#
# Elastic Constant Matrix: (Units=GPa)
#
#
# Indices 1 2 3 4 5 6 
#
# 1 64.4506 36.1784 38.7515 4.2053 -13.1064 -25.0473
# 2 36.1784 88.4269 47.9052 -14.1695 -27.9956 -10.8263
# 3 38.7515 47.9052 93.3956 -2.1973 -12.2857 -16.5694
# 4 4.2053 -14.1695 -2.1973 42.7001 -12.9471 -4.8477
# 5 -13.1064 -27.9956 -12.2857 -12.9471 38.4423 12.3122
# 6 -25.0473 -10.8263 -16.5694 -4.8477 12.3122 30.2305
#
#
#
# Elastic Compliance Matrix: (Units=1/GPa)
#
#
# Indices 1 2 3 4 5 6 
#
# 1 0.032516 -0.012088 -0.004661 -0.007622 -0.008977 0.022491
# 2 -0.012088 0.029938 -0.008771 0.016707 0.024105 -0.011239
# 3 -0.004661 -0.008771 0.017164 -0.002517 -0.004577 0.003865
# 4 -0.007622 0.016707 -0.002517 0.035815 0.022465 -0.005118
# 5 -0.008977 0.024105 -0.004577 0.022465 0.052759 -0.019199
# 6 0.022491 -0.011239 0.003865 -0.005118 -0.019199 0.056806
#
#
# Mechanical properties :
#
#
# Convention : Reuss Voigt Hill
#
# Bulk Modulus (GPa) = 34.99092 54.66034 44.82563
# Shear Modulus (GPa) = 17.50907 30.50378 24.00643
#
# Velocity S-wave (km/s) = 2.68779 3.54765 3.14722
# Velocity P-wave (km/s) = 4.90607 6.27167 5.63042
#
# Compressibility (1/GPa) = 0.02857884
#
# Stress axis : x y z
#
# Youngs Moduli (GPa) = 30.75368 33.40182 58.26012
#
# Poissons Ratio (x) = 0.40377 0.27157
# Poissons Ratio (y) = 0.37176 0.51098
# Poissons Ratio (z) = 0.14335 0.29296
#
# Static dielectric constant tensor:
#      x y z
#    x 1.994550 0.019920 0.063380 
#    y 0.019920 1.939960 0.069840 
#    z 0.063380 0.069840 1.990400 
# 
# From -- ./inp_files/531613.got.cif
#   From: 2010.05.17/outbox.cif.g08.bks.cpg/sg2_266_cif.got.tgz:531613.got - 2010.06.03 11:33:40.
