data_PCOD9087146
_publ_section_title
;
Structure prediction by ZEFSAII (Michael W. Deem and Ramdas Pophale) SiO2 
 PCOD9087146
Probable space group: P -1
;
_chemical_formula_sum "Si O2"
_cell_formula_units_Z 16
_cell_length_a 18.713953
_cell_length_b 15.900336
_cell_length_c 22.266674
_cell_angle_alpha 164.537240
_cell_angle_beta 152.291174
_cell_angle_gamma 33.624508
_cell_volume 809.960551
_symmetry_space_group_name_H-M "P -1"
_symmetry_group_IT_number 2
_symmetry_cell_setting 'triclinic'
loop_
_space_group_symop_operation_xyz
x,y,z
-x,-y,-z
loop_
_atom_site_type_symbol
_atom_site_label
_atom_site_fract_x
_atom_site_fract_y
_atom_site_fract_z
Si Si1 0.295264 0.455311 0.655062
Si Si2 0.520478 0.797209 0.973130
Si Si3 0.716664 0.276957 0.541201
Si Si4 0.948234 0.121046 0.691323
Si Si5 0.028850 0.861967 0.863741
Si Si6 0.842498 0.901237 0.990555
Si Si7 0.301166 0.199768 0.013683
Si Si8 0.163819 0.223123 0.514018
O O1 0.136742 0.277100 0.384650
O O2 0.297819 0.286842 0.606395
O O3 0.261973 0.819527 0.889863
O O4 0.435051 0.490136 0.735442
O O5 0.597841 0.036700 0.247741
O O6 0.639870 0.741217 0.970349
O O7 0.395619 0.965390 0.959034
O O8 0.854326 0.093281 0.540263
O O9 0.773672 0.574195 0.744857
O O10 0.671030 0.466825 0.697597
O O11 0.119718 0.026567 0.758067
O O12 0.833085 0.961668 0.548325
O O13 0.000000 0.500000 0.000000
O O14 0.125030 0.572347 0.739953
O O15 0.120905 0.128839 0.072514
O O16 0.000000 0.000000 0.000000
O O17 0.006803 0.034652 0.236451
#
# Coordination Sequence:
#
# PCOD9087146 Si02
#       8
#     2   2   2   2   2   2   2   2
#     4   9  18  33  52  76 116 147 183 232 291 339
#     4  11  22  36  56  87 121 156 183 240 294 348
#     4  11  21  36  60  87 115 153 197 232 289 352
#     4  10  19  36  62  84 112 151 197 243 286 336
#     4   9  18  30  52  84 111 143 191 244 284 329
#     4   9  16  31  53  80 108 144 188 238 281 328
#     4  10  21  36  55  84 118 149 192 240 286 336
#     4   9  16  33  56  76 108 148 189 236 282 336
#
# _framework density 19.754048999999998
#
# number of rings (size 3 to 8) (size 9 to 14) (size 15 to 20)
#    0.000    2.250    3.750    2.625    0.000    3.500 
#    2.250    0.625    0.000    3.000    0.000    0.000 
#    0.000    0.000    0.000    0.000    0.000    0.000 
#
# Total GULP energy -89091.336851 kJ/mol
# GULP energy per Si atom -5568.208553 kJ/mol
# Density = 1.970909 g / cm^3
# Si number density = 19.754049 Si / 1000 Ang^3
#
#
#
# Elastic Constant Matrix: (Units=GPa)
#
#
# Indices 1 2 3 4 5 6 
#
# 1 150.6891 20.0340 41.8147 6.7877 19.7987 26.2037
# 2 20.0340 52.7627 23.4008 -6.0642 9.0416 21.7912
# 3 41.8147 23.4008 50.7759 0.0195 11.8782 15.4216
# 4 6.7877 -6.0642 0.0195 16.5417 6.0047 8.5822
# 5 19.7987 9.0416 11.8782 6.0047 29.7678 13.0116
# 6 26.2037 21.7912 15.4216 8.5822 13.0116 21.4379
#
#
#
# Elastic Compliance Matrix: (Units=1/GPa)
#
#
# Indices 1 2 3 4 5 6 
#
# 1 0.010384 0.008413 -0.006179 0.009517 0.000126 -0.020686
# 2 0.008413 0.081494 -0.007502 0.090097 0.011680 -0.130881
# 3 -0.006179 -0.007502 0.031226 0.004702 -0.004101 -0.006677
# 4 0.009517 0.090097 0.004702 0.182349 0.008368 -0.184675
# 5 0.000126 0.011680 -0.004101 0.008368 0.048104 -0.041622
# 6 -0.020686 -0.130881 -0.006677 -0.184675 -0.041622 0.308965
#
#
# Mechanical properties :
#
#
# Convention : Reuss Voigt Hill
#
# Bulk Modulus (GPa) = 8.88347 47.19187 28.03767
# Shear Modulus (GPa) = 7.03650 24.81469 15.92560
#
# Velocity S-wave (km/s) = 1.88939 3.54811 2.84244
# Velocity P-wave (km/s) = 3.04410 6.38177 4.99968
#
# Compressibility (1/GPa) = 0.11256860
#
# Stress axis : x y z
#
# Youngs Moduli (GPa) = 96.29983 12.27090 32.02442
#
# Poissons Ratio (x) = -0.10324 0.19789
# Poissons Ratio (y) = -0.81021 0.24024
# Poissons Ratio (z) = 0.59507 0.09205
#
# Static dielectric constant tensor:
#      x y z
#    x 1.770490 -0.016780 0.021130 
#    y -0.016780 1.728770 -0.010180 
#    z 0.021130 -0.010180 1.672580 
# 
# From -- ./inp_files/347178.got.cif
#   From: 2010.05.17/outbox.cif.g08.bks.cpg/sg2_174_cif.got.tgz:347178.got - 2010.06.03 11:33:40.
