data_PCOD9087594
_publ_section_title
;
Structure prediction by ZEFSAII (Michael W. Deem and Ramdas Pophale) SiO2 
 PCOD9087594
Probable space group: P -1
;
_chemical_formula_sum "Si O2"
_cell_formula_units_Z 12
_cell_length_a 7.416257
_cell_length_b 8.296576
_cell_length_c 8.886620
_cell_angle_alpha 109.437760
_cell_angle_beta 112.109713
_cell_angle_gamma 63.224880
_cell_volume 443.372640
_symmetry_space_group_name_H-M "P -1"
_symmetry_group_IT_number 2
_symmetry_cell_setting 'triclinic'
loop_
_space_group_symop_operation_xyz
x,y,z
-x,-y,-z
loop_
_atom_site_type_symbol
_atom_site_label
_atom_site_fract_x
_atom_site_fract_y
_atom_site_fract_z
Si Si1 0.727841 0.698492 0.447477
Si Si2 0.482410 0.808425 0.135230
Si Si3 0.535631 0.419342 0.322228
Si Si4 0.172152 0.175708 0.182567
Si Si5 0.054502 0.863206 0.614996
Si Si6 0.225354 0.544892 0.006493
O O1 0.537838 0.840539 0.335520
O O2 0.693756 0.513797 0.333240
O O3 0.718141 0.733504 0.634294
O O4 0.946724 0.717756 0.483363
O O5 0.347263 0.678824 0.033071
O O6 0.343486 0.009536 0.096655
O O7 0.702533 0.664559 0.098196
O O8 0.500000 0.500000 0.500000
O O9 0.695556 0.210836 0.307657
O O10 0.321601 0.498863 0.189356
O O11 0.053799 0.084888 0.237437
O O12 0.007865 0.329067 0.075048
O O13 0.000000 0.000000 0.500000
#
# Coordination Sequence:
#
# PCOD9087594 Si02
#       6
#     2   2   2   2   2   2
#     4   9  22  39  69  95 129 178 218 264 323 396
#     4  10  19  36  64  95 128 169 218 263 322 394
#     4  11  24  43  67  94 132 173 223 270 328 399
#     4  10  21  38  68  97 128 172 224 264 327 385
#     4  10  23  38  65 102 127 166 221 271 326 383
#     4  10  22  37  62  97 130 175 215 269 331 388
#
# _framework density 27.065266000000001
#
# number of rings (size 3 to 8) (size 9 to 14) (size 15 to 20)
#    1.000    1.000    0.000    4.500    7.000    0.000 
#    0.000    0.833    0.000   10.000    0.000    0.000 
#    0.000    0.000    0.000    0.000    0.000    0.000 
#
# Total GULP energy -66920.809420 kJ/mol
# GULP energy per Si atom -5576.734118 kJ/mol
# Density = 2.700366 g / cm^3
# Si number density = 27.065266 Si / 1000 Ang^3
#
#
#
# Elastic Constant Matrix: (Units=GPa)
#
#
# Indices 1 2 3 4 5 6 
#
# 1 109.1462 53.5625 36.4956 -12.3893 13.2779 -7.8981
# 2 53.5625 196.9617 91.4443 -35.9727 12.7016 -60.6202
# 3 36.4956 91.4443 170.1572 -22.1840 16.8405 -24.7337
# 4 -12.3893 -35.9727 -22.1840 48.8047 -1.2199 9.3196
# 5 13.2779 12.7016 16.8405 -1.2199 47.8912 -4.0251
# 6 -7.8981 -60.6202 -24.7337 9.3196 -4.0251 43.8071
#
#
#
# Elastic Compliance Matrix: (Units=1/GPa)
#
#
# Indices 1 2 3 4 5 6 
#
# 1 0.011241 -0.003635 -0.000714 0.000504 -0.002201 -0.003716
# 2 -0.003635 0.012848 -0.003516 0.004231 0.000142 0.014251
# 3 -0.000714 -0.003516 0.008112 0.001022 -0.001763 -0.000793
# 4 0.000504 0.004231 0.001022 0.023920 -0.000898 0.001351
# 5 -0.002201 0.000142 -0.001763 -0.000898 0.022137 0.001030
# 6 -0.003716 0.014251 -0.000793 0.001351 0.001030 0.041237
#
#
# Mechanical properties :
#
#
# Convention : Reuss Voigt Hill
#
# Bulk Modulus (GPa) = 60.71449 93.25220 76.98334
# Shear Modulus (GPa) = 35.53285 47.75144 41.64215
#
# Velocity S-wave (km/s) = 3.62727 4.20492 3.92673
# Velocity P-wave (km/s) = 6.32646 7.62263 7.00459
#
# Compressibility (1/GPa) = 0.01647053
#
# Stress axis : x y z
#
# Youngs Moduli (GPa) = 88.96234 77.83470 123.27609
#
# Poissons Ratio (x) = 0.28294 0.08802
# Poissons Ratio (y) = 0.32339 0.43341
# Poissons Ratio (z) = 0.06352 0.27365
#
# Static dielectric constant tensor:
#      x y z
#    x 2.249380 0.043530 -0.038680 
#    y 0.043530 2.212220 -0.029760 
#    z -0.038680 -0.029760 2.149660 
# 
# From -- ./inp_files/155926.got.cif
#   From: 2010.05.17/outbox.cif.g08.bks.cpg/sg2_78_cif.got.tgz:155926.got - 2010.06.03 11:33:40.
