data_PCOD9087123
_publ_section_title
;
Structure prediction by ZEFSAII (Michael W. Deem and Ramdas Pophale) SiO2 
 PCOD9087123
Probable space group: P -1
;
_chemical_formula_sum "Si O2"
_cell_formula_units_Z 16
_cell_length_a 15.997328
_cell_length_b 7.379450
_cell_length_c 21.417434
_cell_angle_alpha 40.667687
_cell_angle_beta 153.074633
_cell_angle_gamma 139.748053
_cell_volume 712.998646
_symmetry_space_group_name_H-M "P -1"
_symmetry_group_IT_number 2
_symmetry_cell_setting 'triclinic'
loop_
_space_group_symop_operation_xyz
x,y,z
-x,-y,-z
loop_
_atom_site_type_symbol
_atom_site_label
_atom_site_fract_x
_atom_site_fract_y
_atom_site_fract_z
Si Si1 0.162292 0.864749 0.168611
Si Si2 0.556882 0.277016 0.287578
Si Si3 0.350923 0.422160 0.362208
Si Si4 0.359121 0.208550 0.619528
Si Si5 0.899160 0.224459 0.607035
Si Si6 0.328112 0.325992 0.846734
Si Si7 0.983576 0.576043 0.699200
Si Si8 0.382635 0.861663 0.841916
O O1 0.214217 0.631264 0.218334
O O2 0.087887 0.668085 0.231591
O O3 0.364700 0.125696 0.238779
O O4 0.000000 0.000000 0.000000
O O5 0.755007 0.349507 0.438647
O O6 0.556425 0.544501 0.172927
O O7 0.577516 0.026746 0.318390
O O8 0.500000 0.500000 0.500000
O O9 0.484391 0.487070 0.373029
O O10 0.222790 0.097755 0.370870
O O11 0.156302 0.221278 0.453595
O O12 0.361127 0.118903 0.715958
O O13 0.954310 0.410255 0.657378
O O14 0.099834 0.224581 0.708929
O O15 0.361489 0.594830 0.848210
O O16 0.416533 0.098307 0.999430
O O17 0.207449 0.758873 0.801088
#
# Coordination Sequence:
#
# PCOD9087123 Si02
#       8
#     2   2   2   2   2   2   2   2
#     4  11  22  38  63  87 114 156 195 234 286 348
#     4  10  19  37  59  83 113 155 196 229 288 348
#     4  11  20  41  60  83 111 158 193 229 289 353
#     4  10  19  36  62  80 111 158 196 231 280 355
#     4  11  21  35  60  88 115 146 195 242 291 335
#     4   9  19  35  56  81 116 151 192 239 284 344
#     4  11  21  35  58  91 117 147 194 245 283 336
#     4   9  19  35  55  83 115 153 190 235 292 338
#
# _framework density 22.440436999999999
#
# number of rings (size 3 to 8) (size 9 to 14) (size 15 to 20)
#    0.000    1.750    3.750    1.500    0.000    5.000 
#    0.000    3.750    0.000    4.500    0.000    0.000 
#    0.000    0.000    0.000    0.000    0.000    0.000 
#
# Total GULP energy -89402.363962 kJ/mol
# GULP energy per Si atom -5587.647748 kJ/mol
# Density = 2.238936 g / cm^3
# Si number density = 22.440437 Si / 1000 Ang^3
#
#
#
# Elastic Constant Matrix: (Units=GPa)
#
#
# Indices 1 2 3 4 5 6 
#
# 1 88.6322 17.9194 46.1318 2.6435 -1.0042 40.3576
# 2 17.9194 49.6092 26.5204 1.8809 -4.5170 20.2521
# 3 46.1318 26.5204 166.5794 -12.0292 -4.4171 30.7989
# 4 2.6435 1.8809 -12.0292 29.3235 5.5204 1.0351
# 5 -1.0042 -4.5170 -4.4171 5.5204 26.0903 -7.5016
# 6 40.3576 20.2521 30.7989 1.0351 -7.5016 46.5493
#
#
#
# Elastic Compliance Matrix: (Units=1/GPa)
#
#
# Indices 1 2 3 4 5 6 
#
# 1 0.020139 0.000684 -0.002872 -0.001710 -0.003963 -0.016459
# 2 0.000684 0.025504 -0.002628 -0.002781 0.001827 -0.009593
# 3 -0.002872 -0.002628 0.007788 0.003782 -0.000533 -0.001690
# 4 -0.001710 -0.002781 0.003782 0.037648 -0.008450 -0.002009
# 5 -0.003963 0.001827 -0.000533 -0.008450 0.043102 0.010128
# 6 -0.016459 -0.009593 -0.001690 -0.002009 0.010128 0.042720
#
#
# Mechanical properties :
#
#
# Convention : Reuss Voigt Hill
#
# Bulk Modulus (GPa) = 22.83189 53.99601 38.41395
# Shear Modulus (GPa) = 24.85897 34.67591 29.76744
#
# Velocity S-wave (km/s) = 3.33194 3.93522 3.64608
# Velocity P-wave (km/s) = 4.99989 6.69045 5.90597
#
# Compressibility (1/GPa) = 0.04379839
#
# Stress axis : x y z
#
# Youngs Moduli (GPa) = 49.65391 39.20990 128.39752
#
# Poissons Ratio (x) = -0.02680 0.36872
# Poissons Ratio (y) = -0.03394 0.33747
# Poissons Ratio (z) = 0.14259 0.10306
#
# Static dielectric constant tensor:
#      x y z
#    x 1.917910 -0.032550 -0.006140 
#    y -0.032550 1.879430 -0.002820 
#    z -0.006140 -0.002820 1.849520 
# 
# From -- ./inp_files/240500.got.cif
#   From: 2010.05.17/outbox.cif.g08.bks.cpg/sg2_121_cif.got.tgz:240500.got - 2010.06.03 11:33:40.
