data_PCOD9087624
_publ_section_title
;
Structure prediction by ZEFSAII (Michael W. Deem and Ramdas Pophale) SiO2 
 PCOD9087624
Probable space group: P -1
;
_chemical_formula_sum "Si O2"
_cell_formula_units_Z 16
_cell_length_a 9.646597
_cell_length_b 8.176940
_cell_length_c 11.292627
_cell_angle_alpha 82.627423
_cell_angle_beta 88.072737
_cell_angle_gamma 45.670424
_cell_volume 629.945704
_symmetry_space_group_name_H-M "P -1"
_symmetry_group_IT_number 2
_symmetry_cell_setting 'triclinic'
loop_
_space_group_symop_operation_xyz
x,y,z
-x,-y,-z
loop_
_atom_site_type_symbol
_atom_site_label
_atom_site_fract_x
_atom_site_fract_y
_atom_site_fract_z
Si Si1 0.064900 0.120433 0.434909
Si Si2 0.736262 0.461576 0.017005
Si Si3 0.823638 0.042618 0.165823
Si Si4 0.937530 0.374653 0.648515
Si Si5 0.843100 0.518741 0.237712
Si Si6 0.592766 0.180219 0.712591
Si Si7 0.362440 0.958968 0.033635
Si Si8 0.590330 0.565296 0.749131
O O1 0.020997 0.288372 0.523456
O O2 0.928454 0.280530 0.313568
O O3 0.284876 0.941350 0.398544
O O4 0.000000 0.000000 0.500000
O O5 0.821797 0.218335 0.082878
O O6 0.837504 0.509815 0.096269
O O7 0.509014 0.679206 0.040541
O O8 0.715632 0.486632 0.874511
O O9 0.625868 0.197591 0.234264
O O10 0.996436 0.848801 0.264680
O O11 0.799481 0.931041 0.070379
O O12 0.030561 0.442232 0.714827
O O13 0.705393 0.571303 0.645911
O O14 0.623276 0.713216 0.277090
O O15 0.705631 0.994119 0.834434
O O16 0.580655 0.384955 0.722618
O O17 0.500000 0.000000 0.000000
#
# Coordination Sequence:
#
# PCOD9087624 Si02
#       8
#     2   2   2   2   2   2   2   2
#     4  12  27  46  70  98 128 178 238 273 316 398
#     4  10  20  39  67  97 129 175 219 264 331 411
#     4  11  20  40  68  95 132 174 220 265 328 408
#     4  12  28  43  65 102 133 174 226 281 327 382
#     4  11  26  46  66  97 138 166 220 286 332 389
#     4  11  23  44  72  97 132 182 218 267 339 387
#     4  10  19  36  65 102 135 166 214 271 331 395
#     4  11  22  41  70  99 136 173 220 270 332 393
#
# _framework density 25.399014000000001
#
# number of rings (size 3 to 8) (size 9 to 14) (size 15 to 20)
#    0.000    1.000    5.000    3.375    0.000    7.000 
#    0.000    0.000    0.000    0.000    0.000    0.000 
#    0.000    0.000    0.000    0.000    0.000    0.000 
#
# Total GULP energy -89573.822687 kJ/mol
# GULP energy per Si atom -5598.363918 kJ/mol
# Density = 2.534120 g / cm^3
# Si number density = 25.399014 Si / 1000 Ang^3
#
#
#
# Elastic Constant Matrix: (Units=GPa)
#
#
# Indices 1 2 3 4 5 6 
#
# 1 81.1896 7.2628 -0.6594 32.8619 -11.6504 2.6894
# 2 7.2628 65.4473 22.4932 10.3086 -15.3482 -8.7827
# 3 -0.6594 22.4932 52.3348 28.1044 -13.0004 -1.6849
# 4 32.8619 10.3086 28.1044 54.0803 -8.5920 -4.2151
# 5 -11.6504 -15.3482 -13.0004 -8.5920 36.3670 8.8654
# 6 2.6894 -8.7827 -1.6849 -4.2151 8.8654 43.2120
#
#
#
# Elastic Compliance Matrix: (Units=1/GPa)
#
#
# Indices 1 2 3 4 5 6 
#
# 1 0.021274 -0.002903 0.012970 -0.018361 0.007020 -0.004639
# 2 -0.002903 0.019639 -0.009405 0.003817 0.004084 0.003340
# 3 0.012970 -0.009405 0.039110 -0.025334 0.009552 -0.005625
# 4 -0.018361 0.003817 -0.025334 0.041772 -0.004925 0.006016
# 5 0.007020 0.004084 0.009552 -0.004925 0.035423 -0.006982
# 6 -0.004639 0.003340 -0.005625 0.006016 -0.006982 0.025909
#
#
# Mechanical properties :
#
#
# Convention : Reuss Voigt Hill
#
# Bulk Modulus (GPa) = 12.29302 28.57386 20.43344
# Shear Modulus (GPa) = 23.93278 38.05686 30.99482
#
# Velocity S-wave (km/s) = 3.07298 3.87506 3.49709
# Velocity P-wave (km/s) = 4.17629 5.59427 4.93646
#
# Compressibility (1/GPa) = 0.08134695
#
# Stress axis : x y z
#
# Youngs Moduli (GPa) = 47.00491 50.92007 25.56915
#
# Poissons Ratio (x) = 0.14781 -0.33163
# Poissons Ratio (y) = 0.13644 0.24048
# Poissons Ratio (z) = -0.60965 0.47890
#
# Static dielectric constant tensor:
#      x y z
#    x 1.994200 0.031460 -0.002730 
#    y 0.031460 2.078080 -0.016430 
#    z -0.002730 -0.016430 2.043160 
# 
# From -- ./inp_files/381959.got.cif
#   From: 2010.05.17/outbox.cif.g08.bks.cpg/sg2_191_cif.got.tgz:381959.got - 2010.06.03 11:33:40.
