data_PCOD9087232
_publ_section_title
;
Structure prediction by ZEFSAII (Michael W. Deem and Ramdas Pophale) SiO2 
 PCOD9087232
Probable space group: P -1
;
_chemical_formula_sum "Si O2"
_cell_formula_units_Z 16
_cell_length_a 14.831651
_cell_length_b 14.487435
_cell_length_c 9.159375
_cell_angle_alpha 94.314966
_cell_angle_beta 123.979235
_cell_angle_gamma 39.355735
_cell_volume 760.033912
_symmetry_space_group_name_H-M "P -1"
_symmetry_group_IT_number 2
_symmetry_cell_setting 'triclinic'
loop_
_space_group_symop_operation_xyz
x,y,z
-x,-y,-z
loop_
_atom_site_type_symbol
_atom_site_label
_atom_site_fract_x
_atom_site_fract_y
_atom_site_fract_z
Si Si1 0.175358 0.936771 0.470175
Si Si2 0.519714 0.084584 0.456425
Si Si3 0.006469 0.252487 0.289261
Si Si4 0.319331 0.364575 0.108998
Si Si5 0.980367 0.324784 0.603795
Si Si6 0.482275 0.219621 0.718755
Si Si7 0.259009 0.279955 0.768341
Si Si8 0.103197 0.030406 0.760325
O O1 0.441889 0.760544 0.655692
O O2 0.155439 0.968442 0.630619
O O3 0.009175 0.139323 0.269879
O O4 0.086725 0.901081 0.352706
O O5 0.299875 0.299838 0.206872
O O6 0.587578 0.101840 0.651504
O O7 0.500000 0.000000 0.500000
O O8 0.721599 0.927126 0.499873
O O9 0.918790 0.345866 0.381918
O O10 0.875974 0.411492 0.069581
O O11 0.331465 0.297004 0.961704
O O12 0.764309 0.543775 0.499966
O O13 0.210914 0.215305 0.784652
O O14 0.022773 0.197452 0.710148
O O15 0.422499 0.178547 0.767188
O O16 0.662056 0.150619 0.955260
O O17 0.000000 0.500000 0.500000
#
# Coordination Sequence:
#
# PCOD9087232 Si02
#       8
#     2   2   2   2   2   2   2   2
#     4   9  20  38  61  98 117 154 211 258 301 360
#     4  11  27  39  56  93 131 161 201 245 306 372
#     4  10  20  41  62  86 121 166 203 241 308 366
#     4  11  21  41  63  84 125 168 195 245 311 360
#     4  10  21  36  63  93 119 158 210 246 300 370
#     4  11  22  40  58  93 126 157 204 257 297 357
#     4  10  19  36  62  90 118 156 205 244 294 370
#     4  10  20  36  63  92 127 151 203 266 307 339
#
# _framework density 21.051693
#
# number of rings (size 3 to 8) (size 9 to 14) (size 15 to 20)
#    0.000    1.750    3.750    0.750    3.500    3.000 
#    0.000    6.250    0.000    4.500    0.000    0.000 
#    0.000    0.000    0.000    0.000    0.000    0.000 
#
# Total GULP energy -89266.873415 kJ/mol
# GULP energy per Si atom -5579.179588 kJ/mol
# Density = 2.100378 g / cm^3
# Si number density = 21.051693 Si / 1000 Ang^3
#
#
#
# Elastic Constant Matrix: (Units=GPa)
#
#
# Indices 1 2 3 4 5 6 
#
# 1 87.7115 15.5126 25.0539 0.8437 6.8371 30.0290
# 2 15.5126 50.8086 13.0447 -3.0022 -0.5335 10.0136
# 3 25.0539 13.0447 72.6578 -7.6991 -5.4788 6.3280
# 4 0.8437 -3.0022 -7.6991 23.8533 5.1366 -4.9747
# 5 6.8371 -0.5335 -5.4788 5.1366 35.3498 0.0007
# 6 30.0290 10.0136 6.3280 -4.9747 0.0007 29.0608
#
#
#
# Elastic Compliance Matrix: (Units=1/GPa)
#
#
# Indices 1 2 3 4 5 6 
#
# 1 0.020924 -0.001085 -0.006175 -0.006366 -0.004095 -0.020993
# 2 -0.001085 0.021940 -0.003003 0.000651 -0.000019 -0.005674
# 3 -0.006175 -0.003003 0.016839 0.005625 0.002942 0.004712
# 4 -0.006366 0.000651 0.005625 0.047867 -0.004843 0.013323
# 5 -0.004095 -0.000019 0.002942 -0.004843 0.030240 0.002768
# 6 -0.020993 -0.005674 0.004712 0.013323 0.002768 0.059312
#
#
# Mechanical properties :
#
#
# Convention : Reuss Voigt Hill
#
# Bulk Modulus (GPa) = 25.52528 35.37782 30.45155
# Shear Modulus (GPa) = 21.67224 28.15721 24.91473
#
# Velocity S-wave (km/s) = 3.21203 3.66119 3.44394
# Velocity P-wave (km/s) = 5.08994 5.89187 5.50553
#
# Compressibility (1/GPa) = 0.03917685
#
# Stress axis : x y z
#
# Youngs Moduli (GPa) = 47.79112 45.57784 59.38517
#
# Poissons Ratio (x) = 0.04945 0.36673
# Poissons Ratio (y) = 0.05185 0.17835
# Poissons Ratio (z) = 0.29513 0.13688
#
# Static dielectric constant tensor:
#      x y z
#    x 1.796880 0.026400 -0.037060 
#    y 0.026400 1.751540 -0.021200 
#    z -0.037060 -0.021200 1.773470 
# 
# From -- ./inp_files/207546.got.cif
#   From: 2010.05.17/outbox.cif.g08.bks.cpg/sg2_104_cif.got.tgz:207546.got - 2010.06.03 11:33:40.
