data_PCOD9087222
_publ_section_title
;
Structure prediction by ZEFSAII (Michael W. Deem and Ramdas Pophale) SiO2 
 PCOD9087222
Probable space group: P -1
;
_chemical_formula_sum "Si O2"
_cell_formula_units_Z 16
_cell_length_a 12.921878
_cell_length_b 11.762587
_cell_length_c 8.884718
_cell_angle_alpha 124.576989
_cell_angle_beta 144.354983
_cell_angle_gamma 51.310808
_cell_volume 608.991258
_symmetry_space_group_name_H-M "P -1"
_symmetry_group_IT_number 2
_symmetry_cell_setting 'triclinic'
loop_
_space_group_symop_operation_xyz
x,y,z
-x,-y,-z
loop_
_atom_site_type_symbol
_atom_site_label
_atom_site_fract_x
_atom_site_fract_y
_atom_site_fract_z
Si Si1 0.977717 0.703056 0.004934
Si Si2 0.319917 0.942971 0.990602
Si Si3 0.297435 0.493889 0.806928
Si Si4 0.934809 0.049281 0.789147
Si Si5 0.103001 0.592855 0.372152
Si Si6 0.612250 0.803147 0.478926
Si Si7 0.477542 0.635207 0.766945
Si Si8 0.528097 0.151526 0.336108
O O1 0.969619 0.544336 0.837821
O O2 0.796990 0.813256 0.785681
O O3 0.126101 0.772924 0.170497
O O4 0.981670 0.710760 0.196957
O O5 0.463859 0.915837 0.281862
O O6 0.384937 0.062312 0.067065
O O7 0.383258 0.786352 0.864583
O O8 0.105173 0.976960 0.818426
O O9 0.134049 0.610736 0.602100
O O10 0.300309 0.339987 0.627794
O O11 0.500000 0.500000 0.000000
O O12 0.330674 0.469814 0.005451
O O13 0.739726 0.031123 0.494008
O O14 0.000000 0.000000 0.000000
O O15 0.313628 0.562730 0.527376
O O16 0.496524 0.787780 0.476404
O O17 0.514382 0.705872 0.710650
#
# Coordination Sequence:
#
# PCOD9087222 Si02
#       8
#     2   2   2   2   2   2   2   2
#     4  10  19  36  63  92 126 160 208 271 311 358
#     4  11  23  41  61  93 136 166 207 265 320 381
#     4   8  17  35  60  86 119 164 208 255 316 369
#     4  12  23  38  65  96 127 167 206 263 323 375
#     4   9  18  37  63  87 120 170 211 255 316 369
#     4  10  19  36  62  89 122 166 205 261 313 365
#     4  10  21  38  62  93 125 173 210 256 327 383
#     4  12  22  37  61  97 128 163 218 256 313 381
#
# _framework density 26.272953999999999
#
# number of rings (size 3 to 8) (size 9 to 14) (size 15 to 20)
#    0.000    1.750    3.750    1.500    0.000    0.500 
#    0.000    5.625    0.000    1.500    0.000    0.000 
#    0.000    0.000    0.000    0.000    0.000    0.000 
#
# Total GULP energy -89205.236536 kJ/mol
# GULP energy per Si atom -5575.327284 kJ/mol
# Density = 2.621316 g / cm^3
# Si number density = 26.272954 Si / 1000 Ang^3
#
#
#
# Elastic Constant Matrix: (Units=GPa)
#
#
# Indices 1 2 3 4 5 6 
#
# 1 84.6896 34.9248 37.3974 -2.4177 5.3524 21.4648
# 2 34.9248 106.2896 29.3674 -10.1343 -6.5460 33.4075
# 3 37.3974 29.3674 112.3036 -20.3402 1.6954 4.3206
# 4 -2.4177 -10.1343 -20.3402 39.2910 15.7403 -9.3546
# 5 5.3524 -6.5460 1.6954 15.7403 33.0235 -9.6804
# 6 21.4648 33.4075 4.3206 -9.3546 -9.6804 43.7418
#
#
#
# Elastic Compliance Matrix: (Units=1/GPa)
#
#
# Indices 1 2 3 4 5 6 
#
# 1 0.017152 -0.002306 -0.005194 -0.002409 -0.004036 -0.007551
# 2 -0.002306 0.013710 -0.002550 -0.000374 0.000763 -0.008999
# 3 -0.005194 -0.002550 0.012556 0.007619 -0.002682 0.004292
# 4 -0.002409 -0.000374 0.007619 0.036815 -0.016153 0.005014
# 5 -0.004036 0.000763 -0.002682 -0.016153 0.041062 0.007296
# 6 -0.007551 -0.008999 0.004292 0.005014 0.007296 0.035703
#
#
# Mechanical properties :
#
#
# Convention : Reuss Voigt Hill
#
# Bulk Modulus (GPa) = 42.88355 56.29576 49.58965
# Shear Modulus (GPa) = 27.04578 36.65081 31.84829
#
# Velocity S-wave (km/s) = 3.21193 3.73902 3.48546
# Velocity P-wave (km/s) = 5.48754 6.33358 5.92568
#
# Compressibility (1/GPa) = 0.02331897
#
# Stress axis : x y z
#
# Youngs Moduli (GPa) = 58.30123 72.93771 79.64219
#
# Poissons Ratio (x) = 0.16818 0.41364
# Poissons Ratio (y) = 0.13443 0.20312
# Poissons Ratio (z) = 0.30280 0.18602
#
# Static dielectric constant tensor:
#      x y z
#    x 2.202960 0.023770 0.085500 
#    y 0.023770 2.359330 0.290060 
#    z 0.085500 0.290060 2.527670 
# 
# From -- ./inp_files/259238.got.cif
#   From: 2010.05.17/outbox.cif.g08.bks.cpg/sg2_130_cif.got.tgz:259238.got - 2010.06.03 11:33:40.
