data_PCOD9087178
_publ_section_title
;
Structure prediction by ZEFSAII (Michael W. Deem and Ramdas Pophale) SiO2 
 PCOD9087178
Probable space group: P -1
;
_chemical_formula_sum "Si O2"
_cell_formula_units_Z 16
_cell_length_a 7.119093
_cell_length_b 13.598521
_cell_length_c 12.387983
_cell_angle_alpha 125.749249
_cell_angle_beta 64.771580
_cell_angle_gamma 139.928583
_cell_volume 626.058095
_symmetry_space_group_name_H-M "P -1"
_symmetry_group_IT_number 2
_symmetry_cell_setting 'triclinic'
loop_
_space_group_symop_operation_xyz
x,y,z
-x,-y,-z
loop_
_atom_site_type_symbol
_atom_site_label
_atom_site_fract_x
_atom_site_fract_y
_atom_site_fract_z
Si Si1 0.332044 0.672608 0.009235
Si Si2 0.782997 0.738070 0.348664
Si Si3 0.481374 0.587506 0.699015
Si Si4 0.370744 0.055714 0.418304
Si Si5 0.069564 0.604775 0.440077
Si Si6 0.422656 0.606272 0.166683
Si Si7 0.349975 0.104569 0.205349
Si Si8 0.126327 0.777567 0.977680
O O1 0.477744 0.707508 0.110899
O O2 0.426486 0.628974 0.856474
O O3 0.304034 0.796821 0.050133
O O4 0.000000 0.500000 0.000000
O O5 0.539830 0.561287 0.358564
O O6 0.726951 0.857003 0.449864
O O7 0.714145 0.683720 0.205848
O O8 0.118363 0.853548 0.376498
O O9 0.715317 0.779786 0.720272
O O10 0.232267 0.488529 0.604665
O O11 0.713617 0.194522 0.452043
O O12 0.329171 0.062867 0.307201
O O13 0.238276 0.604204 0.301014
O O14 0.000000 0.500000 0.500000
O O15 0.200648 0.405839 0.067033
O O16 0.683243 0.207428 0.154439
O O17 0.160608 0.935243 0.071108
#
# Coordination Sequence:
#
# PCOD9087178 Si02
#       8
#     2   2   2   2   2   2   2   2
#     4   9  17  33  59  92 114 147 198 251 293 340
#     4  10  25  39  58  87 125 161 201 236 300 361
#     4  11  21  38  60  92 118 156 201 246 297 358
#     4  10  22  41  58  84 123 162 195 250 291 351
#     4  11  19  37  65  86 115 153 208 246 294 346
#     4  10  19  38  61  88 122 159 195 242 304 358
#     4  10  19  36  62  86 122 148 198 250 301 337
#     4   9  18  34  63  93 113 150 201 255 291 348
#
# _framework density 25.556736000000001
#
# number of rings (size 3 to 8) (size 9 to 14) (size 15 to 20)
#    0.000    2.000    5.000    0.000    3.500    1.500 
#    0.000    3.125    5.500    0.000    0.000    0.000 
#    0.000    0.000    0.000    0.000    0.000    0.000 
#
# Total GULP energy -89240.907350 kJ/mol
# GULP energy per Si atom -5577.556709 kJ/mol
# Density = 2.549857 g / cm^3
# Si number density = 25.556736 Si / 1000 Ang^3
#
#
#
# Elastic Constant Matrix: (Units=GPa)
#
#
# Indices 1 2 3 4 5 6 
#
# 1 64.1331 30.8100 28.3232 4.8189 20.9955 -6.4826
# 2 30.8100 100.8754 44.4247 17.6335 3.1401 -9.2550
# 3 28.3232 44.4247 120.4745 -2.2659 19.3577 3.0375
# 4 4.8189 17.6335 -2.2659 57.7724 -3.5222 3.2380
# 5 20.9955 3.1401 19.3577 -3.5222 28.4867 -10.5238
# 6 -6.4826 -9.2550 3.0375 3.2380 -10.5238 27.1624
#
#
#
# Elastic Compliance Matrix: (Units=1/GPa)
#
#
# Indices 1 2 3 4 5 6 
#
# 1 0.025025 -0.007216 -0.000075 -0.000841 -0.019097 -0.003776
# 2 -0.007216 0.016172 -0.006290 -0.004445 0.010638 0.009143
# 3 -0.000075 -0.006290 0.012550 0.002225 -0.010410 -0.007863
# 4 -0.000841 -0.004445 0.002225 0.019079 0.000456 -0.004061
# 5 -0.019097 0.010638 -0.010410 0.000456 0.064423 0.025137
# 6 -0.003776 0.009143 -0.007863 -0.004061 0.025137 0.050132
#
#
# Mechanical properties :
#
#
# Convention : Reuss Voigt Hill
#
# Bulk Modulus (GPa) = 37.61346 54.73321 46.17333
# Shear Modulus (GPa) = 22.38084 34.81264 28.59674
#
# Velocity S-wave (km/s) = 2.96249 3.69476 3.34870
# Velocity P-wave (km/s) = 5.14309 6.29798 5.74960
#
# Compressibility (1/GPa) = 0.02658623
#
# Stress axis : x y z
#
# Youngs Moduli (GPa) = 39.95938 61.83528 79.67879
#
# Poissons Ratio (x) = 0.44618 0.00595
# Poissons Ratio (y) = 0.28833 0.50122
# Poissons Ratio (z) = 0.00299 0.38897
#
# Static dielectric constant tensor:
#      x y z
#    x 1.793430 0.029970 -0.000370 
#    y 0.029970 2.107310 0.006030 
#    z -0.000370 0.006030 2.053890 
# 
# From -- ./inp_files/399435.got.cif
#   From: 2010.05.17/outbox.cif.g08.bks.cpg/sg2_200_cif.got.tgz:399435.got - 2010.06.03 11:33:40.
