data_PCOD9087768
_publ_section_title
;
Structure prediction by ZEFSAII (Michael W. Deem and Ramdas Pophale) SiO2 
 PCOD9087768
Probable space group: P -1
;
_chemical_formula_sum "Si O2"
_cell_formula_units_Z 16
_cell_length_a 9.546634
_cell_length_b 8.227051
_cell_length_c 16.178879
_cell_angle_alpha 43.435349
_cell_angle_beta 108.446392
_cell_angle_gamma 130.221853
_cell_volume 638.312171
_symmetry_space_group_name_H-M "P -1"
_symmetry_group_IT_number 2
_symmetry_cell_setting 'triclinic'
loop_
_space_group_symop_operation_xyz
x,y,z
-x,-y,-z
loop_
_atom_site_type_symbol
_atom_site_label
_atom_site_fract_x
_atom_site_fract_y
_atom_site_fract_z
Si Si1 0.817574 0.366813 0.454759
Si Si2 0.192120 0.127778 0.818850
Si Si3 0.558044 0.210030 0.600257
Si Si4 0.133888 0.081415 0.419119
Si Si5 0.765881 0.665936 0.943525
Si Si6 0.777277 0.921526 0.335048
Si Si7 0.398502 0.011299 0.146475
Si Si8 0.590962 0.390946 0.831511
O O1 0.823891 0.619681 0.313308
O O2 0.628982 0.137159 0.561598
O O3 0.000000 0.500000 0.500000
O O4 0.836701 0.164083 0.476013
O O5 0.239317 0.026204 0.782467
O O6 0.376954 0.265108 0.857087
O O7 0.991491 0.848359 0.923716
O O8 0.660394 0.562090 0.466937
O O9 0.335067 0.012225 0.652254
O O10 0.646336 0.203070 0.704585
O O11 0.337996 0.385193 0.317372
O O12 0.000000 0.000000 0.500000
O O13 0.996355 0.067940 0.331202
O O14 0.728912 0.885209 0.897463
O O15 0.707092 0.577575 0.867549
O O16 0.613837 0.333065 0.078439
O O17 0.389051 0.852191 0.116914
#
# Coordination Sequence:
#
# PCOD9087768 Si02
#       8
#     2   2   2   2   2   2   2   2
#     4  11  21  39  66  93 138 181 212 277 346 402
#     4  11  23  43  69 100 136 184 224 285 345 405
#     4  10  19  36  67  95 128 176 220 265 341 406
#     4  12  25  38  61 103 138 179 226 272 346 422
#     4  11  26  49  69 102 136 181 240 285 341 402
#     4  10  20  39  62  98 136 170 215 273 340 409
#     4  11  24  45  75  97 137 186 227 291 344 395
#     4  12  25  46  70 102 137 180 235 283 343 412
#
# _framework density 25.066105
#
# number of rings (size 3 to 8) (size 9 to 14) (size 15 to 20)
#    0.000    1.000    5.000    2.625    5.250    1.000 
#    2.250    3.750    0.000    0.000    0.000    0.000 
#    0.000    0.000    0.000    0.000    0.000    0.000 
#
# Total GULP energy -89269.369358 kJ/mol
# GULP energy per Si atom -5579.335585 kJ/mol
# Density = 2.500905 g / cm^3
# Si number density = 25.066105 Si / 1000 Ang^3
#
#
#
# Elastic Constant Matrix: (Units=GPa)
#
#
# Indices 1 2 3 4 5 6 
#
# 1 172.9884 43.3483 17.6599 -9.1344 -26.1292 -18.8981
# 2 43.3483 55.7367 -6.6327 2.3135 0.7926 -6.3680
# 3 17.6599 -6.6327 53.6021 0.9248 -17.7410 -4.4386
# 4 -9.1344 2.3135 0.9248 24.6524 6.0130 -5.3164
# 5 -26.1292 0.7926 -17.7410 6.0130 47.6679 -9.2258
# 6 -18.8981 -6.3680 -4.4386 -5.3164 -9.2258 48.4473
#
#
#
# Elastic Compliance Matrix: (Units=1/GPa)
#
#
# Indices 1 2 3 4 5 6 
#
# 1 0.009066 -0.007104 -0.002126 0.003796 0.004531 0.003687
# 2 -0.007104 0.024252 0.004777 -0.004619 -0.001941 -0.000022
# 3 -0.002126 0.004777 0.023036 -0.003469 0.008370 0.003122
# 4 0.003796 -0.004619 -0.003469 0.044484 -0.003834 0.004707
# 5 0.004531 -0.001941 0.008370 -0.003834 0.028504 0.007286
# 6 0.003687 -0.000022 0.003122 0.004707 0.007286 0.024266
#
#
# Mechanical properties :
#
#
# Convention : Reuss Voigt Hill
#
# Bulk Modulus (GPa) = 21.07654 43.45313 32.26484
# Shear Modulus (GPa) = 28.03764 39.35031 33.69397
#
# Velocity S-wave (km/s) = 3.34810 3.96645 3.67032
# Velocity P-wave (km/s) = 4.83456 6.19274 5.55531
#
# Compressibility (1/GPa) = 0.04744611
#
# Stress axis : x y z
#
# Youngs Moduli (GPa) = 110.30642 41.23356 43.40941
#
# Poissons Ratio (x) = 0.29294 0.09231
# Poissons Ratio (y) = 0.78367 -0.20736
# Poissons Ratio (z) = 0.23456 -0.19697
#
# Static dielectric constant tensor:
#      x y z
#    x 2.058250 0.053220 -0.006640 
#    y 0.053220 2.228950 0.112190 
#    z -0.006640 0.112190 1.925490 
# 
# From -- ./inp_files/556796.got.cif
#   From: 2010.05.17/outbox.cif.g08.bks.cpg/sg2_279_cif.got.tgz:556796.got - 2010.06.03 11:33:40.
