data_PCOD9087187
_publ_section_title
;
Structure prediction by ZEFSAII (Michael W. Deem and Ramdas Pophale) SiO2 
 PCOD9087187
Probable space group: P -1
;
_chemical_formula_sum "Si O2"
_cell_formula_units_Z 14
_cell_length_a 15.206647
_cell_length_b 14.652008
_cell_length_c 7.567517
_cell_angle_alpha 106.630371
_cell_angle_beta 53.892388
_cell_angle_gamma 150.351034
_cell_volume 555.839722
_symmetry_space_group_name_H-M "P -1"
_symmetry_group_IT_number 2
_symmetry_cell_setting 'triclinic'
loop_
_space_group_symop_operation_xyz
x,y,z
-x,-y,-z
loop_
_atom_site_type_symbol
_atom_site_label
_atom_site_fract_x
_atom_site_fract_y
_atom_site_fract_z
Si Si1 0.772921 0.265758 0.366787
Si Si2 0.284967 0.621233 0.744474
Si Si3 0.061225 0.870682 0.374804
Si Si4 0.948092 0.052847 0.935133
Si Si5 0.575324 0.689978 0.622922
Si Si6 0.227435 0.289905 0.062748
Si Si7 0.317376 0.914369 0.292571
O O1 0.743262 0.354401 0.403745
O O2 0.817928 0.263547 0.509024
O O3 0.500000 0.000000 0.500000
O O4 0.010272 0.416649 0.051309
O O5 0.395686 0.604545 0.649685
O O6 0.494744 0.859448 0.712927
O O7 0.123290 0.817400 0.346143
O O8 0.082240 0.895115 0.153580
O O9 0.812661 0.708345 0.688262
O O10 0.267281 0.108978 0.337981
O O11 0.221585 0.220072 0.657534
O O12 0.972464 0.106456 0.137330
O O13 0.756258 0.811858 0.011893
O O14 0.420276 0.506465 0.846725
O O15 0.500000 0.000000 0.000000
#
# Coordination Sequence:
#
# PCOD9087187 Si02
#       7
#     2   2   2   2   2   2   2
#     4   9  18  37  59  81 112 151 195 238 293 344
#     4   9  19  36  61  88 114 153 198 241 294 359
#     4  10  22  40  58  87 121 157 201 241 293 356
#     4  10  22  38  57  92 119 152 203 240 287 365
#     4  10  19  36  62  87 122 152 195 243 296 354
#     4  10  20  38  61  82 121 160 190 245 297 343
#     4  10  21  39  57  85 121 155 194 246 299 349
#
# _framework density 25.187114999999999
#
# number of rings (size 3 to 8) (size 9 to 14) (size 15 to 20)
#    0.000    2.286    0.000    3.000    0.000    4.000 
#   23.143    0.000    0.000    0.000    0.000    0.000 
#    0.000    0.000    0.000    0.000    0.000    0.000 
#
# Total GULP energy -78260.864508 kJ/mol
# GULP energy per Si atom -5590.061751 kJ/mol
# Density = 2.512979 g / cm^3
# Si number density = 25.187115 Si / 1000 Ang^3
#
#
#
# Elastic Constant Matrix: (Units=GPa)
#
#
# Indices 1 2 3 4 5 6 
#
# 1 213.1523 21.2143 49.3391 -9.4166 41.1866 -8.6072
# 2 21.2143 77.8687 18.7175 -18.2187 7.4666 -10.0552
# 3 49.3391 18.7175 95.1487 -30.1553 29.0786 -19.6832
# 4 -9.4166 -18.2187 -30.1553 39.5027 -3.1790 12.2491
# 5 41.1866 7.4666 29.0786 -3.1790 57.6350 -4.0078
# 6 -8.6072 -10.0552 -19.6832 12.2491 -4.0078 23.1297
#
#
#
# Elastic Compliance Matrix: (Units=1/GPa)
#
#
# Indices 1 2 3 4 5 6 
#
# 1 0.005841 -0.001017 -0.002279 -0.000995 -0.002960 -0.000195
# 2 -0.001017 0.014890 0.000366 0.005857 -0.000844 0.003158
# 3 -0.002279 0.000366 0.018878 0.010873 -0.006756 0.008447
# 4 -0.000995 0.005857 0.010873 0.038797 -0.004077 -0.009824
# 5 -0.002960 -0.000844 -0.006756 -0.004077 0.022681 -0.001129
# 6 -0.000195 0.003158 0.008447 -0.009824 -0.001129 0.056730
#
#
# Mechanical properties :
#
#
# Convention : Reuss Voigt Hill
#
# Bulk Modulus (GPa) = 29.63197 62.74574 46.18886
# Shear Modulus (GPa) = 28.58320 43.84671 36.21496
#
# Velocity S-wave (km/s) = 3.37238 4.17686 3.79600
# Velocity P-wave (km/s) = 5.19175 6.94460 6.13114
#
# Compressibility (1/GPa) = 0.03374733
#
# Stress axis : x y z
#
# Youngs Moduli (GPa) = 171.21713 67.15727 52.97159
#
# Poissons Ratio (x) = 0.06832 0.12074
# Poissons Ratio (y) = 0.17418 -0.01937
# Poissons Ratio (z) = 0.39025 -0.02456
#
# Static dielectric constant tensor:
#      x y z
#    x 2.019590 0.061890 0.014080 
#    y 0.061890 2.052710 -0.032320 
#    z 0.014080 -0.032320 1.967220 
# 
# From -- ./inp_files/311465.got.cif
#   From: 2010.05.17/outbox.cif.g08.bks.cpg/sg2_156_cif.got.tgz:311465.got - 2010.06.03 11:33:40.
