data_PCOD9087817
_publ_section_title
;
Structure prediction by ZEFSAII (Michael W. Deem and Ramdas Pophale) SiO2 
 PCOD9087817
Probable space group: P -1
;
_chemical_formula_sum "Si O2"
_cell_formula_units_Z 14
_cell_length_a 11.032617
_cell_length_b 13.738075
_cell_length_c 7.598318
_cell_angle_alpha 41.052851
_cell_angle_beta 114.500030
_cell_angle_gamma 96.160774
_cell_volume 646.323711
_symmetry_space_group_name_H-M "P -1"
_symmetry_group_IT_number 2
_symmetry_cell_setting 'triclinic'
loop_
_space_group_symop_operation_xyz
x,y,z
-x,-y,-z
loop_
_atom_site_type_symbol
_atom_site_label
_atom_site_fract_x
_atom_site_fract_y
_atom_site_fract_z
Si Si1 0.784525 0.209252 0.921435
Si Si2 0.759579 0.751313 0.916581
Si Si3 0.816499 0.273034 0.229684
Si Si4 0.920313 0.945599 0.869087
Si Si5 0.650889 0.936950 0.266397
Si Si6 0.912982 0.674851 0.764711
Si Si7 0.661738 0.464799 0.200282
O O1 0.712426 0.321962 0.563294
O O2 0.756929 0.309489 0.948211
O O3 0.724229 0.067692 0.105634
O O4 0.951955 0.133724 0.082593
O O5 0.832561 0.826603 0.005277
O O6 0.887621 0.674921 0.958190
O O7 0.653124 0.887800 0.540972
O O8 0.691983 0.616618 0.091403
O O9 0.751626 0.404795 0.157000
O O10 0.984237 0.234820 0.360349
O O11 0.806145 0.107399 0.509564
O O12 0.000000 0.000000 0.000000
O O13 0.755280 0.771973 0.470785
O O14 0.500000 0.000000 0.000000
O O15 0.000000 0.500000 0.000000
O O16 0.500000 0.500000 0.000000
#
# Coordination Sequence:
#
# PCOD9087817 Si02
#       7
#     2   2   2   2   2   2   2
#     4  12  23  41  72 100 138 183 238 290 353 417
#     4  10  22  43  68  99 148 175 235 298 348 423
#     4  12  21  45  72  99 138 181 239 296 350 419
#     4  12  22  42  71 104 128 183 238 299 345 411
#     4  10  20  38  68  99 139 185 233 284 352 430
#     4  10  19  36  70 100 131 182 230 287 353 417
#     4  12  28  46  67 104 149 186 230 294 364 430
#
# _framework density 21.660971
#
# number of rings (size 3 to 8) (size 9 to 14) (size 15 to 20)
#    0.857    0.000    7.143    1.286    0.000    1.143 
#    2.571    2.143    0.000    0.000    0.000    0.000 
#    0.000    0.000    0.000    0.000    0.000    0.000 
#
# Total GULP energy -78044.496989 kJ/mol
# GULP energy per Si atom -5574.606928 kJ/mol
# Density = 2.161167 g / cm^3
# Si number density = 21.660971 Si / 1000 Ang^3
#
#
#
# Elastic Constant Matrix: (Units=GPa)
#
#
# Indices 1 2 3 4 5 6 
#
# 1 42.0133 19.5339 25.9756 2.9562 6.6031 9.7613
# 2 19.5339 115.5069 51.7319 4.6643 3.3050 11.1562
# 3 25.9756 51.7319 87.8835 -7.7139 7.4994 2.4651
# 4 2.9562 4.6643 -7.7139 29.3005 6.8571 -15.7197
# 5 6.6031 3.3050 7.4994 6.8571 36.4354 4.5552
# 6 9.7613 11.1562 2.4651 -15.7197 4.5552 32.3222
#
#
#
# Elastic Compliance Matrix: (Units=1/GPa)
#
#
# Indices 1 2 3 4 5 6 
#
# 1 0.036952 0.002660 -0.013795 -0.019439 0.002158 -0.020783
# 2 0.002660 0.014358 -0.010363 -0.012494 0.004154 -0.011630
# 3 -0.013795 -0.010363 0.023441 0.019799 -0.007186 0.016597
# 4 -0.019439 -0.012494 0.019799 0.072818 -0.018969 0.046761
# 5 0.002158 0.004154 -0.007186 -0.018969 0.033666 -0.015508
# 6 -0.020783 -0.011630 0.016597 0.046761 -0.015508 0.064891
#
#
# Mechanical properties :
#
#
# Convention : Reuss Voigt Hill
#
# Bulk Modulus (GPa) = 31.49068 48.87628 40.18348
# Shear Modulus (GPa) = 16.68301 29.48910 23.08606
#
# Velocity S-wave (km/s) = 2.77824 3.69371 3.26819
# Velocity P-wave (km/s) = 4.98608 6.38784 5.72999
#
# Compressibility (1/GPa) = 0.03175543
#
# Stress axis : x y z
#
# Youngs Moduli (GPa) = 27.06242 69.64888 42.65971
#
# Poissons Ratio (x) = -0.18525 0.58848
# Poissons Ratio (y) = -0.07198 0.44206
# Poissons Ratio (z) = 0.37332 0.72174
#
# Static dielectric constant tensor:
#      x y z
#    x 1.795470 0.014150 -0.039190 
#    y 0.014150 1.875000 -0.013710 
#    z -0.039190 -0.013710 1.812080 
# 
# From -- ./inp_files/271637.got.cif
#   From: 2010.05.17/outbox.cif.g08.bks.cpg/sg2_136_cif.got.tgz:271637.got - 2010.06.03 11:33:40.
