data_PCOD9087253
_publ_section_title
;
Structure prediction by ZEFSAII (Michael W. Deem and Ramdas Pophale) SiO2 
 PCOD9087253
Probable space group: P -1
;
_chemical_formula_sum "Si O2"
_cell_formula_units_Z 14
_cell_length_a 20.631302
_cell_length_b 7.739007
_cell_length_c 5.440554
_cell_angle_alpha 82.666789
_cell_angle_beta 86.660380
_cell_angle_gamma 137.081546
_cell_volume 571.692172
_symmetry_space_group_name_H-M "P -1"
_symmetry_group_IT_number 2
_symmetry_cell_setting 'triclinic'
loop_
_space_group_symop_operation_xyz
x,y,z
-x,-y,-z
loop_
_atom_site_type_symbol
_atom_site_label
_atom_site_fract_x
_atom_site_fract_y
_atom_site_fract_z
Si Si1 0.589717 0.150124 0.136522
Si Si2 0.083759 0.966710 0.243866
Si Si3 0.934341 0.454555 0.817391
Si Si4 0.546529 0.348657 0.417979
Si Si5 0.716041 0.086160 0.066031
Si Si6 0.923699 0.935975 0.289329
Si Si7 0.375378 0.239761 0.345336
O O1 0.614024 0.382695 0.208396
O O2 0.542203 0.945027 0.407946
O O3 0.674265 0.196529 0.013308
O O4 0.500000 0.000000 0.000000
O O5 0.081806 0.751127 0.313563
O O6 0.135897 0.166548 0.425385
O O7 0.978579 0.861154 0.253578
O O8 0.126885 0.099572 0.940783
O O9 0.830772 0.303375 0.971470
O O10 0.993459 0.752989 0.709813
O O11 0.000000 0.500000 0.000000
O O12 0.485361 0.379530 0.296231
O O13 0.606439 0.529083 0.608380
O O14 0.672676 0.890259 0.881252
O O15 0.683978 0.957430 0.368974
#
# Coordination Sequence:
#
# PCOD9087253 Si02
#       7
#     2   2   2   2   2   2   2
#     4  10  19  36  62  91 124 159 197 250 299 377
#     4   9  18  34  58  83 109 142 200 246 300 353
#     4  10  22  41  64  85 121 169 205 257 312 353
#     4   9  20  36  63  88 123 164 195 239 320 360
#     4  11  24  39  59  91 125 154 214 250 297 370
#     4   9  18  34  58  84 105 147 196 247 296 360
#     4  10  22  39  60  91 122 160 199 253 297 376
#
# _framework density 24.488702
#
# number of rings (size 3 to 8) (size 9 to 14) (size 15 to 20)
#    0.000    2.286    1.429    0.429    2.000    6.286 
#    2.571    0.000    6.286    0.000    0.000    0.000 
#    0.000    0.000    0.000    0.000    0.000    0.000 
#
# Total GULP energy -78014.971240 kJ/mol
# GULP energy per Si atom -5572.497946 kJ/mol
# Density = 2.443297 g / cm^3
# Si number density = 24.488702 Si / 1000 Ang^3
#
#
#
# Elastic Constant Matrix: (Units=GPa)
#
#
# Indices 1 2 3 4 5 6 
#
# 1 120.8109 44.9008 24.2362 3.5373 -31.5885 1.8010
# 2 44.9008 48.8662 21.7290 0.9682 -18.8873 7.7507
# 3 24.2362 21.7290 123.9014 17.5782 -5.8584 -0.6565
# 4 3.5373 0.9682 17.5782 23.4977 -13.9925 -1.4746
# 5 -31.5885 -18.8873 -5.8584 -13.9925 47.4016 3.1934
# 6 1.8010 7.7507 -0.6565 -1.4746 3.1934 30.4008
#
#
#
# Elastic Compliance Matrix: (Units=1/GPa)
#
#
# Indices 1 2 3 4 5 6 
#
# 1 0.013616 -0.010209 -0.000953 0.002456 0.005525 0.001314
# 2 -0.010209 0.038167 -0.005685 0.010407 0.011444 -0.009946
# 3 -0.000953 -0.005685 0.010483 -0.010168 -0.004723 0.001735
# 4 0.002456 0.010407 -0.010168 0.063098 0.023315 -0.002407
# 5 0.005525 0.011444 -0.004723 0.023315 0.036041 -0.006002
# 6 0.001314 -0.009946 0.001735 -0.002407 -0.006002 0.035903
#
#
# Mechanical properties :
#
#
# Convention : Reuss Voigt Hill
#
# Bulk Modulus (GPa) = 34.99956 52.81226 43.90591
# Shear Modulus (GPa) = 20.78790 33.77422 27.28106
#
# Velocity S-wave (km/s) = 2.91671 3.71775 3.34132
# Velocity P-wave (km/s) = 5.06617 6.32785 5.73183
#
# Compressibility (1/GPa) = 0.02857178
#
# Stress axis : x y z
#
# Youngs Moduli (GPa) = 73.44348 26.20085 95.39479
#
# Poissons Ratio (x) = 0.26748 0.09094
# Poissons Ratio (y) = 0.74977 0.54228
# Poissons Ratio (z) = 0.07002 0.14894
#
# Static dielectric constant tensor:
#      x y z
#    x 2.007410 -0.140730 -0.008160 
#    y -0.140730 2.137800 -0.004530 
#    z -0.008160 -0.004530 2.170610 
# 
# From -- ./inp_files/116239.got.cif
#   From: 2010.05.17/outbox.cif.g08.bks.cpg/sg2_59_cif.got.tgz:116239.got - 2010.06.03 11:33:40.
