data_PCOD9087022
_publ_section_title
;
Structure prediction by ZEFSAII (Michael W. Deem and Ramdas Pophale) SiO2 
 PCOD9087022
Probable space group: P -1
;
_chemical_formula_sum "Si O2"
_cell_formula_units_Z 16
_cell_length_a 9.571774
_cell_length_b 9.473502
_cell_length_c 14.305235
_cell_angle_alpha 45.706147
_cell_angle_beta 45.659854
_cell_angle_gamma 62.621274
_cell_volume 663.038996
_symmetry_space_group_name_H-M "P -1"
_symmetry_group_IT_number 2
_symmetry_cell_setting 'triclinic'
loop_
_space_group_symop_operation_xyz
x,y,z
-x,-y,-z
loop_
_atom_site_type_symbol
_atom_site_label
_atom_site_fract_x
_atom_site_fract_y
_atom_site_fract_z
Si Si1 0.754857 0.870969 0.070671
Si Si2 0.950827 0.743095 0.426204
Si Si3 0.369081 0.693228 0.657113
Si Si4 0.548117 0.067829 0.303202
Si Si5 0.558192 0.841595 0.891588
Si Si6 0.344805 0.581074 0.271546
Si Si7 0.960962 0.813032 0.805741
Si Si8 0.899895 0.823529 0.211161
O O1 0.845186 0.802803 0.963178
O O2 0.812529 0.740959 0.193220
O O3 0.882197 0.078284 0.938383
O O4 0.536456 0.947917 0.134788
O O5 0.799682 0.599055 0.617494
O O6 0.889373 0.696454 0.368313
O O7 0.180649 0.710164 0.336972
O O8 0.926532 0.970700 0.351335
O O9 0.439493 0.801383 0.670695
O O10 0.493027 0.498705 0.696068
O O11 0.134207 0.665670 0.781803
O O12 0.433917 0.854395 0.473424
O O13 0.482961 0.176868 0.190683
O O14 0.767234 0.005373 0.212092
O O15 0.787858 0.817594 0.810234
O O16 0.452851 0.690438 0.084262
#
# Coordination Sequence:
#
# PCOD9087022 Si02
#       8
#     2   2   2   2   2   2   2   2
#     4   9  17  30  57  87 110 139 199 243 272 325
#     4  10  19  36  61  89 115 151 201 234 289 342
#     4  11  21  37  61  83 120 154 197 235 291 348
#     4  10  20  38  60  88 110 158 203 234 276 357
#     4  11  23  36  61  89 120 149 196 246 288 338
#     4  11  22  35  58  92 122 148 183 256 296 330
#     4  11  21  38  61  88 113 162 196 231 285 363
#     4   9  14  31  58  86 105 142 200 244 263 329
#
# _framework density 24.131312000000001
#
# number of rings (size 3 to 8) (size 9 to 14) (size 15 to 20)
#    0.000    1.750    6.250    1.125    0.000    1.500 
#    0.000    0.000    0.000    6.000    0.000    0.000 
#    0.000    0.000    0.000    0.000    0.000    0.000 
#
# Total GULP energy -89305.342758 kJ/mol
# GULP energy per Si atom -5581.583922 kJ/mol
# Density = 2.407639 g / cm^3
# Si number density = 24.131312 Si / 1000 Ang^3
#
#
#
# Elastic Constant Matrix: (Units=GPa)
#
#
# Indices 1 2 3 4 5 6 
#
# 1 143.0676 25.9633 35.4888 0.8754 -5.1301 -47.9605
# 2 25.9633 75.8237 9.6682 4.8555 -3.8940 -33.7972
# 3 35.4888 9.6682 91.0585 -10.2313 -3.9056 -9.4807
# 4 0.8754 4.8555 -10.2313 24.3998 -5.8077 -7.1452
# 5 -5.1301 -3.8940 -3.9056 -5.8077 29.0188 5.8695
# 6 -47.9605 -33.7972 -9.4807 -7.1452 5.8695 40.0835
#
#
#
# Elastic Compliance Matrix: (Units=1/GPa)
#
#
# Indices 1 2 3 4 5 6 
#
# 1 0.013653 0.004387 -0.003446 0.002787 -0.000919 0.019852
# 2 0.004387 0.022585 -0.001424 0.001660 -0.000988 0.024396
# 3 -0.003446 -0.001424 0.013105 0.006051 0.002480 -0.001509
# 4 0.002787 0.001660 0.006051 0.049139 0.008600 0.013665
# 5 -0.000919 -0.000988 0.002480 0.008600 0.037287 -0.005273
# 6 0.019852 0.024396 -0.001509 0.013665 -0.005273 0.072122
#
#
# Mechanical properties :
#
#
# Convention : Reuss Voigt Hill
#
# Bulk Modulus (GPa) = 20.67049 50.24340 35.45694
# Shear Modulus (GPa) = 22.22385 34.62241 28.42313
#
# Velocity S-wave (km/s) = 3.03802 3.79192 3.43571
# Velocity P-wave (km/s) = 4.57061 6.32752 5.51942
#
# Compressibility (1/GPa) = 0.04837814
#
# Stress axis : x y z
#
# Youngs Moduli (GPa) = 73.24234 44.27737 76.30434
#
# Poissons Ratio (x) = -0.19426 0.26298
# Poissons Ratio (y) = -0.32133 0.10863
# Poissons Ratio (z) = 0.25242 0.06303
#
# Static dielectric constant tensor:
#      x y z
#    x 1.996220 -0.001940 -0.002940 
#    y -0.001940 1.967350 -0.038600 
#    z -0.002940 -0.038600 1.981180 
# 
# From -- ./inp_files/497607.got.cif
#   From: 2010.05.17/outbox.cif.g08.bks.cpg/sg2_249_cif.got.tgz:497607.got - 2010.06.03 11:33:40.
