data_PCOD9087786
_publ_section_title
;
Structure prediction by ZEFSAII (Michael W. Deem and Ramdas Pophale) SiO2 
 PCOD9087786
Probable space group: P -1
;
_chemical_formula_sum "Si O2"
_cell_formula_units_Z 16
_cell_length_a 23.861818
_cell_length_b 29.965549
_cell_length_c 10.163435
_cell_angle_alpha 26.497901
_cell_angle_beta 34.128534
_cell_angle_gamma 16.259633
_cell_volume 878.733290
_symmetry_space_group_name_H-M "P -1"
_symmetry_group_IT_number 2
_symmetry_cell_setting 'triclinic'
loop_
_space_group_symop_operation_xyz
x,y,z
-x,-y,-z
loop_
_atom_site_type_symbol
_atom_site_label
_atom_site_fract_x
_atom_site_fract_y
_atom_site_fract_z
Si Si1 0.427560 0.140052 0.384223
Si Si2 0.377237 0.844444 0.408305
Si Si3 0.457442 0.092581 0.973568
Si Si4 0.900946 0.086725 0.108270
Si Si5 0.802651 0.920394 0.130890
Si Si6 0.432902 0.473617 0.303219
Si Si7 0.988682 0.538601 0.767944
Si Si8 0.147512 0.916191 0.323472
O O1 0.188249 0.366513 0.218013
O O2 0.500000 0.000000 0.500000
O O3 0.585635 0.090942 0.179154
O O4 0.465749 0.048595 0.686656
O O5 0.446514 0.881331 0.257029
O O6 0.253373 0.870936 0.666218
O O7 0.561023 0.629305 0.533046
O O8 0.235482 0.008458 0.131115
O O9 0.212837 0.322059 0.849056
O O10 0.500000 0.000000 0.000000
O O11 0.767209 0.305033 0.820691
O O12 0.085999 0.921809 0.290665
O O13 0.000000 0.000000 0.000000
O O14 0.926030 0.709744 0.436623
O O15 0.907466 0.918294 0.009911
O O16 0.618767 0.298869 0.509490
O O17 0.500000 0.500000 0.000000
O O18 0.000000 0.500000 0.000000
O O19 0.000000 0.000000 0.500000
#
# Coordination Sequence:
#
# PCOD9087786 Si02
#       8
#     2   2   2   2   2   2   2   2
#     4  10  19  40  59  88 123 151 211 261 292 363
#     4  10  20  42  62  89 127 165 208 259 299 374
#     4  12  25  39  61  94 130 159 204 265 318 366
#     4  11  24  41  62  94 134 159 198 267 317 360
#     4  10  19  36  68  91 118 159 220 256 290 361
#     4   9  19  37  66  91 116 161 213 249 294 372
#     4  11  20  38  68  89 113 172 207 253 309 365
#     4  11  20  37  64  95 120 160 215 249 294 381
#
# _framework density 18.208029
#
# number of rings (size 3 to 8) (size 9 to 14) (size 15 to 20)
#    0.000    1.500    8.750    0.000    1.750    2.000 
#    0.000    0.000    0.000    0.000    0.000    0.000 
#    0.000    0.000    0.000    0.000    0.000    0.000 
#
# Total GULP energy -89124.080520 kJ/mol
# GULP energy per Si atom -5570.255032 kJ/mol
# Density = 1.816659 g / cm^3
# Si number density = 18.208029 Si / 1000 Ang^3
#
#
#
# Elastic Constant Matrix: (Units=GPa)
#
#
# Indices 1 2 3 4 5 6 
#
# 1 138.0887 69.5318 45.9352 12.3508 6.2467 11.3934
# 2 69.5318 110.5060 49.4970 0.7724 0.3682 4.3261
# 3 45.9352 49.4970 92.6872 4.4253 6.5588 11.6074
# 4 12.3508 0.7724 4.4253 32.9886 -4.4129 1.0389
# 5 6.2467 0.3682 6.5588 -4.4129 33.0022 2.7786
# 6 11.3934 4.3261 11.6074 1.0389 2.7786 31.3073
#
#
#
# Elastic Compliance Matrix: (Units=1/GPa)
#
#
# Indices 1 2 3 4 5 6 
#
# 1 0.011760 -0.006510 -0.001692 -0.004239 -0.002180 -0.002419
# 2 -0.006510 0.015572 -0.005659 0.003094 0.002429 0.001997
# 3 -0.001692 -0.005659 0.015408 -0.001514 -0.002541 -0.004039
# 4 -0.004239 0.003094 -0.001514 0.032755 0.005440 0.000107
# 5 -0.002180 0.002429 -0.002541 0.005440 0.032056 -0.001626
# 6 -0.002419 0.001997 -0.004039 0.000107 -0.001626 0.034184
#
#
# Mechanical properties :
#
#
# Convention : Reuss Voigt Hill
#
# Bulk Modulus (GPa) = 66.59115 74.57887 70.58501
# Shear Modulus (GPa) = 28.65921 31.21413 29.93667
#
# Velocity S-wave (km/s) = 3.97166 4.14491 4.05921
# Velocity P-wave (km/s) = 7.59499 7.99720 7.79869
#
# Compressibility (1/GPa) = 0.01501701
#
# Stress axis : x y z
#
# Youngs Moduli (GPa) = 85.03488 64.21585 64.90245
#
# Poissons Ratio (x) = 0.41804 0.10982
# Poissons Ratio (y) = 0.55357 0.36731
# Poissons Ratio (z) = 0.14389 0.36343
#
# Static dielectric constant tensor:
#      x y z
#    x 1.637720 -0.047720 -0.018480 
#    y -0.047720 1.671840 -0.002290 
#    z -0.018480 -0.002290 1.658480 
# 
# From -- ./inp_files/314874.got.cif
#   From: 2010.05.17/outbox.cif.g08.bks.cpg/sg2_158_cif.got.tgz:314874.got - 2010.06.03 11:33:40.
