data_PCOD9087193
_publ_section_title
;
Structure prediction by ZEFSAII (Michael W. Deem and Ramdas Pophale) SiO2 
 PCOD9087193
Probable space group: P -1
;
_chemical_formula_sum "Si O2"
_cell_formula_units_Z 16
_cell_length_a 10.415673
_cell_length_b 12.883052
_cell_length_c 14.218969
_cell_angle_alpha 45.871233
_cell_angle_beta 56.832017
_cell_angle_gamma 34.708374
_cell_volume 778.302137
_symmetry_space_group_name_H-M "P -1"
_symmetry_group_IT_number 2
_symmetry_cell_setting 'triclinic'
loop_
_space_group_symop_operation_xyz
x,y,z
-x,-y,-z
loop_
_atom_site_type_symbol
_atom_site_label
_atom_site_fract_x
_atom_site_fract_y
_atom_site_fract_z
Si Si1 0.737314 0.611846 0.270340
Si Si2 0.319509 0.023554 0.901893
Si Si3 0.183895 0.646820 0.098396
Si Si4 0.845626 0.290854 0.295602
Si Si5 0.415574 0.427787 0.951441
Si Si6 0.429109 0.074069 0.626670
Si Si7 0.823136 0.645839 0.621779
Si Si8 0.666074 0.168745 0.581243
O O1 0.673970 0.824395 0.146226
O O2 0.833007 0.458533 0.240715
O O3 0.516798 0.687117 0.354120
O O4 0.937861 0.472293 0.355734
O O5 0.339982 0.047562 0.767970
O O6 0.073870 0.127414 0.954104
O O7 0.514853 0.772057 0.997694
O O8 0.355315 0.652864 0.055200
O O9 0.187530 0.518834 0.256226
O O10 0.266628 0.518570 0.048006
O O11 0.714323 0.385913 0.190245
O O12 0.730186 0.263498 0.434630
O O13 0.101792 0.059432 0.328554
O O14 0.229654 0.259877 0.519962
O O15 0.553524 0.129361 0.581883
O O16 0.617626 0.853058 0.635094
#
# Coordination Sequence:
#
# PCOD9087193 Si02
#       8
#     2   2   2   2   2   2   2   2
#     4  10  22  39  61  88 119 152 195 245 290 346
#     4  10  22  39  61  88 119 152 195 245 290 346
#     4  10  22  40  61  87 119 151 197 244 291 347
#     4  11  23  40  60  85 121 159 194 238 291 348
#     4  11  23  40  60  85 121 159 194 238 291 348
#     4  10  19  36  62  88 115 150 192 243 297 340
#     4  10  19  36  62  88 115 150 192 243 297 340
#     4  10  22  40  61  87 119 151 197 244 291 347
#
# _framework density 20.557569999999998
#
# number of rings (size 3 to 8) (size 9 to 14) (size 15 to 20)
#    0.000    1.750    2.500    1.500    0.000    7.000 
#    0.000    8.750    0.000    0.000    0.000    0.000 
#    0.000    0.000    0.000    0.000    0.000    0.000 
#
# Total GULP energy -89370.505955 kJ/mol
# GULP energy per Si atom -5585.656622 kJ/mol
# Density = 2.051078 g / cm^3
# Si number density = 20.557570 Si / 1000 Ang^3
#
#
#
# Elastic Constant Matrix: (Units=GPa)
#
#
# Indices 1 2 3 4 5 6 
#
# 1 38.2400 14.5765 11.5541 -5.8556 1.0820 -13.9229
# 2 14.5765 92.7805 36.9209 -13.3223 -5.8375 -21.7320
# 3 11.5541 36.9209 65.6526 -15.7054 6.3625 -7.7759
# 4 -5.8556 -13.3223 -15.7054 24.7958 -5.6098 -9.0371
# 5 1.0820 -5.8375 6.3625 -5.6098 12.1446 -1.5854
# 6 -13.9229 -21.7320 -7.7759 -9.0371 -1.5854 24.2231
#
#
#
# Elastic Compliance Matrix: (Units=1/GPa)
#
#
# Indices 1 2 3 4 5 6 
#
# 1 0.053681 0.021291 -0.002703 0.059361 0.043962 0.074112
# 2 0.021291 0.040579 -0.009245 0.060919 0.060033 0.072332
# 3 -0.002703 -0.009245 0.023502 0.005712 -0.014020 -0.001090
# 4 0.059361 0.060919 0.005712 0.179537 0.125577 0.165807
# 5 0.043962 0.060033 -0.014020 0.125577 0.190114 0.133921
# 6 0.074112 0.072332 -0.001090 0.165807 0.133921 0.219049
#
#
# Mechanical properties :
#
#
# Convention : Reuss Voigt Hill
#
# Bulk Modulus (GPa) = 7.32879 35.86403 21.59641
# Shear Modulus (GPa) = 6.81887 21.14080 13.97983
#
# Velocity S-wave (km/s) = 1.82323 3.21030 2.61057
# Velocity P-wave (km/s) = 2.82930 5.58792 4.42888
#
# Compressibility (1/GPa) = 0.13644812
#
# Stress axis : x y z
#
# Youngs Moduli (GPa) = 18.62855 24.64338 42.54885
#
# Poissons Ratio (x) = -0.52467 0.11499
# Poissons Ratio (y) = -0.39661 0.39337
# Poissons Ratio (z) = 0.05034 0.22783
#
# Static dielectric constant tensor:
#      x y z
#    x 1.717300 0.022980 -0.012160 
#    y 0.022980 1.747790 -0.007620 
#    z -0.012160 -0.007620 1.706350 
# 
# From -- ./inp_files/471496.got.cif
#   From: 2010.05.17/outbox.cif.g08.bks.cpg/sg2_236_cif.got.tgz:471496.got - 2010.06.03 11:33:40.
