data_PCOD9087191
_publ_section_title
;
Structure prediction by ZEFSAII (Michael W. Deem and Ramdas Pophale) SiO2 
 PCOD9087191
Probable space group: P -1
;
_chemical_formula_sum "Si O2"
_cell_formula_units_Z 16
_cell_length_a 16.240563
_cell_length_b 10.014442
_cell_length_c 11.616109
_cell_angle_alpha 123.170302
_cell_angle_beta 147.954915
_cell_angle_gamma 50.382566
_cell_volume 772.072773
_symmetry_space_group_name_H-M "P -1"
_symmetry_group_IT_number 2
_symmetry_cell_setting 'triclinic'
loop_
_space_group_symop_operation_xyz
x,y,z
-x,-y,-z
loop_
_atom_site_type_symbol
_atom_site_label
_atom_site_fract_x
_atom_site_fract_y
_atom_site_fract_z
Si Si1 0.393414 0.451119 0.507295
Si Si2 0.213037 0.854875 0.478500
Si Si3 0.622770 0.042181 0.078501
Si Si4 0.632203 0.637122 0.210997
Si Si5 0.649658 0.372390 0.948751
Si Si6 0.909524 0.994053 0.010810
Si Si7 0.519684 0.857242 0.688917
Si Si8 0.688152 0.819988 0.557637
O O1 0.264154 0.647995 0.449147
O O2 0.419907 0.342700 0.370625
O O3 0.352019 0.316317 0.475832
O O4 0.565131 0.454810 0.766716
O O5 0.231108 0.933542 0.661755
O O6 0.352475 0.887496 0.579536
O O7 0.039954 0.934324 0.241787
O O8 0.503244 0.223214 0.965785
O O9 0.500000 0.000000 0.000000
O O10 0.652611 0.904588 0.945098
O O11 0.733499 0.476208 0.173885
O O12 0.742709 0.718514 0.452271
O O13 0.508014 0.608935 0.145936
O O14 0.769464 0.178566 0.969345
O O15 0.817577 0.868341 0.808455
O O16 0.000000 0.000000 0.000000
O O17 0.456705 0.998067 0.575301
#
# Coordination Sequence:
#
# PCOD9087191 Si02
#       8
#     2   2   2   2   2   2   2   2
#     4  11  20  35  62  92 111 148 208 255 283 329
#     4  11  22  38  57  86 124 155 188 242 303 355
#     4   9  19  34  58  86 119 147 195 251 289 339
#     4   9  19  37  64  90 111 147 208 251 279 336
#     4  10  20  37  65  89 114 155 200 244 290 349
#     4  12  24  41  59  85 125 163 192 232 307 374
#     4  10  19  36  62  88 113 153 203 247 286 343
#     4  10  21  36  62  86 117 153 201 248 289 348
#
# _framework density 20.723434000000001
#
# number of rings (size 3 to 8) (size 9 to 14) (size 15 to 20)
#    0.000    1.750    3.750    0.750    3.500    0.500 
#    0.000    2.500    0.000    0.000    0.000    0.000 
#    0.000    0.000    0.000    0.000    0.000    0.000 
#
# Total GULP energy -89083.496333 kJ/mol
# GULP energy per Si atom -5567.718521 kJ/mol
# Density = 2.067627 g / cm^3
# Si number density = 20.723434 Si / 1000 Ang^3
#
#
#
# Elastic Constant Matrix: (Units=GPa)
#
#
# Indices 1 2 3 4 5 6 
#
# 1 36.5384 8.7031 10.0946 9.4397 -13.2869 1.8528
# 2 8.7031 81.8745 41.0966 27.1001 -9.9843 -15.8882
# 3 10.0946 41.0966 150.5678 26.9684 -33.7628 -21.8497
# 4 9.4397 27.1001 26.9684 36.2567 -1.7168 -12.0683
# 5 -13.2869 -9.9843 -33.7628 -1.7168 23.4569 1.5261
# 6 1.8528 -15.8882 -21.8497 -12.0683 1.5261 23.8718
#
#
#
# Elastic Compliance Matrix: (Units=1/GPa)
#
#
# Indices 1 2 3 4 5 6 
#
# 1 0.042040 0.000433 0.006150 -0.016980 0.032126 -0.007984
# 2 0.000433 0.017889 -0.001086 -0.010725 0.005178 0.005126
# 3 0.006150 -0.001086 0.013691 -0.007976 0.021759 0.005908
# 4 -0.016980 -0.010725 -0.007976 0.049278 -0.022920 0.013257
# 5 0.032126 0.005178 0.021759 -0.022920 0.092455 0.003372
# 6 -0.007984 0.005126 0.005908 0.013257 0.003372 0.057815
#
#
# Mechanical properties :
#
#
# Convention : Reuss Voigt Hill
#
# Bulk Modulus (GPa) = 11.81841 43.19658 27.50749
# Shear Modulus (GPa) = 17.21886 30.65618 23.93752
#
# Velocity S-wave (km/s) = 2.88564 3.85034 3.40235
# Velocity P-wave (km/s) = 4.10096 6.37624 5.36070
#
# Compressibility (1/GPa) = 0.08461378
#
# Stress axis : x y z
#
# Youngs Moduli (GPa) = 23.78677 55.90091 73.04234
#
# Poissons Ratio (x) = -0.02420 -0.44920
# Poissons Ratio (y) = -0.01030 0.07930
# Poissons Ratio (z) = -0.14629 0.06069
#
# Static dielectric constant tensor:
#      x y z
#    x 1.843710 -0.050540 0.031270 
#    y -0.050540 1.797430 0.057090 
#    z 0.031270 0.057090 1.910110 
# 
# From -- ./inp_files/464851.got.cif
#   From: 2010.05.17/outbox.cif.g08.bks.cpg/sg2_233_cif.got.tgz:464851.got - 2010.06.03 11:33:40.
