data_PCOD9087645
_publ_section_title
;
Structure prediction by ZEFSAII (Michael W. Deem and Ramdas Pophale) SiO2 
 PCOD9087645
Probable space group: P -1
;
_chemical_formula_sum "Si O2"
_cell_formula_units_Z 16
_cell_length_a 8.737472
_cell_length_b 16.487436
_cell_length_c 11.787286
_cell_angle_alpha 47.872062
_cell_angle_beta 55.493634
_cell_angle_gamma 31.164536
_cell_volume 651.593406
_symmetry_space_group_name_H-M "P -1"
_symmetry_group_IT_number 2
_symmetry_cell_setting 'triclinic'
loop_
_space_group_symop_operation_xyz
x,y,z
-x,-y,-z
loop_
_atom_site_type_symbol
_atom_site_label
_atom_site_fract_x
_atom_site_fract_y
_atom_site_fract_z
Si Si1 0.290469 0.947734 0.421766
Si Si2 0.951718 0.497609 0.867661
Si Si3 0.258887 0.585865 0.274468
Si Si4 0.697287 0.633516 0.386394
Si Si5 0.140797 0.767320 0.379139
Si Si6 0.316426 0.842086 0.743040
Si Si7 0.929498 0.322033 0.278322
Si Si8 0.850303 0.316900 0.020460
O O1 0.182148 0.122092 0.316100
O O2 0.516557 0.815487 0.350769
O O3 0.436509 0.840731 0.578488
O O4 0.000000 0.000000 0.500000
O O5 0.071724 0.453116 0.729700
O O6 0.600098 0.678051 0.849151
O O7 0.002257 0.343327 0.005775
O O8 0.071793 0.545065 0.844880
O O9 0.193057 0.497434 0.436929
O O10 0.188085 0.700090 0.298362
O O11 0.615753 0.425681 0.262280
O O12 0.093122 0.693261 0.128194
O O13 0.434485 0.688026 0.380364
O O14 0.067731 0.709047 0.558271
O O15 0.884772 0.973990 0.290223
O O16 0.118850 0.823263 0.826628
O O17 0.500000 0.500000 0.000000
#
# Coordination Sequence:
#
# PCOD9087645 Si02
#       8
#     2   2   2   2   2   2   2   2
#     4  11  20  35  68  94 117 160 196 248 305 371
#     4  11  22  40  61  94 126 152 201 270 299 338
#     4  11  19  37  66  88 119 164 204 240 305 380
#     4  11  19  36  64  99 118 149 208 256 305 345
#     4  10  19  36  65  88 123 155 197 256 306 366
#     4  10  23  41  58  84 127 169 200 238 309 373
#     4  10  20  37  63  97 120 152 202 253 313 346
#     4  10  24  40  59  81 123 176 202 236 302 374
#
# _framework density 24.555191000000001
#
# number of rings (size 3 to 8) (size 9 to 14) (size 15 to 20)
#    0.000    1.500    6.250    2.250    0.000    4.500 
#    2.250    3.125    0.000    0.000    0.000    0.000 
#    0.000    0.000    0.000    0.000    0.000    0.000 
#
# Total GULP energy -89456.029336 kJ/mol
# GULP energy per Si atom -5591.001834 kJ/mol
# Density = 2.449930 g / cm^3
# Si number density = 24.555191 Si / 1000 Ang^3
#
#
#
# Elastic Constant Matrix: (Units=GPa)
#
#
# Indices 1 2 3 4 5 6 
#
# 1 74.6430 26.3704 36.2619 -3.7702 -11.2338 26.1938
# 2 26.3704 160.1990 41.0446 -6.9803 -7.9110 32.8525
# 3 36.2619 41.0446 122.7480 -17.4167 -15.9395 15.6942
# 4 -3.7702 -6.9803 -17.4167 31.2113 6.7622 6.0412
# 5 -11.2338 -7.9110 -15.9395 6.7622 39.0483 3.7673
# 6 26.1938 32.8525 15.6942 6.0412 3.7673 43.5882
#
#
#
# Elastic Compliance Matrix: (Units=1/GPa)
#
#
# Indices 1 2 3 4 5 6 
#
# 1 0.019981 0.000353 -0.003634 0.001594 0.005183 -0.011634
# 2 0.000353 0.007966 -0.001565 0.001826 0.001341 -0.006022
# 3 -0.003634 -0.001565 0.010968 0.005107 0.002375 -0.001499
# 4 0.001594 0.001826 0.005107 0.037865 -0.002758 -0.009182
# 5 0.005183 0.001341 0.002375 -0.002758 0.029509 -0.007149
# 6 -0.011634 -0.006022 -0.001499 -0.009182 -0.007149 0.036902
#
#
# Mechanical properties :
#
#
# Convention : Reuss Voigt Hill
#
# Bulk Modulus (GPa) = 34.21918 62.77152 48.49535
# Shear Modulus (GPa) = 30.74581 39.69710 35.22145
#
# Velocity S-wave (km/s) = 3.54236 4.02512 3.79143
# Velocity P-wave (km/s) = 5.54048 6.87176 6.24171
#
# Compressibility (1/GPa) = 0.02922338
#
# Stress axis : x y z
#
# Youngs Moduli (GPa) = 50.04787 125.53873 91.17150
#
# Poissons Ratio (x) = -0.04434 0.33134
# Poissons Ratio (y) = -0.01768 0.14266
# Poissons Ratio (z) = 0.18189 0.19644
#
# Static dielectric constant tensor:
#      x y z
#    x 2.016300 0.030630 -0.009790 
#    y 0.030630 1.898120 0.046070 
#    z -0.009790 0.046070 2.066180 
# 
# From -- ./inp_files/271085.got.cif
#   From: 2010.05.17/outbox.cif.g08.bks.cpg/sg2_136_cif.got.tgz:271085.got - 2010.06.03 11:33:40.
