data_PCOD9087632
_publ_section_title
;
Structure prediction by ZEFSAII (Michael W. Deem and Ramdas Pophale) SiO2 
 PCOD9087632
Probable space group: P -1
;
_chemical_formula_sum "Si O2"
_cell_formula_units_Z 14
_cell_length_a 7.769349
_cell_length_b 11.727787
_cell_length_c 6.462517
_cell_angle_alpha 87.148339
_cell_angle_beta 117.043302
_cell_angle_gamma 87.969983
_cell_volume 522.698561
_symmetry_space_group_name_H-M "P -1"
_symmetry_group_IT_number 2
_symmetry_cell_setting 'triclinic'
loop_
_space_group_symop_operation_xyz
x,y,z
-x,-y,-z
loop_
_atom_site_type_symbol
_atom_site_label
_atom_site_fract_x
_atom_site_fract_y
_atom_site_fract_z
Si Si1 0.470204 0.311857 0.140263
Si Si2 0.981661 0.041754 0.726267
Si Si3 0.385571 0.114174 0.846532
Si Si4 0.791790 0.826879 0.686129
Si Si5 0.103579 0.380622 0.495333
Si Si6 0.821936 0.282156 0.622978
Si Si7 0.772101 0.495582 0.816723
O O1 0.350320 0.231777 0.232457
O O2 0.683484 0.316024 0.349968
O O3 0.358443 0.437333 0.088022
O O4 0.467194 0.236543 0.938153
O O5 0.823767 0.146825 0.663246
O O6 0.184949 0.095143 0.851547
O O7 0.925787 0.926814 0.817323
O O8 0.000000 0.000000 0.500000
O O9 0.342048 0.120143 0.578362
O O10 0.500000 0.000000 0.000000
O O11 0.929647 0.723869 0.671667
O O12 0.040238 0.314110 0.675982
O O13 0.000000 0.500000 0.500000
O O14 0.265725 0.436352 0.429994
O O15 0.749783 0.363490 0.763900
O O16 0.000000 0.500000 0.000000
#
# Coordination Sequence:
#
# PCOD9087632 Si02
#       7
#     2   2   2   2   2   2   2
#     4  11  24  40  63  93 127 161 204 264 305 363
#     4  10  19  36  65  85 122 166 202 252 304 367
#     4  11  23  38  62  94 125 160 207 256 306 366
#     4  10  22  42  61  90 128 164 208 247 313 365
#     4   9  19  36  65  83 116 165 202 245 308 361
#     4  11  20  39  63  88 123 164 206 250 312 365
#     4  10  22  40  62  90 121 159 213 256 307 367
#
# _framework density 26.784078999999998
#
# number of rings (size 3 to 8) (size 9 to 14) (size 15 to 20)
#    0.000    1.714    2.857    3.000    2.000    2.857 
#    2.571    0.714    0.000    0.000    0.000    0.000 
#    0.000    0.000    0.000    0.000    0.000    0.000 
#
# Total GULP energy -78015.431905 kJ/mol
# GULP energy per Si atom -5572.530850 kJ/mol
# Density = 2.672312 g / cm^3
# Si number density = 26.784079 Si / 1000 Ang^3
#
#
#
# Elastic Constant Matrix: (Units=GPa)
#
#
# Indices 1 2 3 4 5 6 
#
# 1 80.1341 35.3911 8.5369 -10.0663 -6.6690 12.0655
# 2 35.3911 234.7802 25.9351 26.3561 13.1724 -23.0949
# 3 8.5369 25.9351 85.9537 4.2222 20.8194 -14.0892
# 4 -10.0663 26.3561 4.2222 46.3608 2.8632 -0.6271
# 5 -6.6690 13.1724 20.8194 2.8632 30.3466 -16.9126
# 6 12.0655 -23.0949 -14.0892 -0.6271 -16.9126 37.5242
#
#
#
# Elastic Compliance Matrix: (Units=1/GPa)
#
#
# Indices 1 2 3 4 5 6 
#
# 1 0.016382 -0.003672 -0.002564 0.005635 0.002326 -0.007347
# 2 -0.003672 0.005746 -0.000405 -0.003956 -0.000190 0.004413
# 3 -0.002564 -0.000405 0.014615 -0.001059 -0.009276 0.001864
# 4 0.005635 -0.003956 -0.001059 0.025159 -0.001396 -0.004853
# 5 0.002326 -0.000190 -0.009276 -0.001396 0.050221 0.018264
# 6 -0.007347 0.004413 0.001864 -0.004853 0.018264 0.040579
#
#
# Mechanical properties :
#
#
# Convention : Reuss Voigt Hill
#
# Bulk Modulus (GPa) = 42.62313 60.06602 51.34458
# Shear Modulus (GPa) = 28.76792 44.91331 36.84061
#
# Velocity S-wave (km/s) = 3.28085 4.09940 3.71275
# Velocity P-wave (km/s) = 5.50456 6.69936 6.13113
#
# Compressibility (1/GPa) = 0.02346144
#
# Stress axis : x y z
#
# Youngs Moduli (GPa) = 61.04403 174.01908 68.42104
#
# Poissons Ratio (x) = 0.63900 0.17541
# Poissons Ratio (y) = 0.22415 0.02774
# Poissons Ratio (z) = 0.15650 0.07054
#
# Static dielectric constant tensor:
#      x y z
#    x 2.139570 -0.042100 -0.113830 
#    y -0.042100 2.178700 -0.021070 
#    z -0.113830 -0.021070 2.516340 
# 
# From -- ./inp_files/177192.got.cif
#   From: 2010.05.17/outbox.cif.g08.bks.cpg/sg2_89_cif.got.tgz:177192.got - 2010.06.03 11:33:40.
