data_PCOD9087238
_publ_section_title
;
Structure prediction by ZEFSAII (Michael W. Deem and Ramdas Pophale) SiO2 
 PCOD9087238
Probable space group: P -1
;
_chemical_formula_sum "Si O2"
_cell_formula_units_Z 12
_cell_length_a 5.088999
_cell_length_b 19.790026
_cell_length_c 11.432525
_cell_angle_alpha 28.053046
_cell_angle_beta 75.050538
_cell_angle_gamma 84.449401
_cell_volume 500.964650
_symmetry_space_group_name_H-M "P -1"
_symmetry_group_IT_number 2
_symmetry_cell_setting 'triclinic'
loop_
_space_group_symop_operation_xyz
x,y,z
-x,-y,-z
loop_
_atom_site_type_symbol
_atom_site_label
_atom_site_fract_x
_atom_site_fract_y
_atom_site_fract_z
Si Si1 0.385927 0.686058 0.146482
Si Si2 0.823374 0.550750 0.843138
Si Si3 0.281105 0.743225 0.816481
Si Si4 0.792096 0.669451 0.319346
Si Si5 0.245296 0.064684 0.965058
Si Si6 0.080819 0.159341 0.485876
O O1 0.352287 0.772351 0.900197
O O2 0.675785 0.718517 0.135614
O O3 0.324689 0.509988 0.391442
O O4 0.131950 0.705280 0.228410
O O5 0.826457 0.439625 0.905919
O O6 0.585153 0.814852 0.609654
O O7 0.936300 0.728627 0.575051
O O8 0.000000 0.500000 0.000000
O O9 0.500000 0.500000 0.000000
O O10 0.052137 0.798947 0.683239
O O11 0.680510 0.755920 0.302682
O O12 0.106561 0.999306 0.204832
O O13 0.500000 0.000000 0.000000
O O14 0.000000 0.000000 0.000000
#
# Coordination Sequence:
#
# PCOD9087238 Si02
#       6
#     2   2   2   2   2   2
#     4  10  21  41  68  90 124 162 211 262 308 357
#     4   8  16  30  50  80 117 149 184 243 291 349
#     4  10  19  36  62  90 121 158 203 255 315 357
#     4  10  23  43  62  93 124 164 214 259 295 375
#     4  12  26  44  65  89 128 172 207 251 317 380
#     4  10  21  38  56  91 126 155 205 255 304 376
#
# _framework density 23.953787999999999
#
# number of rings (size 3 to 8) (size 9 to 14) (size 15 to 20)
#    0.000    2.000    0.000    3.000    2.333    0.000 
#    9.000    5.000    0.000    0.000    0.000    0.000 
#    0.000    0.000    0.000    0.000    0.000    0.000 
#
# Total GULP energy -66977.525214 kJ/mol
# GULP energy per Si atom -5581.460435 kJ/mol
# Density = 2.389927 g / cm^3
# Si number density = 23.953788 Si / 1000 Ang^3
#
#
#
# Elastic Constant Matrix: (Units=GPa)
#
#
# Indices 1 2 3 4 5 6 
#
# 1 132.0150 12.5657 15.4665 -9.0722 24.5980 7.4083
# 2 12.5657 68.7841 18.4716 -1.5772 15.8172 7.2245
# 3 15.4665 18.4716 55.3294 -7.2811 1.5060 -0.3633
# 4 -9.0722 -1.5772 -7.2811 34.1739 2.0707 22.3205
# 5 24.5980 15.8172 1.5060 2.0707 28.3312 9.3275
# 6 7.4083 7.2245 -0.3633 22.3205 9.3275 28.0493
#
#
#
# Elastic Compliance Matrix: (Units=1/GPa)
#
#
# Indices 1 2 3 4 5 6 
#
# 1 0.009898 0.001296 -0.002218 0.006070 -0.007942 -0.005166
# 2 0.001296 0.018779 -0.005892 0.003816 -0.009933 -0.004989
# 3 -0.002218 -0.005892 0.021294 0.006045 0.004988 -0.004090
# 4 0.006070 0.003816 0.006045 0.073289 0.007802 -0.063423
# 5 -0.007942 -0.009933 0.004988 0.007802 0.053219 -0.019185
# 6 -0.005166 -0.004989 -0.004090 -0.063423 -0.019185 0.095097
#
#
# Mechanical properties :
#
#
# Convention : Reuss Voigt Hill
#
# Bulk Modulus (GPa) = 27.51639 38.79291 33.15465
# Shear Modulus (GPa) = 16.81690 32.08585 24.45137
#
# Velocity S-wave (km/s) = 2.65251 3.66387 3.19842
# Velocity P-wave (km/s) = 4.57092 5.84198 5.24509
#
# Compressibility (1/GPa) = 0.03634197
#
# Stress axis : x y z
#
# Youngs Moduli (GPa) = 101.02602 53.25022 46.96250
#
# Poissons Ratio (x) = -0.06899 0.10418
# Poissons Ratio (y) = -0.13090 0.27670
# Poissons Ratio (z) = 0.22412 0.31375
#
# Static dielectric constant tensor:
#      x y z
#    x 1.822010 -0.020930 0.005440 
#    y -0.020930 1.977070 -0.047980 
#    z 0.005440 -0.047980 1.990360 
# 
# From -- ./inp_files/368549.got.cif
#   From: 2010.05.17/outbox.cif.g08.bks.cpg/sg2_185_cif.got.tgz:368549.got - 2010.06.03 11:33:40.
