data_PCOD9087098
_publ_section_title
;
Structure prediction by ZEFSAII (Michael W. Deem and Ramdas Pophale) SiO2 
 PCOD9087098
Probable space group: P -1
;
_chemical_formula_sum "Si O2"
_cell_formula_units_Z 16
_cell_length_a 19.472599
_cell_length_b 5.261642
_cell_length_c 24.530908
_cell_angle_alpha 67.557413
_cell_angle_beta 157.450292
_cell_angle_gamma 123.081159
_cell_volume 746.777578
_symmetry_space_group_name_H-M "P -1"
_symmetry_group_IT_number 2
_symmetry_cell_setting 'triclinic'
loop_
_space_group_symop_operation_xyz
x,y,z
-x,-y,-z
loop_
_atom_site_type_symbol
_atom_site_label
_atom_site_fract_x
_atom_site_fract_y
_atom_site_fract_z
Si Si1 0.718868 0.528787 0.594291
Si Si2 0.012225 0.415771 0.579837
Si Si3 0.160603 0.203437 0.550615
Si Si4 0.527862 0.203886 0.057851
Si Si5 0.791085 0.108124 0.052942
Si Si6 0.145063 0.881103 0.090850
Si Si7 0.653275 0.593904 0.899072
Si Si8 0.501991 0.894920 0.423435
O O1 0.603800 0.720872 0.481208
O O2 0.609731 0.323203 0.586513
O O3 0.967147 0.772689 0.767984
O O4 0.679054 0.261013 0.542457
O O5 0.853092 0.481032 0.490080
O O6 0.000000 0.500000 0.500000
O O7 0.244228 0.644148 0.757399
O O8 0.932726 0.037429 0.549395
O O9 0.401625 0.320985 0.730371
O O10 0.000000 0.000000 0.500000
O O11 0.500000 0.500000 0.000000
O O12 0.500000 0.000000 0.000000
O O13 0.345130 0.978676 0.985124
O O14 0.777134 0.409603 0.995529
O O15 0.690971 0.785746 0.967939
O O16 0.323377 0.912981 0.259210
O O17 0.264071 0.118002 0.107739
O O18 0.000000 0.500000 0.000000
O O19 0.000000 0.000000 0.000000
#
# Coordination Sequence:
#
# PCOD9087098 Si02
#       8
#     2   2   2   2   2   2   2   2
#     4  10  21  39  66  88 127 180 217 266 327 405
#     4  10  20  39  66  91 125 176 221 270 343 410
#     4  10  19  36  61  95 126 168 222 278 328 395
#     4  12  26  46  68 101 140 184 232 297 356 412
#     4  12  24  44  69  97 136 176 242 272 341 425
#     4  12  25  43  67 101 143 174 221 290 355 396
#     4  12  24  41  70 104 132 182 233 285 343 421
#     4  10  21  40  62  95 130 168 220 267 335 404
#
# _framework density 21.425388999999999
#
# number of rings (size 3 to 8) (size 9 to 14) (size 15 to 20)
#    0.000    1.000    0.000    9.000    0.000    2.000 
#    6.750    0.000    0.000    0.000    0.000    0.000 
#    0.000    0.000    0.000    0.000    0.000    0.000 
#
# Total GULP energy -89451.217692 kJ/mol
# GULP energy per Si atom -5590.701106 kJ/mol
# Density = 2.137662 g / cm^3
# Si number density = 21.425389 Si / 1000 Ang^3
#
#
#
# Elastic Constant Matrix: (Units=GPa)
#
#
# Indices 1 2 3 4 5 6 
#
# 1 65.3699 28.4995 32.2670 9.5182 -2.6701 -29.2842
# 2 28.4995 91.8326 32.3473 -2.7353 -7.5485 -25.0837
# 3 32.2670 32.3473 133.5998 5.7447 9.3206 -10.9847
# 4 9.5182 -2.7353 5.7447 47.3729 -9.0158 0.1780
# 5 -2.6701 -7.5485 9.3206 -9.0158 26.5212 0.4626
# 6 -29.2842 -25.0837 -10.9847 0.1780 0.4626 41.5337
#
#
#
# Elastic Compliance Matrix: (Units=1/GPa)
#
#
# Indices 1 2 3 4 5 6 
#
# 1 0.026423 -0.002233 -0.004438 -0.004631 0.001729 0.016108
# 2 -0.002233 0.015060 -0.003101 0.002809 0.005991 0.006622
# 3 -0.004438 -0.003101 0.009526 -0.001407 -0.005113 -0.002420
# 4 -0.004631 0.002809 -0.001407 0.024105 0.009059 -0.002145
# 5 0.001729 0.005991 -0.005113 0.009059 0.044410 0.002952
# 6 0.016108 0.006622 -0.002420 -0.002145 0.002952 0.038770
#
#
# Mechanical properties :
#
#
# Convention : Reuss Voigt Hill
#
# Bulk Modulus (GPa) = 31.78217 53.00330 42.39273
# Shear Modulus (GPa) = 26.54983 36.26479 31.40731
#
# Velocity S-wave (km/s) = 3.52401 4.11860 3.83285
# Velocity P-wave (km/s) = 5.60574 6.88545 6.27828
#
# Compressibility (1/GPa) = 0.03146419
#
# Stress axis : x y z
#
# Youngs Moduli (GPa) = 37.84625 66.40307 104.97490
#
# Poissons Ratio (x) = 0.14826 0.46589
# Poissons Ratio (y) = 0.08450 0.32556
# Poissons Ratio (z) = 0.16797 0.20594
#
# Static dielectric constant tensor:
#      x y z
#    x 1.728180 -0.087260 -0.045730 
#    y -0.087260 1.705150 -0.048290 
#    z -0.045730 -0.048290 1.760120 
# 
# From -- ./inp_files/613422.got.cif
#   From: 2010.05.17/outbox.cif.g08.bks.cpg/sg2_307_cif.got.tgz:613422.got - 2010.06.03 11:33:40.
