data_PCOD9087992
_publ_section_title
;
Structure prediction by ZEFSAII (Michael W. Deem and Ramdas Pophale) SiO2 
 PCOD9087992
Probable space group: P -1
;
_chemical_formula_sum "Si O2"
_cell_formula_units_Z 14
_cell_length_a 15.570166
_cell_length_b 11.138033
_cell_length_c 10.109866
_cell_angle_alpha 125.334774
_cell_angle_beta 54.803710
_cell_angle_gamma 144.658116
_cell_volume 806.771944
_symmetry_space_group_name_H-M "P -1"
_symmetry_group_IT_number 2
_symmetry_cell_setting 'triclinic'
loop_
_space_group_symop_operation_xyz
x,y,z
-x,-y,-z
loop_
_atom_site_type_symbol
_atom_site_label
_atom_site_fract_x
_atom_site_fract_y
_atom_site_fract_z
Si Si1 0.337100 0.688790 0.054912
Si Si2 0.590519 0.573615 0.101781
Si Si3 0.678906 0.178494 0.420058
Si Si4 0.606747 0.185458 0.208262
Si Si5 0.182216 0.992091 0.716891
Si Si6 0.893184 0.530200 0.650130
Si Si7 0.452864 0.327802 0.533867
O O1 0.192110 0.576308 0.203003
O O2 0.475578 0.934126 0.132542
O O3 0.386000 0.570614 0.966749
O O4 0.311987 0.692541 0.924004
O O5 0.502011 0.571730 0.295484
O O6 0.756294 0.821574 0.117983
O O7 0.500000 0.500000 0.000000
O O8 0.702137 0.222809 0.271392
O O9 0.744232 0.087170 0.349253
O O10 0.763471 0.390797 0.564405
O O11 0.500000 0.000000 0.500000
O O12 0.526563 0.251272 0.375314
O O13 0.004981 0.782909 0.720543
O O14 0.271147 0.121955 0.584765
O O15 0.000000 0.500000 0.500000
O O16 0.500000 0.500000 0.500000
#
# Coordination Sequence:
#
# PCOD9087992 Si02
#       7
#     2   2   2   2   2   2   2
#     4  11  22  34  58  85 119 147 190 236 291 328
#     4  10  21  35  58  88 112 143 192 238 278 334
#     4  11  17  33  62  87 106 147 200 231 273 337
#     4  11  20  34  56  91 111 145 192 243 275 337
#     4   9  20  35  57  79 118 147 186 230 289 336
#     4  10  21  37  56  82 115 153 191 233 287 341
#     4  10  19  37  58  80 118 148 182 233 294 336
#
# _framework density 17.353107999999999
#
# number of rings (size 3 to 8) (size 9 to 14) (size 15 to 20)
#    0.857    0.857    4.286    1.714    2.000    0.571 
#    0.000    2.857    3.143    1.714    0.000    0.000 
#    0.000    0.000    0.000    0.000    0.000    0.000 
#
# Total GULP energy -77944.479688 kJ/mol
# GULP energy per Si atom -5567.462835 kJ/mol
# Density = 1.731361 g / cm^3
# Si number density = 17.353108 Si / 1000 Ang^3
#
#
#
# Elastic Constant Matrix: (Units=GPa)
#
#
# Indices 1 2 3 4 5 6 
#
# 1 50.7783 49.1658 30.6981 6.7288 14.6028 -7.2348
# 2 49.1658 131.5808 59.1818 3.6421 19.1396 -6.5065
# 3 30.6981 59.1818 128.4098 -5.0959 21.3091 -0.7576
# 4 6.7288 3.6421 -5.0959 37.9850 -7.0765 -2.3552
# 5 14.6028 19.1396 21.3091 -7.0765 36.7346 2.3692
# 6 -7.2348 -6.5065 -0.7576 -2.3552 2.3692 27.2361
#
#
#
# Elastic Compliance Matrix: (Units=1/GPa)
#
#
# Indices 1 2 3 4 5 6 
#
# 1 0.035845 -0.010390 -0.002489 -0.006956 -0.009195 0.007169
# 2 -0.010390 0.013163 -0.003457 -0.000002 -0.000746 0.000353
# 3 -0.002489 -0.003457 0.010525 0.001584 -0.002958 -0.000800
# 4 -0.006956 -0.000002 0.001584 0.029165 0.007462 0.000069
# 5 -0.009195 -0.000746 -0.002958 0.007462 0.034747 -0.005080
# 6 0.007169 0.000353 -0.000800 0.000069 -0.005080 0.039130
#
#
# Mechanical properties :
#
#
# Convention : Reuss Voigt Hill
#
# Bulk Modulus (GPa) = 37.22746 65.42891 51.32819
# Shear Modulus (GPa) = 24.48565 31.83934 28.16250
#
# Velocity S-wave (km/s) = 3.76044 4.28809 4.03290
# Velocity P-wave (km/s) = 6.35248 7.89324 7.16440
#
# Compressibility (1/GPa) = 0.02686189
#
# Stress axis : x y z
#
# Youngs Moduli (GPa) = 27.89759 75.97016 95.01367
#
# Poissons Ratio (x) = 0.78933 0.23646
# Poissons Ratio (y) = 0.28986 0.32846
# Poissons Ratio (z) = 0.06943 0.26263
#
# Static dielectric constant tensor:
#      x y z
#    x 1.626210 0.031610 -0.011790 
#    y 0.031610 1.642330 0.003190 
#    z -0.011790 0.003190 1.619480 
# 
# From -- ./inp_files/332313.got.cif
#   From: 2010.05.17/outbox.cif.g08.bks.cpg/sg2_167_cif.got.tgz:332313.got - 2010.06.03 11:33:40.
