data_PCOD9087275
_publ_section_title
;
Structure prediction by ZEFSAII (Michael W. Deem and Ramdas Pophale) SiO2 
 PCOD9087275
Probable space group: P -1
;
_chemical_formula_sum "Si O2"
_cell_formula_units_Z 12
_cell_length_a 9.111759
_cell_length_b 7.204871
_cell_length_c 9.584019
_cell_angle_alpha 91.664913
_cell_angle_beta 128.997314
_cell_angle_gamma 77.185825
_cell_volume 471.708815
_symmetry_space_group_name_H-M "P -1"
_symmetry_group_IT_number 2
_symmetry_cell_setting 'triclinic'
loop_
_space_group_symop_operation_xyz
x,y,z
-x,-y,-z
loop_
_atom_site_type_symbol
_atom_site_label
_atom_site_fract_x
_atom_site_fract_y
_atom_site_fract_z
Si Si1 0.142431 0.288876 0.473476
Si Si2 0.741482 0.106091 0.952376
Si Si3 0.219734 0.662834 0.553836
Si Si4 0.126137 0.514271 0.941837
Si Si5 0.187573 0.938955 0.309104
Si Si6 0.503788 0.714515 0.953577
O O1 0.274827 0.430980 0.592655
O O2 0.002495 0.271886 0.518305
O O3 0.001623 0.406399 0.269107
O O4 0.231752 0.086811 0.451324
O O5 0.768113 0.321184 0.951414
O O6 0.568677 0.137137 0.961247
O O7 0.716851 0.036265 0.780948
O O8 0.953412 0.994409 0.139268
O O9 0.240931 0.734319 0.412719
O O10 0.345371 0.752520 0.736912
O O11 0.283348 0.319250 0.987172
O O12 0.000000 0.500000 0.000000
O O13 0.500000 0.500000 0.000000
#
# Coordination Sequence:
#
# PCOD9087275 Si02
#       6
#     2   2   2   2   2   2
#     4  10  21  35  62  94 123 160 210 254 301 370
#     4   9  19  35  60  90 124 166 200 256 306 369
#     4  11  20  36  65  94 121 169 202 257 306 365
#     4  10  19  37  63  90 120 162 212 254 309 372
#     4  10  19  36  62  92 127 164 206 243 316 371
#     4  10  19  38  62  90 124 163 209 253 311 363
#
# _framework density 25.439420999999999
#
# number of rings (size 3 to 8) (size 9 to 14) (size 15 to 20)
#    0.000    2.000    5.000    1.500    0.000    0.000 
#    0.000    7.500    0.000   45.000    0.000    0.000 
#    0.000    0.000    0.000    0.000    0.000    0.000 
#
# Total GULP energy -67181.099271 kJ/mol
# GULP energy per Si atom -5598.424939 kJ/mol
# Density = 2.538152 g / cm^3
# Si number density = 25.439421 Si / 1000 Ang^3
#
#
#
# Elastic Constant Matrix: (Units=GPa)
#
#
# Indices 1 2 3 4 5 6 
#
# 1 142.2521 25.7610 34.5105 -4.5327 -21.7902 -14.4320
# 2 25.7610 59.3378 16.8607 9.1099 3.2104 -1.1714
# 3 34.5105 16.8607 89.6991 0.6863 -23.6527 -4.2819
# 4 -4.5327 9.1099 0.6863 34.1498 -1.2522 -1.1164
# 5 -21.7902 3.2104 -23.6527 -1.2522 31.2277 1.9645
# 6 -14.4320 -1.1714 -4.2819 -1.1164 1.9645 29.8125
#
#
#
# Elastic Compliance Matrix: (Units=1/GPa)
#
#
# Indices 1 2 3 4 5 6 
#
# 1 0.009551 -0.004559 -0.001004 0.002863 0.006236 0.003996
# 2 -0.004559 0.021678 -0.004772 -0.006684 -0.009187 -0.001686
# 3 -0.001004 -0.004772 0.015503 0.001279 0.011530 0.000841
# 4 0.002863 -0.006684 0.001279 0.031667 0.004786 0.002178
# 5 0.006236 -0.009187 0.011530 0.004786 0.046153 0.001452
# 6 0.003996 -0.001686 0.000841 0.002178 0.001452 0.035518
#
#
# Mechanical properties :
#
#
# Convention : Reuss Voigt Hill
#
# Bulk Modulus (GPa) = 38.37370 49.50593 43.93981
# Shear Modulus (GPa) = 26.39527 33.31513 29.85520
#
# Velocity S-wave (km/s) = 3.22463 3.62275 3.42947
# Velocity P-wave (km/s) = 5.38344 6.08290 5.74383
#
# Compressibility (1/GPa) = 0.02605952
#
# Stress axis : x y z
#
# Youngs Moduli (GPa) = 104.70113 46.12967 64.50491
#
# Poissons Ratio (x) = 0.21031 0.06479
# Poissons Ratio (y) = 0.47735 0.30785
# Poissons Ratio (z) = 0.10516 0.22015
#
# Static dielectric constant tensor:
#      x y z
#    x 2.052020 -0.008490 0.051510 
#    y -0.008490 2.076330 0.020220 
#    z 0.051510 0.020220 1.950520 
# 
# From -- ./inp_files/155056.got.cif
#   From: 2010.05.17/outbox.cif.g08.bks.cpg/sg2_78_cif.got.tgz:155056.got - 2010.06.03 11:33:40.
