data_PCOD9087249
_publ_section_title
;
Structure prediction by ZEFSAII (Michael W. Deem and Ramdas Pophale) SiO2 
 PCOD9087249
Probable space group: P -1
;
_chemical_formula_sum "Si O2"
_cell_formula_units_Z 14
_cell_length_a 14.961172
_cell_length_b 11.891537
_cell_length_c 9.927786
_cell_angle_alpha 118.963446
_cell_angle_beta 151.559928
_cell_angle_gamma 50.441049
_cell_volume 634.557514
_symmetry_space_group_name_H-M "P -1"
_symmetry_group_IT_number 2
_symmetry_cell_setting 'triclinic'
loop_
_space_group_symop_operation_xyz
x,y,z
-x,-y,-z
loop_
_atom_site_type_symbol
_atom_site_label
_atom_site_fract_x
_atom_site_fract_y
_atom_site_fract_z
Si Si1 0.189045 0.979223 0.344107
Si Si2 0.284785 0.658917 0.338790
Si Si3 0.646677 0.889756 0.780766
Si Si4 0.466762 0.806883 0.254480
Si Si5 0.962781 0.393680 0.789937
Si Si6 0.304299 0.467771 0.749590
Si Si7 0.143602 0.708134 0.886243
O O1 0.283723 0.814636 0.436650
O O2 0.399528 0.968113 0.548151
O O3 0.064156 0.136845 0.347463
O O4 0.000000 0.000000 0.000000
O O5 0.500000 0.500000 0.500000
O O6 0.193219 0.642197 0.348740
O O7 0.139363 0.684890 0.026930
O O8 0.639630 0.812057 0.587296
O O9 0.698507 0.020578 0.898962
O O10 0.813760 0.760702 0.022752
O O11 0.580473 0.709748 0.216759
O O12 0.346137 0.734644 0.134634
O O13 0.856978 0.468013 0.553165
O O14 0.000000 0.500000 0.000000
O O15 0.186396 0.561201 0.779627
O O16 0.500000 0.500000 0.000000
#
# Coordination Sequence:
#
# PCOD9087249 Si02
#       7
#     2   2   2   2   2   2   2
#     4  10  20  37  59  89 123 163 207 247 305 371
#     4  11  21  37  61  93 123 158 208 257 302 360
#     4  11  21  35  62  93 124 154 214 260 299 353
#     4  10  19  36  62  91 120 164 203 254 306 368
#     4  12  24  39  63  96 122 160 212 260 299 360
#     4  10  22  42  63  89 128 165 201 248 318 379
#     4  10  21  40  62  89 121 166 206 246 309 375
#
# _framework density 22.062619000000002
#
# number of rings (size 3 to 8) (size 9 to 14) (size 15 to 20)
#    0.000    1.429    4.286    3.429    6.000    0.000 
#    0.000   11.429    0.000    0.000    0.000    0.000 
#    0.000    0.000    0.000    0.000    0.000    0.000 
#
# Total GULP energy -78124.875350 kJ/mol
# GULP energy per Si atom -5580.348239 kJ/mol
# Density = 2.201240 g / cm^3
# Si number density = 22.062619 Si / 1000 Ang^3
#
#
#
# Elastic Constant Matrix: (Units=GPa)
#
#
# Indices 1 2 3 4 5 6 
#
# 1 41.8128 -0.3272 -9.3105 4.2373 7.5307 -11.3217
# 2 -0.3272 123.2925 14.5419 -4.8251 2.6147 -23.2446
# 3 -9.3105 14.5419 47.6786 -10.9873 2.0717 -4.4419
# 4 4.2373 -4.8251 -10.9873 37.6069 -8.8184 -2.2412
# 5 7.5307 2.6147 2.0717 -8.8184 25.0553 1.2547
# 6 -11.3217 -23.2446 -4.4419 -2.2412 1.2547 42.2356
#
#
#
# Elastic Compliance Matrix: (Units=1/GPa)
#
#
# Indices 1 2 3 4 5 6 
#
# 1 0.030326 0.001279 0.006100 -0.003593 -0.011500 0.009626
# 2 0.001279 0.009405 -0.001943 0.000512 -0.001295 0.005380
# 3 0.006100 -0.001943 0.024553 0.006046 -0.001709 0.003519
# 4 -0.003593 0.000512 0.006046 0.031623 0.011592 0.001288
# 5 -0.011500 -0.001295 -0.001709 0.011592 0.047964 -0.004785
# 6 0.009626 0.005380 0.003519 0.001288 -0.004785 0.029799
#
#
# Mechanical properties :
#
#
# Convention : Reuss Voigt Hill
#
# Bulk Modulus (GPa) = 13.30565 24.73247 19.01906
# Shear Modulus (GPa) = 26.61693 34.83819 30.72756
#
# Velocity S-wave (km/s) = 3.47713 3.97805 3.73600
# Velocity P-wave (km/s) = 4.70792 5.68633 5.22010
#
# Compressibility (1/GPa) = 0.07515602
#
# Stress axis : x y z
#
# Youngs Moduli (GPa) = 32.97491 106.32347 40.72809
#
# Poissons Ratio (x) = -0.13599 -0.24845
# Poissons Ratio (y) = -0.04217 0.07915
# Poissons Ratio (z) = -0.20115 0.20663
#
# Static dielectric constant tensor:
#      x y z
#    x 1.879650 0.018530 0.049520 
#    y 0.018530 1.933150 0.005750 
#    z 0.049520 0.005750 1.814750 
# 
# From -- ./inp_files/308417.got.cif
#   From: 2010.05.17/outbox.cif.g08.bks.cpg/sg2_155_cif.got.tgz:308417.got - 2010.06.03 11:33:40.
