data_PCOD9087957
_publ_section_title
;
Structure prediction by ZEFSAII (Michael W. Deem and Ramdas Pophale) SiO2 
 PCOD9087957
Probable space group: P -1
;
_chemical_formula_sum "Si O2"
_cell_formula_units_Z 16
_cell_length_a 22.176454
_cell_length_b 11.265872
_cell_length_c 9.960782
_cell_angle_alpha 123.007635
_cell_angle_beta 28.258199
_cell_angle_gamma 135.180167
_cell_volume 806.251865
_symmetry_space_group_name_H-M "P -1"
_symmetry_group_IT_number 2
_symmetry_cell_setting 'triclinic'
loop_
_space_group_symop_operation_xyz
x,y,z
-x,-y,-z
loop_
_atom_site_type_symbol
_atom_site_label
_atom_site_fract_x
_atom_site_fract_y
_atom_site_fract_z
Si Si1 0.847076 0.981870 0.730653
Si Si2 0.100849 0.451827 0.191286
Si Si3 0.558442 0.589958 0.081569
Si Si4 0.353140 0.707545 0.651374
Si Si5 0.806588 0.951467 0.210568
Si Si6 0.669680 0.057619 0.339035
Si Si7 0.097749 0.954500 0.645198
Si Si8 0.652966 0.575722 0.159922
O O1 0.863999 0.050139 0.587934
O O2 0.709407 0.780406 0.873137
O O3 0.000000 0.000000 0.500000
O O4 0.781325 0.058776 0.007214
O O5 0.000000 0.500000 0.500000
O O6 0.995697 0.244511 0.240887
O O7 0.192196 0.583584 0.970032
O O8 0.239028 0.476926 0.027097
O O9 0.424946 0.600906 0.416116
O O10 0.611272 0.520718 0.054019
O O11 0.500000 0.500000 0.000000
O O12 0.335578 0.782410 0.593173
O O13 0.493104 0.881325 0.562536
O O14 0.737072 0.781104 0.148711
O O15 0.746317 0.055967 0.325998
O O16 0.772849 0.929635 0.423277
O O17 0.988702 0.024809 0.895033
O O18 0.500000 0.500000 0.500000
#
# Coordination Sequence:
#
# PCOD9087957 Si02
#       8
#     2   2   2   2   2   2   2   2
#     4  11  19  38  61  89 121 160 209 254 310 373
#     4  11  22  40  63  92 127 163 206 257 320 371
#     4  11  24  39  61  95 124 164 213 261 314 377
#     4  10  21  39  61  87 118 165 204 252 312 375
#     4  10  19  37  57  88 114 160 201 249 306 363
#     4  10  19  38  65  81 118 162 203 247 312 372
#     4  10  22  33  60  90 120 153 206 256 303 367
#     4  11  20  40  67  85 121 165 206 253 314 374
#
# _framework density 19.844915
#
# number of rings (size 3 to 8) (size 9 to 14) (size 15 to 20)
#    0.000    1.500    5.000    1.500    1.750    1.000 
#    2.250    0.625    0.000    3.750    0.000    0.000 
#    0.000    0.000    0.000    0.000    0.000    0.000 
#
# Total GULP energy -89187.079635 kJ/mol
# GULP energy per Si atom -5574.192477 kJ/mol
# Density = 1.979975 g / cm^3
# Si number density = 19.844915 Si / 1000 Ang^3
#
#
#
# Elastic Constant Matrix: (Units=GPa)
#
#
# Indices 1 2 3 4 5 6 
#
# 1 133.6739 11.5997 6.0602 -0.4719 7.8190 -0.7609
# 2 11.5997 24.2919 17.1489 0.6076 3.9949 -4.4606
# 3 6.0602 17.1489 75.1320 -13.8977 0.0513 3.6714
# 4 -0.4719 0.6076 -13.8977 18.7555 -9.3247 3.0771
# 5 7.8190 3.9949 0.0513 -9.3247 34.6223 6.8248
# 6 -0.7609 -4.4606 3.6714 3.0771 6.8248 29.6456
#
#
#
# Elastic Compliance Matrix: (Units=1/GPa)
#
#
# Indices 1 2 3 4 5 6 
#
# 1 0.007871 -0.003604 0.000131 -0.000309 -0.001447 0.000009
# 2 -0.003604 0.065426 -0.021266 -0.030619 -0.018875 0.019909
# 3 0.000131 -0.021266 0.023458 0.025699 0.011564 -0.011431
# 4 -0.000309 -0.030619 0.025699 0.094425 0.034008 -0.025427
# 5 -0.001447 -0.018875 0.011564 0.034008 0.044075 -0.017986
# 6 0.000009 0.019909 -0.011431 -0.025427 -0.017986 0.044923
#
#
# Mechanical properties :
#
#
# Convention : Reuss Voigt Hill
#
# Bulk Modulus (GPa) = 21.15229 33.63506 27.39367
# Shear Modulus (GPa) = 14.47535 29.82394 22.14964
#
# Velocity S-wave (km/s) = 2.70371 3.88087 3.34449
# Velocity P-wave (km/s) = 4.51981 6.08829 5.36171
#
# Compressibility (1/GPa) = 0.04727621
#
# Stress axis : x y z
#
# Youngs Moduli (GPa) = 127.04428 15.28454 42.62950
#
# Poissons Ratio (x) = 0.05509 -0.00559
# Poissons Ratio (y) = 0.45786 0.90658
# Poissons Ratio (z) = -0.01666 0.32505
#
# Static dielectric constant tensor:
#      x y z
#    x 1.657750 0.129160 -0.035180 
#    y 0.129160 1.616040 0.022380 
#    z -0.035180 0.022380 1.738740 
# 
# From -- ./inp_files/255102.got.cif
#   From: 2010.05.17/outbox.cif.g08.bks.cpg/sg2_128_cif.got.tgz:255102.got - 2010.06.03 11:33:40.
