data_PCOD9087505
_publ_section_title
;
Structure prediction by ZEFSAII (Michael W. Deem and Ramdas Pophale) SiO2 
 PCOD9087505
Probable space group: P -1
;
_chemical_formula_sum "Si O2"
_cell_formula_units_Z 16
_cell_length_a 9.638555
_cell_length_b 10.102139
_cell_length_c 16.449499
_cell_angle_alpha 137.331274
_cell_angle_beta 114.105392
_cell_angle_gamma 98.457933
_cell_volume 684.391827
_symmetry_space_group_name_H-M "P -1"
_symmetry_group_IT_number 2
_symmetry_cell_setting 'triclinic'
loop_
_space_group_symop_operation_xyz
x,y,z
-x,-y,-z
loop_
_atom_site_type_symbol
_atom_site_label
_atom_site_fract_x
_atom_site_fract_y
_atom_site_fract_z
Si Si1 0.213329 0.930645 0.385136
Si Si2 0.761617 0.530716 0.013501
Si Si3 0.371081 0.474421 0.745805
Si Si4 0.334404 0.706391 0.425733
Si Si5 0.839685 0.738253 0.955135
Si Si6 0.897967 0.582517 0.459687
Si Si7 0.741847 0.630740 0.607188
Si Si8 0.702669 0.828678 0.244570
O O1 0.263603 0.847794 0.438367
O O2 0.971547 0.659723 0.172390
O O3 0.253704 0.188485 0.539322
O O4 0.404336 0.067688 0.426971
O O5 0.723966 0.720918 0.118706
O O6 0.818078 0.572858 0.951917
O O7 0.512463 0.232458 0.832600
O O8 0.633030 0.692185 0.896244
O O9 0.296082 0.601271 0.738278
O O10 0.306761 0.343543 0.763080
O O11 0.212469 0.434584 0.215178
O O12 0.270870 0.583389 0.443909
O O13 0.072074 0.060145 0.167226
O O14 0.812209 0.648108 0.540342
O O15 0.000000 0.500000 0.500000
O O16 0.087967 0.842548 0.564396
O O17 0.500000 0.500000 0.500000
#
# Coordination Sequence:
#
# PCOD9087505 Si02
#       8
#     2   2   2   2   2   2   2   2
#     4  10  20  40  61  92 127 158 222 264 318 365
#     4  10  19  36  64  86 118 162 207 263 315 372
#     4  10  21  40  69  88 125 175 205 263 324 379
#     4  10  23  36  62  95 121 169 216 269 304 386
#     4  10  20  41  63  91 125 163 220 259 320 381
#     4  12  26  43  63  98 133 164 217 269 317 384
#     4  12  24  44  67  88 132 176 211 256 336 383
#     4  10  21  38  63  91 118 169 214 250 318 386
#
# _framework density 23.378419999999998
#
# number of rings (size 3 to 8) (size 9 to 14) (size 15 to 20)
#    0.000    1.500    2.500    3.000    1.750    0.500 
#    4.500    0.625    0.000    0.000    0.000    0.000 
#    0.000    0.000    0.000    0.000    0.000    0.000 
#
# Total GULP energy -89293.912839 kJ/mol
# GULP energy per Si atom -5580.869552 kJ/mol
# Density = 2.332521 g / cm^3
# Si number density = 23.378420 Si / 1000 Ang^3
#
#
#
# Elastic Constant Matrix: (Units=GPa)
#
#
# Indices 1 2 3 4 5 6 
#
# 1 74.3498 39.1798 44.7481 -2.0565 19.1126 6.1534
# 2 39.1798 108.6853 36.5739 -11.2408 11.3033 14.2710
# 3 44.7481 36.5739 127.4030 -3.7381 45.5647 -2.7098
# 4 -2.0565 -11.2408 -3.7381 35.7263 1.0525 3.5547
# 5 19.1126 11.3033 45.5647 1.0525 36.7931 -4.1222
# 6 6.1534 14.2710 -2.7098 3.5547 -4.1222 31.6904
#
#
#
# Elastic Compliance Matrix: (Units=1/GPa)
#
#
# Indices 1 2 3 4 5 6 
#
# 1 0.019812 -0.005080 -0.004229 -0.000557 -0.003741 -0.002345
# 2 -0.005080 0.012791 -0.002094 0.004026 0.000591 -0.005328
# 3 -0.004229 -0.002094 0.016070 0.001201 -0.017007 0.000791
# 4 -0.000557 0.004026 0.001201 0.030011 -0.003907 -0.005477
# 5 -0.003741 0.000591 -0.017007 -0.003907 0.050792 0.006052
# 6 -0.002345 -0.005328 0.000791 -0.005477 0.006052 0.035879
#
#
# Mechanical properties :
#
#
# Convention : Reuss Voigt Hill
#
# Bulk Modulus (GPa) = 38.65731 61.27130 49.96431
# Shear Modulus (GPa) = 25.40860 33.50437 29.45648
#
# Velocity S-wave (km/s) = 3.30030 3.78978 3.55348
# Velocity P-wave (km/s) = 5.57620 6.73909 6.18504
#
# Compressibility (1/GPa) = 0.02586833
#
# Stress axis : x y z
#
# Youngs Moduli (GPa) = 50.47392 78.17814 62.22763
#
# Poissons Ratio (x) = 0.39711 0.26314
# Poissons Ratio (y) = 0.25639 0.13032
# Poissons Ratio (z) = 0.21344 0.16373
#
# Static dielectric constant tensor:
#      x y z
#    x 1.933450 -0.044490 0.021000 
#    y -0.044490 1.907290 -0.002430 
#    z 0.021000 -0.002430 1.968740 
# 
# From -- ./inp_files/566149.got.cif
#   From: 2010.05.17/outbox.cif.g08.bks.cpg/sg2_284_cif.got.tgz:566149.got - 2010.06.03 11:33:40.
