data_PCOD9087916
_publ_section_title
;
Structure prediction by ZEFSAII (Michael W. Deem and Ramdas Pophale) SiO2 
 PCOD9087916
Probable space group: P -1
;
_chemical_formula_sum "Si O2"
_cell_formula_units_Z 16
_cell_length_a 24.869478
_cell_length_b 11.538615
_cell_length_c 24.704892
_cell_angle_alpha 152.626104
_cell_angle_beta 168.054318
_cell_angle_gamma 27.324548
_cell_volume 660.188622
_symmetry_space_group_name_H-M "P -1"
_symmetry_group_IT_number 2
_symmetry_cell_setting 'triclinic'
loop_
_space_group_symop_operation_xyz
x,y,z
-x,-y,-z
loop_
_atom_site_type_symbol
_atom_site_label
_atom_site_fract_x
_atom_site_fract_y
_atom_site_fract_z
Si Si1 0.817813 0.489617 0.240348
Si Si2 0.947207 0.788454 0.901821
Si Si3 0.312969 0.609982 0.643359
Si Si4 0.256354 0.821378 0.790244
Si Si5 0.185098 0.991545 0.901779
Si Si6 0.520638 0.465042 0.337543
Si Si7 0.391684 0.718407 0.528428
Si Si8 0.126048 0.732560 0.908645
O O1 0.042360 0.650548 0.521253
O O2 0.869364 0.289323 0.159596
O O3 0.812193 0.310198 0.211746
O O4 0.544193 0.678861 0.035065
O O5 0.678368 0.698569 0.586527
O O6 0.207431 0.566384 0.064687
O O7 0.000000 0.000000 0.000000
O O8 0.928459 0.962885 0.008622
O O9 0.264104 0.823088 0.732412
O O10 0.357660 0.706406 0.666168
O O11 0.084346 0.439182 0.349324
O O12 0.587967 0.410876 0.846058
O O13 0.188960 0.042900 0.861623
O O14 0.917301 0.161343 0.732371
O O15 0.434858 0.061239 0.207471
O O16 0.577210 0.375324 0.417400
O O17 0.500000 0.500000 0.500000
#
# Coordination Sequence:
#
# PCOD9087916 Si02
#       8
#     2   2   2   2   2   2   2   2
#     4  10  21  36  66  99 130 156 196 254 327 376
#     4  12  21  35  61  93 120 158 203 250 320 377
#     4  10  19  37  56  92 124 151 183 254 311 378
#     4  10  21  39  67 101 128 151 198 260 325 384
#     4  12  24  46  67  89 125 171 212 257 305 361
#     4  12  24  40  60  82 129 161 207 260 300 357
#     4  12  30  47  62  87 123 174 226 256 287 355
#     4  10  20  31  55  93 126 152 190 238 319 379
#
# _framework density 24.235499000000001
#
# number of rings (size 3 to 8) (size 9 to 14) (size 15 to 20)
#    0.000    1.000    2.500    4.500    3.500    0.000 
#    0.000    1.250    0.000    0.000    0.000    0.000 
#    0.000    0.000    0.000    0.000    0.000    0.000 
#
# Total GULP energy -89398.999100 kJ/mol
# GULP energy per Si atom -5587.437444 kJ/mol
# Density = 2.418034 g / cm^3
# Si number density = 24.235499 Si / 1000 Ang^3
#
#
#
# Elastic Constant Matrix: (Units=GPa)
#
#
# Indices 1 2 3 4 5 6 
#
# 1 154.8545 18.8209 25.4577 -0.7889 -3.3924 -20.5936
# 2 18.8209 43.4667 17.3457 5.9336 6.8184 -5.5297
# 3 25.4577 17.3457 63.7536 -3.0439 -3.1999 -24.6374
# 4 -0.7889 5.9336 -3.0439 28.3102 -4.8537 -3.9419
# 5 -3.3924 6.8184 -3.1999 -4.8537 23.4683 -2.3700
# 6 -20.5936 -5.5297 -24.6374 -3.9419 -2.3700 52.2409
#
#
#
# Elastic Compliance Matrix: (Units=1/GPa)
#
#
# Indices 1 2 3 4 5 6 
#
# 1 0.007364 -0.003050 -0.001031 0.001457 0.002345 0.002310
# 2 -0.003050 0.031413 -0.010082 -0.010640 -0.013552 -0.004050
# 3 -0.001031 -0.010082 0.023778 0.007620 0.008680 0.010709
# 4 0.001457 -0.010640 0.007620 0.041702 0.013653 0.006808
# 5 0.002345 -0.013552 0.008680 0.013653 0.051597 0.006954
# 6 0.002310 -0.004050 0.010709 0.006808 0.006954 0.025504
#
#
# Mechanical properties :
#
#
# Convention : Reuss Voigt Hill
#
# Bulk Modulus (GPa) = 29.21430 42.81369 36.01400
# Shear Modulus (GPa) = 22.61496 34.16725 28.39111
#
# Velocity S-wave (km/s) = 3.05804 3.75881 3.42638
# Velocity P-wave (km/s) = 4.95473 6.04502 5.52682
#
# Compressibility (1/GPa) = 0.03422981
#
# Stress axis : x y z
#
# Youngs Moduli (GPa) = 135.79877 31.83376 42.05569
#
# Poissons Ratio (x) = 0.09710 0.04334
# Poissons Ratio (y) = 0.41420 0.42400
# Poissons Ratio (z) = 0.13994 0.32095
#
# Static dielectric constant tensor:
#      x y z
#    x 1.671520 0.174560 0.047480 
#    y 0.174560 1.812540 0.005300 
#    z 0.047480 0.005300 1.901770 
# 
# From -- ./inp_files/621271.got.cif
#   From: 2010.05.17/outbox.cif.g08.bks.cpg/sg2_311_cif.got.tgz:621271.got - 2010.06.03 11:33:40.
