data_PCOD9087682
_publ_section_title
;
Structure prediction by ZEFSAII (Michael W. Deem and Ramdas Pophale) SiO2 
 PCOD9087682
Probable space group: P -1
;
_chemical_formula_sum "Si O2"
_cell_formula_units_Z 16
_cell_length_a 22.640788
_cell_length_b 5.064916
_cell_length_c 18.517011
_cell_angle_alpha 67.182778
_cell_angle_beta 20.811972
_cell_angle_gamma 67.942297
_cell_volume 694.862931
_symmetry_space_group_name_H-M "P -1"
_symmetry_group_IT_number 2
_symmetry_cell_setting 'triclinic'
loop_
_space_group_symop_operation_xyz
x,y,z
-x,-y,-z
loop_
_atom_site_type_symbol
_atom_site_label
_atom_site_fract_x
_atom_site_fract_y
_atom_site_fract_z
Si Si1 0.768270 0.470248 0.838961
Si Si2 0.916070 0.899271 0.532395
Si Si3 0.653949 0.704032 0.323635
Si Si4 0.232860 0.455428 0.007638
Si Si5 0.230405 0.752943 0.469182
Si Si6 0.538094 0.793377 0.592741
Si Si7 0.427039 0.164659 0.290561
Si Si8 0.089299 0.094712 0.091709
O O1 0.770195 0.694751 0.747543
O O2 0.790494 0.618527 0.875112
O O3 0.937207 0.282089 0.655256
O O4 0.604386 0.290036 0.053564
O O5 0.844169 0.125824 0.533240
O O6 0.000000 0.000000 0.500000
O O7 0.500000 0.500000 0.500000
O O8 0.674376 0.704969 0.386614
O O9 0.581586 0.999573 0.340405
O O10 0.834494 0.703405 0.079191
O O11 0.196865 0.190305 0.027167
O O12 0.121899 0.748795 0.083503
O O13 0.423073 0.533790 0.770959
O O14 0.292148 0.429998 0.418375
O O15 0.094118 0.807165 0.682901
O O16 0.380426 0.934342 0.308966
O O17 0.579717 0.930995 0.607061
#
# Coordination Sequence:
#
# PCOD9087682 Si02
#       8
#     2   2   2   2   2   2   2   2
#     4  10  24  42  69 101 130 175 226 283 326 396
#     4  11  25  44  74 101 132 170 234 286 331 389
#     4  10  19  36  68 101 128 168 229 289 324 380
#     4  10  19  36  65  94 125 167 216 280 318 382
#     4  12  27  46  66  98 140 186 217 273 343 409
#     4   9  21  38  62 100 132 169 223 277 331 392
#     4  11  28  46  68  97 144 183 220 266 345 413
#     4  11  21  37  63  94 132 168 226 265 331 383
#
# _framework density 23.026121
#
# number of rings (size 3 to 8) (size 9 to 14) (size 15 to 20)
#    0.000    1.500    2.500    1.500    7.000    3.000 
#    0.000    1.250    0.000    0.000    0.000    0.000 
#    0.000    0.000    0.000    0.000    0.000    0.000 
#
# Total GULP energy -89341.363328 kJ/mol
# GULP energy per Si atom -5583.835208 kJ/mol
# Density = 2.297371 g / cm^3
# Si number density = 23.026121 Si / 1000 Ang^3
#
#
#
# Elastic Constant Matrix: (Units=GPa)
#
#
# Indices 1 2 3 4 5 6 
#
# 1 107.4164 13.9170 31.0611 -4.9024 18.5103 1.1424
# 2 13.9170 68.4766 9.8878 8.1952 5.5331 -4.6400
# 3 31.0611 9.8878 103.1656 -14.1078 34.2744 -15.1565
# 4 -4.9024 8.1952 -14.1078 30.1533 1.1738 -5.0233
# 5 18.5103 5.5331 34.2744 1.1738 41.3484 -8.3523
# 6 1.1424 -4.6400 -15.1565 -5.0233 -8.3523 28.3291
#
#
#
# Elastic Compliance Matrix: (Units=1/GPa)
#
#
# Indices 1 2 3 4 5 6 
#
# 1 0.010854 -0.001905 -0.002276 0.000882 -0.003305 -0.002785
# 2 -0.001905 0.015893 -0.001681 -0.005270 0.000468 0.000984
# 3 -0.002276 -0.001681 0.016669 0.009506 -0.011419 0.007054
# 4 0.000882 -0.005270 0.009506 0.041027 -0.006825 0.009449
# 5 -0.003305 0.000468 -0.011419 -0.006825 0.035967 0.003495
# 6 -0.002785 0.000984 0.007054 0.009449 0.003495 0.042053
#
#
# Mechanical properties :
#
#
# Convention : Reuss Voigt Hill
#
# Bulk Modulus (GPa) = 31.55322 43.19893 37.37607
# Shear Modulus (GPa) = 27.06363 34.91235 30.98799
#
# Velocity S-wave (km/s) = 3.43205 3.89807 3.67246
# Velocity P-wave (km/s) = 5.42570 6.24992 5.85234
#
# Compressibility (1/GPa) = 0.03169249
#
# Stress axis : x y z
#
# Youngs Moduli (GPa) = 92.13313 62.92093 59.99067
#
# Poissons Ratio (x) = 0.11983 0.13653
# Poissons Ratio (y) = 0.17547 0.10087
# Poissons Ratio (z) = 0.20968 0.10580
#
# Static dielectric constant tensor:
#      x y z
#    x 1.894030 0.016620 0.054210 
#    y 0.016620 1.920330 -0.006570 
#    z 0.054210 -0.006570 2.011390 
# 
# From -- ./inp_files/137938.got.cif
#   From: 2010.05.17/outbox.cif.g08.bks.cpg/sg2_69_cif.got.tgz:137938.got - 2010.06.03 11:33:40.
