data_PCOD9087915
_publ_section_title
;
Structure prediction by ZEFSAII (Michael W. Deem and Ramdas Pophale) SiO2 
 PCOD9087915
Probable space group: P -1
;
_chemical_formula_sum "Si O2"
_cell_formula_units_Z 14
_cell_length_a 15.446442
_cell_length_b 28.162869
_cell_length_c 5.729356
_cell_angle_alpha 111.094274
_cell_angle_beta 79.786820
_cell_angle_gamma 160.824384
_cell_volume 647.379686
_symmetry_space_group_name_H-M "P -1"
_symmetry_group_IT_number 2
_symmetry_cell_setting 'triclinic'
loop_
_space_group_symop_operation_xyz
x,y,z
-x,-y,-z
loop_
_atom_site_type_symbol
_atom_site_label
_atom_site_fract_x
_atom_site_fract_y
_atom_site_fract_z
Si Si1 0.721743 0.147795 0.356384
Si Si2 0.342953 0.662719 0.633735
Si Si3 0.912950 0.586957 0.710996
Si Si4 0.502882 0.109034 0.721556
Si Si5 0.623942 0.281327 0.782371
Si Si6 0.667622 0.558879 0.835960
Si Si7 0.045805 0.227947 0.312526
O O1 0.529640 0.070051 0.507304
O O2 0.932178 0.307169 0.413499
O O3 0.956116 0.233399 0.475337
O O4 0.500000 0.000000 0.000000
O O5 0.314215 0.585839 0.523747
O O6 0.485496 0.756158 0.478341
O O7 0.000000 0.500000 0.500000
O O8 0.488919 0.761097 0.984869
O O9 0.786622 0.568846 0.854045
O O10 0.185295 0.715473 0.965940
O O11 0.523043 0.166395 0.633359
O O12 0.219330 0.953300 0.765047
O O13 0.000000 0.500000 0.000000
O O14 0.382758 0.392382 0.496179
O O15 0.926809 0.738943 0.910693
O O16 0.500000 0.500000 0.000000
#
# Coordination Sequence:
#
# PCOD9087915 Si02
#       7
#     2   2   2   2   2   2   2
#     4  11  22  33  55  91 124 151 197 258 305 368
#     4  10  19  37  56  92 122 156 194 263 309 370
#     4  11  22  35  62  89 117 161 205 245 317 360
#     4  12  22  34  62  91 118 159 198 260 307 368
#     4  10  20  35  58  88 129 150 198 251 321 362
#     4  10  23  42  57  80 121 168 199 246 293 376
#     4  10  23  38  55  85 120 156 205 242 303 362
#
# _framework density 21.625639
#
# number of rings (size 3 to 8) (size 9 to 14) (size 15 to 20)
#    0.000    1.429    4.286    3.000    4.000    0.000 
#    0.000    0.000    0.000    1.714    0.000    0.000 
#    0.000    0.000    0.000    0.000    0.000    0.000 
#
# Total GULP energy -78033.036416 kJ/mol
# GULP energy per Si atom -5573.788315 kJ/mol
# Density = 2.157642 g / cm^3
# Si number density = 21.625639 Si / 1000 Ang^3
#
#
#
# Elastic Constant Matrix: (Units=GPa)
#
#
# Indices 1 2 3 4 5 6 
#
# 1 74.0967 49.9322 -3.1561 -1.0462 -2.2968 -37.7083
# 2 49.9322 110.8529 13.9399 -22.6475 -11.7169 -13.5634
# 3 -3.1561 13.9399 45.7113 -16.5189 -4.2401 -2.5659
# 4 -1.0462 -22.6475 -16.5189 31.5097 4.8588 4.2146
# 5 -2.2968 -11.7169 -4.2401 4.8588 27.1564 3.0744
# 6 -37.7083 -13.5634 -2.5659 4.2146 3.0744 36.7121
#
#
#
# Elastic Compliance Matrix: (Units=1/GPa)
#
#
# Indices 1 2 3 4 5 6 
#
# 1 0.055668 -0.024006 0.007069 -0.017460 -0.007242 0.051414
# 2 -0.024006 0.021551 -0.003499 0.014445 0.006303 -0.019125
# 3 0.007069 -0.003499 0.027985 0.011410 0.000674 0.006558
# 4 -0.017460 0.014445 0.011410 0.049925 -0.000414 -0.017496
# 5 -0.007242 0.006303 0.000674 -0.000414 0.040058 -0.008370
# 6 0.051414 -0.019125 0.006558 -0.017496 -0.008370 0.076150
#
#
# Mechanical properties :
#
#
# Convention : Reuss Voigt Hill
#
# Bulk Modulus (GPa) = 15.54386 39.12145 27.33266
# Shear Modulus (GPa) = 14.98567 30.40528 22.69548
#
# Velocity S-wave (km/s) = 2.63527 3.75371 3.24307
# Velocity P-wave (km/s) = 4.05744 6.07591 5.16621
#
# Compressibility (1/GPa) = 0.06433408
#
# Stress axis : x y z
#
# Youngs Moduli (GPa) = 17.96369 46.40139 35.73288
#
# Poissons Ratio (x) = 1.11389 -0.25259
# Poissons Ratio (y) = 0.43123 0.12501
# Poissons Ratio (z) = -0.12698 0.16234
#
# Static dielectric constant tensor:
#      x y z
#    x 1.773960 -0.016050 0.026230 
#    y -0.016050 1.821350 -0.024340 
#    z 0.026230 -0.024340 1.910350 
# 
# From -- ./inp_files/75614.got.cif
#   From: 2010.05.17/outbox.cif.g08.bks.cpg/sg2_38_cif.got.tgz:75614.got - 2010.06.03 11:33:40.
