data_PCOD9087414
_publ_section_title
;
Structure prediction by ZEFSAII (Michael W. Deem and Ramdas Pophale) SiO2 
 PCOD9087414
Probable space group: P -1
;
_chemical_formula_sum "Si O2"
_cell_formula_units_Z 14
_cell_length_a 15.348065
_cell_length_b 8.773648
_cell_length_c 13.807586
_cell_angle_alpha 52.069832
_cell_angle_beta 43.738584
_cell_angle_gamma 25.008043
_cell_volume 538.296033
_symmetry_space_group_name_H-M "P -1"
_symmetry_group_IT_number 2
_symmetry_cell_setting 'triclinic'
loop_
_space_group_symop_operation_xyz
x,y,z
-x,-y,-z
loop_
_atom_site_type_symbol
_atom_site_label
_atom_site_fract_x
_atom_site_fract_y
_atom_site_fract_z
Si Si1 0.084142 0.427161 0.352191
Si Si2 0.662172 0.314231 0.729528
Si Si3 0.055282 0.241115 0.991807
Si Si4 0.554664 0.754646 0.125079
Si Si5 0.665183 0.431531 0.456489
Si Si6 0.147258 0.430474 0.695499
Si Si7 0.160387 0.747013 0.216524
O O1 0.136318 0.587114 0.234985
O O2 0.000000 0.500000 0.500000
O O3 0.879986 0.596569 0.383800
O O4 0.341296 0.012745 0.274102
O O5 0.447398 0.443438 0.852963
O O6 0.678768 0.370102 0.584918
O O7 0.658239 0.481212 0.749972
O O8 0.894400 0.875509 0.736854
O O9 0.146200 0.226290 0.828620
O O10 0.803671 0.467712 0.085574
O O11 0.000000 0.500000 0.000000
O O12 0.200079 0.890326 0.068461
O O13 0.500000 0.000000 0.000000
O O14 0.500000 0.500000 0.500000
O O15 0.658052 0.676831 0.373932
O O16 0.911816 0.072175 0.345730
#
# Coordination Sequence:
#
# PCOD9087414 Si02
#       7
#     2   2   2   2   2   2   2
#     4  11  23  43  69 101 139 179 223 283 347 395
#     4  10  19  36  63  91 124 174 226 267 327 403
#     4  12  21  41  69  98 133 177 235 276 329 406
#     4  11  21  42  68  95 130 180 228 267 334 410
#     4  11  21  37  64  98 127 177 236 276 327 410
#     4  10  21  40  63  90 135 176 221 272 339 398
#     4  11  22  38  66  98 135 173 221 288 338 386
#
# _framework density 26.007995000000001
#
# number of rings (size 3 to 8) (size 9 to 14) (size 15 to 20)
#    0.000    1.143    5.714    5.143    0.000    0.571 
#    0.000    3.571    3.143    0.000    0.000    0.000 
#    0.000    0.000    0.000    0.000    0.000    0.000 
#
# Total GULP energy -78254.395141 kJ/mol
# GULP energy per Si atom -5589.599653 kJ/mol
# Density = 2.594880 g / cm^3
# Si number density = 26.007995 Si / 1000 Ang^3
#
#
#
# Elastic Constant Matrix: (Units=GPa)
#
#
# Indices 1 2 3 4 5 6 
#
# 1 234.5623 28.9756 33.3716 4.0855 -18.1666 -2.7729
# 2 28.9756 49.9534 20.4504 -2.5189 -3.6407 -5.6358
# 3 33.3716 20.4504 113.7183 -6.0733 5.3698 -16.5905
# 4 4.0855 -2.5189 -6.0733 36.3135 0.4552 -10.8278
# 5 -18.1666 -3.6407 5.3698 0.4552 52.0078 -6.0364
# 6 -2.7729 -5.6358 -16.5905 -10.8278 -6.0364 38.9914
#
#
#
# Elastic Compliance Matrix: (Units=1/GPa)
#
#
# Indices 1 2 3 4 5 6 
#
# 1 0.004861 -0.002320 -0.001227 -0.001103 0.001606 -0.000569
# 2 -0.002320 0.023123 -0.003036 0.002145 0.001416 0.002700
# 3 -0.001227 -0.003036 0.010603 0.003105 -0.001222 0.004658
# 4 -0.001103 0.002145 0.003105 0.031406 0.000368 0.010331
# 5 0.001606 0.001416 -0.001222 0.000368 0.020365 0.003054
# 6 -0.000569 0.002700 0.004658 0.010331 0.003054 0.031320
#
#
# Mechanical properties :
#
#
# Convention : Reuss Voigt Hill
#
# Bulk Modulus (GPa) = 39.33742 62.64769 50.99256
# Shear Modulus (GPa) = 34.88702 46.49161 40.68931
#
# Velocity S-wave (km/s) = 3.66648 4.23258 3.95966
# Velocity P-wave (km/s) = 5.75170 6.93011 6.36822
#
# Compressibility (1/GPa) = 0.02542109
#
# Stress axis : x y z
#
# Youngs Moduli (GPa) = 205.70489 43.24620 94.31381
#
# Poissons Ratio (x) = 0.10034 0.11574
# Poissons Ratio (y) = 0.47729 0.28632
# Poissons Ratio (z) = 0.25243 0.13129
#
# Static dielectric constant tensor:
#      x y z
#    x 2.215780 -0.023360 0.052700 
#    y -0.023360 2.165330 -0.032780 
#    z 0.052700 -0.032780 2.109690 
# 
# From -- ./inp_files/392986.got.cif
#   From: 2010.05.17/outbox.cif.g08.bks.cpg/sg2_197_cif.got.tgz:392986.got - 2010.06.03 11:33:40.
