data_PCOD9087488
_publ_section_title
;
Structure prediction by ZEFSAII (Michael W. Deem and Ramdas Pophale) SiO2 
 PCOD9087488
Probable space group: P -1
;
_chemical_formula_sum "Si O2"
_cell_formula_units_Z 16
_cell_length_a 14.339060
_cell_length_b 9.090645
_cell_length_c 10.006503
_cell_angle_alpha 58.023929
_cell_angle_beta 129.209180
_cell_angle_gamma 136.295883
_cell_volume 691.864817
_symmetry_space_group_name_H-M "P -1"
_symmetry_group_IT_number 2
_symmetry_cell_setting 'triclinic'
loop_
_space_group_symop_operation_xyz
x,y,z
-x,-y,-z
loop_
_atom_site_type_symbol
_atom_site_label
_atom_site_fract_x
_atom_site_fract_y
_atom_site_fract_z
Si Si1 0.966875 0.696418 0.086552
Si Si2 0.572975 0.037631 0.904239
Si Si3 0.186182 0.989505 0.740099
Si Si4 0.878945 0.540136 0.623172
Si Si5 0.382192 0.847659 0.583986
Si Si6 0.299626 0.502241 0.261521
Si Si7 0.060738 0.091620 0.808057
Si Si8 0.279504 0.124564 0.472433
O O1 0.060267 0.600562 0.218755
O O2 0.912550 0.714764 0.173697
O O3 0.818303 0.554776 0.933351
O O4 0.064393 0.931215 0.991225
O O5 0.287515 0.120269 0.642012
O O6 0.473814 0.855421 0.791655
O O7 0.729469 0.078165 0.057560
O O8 0.500000 0.000000 0.000000
O O9 0.151592 0.119431 0.745069
O O10 0.033431 0.780201 0.640149
O O11 0.751621 0.392331 0.468823
O O12 0.791023 0.556176 0.655536
O O13 0.500000 0.000000 0.500000
O O14 0.307755 0.964908 0.507206
O O15 0.362402 0.362160 0.371704
O O16 0.411373 0.756660 0.240564
O O17 0.890149 0.966766 0.670503
#
# Coordination Sequence:
#
# PCOD9087488 Si02
#       8
#     2   2   2   2   2   2   2   2
#     4  10  19  36  64 104 135 175 230 296 344 412
#     4  12  26  49  70 104 143 191 236 292 355 424
#     4  12  24  44  76 102 143 185 241 299 352 422
#     4  12  22  41  72 106 135 190 246 284 353 420
#     4  12  27  46  72 104 147 195 236 292 354 432
#     4  11  23  42  73 101 139 184 239 287 359 422
#     4  10  21  36  67 104 142 173 230 300 361 398
#     4  11  24  45  68 106 143 185 234 300 358 417
#
# _framework density 23.125903999999998
#
# number of rings (size 3 to 8) (size 9 to 14) (size 15 to 20)
#    0.000    0.750    7.500    1.500    0.000    1.000 
#    2.250    0.000    0.000    2.250    0.000    0.000 
#    0.000    0.000    0.000    0.000    0.000    0.000 
#
# Total GULP energy -89417.113622 kJ/mol
# GULP energy per Si atom -5588.569601 kJ/mol
# Density = 2.307327 g / cm^3
# Si number density = 23.125904 Si / 1000 Ang^3
#
#
#
# Elastic Constant Matrix: (Units=GPa)
#
#
# Indices 1 2 3 4 5 6 
#
# 1 111.4368 16.0646 18.7675 2.7311 -6.4259 -21.5390
# 2 16.0646 72.6301 47.0586 13.7448 -0.0785 -19.5069
# 3 18.7675 47.0586 98.1721 27.0911 -21.3329 -4.4595
# 4 2.7311 13.7448 27.0911 49.4467 -8.1006 -1.1964
# 5 -6.4259 -0.0785 -21.3329 -8.1006 24.7384 6.8365
# 6 -21.5390 -19.5069 -4.4595 -1.1964 6.8365 37.8753
#
#
#
# Elastic Compliance Matrix: (Units=1/GPa)
#
#
# Indices 1 2 3 4 5 6 
#
# 1 0.010410 0.000915 -0.002512 0.000531 -0.001025 0.006297
# 2 0.000915 0.030080 -0.017788 -0.001579 -0.020372 0.017545
# 3 -0.002512 -0.017788 0.024956 -0.005210 0.022382 -0.011856
# 4 0.000531 -0.001579 -0.005210 0.024088 0.003819 -0.001053
# 5 -0.001025 -0.020372 0.022382 0.003819 0.066246 -0.020277
# 6 0.006297 0.017545 -0.011856 -0.001053 -0.020277 0.041250
#
#
# Mechanical properties :
#
#
# Convention : Reuss Voigt Hill
#
# Bulk Modulus (GPa) = 37.48743 49.55783 43.52263
# Shear Modulus (GPa) = 20.43380 35.76863 28.10122
#
# Velocity S-wave (km/s) = 2.97575 3.93707 3.48967
# Velocity P-wave (km/s) = 5.29642 6.49180 5.92434
#
# Compressibility (1/GPa) = 0.02667561
#
# Stress axis : x y z
#
# Youngs Moduli (GPa) = 96.06276 33.24439 40.07117
#
# Poissons Ratio (x) = -0.03040 0.10065
# Poissons Ratio (y) = -0.08786 0.71278
# Poissons Ratio (z) = 0.24130 0.59134
#
# Static dielectric constant tensor:
#      x y z
#    x 1.852030 0.047460 -0.002500 
#    y 0.047460 1.958120 0.026120 
#    z -0.002500 0.026120 1.919640 
# 
# From -- ./inp_files/419382.got.cif
#   From: 2010.05.17/outbox.cif.g08.bks.cpg/sg2_210_cif.got.tgz:419382.got - 2010.06.03 11:33:40.
