data_PCOD9087900
_publ_section_title
;
Structure prediction by ZEFSAII (Michael W. Deem and Ramdas Pophale) SiO2 
 PCOD9087900
Probable space group: P -1
;
_chemical_formula_sum "Si O2"
_cell_formula_units_Z 14
_cell_length_a 18.941276
_cell_length_b 6.727034
_cell_length_c 16.643965
_cell_angle_alpha 118.168874
_cell_angle_beta 157.742307
_cell_angle_gamma 52.527564
_cell_volume 607.625661
_symmetry_space_group_name_H-M "P -1"
_symmetry_group_IT_number 2
_symmetry_cell_setting 'triclinic'
loop_
_space_group_symop_operation_xyz
x,y,z
-x,-y,-z
loop_
_atom_site_type_symbol
_atom_site_label
_atom_site_fract_x
_atom_site_fract_y
_atom_site_fract_z
Si Si1 0.838402 0.673946 0.662895
Si Si2 0.173067 0.043265 0.143427
Si Si3 0.477522 0.456856 0.666863
Si Si4 0.917163 0.340359 0.306280
Si Si5 0.382974 0.183848 0.833702
Si Si6 0.954381 0.060436 0.763249
Si Si7 0.753443 0.713489 0.061184
O O1 0.628924 0.666077 0.411079
O O2 0.059958 0.395470 0.830324
O O3 0.793293 0.770412 0.726145
O O4 0.881662 0.876733 0.698909
O O5 0.378174 0.758102 0.288239
O O6 0.000000 0.000000 0.000000
O O7 0.081274 0.135608 0.974905
O O8 0.265818 0.693517 0.449865
O O9 0.613530 0.572950 0.871284
O O10 0.719561 0.509892 0.191940
O O11 0.887264 0.571132 0.256815
O O12 0.158442 0.199930 0.572281
O O13 0.910272 0.121538 0.203629
O O14 0.500000 0.000000 0.000000
O O15 0.576739 0.020461 0.943182
#
# Coordination Sequence:
#
# PCOD9087900 Si02
#       7
#     2   2   2   2   2   2   2
#     4  10  23  40  57  87 121 152 200 242 283 348
#     4  10  20  40  57  84 123 151 195 249 280 340
#     4  12  21  38  62  83 118 161 193 237 296 337
#     4   9  16  32  56  86 113 151 193 230 294 347
#     4   9  17  29  59  88 109 153 192 230 296 347
#     4  10  21  38  61  86 117 156 196 238 290 347
#     4  10  19  37  56  84 121 150 191 245 283 341
#
# _framework density 23.040500999999999
#
# number of rings (size 3 to 8) (size 9 to 14) (size 15 to 20)
#    0.000    2.000    5.714    0.429    0.000    2.857 
#    2.571    0.000    0.000   14.571    0.000    0.000 
#    0.000    0.000    0.000    0.000    0.000    0.000 
#
# Total GULP energy -78036.613209 kJ/mol
# GULP energy per Si atom -5574.043801 kJ/mol
# Density = 2.298806 g / cm^3
# Si number density = 23.040501 Si / 1000 Ang^3
#
#
#
# Elastic Constant Matrix: (Units=GPa)
#
#
# Indices 1 2 3 4 5 6 
#
# 1 51.0167 45.7546 38.6249 -2.4440 5.4045 -27.7937
# 2 45.7546 98.7015 41.6898 -30.3554 2.5441 -26.7996
# 3 38.6249 41.6898 123.3338 -21.3644 -0.4471 -17.0346
# 4 -2.4440 -30.3554 -21.3644 53.9592 -4.2191 10.7960
# 5 5.4045 2.5441 -0.4471 -4.2191 37.3675 -1.4265
# 6 -27.7937 -26.7996 -17.0346 10.7960 -1.4265 35.4837
#
#
#
# Elastic Compliance Matrix: (Units=1/GPa)
#
#
# Indices 1 2 3 4 5 6 
#
# 1 0.073843 -0.025192 -0.013506 -0.024890 -0.010429 0.039483
# 2 -0.025192 0.024113 0.001539 0.014302 0.003444 -0.004995
# 3 -0.013506 0.001539 0.012181 0.006354 0.002506 -0.005402
# 4 -0.024890 0.014302 0.006354 0.031406 0.005677 -0.014971
# 5 -0.010429 0.003444 0.002506 0.005677 0.028517 -0.004946
# 6 0.039483 -0.004995 -0.005402 -0.014971 -0.004946 0.057099
#
#
# Mechanical properties :
#
#
# Convention : Reuss Voigt Hill
#
# Bulk Modulus (GPa) = 27.91833 58.35448 43.13640
# Shear Modulus (GPa) = 15.95314 35.16093 25.55704
#
# Velocity S-wave (km/s) = 2.63420 3.91071 3.33411
# Velocity P-wave (km/s) = 4.62551 6.76560 5.79520
#
# Compressibility (1/GPa) = 0.03581877
#
# Stress axis : x y z
#
# Youngs Moduli (GPa) = 13.54226 41.47091 82.09218
#
# Poissons Ratio (x) = 1.04472 1.10876
# Poissons Ratio (y) = 0.34115 -0.12631
# Poissons Ratio (z) = 0.18291 -0.06381
#
# Static dielectric constant tensor:
#      x y z
#    x 1.965620 -0.022040 -0.031010 
#    y -0.022040 1.921020 0.012970 
#    z -0.031010 0.012970 1.846020 
# 
# From -- ./inp_files/577376.got.cif
#   From: 2010.05.17/outbox.cif.g08.bks.cpg/sg2_289_cif.got.tgz:577376.got - 2010.06.03 11:33:40.
