data_PCOD9087668
_publ_section_title
;
Structure prediction by ZEFSAII (Michael W. Deem and Ramdas Pophale) SiO2 
 PCOD9087668
Probable space group: P -1
;
_chemical_formula_sum "Si O2"
_cell_formula_units_Z 14
_cell_length_a 17.545402
_cell_length_b 21.883424
_cell_length_c 9.710264
_cell_angle_alpha 43.440032
_cell_angle_beta 28.068542
_cell_angle_gamma 24.941750
_cell_volume 686.399142
_symmetry_space_group_name_H-M "P -1"
_symmetry_group_IT_number 2
_symmetry_cell_setting 'triclinic'
loop_
_space_group_symop_operation_xyz
x,y,z
-x,-y,-z
loop_
_atom_site_type_symbol
_atom_site_label
_atom_site_fract_x
_atom_site_fract_y
_atom_site_fract_z
Si Si1 0.380101 0.025784 0.365541
Si Si2 0.057381 0.576534 0.749962
Si Si3 0.412128 0.918331 0.217554
Si Si4 0.531571 0.879675 0.614437
Si Si5 0.051574 0.651672 0.337478
Si Si6 0.562392 0.429565 0.365945
Si Si7 0.933441 0.085877 0.330376
O O1 0.099306 0.190824 0.618335
O O2 0.286208 0.025468 0.372931
O O3 0.553000 0.874933 0.423742
O O4 0.590751 0.014274 0.019526
O O5 0.135602 0.559061 0.491970
O O6 0.285374 0.515981 0.588641
O O7 0.000000 0.500000 0.000000
O O8 0.749103 0.759142 0.963153
O O9 0.272790 0.886227 0.471583
O O10 0.792402 0.726157 0.539509
O O11 0.500000 0.000000 0.500000
O O12 0.237182 0.965384 0.974846
O O13 0.290867 0.569600 0.979824
O O14 0.500000 0.500000 0.500000
O O15 0.778128 0.249298 0.335685
O O16 0.000000 0.000000 0.500000
#
# Coordination Sequence:
#
# PCOD9087668 Si02
#       7
#     2   2   2   2   2   2   2
#     4   9  19  38  66  95 124 166 213 268 338 393
#     4  11  23  43  67  91 134 175 218 272 331 392
#     4  10  22  37  66  98 129 166 218 268 333 394
#     4  10  19  36  65  91 126 165 210 265 336 380
#     4  10  22  43  67  90 130 176 219 268 333 396
#     4  12  27  43  68  96 132 185 224 263 332 409
#     4  12  23  40  65  97 131 164 220 279 324 382
#
# _framework density 20.396297000000001
#
# number of rings (size 3 to 8) (size 9 to 14) (size 15 to 20)
#    0.000    1.429    4.286    3.000    2.000    2.857 
#    0.000    2.143    0.000    0.000    0.000    0.000 
#    0.000    0.000    0.000    0.000    0.000    0.000 
#
# Total GULP energy -78078.438487 kJ/mol
# GULP energy per Si atom -5577.031321 kJ/mol
# Density = 2.034987 g / cm^3
# Si number density = 20.396297 Si / 1000 Ang^3
#
#
#
# Elastic Constant Matrix: (Units=GPa)
#
#
# Indices 1 2 3 4 5 6 
#
# 1 113.2239 41.8619 79.5428 -4.8605 10.2228 -15.0626
# 2 41.8619 72.0714 38.1350 -13.5668 0.7672 -21.3827
# 3 79.5428 38.1350 147.0876 -2.5311 -1.2452 -10.7661
# 4 -4.8605 -13.5668 -2.5311 31.4753 -11.1940 1.0880
# 5 10.2228 0.7672 -1.2452 -11.1940 36.1032 0.4569
# 6 -15.0626 -21.3827 -10.7661 1.0880 0.4569 35.4377
#
#
#
# Elastic Compliance Matrix: (Units=1/GPa)
#
#
# Indices 1 2 3 4 5 6 
#
# 1 0.016957 -0.005761 -0.007656 -0.002584 -0.005764 0.001559
# 2 -0.005761 0.023242 -0.001925 0.010047 0.004052 0.010630
# 3 -0.007656 -0.001925 0.011385 -0.000149 0.002568 -0.000985
# 4 -0.002584 0.010047 -0.000149 0.040164 0.012922 0.003519
# 5 -0.005764 0.004052 0.002568 0.012922 0.033340 -0.000052
# 6 0.001559 0.010630 -0.000985 0.003519 -0.000052 0.034888
#
#
# Mechanical properties :
#
#
# Convention : Reuss Voigt Hill
#
# Bulk Modulus (GPa) = 47.84643 72.38469 60.11556
# Shear Modulus (GPa) = 25.30008 32.12611 28.71310
#
# Velocity S-wave (km/s) = 3.52579 3.97305 3.75608
# Velocity P-wave (km/s) = 6.33121 7.52416 6.95332
#
# Compressibility (1/GPa) = 0.02090020
#
# Stress axis : x y z
#
# Youngs Moduli (GPa) = 58.97118 43.02594 87.83512
#
# Poissons Ratio (x) = 0.24788 0.67245
# Poissons Ratio (y) = 0.33974 0.16909
# Poissons Ratio (z) = 0.45147 0.08283
#
# Static dielectric constant tensor:
#      x y z
#    x 1.824160 -0.076600 0.022600 
#    y -0.076600 1.811630 -0.023650 
#    z 0.022600 -0.023650 1.759800 
# 
# From -- ./inp_files/319230.got.cif
#   From: 2010.05.17/outbox.cif.g08.bks.cpg/sg2_160_cif.got.tgz:319230.got - 2010.06.03 11:33:40.
