data_PCOD9087295
_publ_section_title
;
Structure prediction by ZEFSAII (Michael W. Deem and Ramdas Pophale) SiO2 
 PCOD9087295
Probable space group: P -1
;
_chemical_formula_sum "Si O2"
_cell_formula_units_Z 16
_cell_length_a 17.240635
_cell_length_b 13.359543
_cell_length_c 15.903596
_cell_angle_alpha 53.716723
_cell_angle_beta 38.425340
_cell_angle_gamma 25.341617
_cell_volume 876.417813
_symmetry_space_group_name_H-M "P -1"
_symmetry_group_IT_number 2
_symmetry_cell_setting 'triclinic'
loop_
_space_group_symop_operation_xyz
x,y,z
-x,-y,-z
loop_
_atom_site_type_symbol
_atom_site_label
_atom_site_fract_x
_atom_site_fract_y
_atom_site_fract_z
Si Si1 0.063218 0.841442 0.954890
Si Si2 0.768733 0.579573 0.732151
Si Si3 0.667340 0.237398 0.954729
Si Si4 0.794696 0.849028 0.556353
Si Si5 0.973165 0.819040 0.587390
Si Si6 0.187339 0.160918 0.731934
Si Si7 0.392693 0.250956 0.556556
Si Si8 0.325052 0.737881 0.262495
O O1 0.371353 0.551608 0.832661
O O2 0.933124 0.997232 0.901042
O O3 0.924882 0.836972 0.107109
O O4 0.000000 0.000000 0.000000
O O5 0.726243 0.763390 0.667307
O O6 0.926558 0.394463 0.608020
O O7 0.964008 0.385801 0.740897
O O8 0.508313 0.729831 0.893190
O O9 0.707801 0.215599 0.832255
O O10 0.500000 0.500000 0.000000
O O11 0.823239 0.888925 0.601575
O O12 0.582363 0.095994 0.552455
O O13 0.159681 0.552159 0.602221
O O14 0.157459 0.766802 0.420752
O O15 0.780800 0.050557 0.702361
O O16 0.283174 0.206363 0.667121
O O17 0.428765 0.892108 0.607842
#
# Coordination Sequence:
#
# PCOD9087295 Si02
#       8
#     2   2   2   2   2   2   2   2
#     4  12  23  39  63  92 124 156 198 256 307 358
#     4  10  19  36  62  95 125 154 203 253 303 358
#     4  12  23  39  63  92 124 156 198 256 307 358
#     4  10  21  36  62  93 122 161 201 250 303 357
#     4  11  24  43  63  83 127 165 204 251 300 375
#     4  10  19  36  62  95 125 154 203 253 303 358
#     4  10  21  36  62  93 122 161 201 250 303 357
#     4  11  26  43  61  91 119 166 208 244 311 368
#
# _framework density 18.256131
#
# number of rings (size 3 to 8) (size 9 to 14) (size 15 to 20)
#    0.000    1.250    3.750    2.250    3.500    4.000 
#    0.000    5.000    0.000    3.000    0.000    0.000 
#    0.000    0.000    0.000    0.000    0.000    0.000 
#
# Total GULP energy -89463.379592 kJ/mol
# GULP energy per Si atom -5591.461224 kJ/mol
# Density = 1.821458 g / cm^3
# Si number density = 18.256131 Si / 1000 Ang^3
#
#
#
# Elastic Constant Matrix: (Units=GPa)
#
#
# Indices 1 2 3 4 5 6 
#
# 1 133.0902 77.4352 41.5362 20.8683 21.7209 -7.1558
# 2 77.4352 131.5842 41.1494 22.8965 20.0788 -8.1973
# 3 41.5362 41.1494 80.8293 10.4065 10.0977 -0.3614
# 4 20.8683 22.8965 10.4065 26.4018 -1.6094 0.4309
# 5 21.7209 20.0788 10.0977 -1.6094 24.8291 1.1218
# 6 -7.1558 -8.1973 -0.3614 0.4309 1.1218 33.6677
#
#
#
# Elastic Compliance Matrix: (Units=1/GPa)
#
#
# Indices 1 2 3 4 5 6 
#
# 1 0.013326 -0.004754 -0.002782 -0.005781 -0.007145 0.001957
# 2 -0.004754 0.013698 -0.002758 -0.007467 -0.006398 0.002604
# 3 -0.002782 -0.002758 0.015634 -0.001662 -0.001756 -0.001015
# 4 -0.005781 -0.007467 -0.001662 0.050574 0.015240 -0.004220
# 5 -0.007145 -0.006398 -0.001756 0.015240 0.053631 -0.005077
# 6 0.001957 0.002604 -0.001015 -0.004220 -0.005077 0.030964
#
#
# Mechanical properties :
#
#
# Convention : Reuss Voigt Hill
#
# Bulk Modulus (GPa) = 45.31126 73.97169 59.64147
# Shear Modulus (GPa) = 24.29884 29.33860 26.81872
#
# Velocity S-wave (km/s) = 3.65224 4.01316 3.83694
# Velocity P-wave (km/s) = 6.53137 7.87913 7.23669
#
# Compressibility (1/GPa) = 0.02206957
#
# Stress axis : x y z
#
# Youngs Moduli (GPa) = 75.04389 73.00558 63.96204
#
# Poissons Ratio (x) = 0.34705 0.17794
# Poissons Ratio (y) = 0.35674 0.17642
# Poissons Ratio (z) = 0.20877 0.20136
#
# Static dielectric constant tensor:
#      x y z
#    x 1.615380 -0.015940 -0.012380 
#    y -0.015940 1.619420 -0.010040 
#    z -0.012380 -0.010040 1.610920 
# 
# From -- ./inp_files/427640.got.cif
#   From: 2010.05.17/outbox.cif.g08.bks.cpg/sg2_214_cif.got.tgz:427640.got - 2010.06.03 11:33:40.
