data_PCOD9087085
_publ_section_title
;
Structure prediction by ZEFSAII (Michael W. Deem and Ramdas Pophale) SiO2 
 PCOD9087085
Probable space group: P -1
;
_chemical_formula_sum "Si O2"
_cell_formula_units_Z 14
_cell_length_a 7.882958
_cell_length_b 15.689282
_cell_length_c 7.687088
_cell_angle_alpha 83.365737
_cell_angle_beta 106.706635
_cell_angle_gamma 141.113592
_cell_volume 562.312641
_symmetry_space_group_name_H-M "P -1"
_symmetry_group_IT_number 2
_symmetry_cell_setting 'triclinic'
loop_
_space_group_symop_operation_xyz
x,y,z
-x,-y,-z
loop_
_atom_site_type_symbol
_atom_site_label
_atom_site_fract_x
_atom_site_fract_y
_atom_site_fract_z
Si Si1 0.237288 0.835788 0.668502
Si Si2 0.308961 0.312476 0.857185
Si Si3 0.732851 0.544975 0.437639
Si Si4 0.815659 0.181892 0.943718
Si Si5 0.351572 0.049318 0.540115
Si Si6 0.458162 0.697968 0.413691
Si Si7 0.911602 0.540712 0.096728
O O1 0.292263 0.870067 0.879604
O O2 0.511643 0.920785 0.612411
O O3 0.025851 0.678246 0.593782
O O4 0.129092 0.887921 0.552345
O O5 0.264195 0.391265 0.743914
O O6 0.415185 0.294191 0.730543
O O7 0.573699 0.406640 0.044282
O O8 0.021243 0.189264 0.912885
O O9 0.500000 0.500000 0.500000
O O10 0.618881 0.404515 0.445101
O O11 0.578139 0.117982 0.747894
O O12 0.016880 0.341185 0.994590
O O13 0.330157 0.143963 0.511199
O O14 0.138196 0.614859 0.301609
O O15 0.000000 0.500000 0.000000
#
# Coordination Sequence:
#
# PCOD9087085 Si02
#       7
#     2   2   2   2   2   2   2
#     4  11  22  40  65  91 124 169 220 246 324 380
#     4  10  19  36  61  92 132 164 203 263 324 372
#     4  10  20  38  64  94 125 163 210 259 314 378
#     4  11  20  37  63  89 122 170 209 260 314 382
#     4  10  23  42  64  88 126 170 216 263 301 384
#     4   9  20  39  64  92 127 167 212 262 312 368
#     4   9  18  34  58  92 128 163 207 260 310 374
#
# _framework density 24.897181
#
# number of rings (size 3 to 8) (size 9 to 14) (size 15 to 20)
#    0.000    2.000    1.429    3.429    0.000    0.571 
#    2.571    3.571    9.429    0.000    0.000    0.000 
#    0.000    0.000    0.000    0.000    0.000    0.000 
#
# Total GULP energy -78077.913329 kJ/mol
# GULP energy per Si atom -5576.993809 kJ/mol
# Density = 2.484051 g / cm^3
# Si number density = 24.897181 Si / 1000 Ang^3
#
#
#
# Elastic Constant Matrix: (Units=GPa)
#
#
# Indices 1 2 3 4 5 6 
#
# 1 67.7061 8.5008 52.8404 1.2313 -12.0839 -25.4247
# 2 8.5008 98.4520 23.7019 1.2579 -16.0728 -39.3797
# 3 52.8404 23.7019 133.0731 -8.6598 -36.5662 6.5558
# 4 1.2313 1.2579 -8.6598 35.4948 6.3322 8.9428
# 5 -12.0839 -16.0728 -36.5662 6.3322 46.5971 2.5746
# 6 -25.4247 -39.3797 6.5558 8.9428 2.5746 38.8550
#
#
#
# Elastic Compliance Matrix: (Units=1/GPa)
#
#
# Indices 1 2 3 4 5 6 
#
# 1 -0.266960 -0.199393 0.174746 0.171161 0.000487 -0.445680
# 2 -0.199393 -0.127008 0.125841 0.119014 0.004084 -0.308091
# 3 0.174746 0.125841 -0.103537 -0.108471 0.006529 0.283887
# 4 0.171161 0.119014 -0.108471 -0.075342 -0.004282 0.268545
# 5 0.000487 0.004084 0.006529 -0.004282 0.028566 0.002449
# 6 -0.445680 -0.308091 0.283887 0.268545 0.002449 -0.688012
#
#
# Mechanical properties :
#
#
# Convention : Reuss Voigt Hill
#
# Bulk Modulus (GPa) = -3.38850 52.14637 24.37894
# Shear Modulus (GPa) = -3.26146 38.46861 17.60357
#
# Velocity S-wave (km/s) = -1.14578 3.93504 2.66193
# Velocity P-wave (km/s) = 1.76476 6.45261 4.38873
#
# Compressibility (1/GPa) = -0.29511620
#
# Stress axis : x y z
#
# Youngs Moduli (GPa) = -3.74589 -7.87349 -9.65837
#
# Poissons Ratio (x) = -1.56992 1.68776
# Poissons Ratio (y) = -0.74690 1.21542
# Poissons Ratio (z) = 0.65458 0.99081
#
# Static dielectric constant tensor:
#      x y z
#    x 2.039900 -0.019620 0.000810 
#    y -0.019620 2.089960 0.024750 
#    z 0.000810 0.024750 1.923120 
# 
# From -- ./inp_files/206496.got.cif
#   From: 2010.05.17/outbox.cif.g08.bks.cpg/sg2_104_cif.got.tgz:206496.got - 2010.06.03 11:33:40.
