data_PCOD9087918
_publ_section_title
;
Structure prediction by ZEFSAII (Michael W. Deem and Ramdas Pophale) SiO2 
 PCOD9087918
Probable space group: P -1
;
_chemical_formula_sum "Si O2"
_cell_formula_units_Z 14
_cell_length_a 10.295931
_cell_length_b 14.191480
_cell_length_c 12.188016
_cell_angle_alpha 138.719146
_cell_angle_beta 53.027428
_cell_angle_gamma 146.391930
_cell_volume 648.867723
_symmetry_space_group_name_H-M "P -1"
_symmetry_group_IT_number 2
_symmetry_cell_setting 'triclinic'
loop_
_space_group_symop_operation_xyz
x,y,z
-x,-y,-z
loop_
_atom_site_type_symbol
_atom_site_label
_atom_site_fract_x
_atom_site_fract_y
_atom_site_fract_z
Si Si1 0.527702 0.128241 0.932977
Si Si2 0.630995 0.257427 0.211507
Si Si3 0.503339 0.830820 0.368094
Si Si4 0.855332 0.489761 0.920421
Si Si5 0.972617 0.146312 0.122149
Si Si6 0.773021 0.450017 0.536961
Si Si7 0.248935 0.292768 0.896913
O O1 0.751645 0.318661 0.916087
O O2 0.512483 0.961430 0.847875
O O3 0.300040 0.987548 0.846883
O O4 0.494389 0.211271 0.128848
O O5 0.704795 0.402799 0.403017
O O6 0.877981 0.364853 0.125116
O O7 0.301948 0.648626 0.227620
O O8 0.429178 0.743201 0.452700
O O9 0.725129 0.862299 0.264822
O O10 0.500000 0.000000 0.500000
O O11 0.802246 0.621724 0.096353
O O12 0.147869 0.345379 0.283171
O O13 0.054236 0.214987 0.015847
O O14 0.000000 0.000000 0.000000
O O15 0.000000 0.500000 0.500000
O O16 0.500000 0.500000 0.000000
#
# Coordination Sequence:
#
# PCOD9087918 Si02
#       7
#     2   2   2   2   2   2   2
#     4  11  23  39  65  97 124 174 215 253 320 383
#     4  11  23  41  62  96 135 162 212 267 314 381
#     4  11  22  34  62  95 123 160 212 264 317 371
#     4  11  20  39  62  90 125 167 213 256 313 375
#     4  12  23  39  66  93 125 167 216 262 313 377
#     4  12  21  40  60  93 130 160 205 273 312 364
#     4  10  19  37  56  92 124 156 207 266 304 370
#
# _framework density 21.576046999999999
#
# number of rings (size 3 to 8) (size 9 to 14) (size 15 to 20)
#    0.000    0.857    7.143    3.000    2.000    0.000 
#    0.000    0.714    0.000    0.857    0.000    0.000 
#    0.000    0.000    0.000    0.000    0.000    0.000 
#
# Total GULP energy -77998.136150 kJ/mol
# GULP energy per Si atom -5571.295439 kJ/mol
# Density = 2.152694 g / cm^3
# Si number density = 21.576047 Si / 1000 Ang^3
#
#
#
# Elastic Constant Matrix: (Units=GPa)
#
#
# Indices 1 2 3 4 5 6 
#
# 1 31.4856 26.7747 32.8739 8.3272 -0.6208 -11.8228
# 2 26.7747 127.3541 36.5748 4.0239 -6.7816 -10.8275
# 3 32.8739 36.5748 124.5319 9.5845 -4.7593 -11.4182
# 4 8.3272 4.0239 9.5845 31.1910 -13.5140 -0.9582
# 5 -0.6208 -6.7816 -4.7593 -13.5140 38.0908 4.7407
# 6 -11.8228 -10.8275 -11.4182 -0.9582 4.7407 31.7122
#
#
#
# Elastic Compliance Matrix: (Units=1/GPa)
#
#
# Indices 1 2 3 4 5 6 
#
# 1 0.060462 -0.008081 -0.011248 -0.015166 -0.009314 0.016666
# 2 -0.008081 0.009830 -0.000853 0.002141 0.002302 -0.000243
# 3 -0.011248 -0.000853 0.011226 0.000166 0.001203 -0.000617
# 4 -0.015166 0.002141 0.000166 0.042525 0.015985 -0.005968
# 5 -0.009314 0.002302 0.001203 0.015985 0.033170 -0.006729
# 6 0.016666 -0.000243 -0.000617 -0.005968 -0.006729 0.038267
#
#
# Mechanical properties :
#
#
# Convention : Reuss Voigt Hill
#
# Bulk Modulus (GPa) = 24.29843 52.86871 38.58357
# Shear Modulus (GPa) = 20.03503 32.67536 26.35519
#
# Velocity S-wave (km/s) = 3.05056 3.89579 3.49879
# Velocity P-wave (km/s) = 4.86766 6.69274 5.85179
#
# Compressibility (1/GPa) = 0.04115493
#
# Stress axis : x y z
#
# Youngs Moduli (GPa) = 16.53932 101.72635 89.07529
#
# Poissons Ratio (x) = 0.82205 1.00191
# Poissons Ratio (y) = 0.13365 0.07598
# Poissons Ratio (z) = 0.18603 0.08678
#
# Static dielectric constant tensor:
#      x y z
#    x -6.792840 7.399870 -7.264110 
#    y 7.399870 -4.502460 6.238810 
#    z -7.264110 6.238810 -4.246120 
# 
# From -- ./inp_files/298954.got.cif
#   From: 2010.05.17/outbox.cif.g08.bks.cpg/sg2_150_cif.got.tgz:298954.got - 2010.06.03 11:33:40.
