data_PCOD9087089
_publ_section_title
;
Structure prediction by ZEFSAII (Michael W. Deem and Ramdas Pophale) SiO2 
 PCOD9087089
Probable space group: P -1
;
_chemical_formula_sum "Si O2"
_cell_formula_units_Z 16
_cell_length_a 9.165736
_cell_length_b 9.189272
_cell_length_c 15.652253
_cell_angle_alpha 135.683582
_cell_angle_beta 75.861896
_cell_angle_gamma 119.185646
_cell_volume 792.163865
_symmetry_space_group_name_H-M "P -1"
_symmetry_group_IT_number 2
_symmetry_cell_setting 'triclinic'
loop_
_space_group_symop_operation_xyz
x,y,z
-x,-y,-z
loop_
_atom_site_type_symbol
_atom_site_label
_atom_site_fract_x
_atom_site_fract_y
_atom_site_fract_z
Si Si1 0.188617 0.779195 0.243999
Si Si2 0.888207 0.815706 0.202884
Si Si3 0.526534 0.943839 0.876262
Si Si4 0.617982 0.403664 0.983147
Si Si5 0.480041 0.726270 0.622519
Si Si6 0.878949 0.036564 0.929234
Si Si7 0.970548 0.649825 0.801702
Si Si8 0.861274 0.275933 0.376160
O O1 0.027013 0.798759 0.236979
O O2 0.132657 0.622726 0.272246
O O3 0.349177 0.037824 0.329022
O O4 0.248768 0.626788 0.110575
O O5 0.720075 0.567614 0.116552
O O6 0.854246 0.037851 0.315966
O O7 0.962554 0.860266 0.114210
O O8 0.450401 0.728315 0.730887
O O9 0.723472 0.004637 0.879427
O O10 0.494575 0.138346 0.914107
O O11 0.500000 0.000000 0.000000
O O12 0.500000 0.500000 0.000000
O O13 0.500000 0.500000 0.500000
O O14 0.320538 0.729900 0.600564
O O15 0.858181 0.788339 0.863302
O O16 0.909487 0.211727 0.077107
O O17 0.074363 0.692428 0.717835
O O18 0.000000 0.500000 0.500000
#
# Coordination Sequence:
#
# PCOD9087089 Si02
#       8
#     2   2   2   2   2   2   2   2
#     4  11  21  39  64  96 125 165 211 268 318 378
#     4  11  19  38  63  89 122 163 204 253 319 379
#     4  11  23  38  61  93 130 162 209 258 323 377
#     4  11  22  34  57  92 131 162 204 263 318 376
#     4  11  24  44  67  93 127 172 213 264 322 386
#     4  10  19  36  61  93 123 163 197 254 321 378
#     4  10  22  36  65  93 126 159 213 260 312 378
#     4  11  25  44  64  86 125 173 217 256 317 385
#
# _framework density 20.197839999999999
#
# number of rings (size 3 to 8) (size 9 to 14) (size 15 to 20)
#    0.000    1.250    3.750    4.125    3.500    0.000 
#    0.000    4.375    0.000    0.000    0.000    0.000 
#    0.000    0.000    0.000    0.000    0.000    0.000 
#
# Total GULP energy -89224.421900 kJ/mol
# GULP energy per Si atom -5576.526369 kJ/mol
# Density = 2.015187 g / cm^3
# Si number density = 20.197840 Si / 1000 Ang^3
#
#
#
# Elastic Constant Matrix: (Units=GPa)
#
#
# Indices 1 2 3 4 5 6 
#
# 1 129.8996 14.3782 50.4425 22.9721 -2.5154 -18.9074
# 2 14.3782 70.8962 22.7917 15.6610 -11.4963 -14.1715
# 3 50.4425 22.7917 115.2938 26.6428 -5.6345 -5.8489
# 4 22.9721 15.6610 26.6428 34.3461 -3.2028 0.5298
# 5 -2.5154 -11.4963 -5.6345 -3.2028 31.5459 8.3727
# 6 -18.9074 -14.1715 -5.8489 0.5298 8.3727 26.4282
#
#
#
# Elastic Compliance Matrix: (Units=1/GPa)
#
#
# Indices 1 2 3 4 5 6 
#
# 1 0.011154 0.001568 -0.003508 -0.005785 -0.002095 0.008824
# 2 0.001568 0.018627 -0.001879 -0.007942 0.003156 0.009853
# 3 -0.003508 -0.001879 0.011949 -0.005973 0.000833 -0.001017
# 4 -0.005785 -0.007942 -0.005973 0.041682 0.002851 -0.011458
# 5 -0.002095 0.003156 0.000833 0.002851 0.036069 -0.011106
# 6 0.008824 0.009853 -0.001017 -0.011458 -0.011106 0.052958
#
#
# Mechanical properties :
#
#
# Convention : Reuss Voigt Hill
#
# Bulk Modulus (GPa) = 29.33209 54.59050 41.96130
# Shear Modulus (GPa) = 26.11787 33.69587 29.90687
#
# Velocity S-wave (km/s) = 3.59987 4.08890 3.85216
# Velocity P-wave (km/s) = 5.64205 7.02700 6.37226
#
# Compressibility (1/GPa) = 0.03409235
#
# Stress axis : x y z
#
# Youngs Moduli (GPa) = 89.65671 53.68553 83.68976
#
# Poissons Ratio (x) = -0.08416 0.29355
# Poissons Ratio (y) = -0.14055 0.15722
# Poissons Ratio (z) = 0.31448 0.10085
#
# Static dielectric constant tensor:
#      x y z
#    x -0.121270 -0.355100 -1.407840 
#    y -0.355100 1.700010 -0.325460 
#    z -1.407840 -0.325460 0.675620 
# 
# From -- ./inp_files/243049.got.cif
#   From: 2010.05.17/outbox.cif.g08.bks.cpg/sg2_122_cif.got.tgz:243049.got - 2010.06.03 11:33:40.
