data_PCOD9087589
_publ_section_title
;
Structure prediction by ZEFSAII (Michael W. Deem and Ramdas Pophale) SiO2 
 PCOD9087589
Probable space group: P -1
;
_chemical_formula_sum "Si O2"
_cell_formula_units_Z 16
_cell_length_a 11.206666
_cell_length_b 14.701926
_cell_length_c 14.362712
_cell_angle_alpha 29.265084
_cell_angle_beta 117.827623
_cell_angle_gamma 136.598811
_cell_volume 689.627294
_symmetry_space_group_name_H-M "P -1"
_symmetry_group_IT_number 2
_symmetry_cell_setting 'triclinic'
loop_
_space_group_symop_operation_xyz
x,y,z
-x,-y,-z
loop_
_atom_site_type_symbol
_atom_site_label
_atom_site_fract_x
_atom_site_fract_y
_atom_site_fract_z
Si Si1 0.126354 0.979011 0.787539
Si Si2 0.275922 0.264525 0.088451
Si Si3 0.771997 0.557753 0.268675
Si Si4 0.988349 0.546287 0.846404
Si Si5 0.782206 0.959514 0.022985
Si Si6 0.575256 0.031776 0.394867
Si Si7 0.524527 0.760819 0.951289
Si Si8 0.207118 0.269610 0.381461
O O1 0.229142 0.086749 0.829847
O O2 0.250424 0.184486 0.561870
O O3 0.927387 0.909752 0.774399
O O4 0.065739 0.702435 0.999974
O O5 0.289131 0.097891 0.175028
O O6 0.500000 0.500000 0.000000
O O7 0.258725 0.411269 0.876787
O O8 0.768494 0.738099 0.170349
O O9 0.590051 0.229312 0.500599
O O10 0.002553 0.730873 0.199690
O O11 0.208650 0.842774 0.631626
O O12 0.830515 0.550820 0.768922
O O13 0.000000 0.500000 0.000000
O O14 0.617890 0.910989 0.950516
O O15 0.614684 0.258657 0.147600
O O16 0.500000 0.000000 0.500000
O O17 0.383852 0.445589 0.212825
O O18 0.000000 0.000000 0.500000
#
# Coordination Sequence:
#
# PCOD9087589 Si02
#       8
#     2   2   2   2   2   2   2   2
#     4  11  24  45  68  94 136 179 221 278 327 392
#     4  10  19  36  64  95 122 160 220 270 322 388
#     4   9  20  37  63  90 133 172 207 277 338 379
#     4  12  25  45  66 100 142 167 218 281 340 404
#     4   9  21  44  62  91 130 176 229 264 317 407
#     4  12  24  40  66 105 132 168 219 285 345 384
#     4  11  24  41  65  98 132 176 220 265 334 404
#     4  12  25  43  69  99 134 180 217 269 351 395
#
# _framework density 23.200938000000001
#
# number of rings (size 3 to 8) (size 9 to 14) (size 15 to 20)
#    0.000    1.250    2.500    4.500    7.000    1.000 
#    2.250    0.625    0.000    0.000    0.000    0.000 
#    0.000    0.000    0.000    0.000    0.000    0.000 
#
# Total GULP energy -89216.661998 kJ/mol
# GULP energy per Si atom -5576.041375 kJ/mol
# Density = 2.314813 g / cm^3
# Si number density = 23.200938 Si / 1000 Ang^3
#
#
#
# Elastic Constant Matrix: (Units=GPa)
#
#
# Indices 1 2 3 4 5 6 
#
# 1 82.2551 19.5975 19.7802 -6.9782 -6.3212 0.5741
# 2 19.5975 145.0732 27.3085 5.5551 -2.3491 -10.8884
# 3 19.7802 27.3085 71.4816 -4.2457 -6.6531 -13.0630
# 4 -6.9782 5.5551 -4.2457 36.4706 -1.3978 -1.4093
# 5 -6.3212 -2.3491 -6.6531 -1.3978 29.9825 1.0461
# 6 0.5741 -10.8884 -13.0630 -1.4093 1.0461 40.6199
#
#
#
# Elastic Compliance Matrix: (Units=1/GPa)
#
#
# Indices 1 2 3 4 5 6 
#
# 1 0.013651 -0.001425 -0.003163 0.002486 0.002235 -0.001563
# 2 -0.001425 0.007700 -0.002455 -0.001697 -0.000364 0.001245
# 3 -0.003163 -0.002455 0.017082 0.002055 0.002857 0.004878
# 4 0.002486 -0.001697 0.002055 0.028517 0.002138 0.001105
# 5 0.002235 -0.000364 0.002857 0.002138 0.034530 -0.000026
# 6 -0.001563 0.001245 0.004878 0.001105 -0.000026 0.026582
#
#
# Mechanical properties :
#
#
# Convention : Reuss Voigt Hill
#
# Bulk Modulus (GPa) = 41.07130 48.02026 44.54578
# Shear Modulus (GPa) = 33.27479 36.88953 35.08216
#
# Velocity S-wave (km/s) = 3.79119 3.99181 3.89279
# Velocity P-wave (km/s) = 6.07495 6.47986 6.28067
#
# Compressibility (1/GPa) = 0.02434790
#
# Stress axis : x y z
#
# Youngs Moduli (GPa) = 73.25460 129.86733 58.54114
#
# Poissons Ratio (x) = 0.18506 0.18517
# Poissons Ratio (y) = 0.10439 0.14369
# Poissons Ratio (z) = 0.23171 0.31876
#
# Static dielectric constant tensor:
#      x y z
#    x 2.042030 0.017800 -0.008870 
#    y 0.017800 1.875060 -0.052530 
#    z -0.008870 -0.052530 2.021620 
# 
# From -- ./inp_files/522172.got.cif
#   From: 2010.05.17/outbox.cif.g08.bks.cpg/sg2_262_cif.got.tgz:522172.got - 2010.06.03 11:33:40.
