data_PCOD9087140
_publ_section_title
;
Structure prediction by ZEFSAII (Michael W. Deem and Ramdas Pophale) SiO2 
 PCOD9087140
Probable space group: P -1
;
_chemical_formula_sum "Si O2"
_cell_formula_units_Z 14
_cell_length_a 13.198699
_cell_length_b 18.469552
_cell_length_c 8.832203
_cell_angle_alpha 40.060792
_cell_angle_beta 32.740240
_cell_angle_gamma 30.853666
_cell_volume 589.870417
_symmetry_space_group_name_H-M "P -1"
_symmetry_group_IT_number 2
_symmetry_cell_setting 'triclinic'
loop_
_space_group_symop_operation_xyz
x,y,z
-x,-y,-z
loop_
_atom_site_type_symbol
_atom_site_label
_atom_site_fract_x
_atom_site_fract_y
_atom_site_fract_z
Si Si1 0.870048 0.283518 0.879297
Si Si2 0.106317 0.134835 0.239905
Si Si3 0.733032 0.174399 0.456690
Si Si4 0.388335 0.431573 0.063505
Si Si5 0.916148 0.717500 0.678136
Si Si6 0.747943 0.681542 0.342927
Si Si7 0.772844 0.540043 0.088601
O O1 0.787701 0.408237 0.903808
O O2 0.066241 0.248006 0.570420
O O3 0.904455 0.156876 0.133273
O O4 0.643186 0.354800 0.940605
O O5 0.831532 0.213243 0.409427
O O6 0.133349 0.164851 0.330704
O O7 0.229275 0.969896 0.325250
O O8 0.222856 0.194941 0.904841
O O9 0.474355 0.281999 0.534830
O O10 0.292071 0.351245 0.386745
O O11 0.407514 0.429097 0.863199
O O12 0.731394 0.681905 0.969504
O O13 0.149668 0.570094 0.696742
O O14 0.985936 0.546240 0.181493
#
# Coordination Sequence:
#
# PCOD9087140 Si02
#       7
#     2   2   2   2   2   2   2
#     4  10  20  35  55  85 113 144 183 233 269 335
#     4  10  22  40  58  82 109 151 187 232 272 327
#     4  10  22  39  61  80 108 149 197 223 272 324
#     4  10  20  34  58  84 112 146 185 219 282 334
#     4  10  21  35  52  83 116 142 179 227 286 321
#     4  10  19  36  62  84 107 142 190 234 263 329
#     4  10  20  35  53  85 114 145 176 224 284 338
#
# _framework density 23.734026
#
# number of rings (size 3 to 8) (size 9 to 14) (size 15 to 20)
#    0.000    2.000    1.429    2.571    2.000    1.143 
#    7.714    0.000    0.000    1.714    0.000    0.000 
#    0.000    0.000    0.000    0.000    0.000    0.000 
#
# Total GULP energy -78177.000964 kJ/mol
# GULP energy per Si atom -5584.071497 kJ/mol
# Density = 2.368001 g / cm^3
# Si number density = 23.734026 Si / 1000 Ang^3
#
#
#
# Elastic Constant Matrix: (Units=GPa)
#
#
# Indices 1 2 3 4 5 6 
#
# 1 130.4532 7.9019 4.0378 -5.2903 -8.0854 7.6890
# 2 7.9019 20.6241 5.6791 -9.2031 -0.0901 4.0218
# 3 4.0378 5.6791 98.7395 -16.0806 10.8836 11.9805
# 4 -5.2903 -9.2031 -16.0806 20.6913 -4.6913 -7.1827
# 5 -8.0854 -0.0901 10.8836 -4.6913 41.7720 -0.7140
# 6 7.6890 4.0218 11.9805 -7.1827 -0.7140 30.7208
#
#
#
# Elastic Compliance Matrix: (Units=1/GPa)
#
#
# Indices 1 2 3 4 5 6 
#
# 1 0.008032 -0.002415 -0.000064 0.000798 0.001631 -0.001445
# 2 -0.002415 0.061784 0.000940 0.027707 0.002510 -0.001314
# 3 -0.000064 0.000940 0.012019 0.008212 -0.002270 -0.002927
# 4 0.000798 0.027707 0.008212 0.072145 0.006348 0.009986
# 5 0.001631 0.002510 -0.002270 0.006348 0.025603 0.002227
# 6 -0.001445 -0.001314 -0.002927 0.009986 0.002227 0.036613
#
#
# Mechanical properties :
#
#
# Convention : Reuss Voigt Hill
#
# Bulk Modulus (GPa) = 12.69712 31.67271 22.18491
# Shear Modulus (GPa) = 20.36443 34.11668 27.24056
#
# Velocity S-wave (km/s) = 2.93239 3.79550 3.39151
# Velocity P-wave (km/s) = 4.10202 5.70802 4.97032
#
# Compressibility (1/GPa) = 0.07875803
#
# Stress axis : x y z
#
# Youngs Moduli (GPa) = 124.49481 16.18538 83.20240
#
# Poissons Ratio (x) = 0.03909 0.00533
# Poissons Ratio (y) = 0.30064 -0.07823
# Poissons Ratio (z) = 0.00798 -0.01522
#
# Static dielectric constant tensor:
#      x y z
#    x 1.972940 -0.019940 -0.030950 
#    y -0.019940 1.911220 0.023910 
#    z -0.030950 0.023910 1.934750 
# 
# From -- ./inp_files/172831.got.cif
#   From: 2010.05.17/outbox.cif.g08.bks.cpg/sg2_87_cif.got.tgz:172831.got - 2010.06.03 11:33:40.
