data_PCOD9087903
_publ_section_title
;
Structure prediction by ZEFSAII (Michael W. Deem and Ramdas Pophale) SiO2 
 PCOD9087903
Probable space group: P -1
;
_chemical_formula_sum "Si O2"
_cell_formula_units_Z 16
_cell_length_a 11.637962
_cell_length_b 8.258685
_cell_length_c 10.308827
_cell_angle_alpha 134.668117
_cell_angle_beta 103.790895
_cell_angle_gamma 65.381041
_cell_volume 638.332392
_symmetry_space_group_name_H-M "P -1"
_symmetry_group_IT_number 2
_symmetry_cell_setting 'triclinic'
loop_
_space_group_symop_operation_xyz
x,y,z
-x,-y,-z
loop_
_atom_site_type_symbol
_atom_site_label
_atom_site_fract_x
_atom_site_fract_y
_atom_site_fract_z
Si Si1 0.116178 0.303361 0.301238
Si Si2 0.410241 0.036782 0.873106
Si Si3 0.595248 0.470063 0.358103
Si Si4 0.926242 0.272449 0.687026
Si Si5 0.372825 0.046104 0.279022
Si Si6 0.180564 0.264501 0.807730
Si Si7 0.679843 0.182146 0.603258
Si Si8 0.151349 0.576830 0.725722
O O1 0.098307 0.529006 0.324584
O O2 0.247062 0.082528 0.183909
O O3 0.135653 0.388220 0.502045
O O4 0.992013 0.231949 0.218737
O O5 0.400391 0.771440 0.705401
O O6 0.491570 0.114501 0.830751
O O7 0.268705 0.229832 0.936954
O O8 0.500000 0.000000 0.000000
O O9 0.619853 0.683676 0.565364
O O10 0.453332 0.601100 0.339207
O O11 0.719636 0.383735 0.251495
O O12 0.795630 0.273318 0.711821
O O13 0.038827 0.287272 0.815817
O O14 0.000000 0.000000 0.500000
O O15 0.354668 0.955700 0.364005
O O16 0.167907 0.472500 0.816433
O O17 0.260082 0.021463 0.607038
#
# Coordination Sequence:
#
# PCOD9087903 Si02
#       8
#     2   2   2   2   2   2   2   2
#     4   9  17  31  52  90 127 143 187 231 302 348
#     4  12  27  41  57  83 119 161 199 240 291 348
#     4  11  21  35  61  86 112 151 198 244 292 337
#     4   9  20  28  52  89 126 153 176 238 298 345
#     4  11  21  36  63  87 119 151 192 250 286 345
#     4  10  19  37  56  84 126 152 190 238 292 343
#     4  11  19  34  60  95 118 145 193 244 298 341
#     4   9  18  31  55  90 121 154 178 245 296 343
#
# _framework density 25.06531
#
# number of rings (size 3 to 8) (size 9 to 14) (size 15 to 20)
#    0.000    1.750    3.750    2.250    8.750    0.000 
#    0.000    2.500    0.000    9.750    0.000    0.000 
#    0.000    0.000    0.000    0.000    0.000    0.000 
#
# Total GULP energy -89286.203588 kJ/mol
# GULP energy per Si atom -5580.387724 kJ/mol
# Density = 2.500826 g / cm^3
# Si number density = 25.065310 Si / 1000 Ang^3
#
#
#
# Elastic Constant Matrix: (Units=GPa)
#
#
# Indices 1 2 3 4 5 6 
#
# 1 202.0082 23.6332 19.5384 -14.4697 30.5261 -31.3256
# 2 23.6332 76.1516 21.7456 -18.5422 17.3151 -23.9202
# 3 19.5384 21.7456 62.9346 1.2634 -0.3505 1.0297
# 4 -14.4697 -18.5422 1.2634 28.8531 -12.5782 9.1107
# 5 30.5261 17.3151 -0.3505 -12.5782 -9.6526 -19.6253
# 6 -31.3256 -23.9202 1.0297 9.1107 -19.6253 47.4016
#
#
#
# Elastic Compliance Matrix: (Units=1/GPa)
#
#
# Indices 1 2 3 4 5 6 
#
# 1 0.005485 0.000228 -0.001902 0.003179 0.003930 0.004798
# 2 0.000228 0.020423 -0.007505 0.011804 0.002861 0.009536
# 3 -0.001902 -0.007505 0.019264 -0.005868 -0.002019 -0.005171
# 4 0.003179 0.011804 -0.005868 0.040315 -0.011934 -0.004505
# 5 0.003930 0.002861 -0.002019 -0.011934 -0.045273 -0.012366
# 6 0.004798 0.009536 -0.005171 -0.004505 -0.012366 0.024937
#
#
# Mechanical properties :
#
#
# Convention : Reuss Voigt Hill
#
# Bulk Modulus (GPa) = 37.29189 52.32542 44.80865
# Shear Modulus (GPa) = 54.08552 31.73224 42.90888
#
# Velocity S-wave (km/s) = 4.65023 3.56192 4.14198
# Velocity P-wave (km/s) = 6.61386 6.15121 6.38672
#
# Compressibility (1/GPa) = 0.02681548
#
# Stress axis : x y z
#
# Youngs Moduli (GPa) = 182.30044 48.96535 51.90959
#
# Poissons Ratio (x) = -0.01119 0.09875
# Poissons Ratio (y) = -0.04165 0.38956
# Poissons Ratio (z) = 0.34680 0.36746
#
# Static dielectric constant tensor:
#      x y z
#    x 2.047300 -0.055940 0.001220 
#    y -0.055940 1.940930 -0.006610 
#    z 0.001220 -0.006610 2.145950 
# 
# From -- ./inp_files/418203.got.cif
#   From: 2010.05.17/outbox.cif.g08.bks.cpg/sg2_210_cif.got.tgz:418203.got - 2010.06.03 11:33:40.
