data_PCOD9087207
_publ_section_title
;
Structure prediction by ZEFSAII (Michael W. Deem and Ramdas Pophale) SiO2 
 PCOD9087207
Probable space group: P -1
;
_chemical_formula_sum "Si O2"
_cell_formula_units_Z 16
_cell_length_a 8.290464
_cell_length_b 8.152663
_cell_length_c 13.349590
_cell_angle_alpha 96.980641
_cell_angle_beta 74.135458
_cell_angle_gamma 52.234380
_cell_volume 634.646824
_symmetry_space_group_name_H-M "P -1"
_symmetry_group_IT_number 2
_symmetry_cell_setting 'triclinic'
loop_
_space_group_symop_operation_xyz
x,y,z
-x,-y,-z
loop_
_atom_site_type_symbol
_atom_site_label
_atom_site_fract_x
_atom_site_fract_y
_atom_site_fract_z
Si Si1 0.614837 0.512802 0.885727
Si Si2 0.307698 0.235639 0.997051
Si Si3 0.001204 0.580019 0.658063
Si Si4 0.704910 0.136981 0.201674
Si Si5 0.487200 0.716400 0.223281
Si Si6 0.626080 0.895325 0.340246
Si Si7 0.347866 0.368904 0.426246
Si Si8 0.979290 0.235937 0.141955
O O1 0.769666 0.554751 0.907119
O O2 0.431573 0.740294 0.868414
O O3 0.682781 0.315103 0.786504
O O4 0.500000 0.500000 0.000000
O O5 0.102134 0.242693 0.029373
O O6 0.428703 0.233563 0.881657
O O7 0.500000 0.000000 0.000000
O O8 0.157422 0.334962 0.664470
O O9 0.169125 0.559891 0.548891
O O10 0.921799 0.756610 0.771132
O O11 0.802904 0.622324 0.633131
O O12 0.544418 0.332184 0.330263
O O13 0.949238 0.060030 0.140687
O O14 0.707459 0.952162 0.233834
O O15 0.449450 0.873102 0.329190
O O16 0.720428 0.469549 0.196544
O O17 0.490607 0.128790 0.438882
#
# Coordination Sequence:
#
# PCOD9087207 Si02
#       8
#     2   2   2   2   2   2   2   2
#     4   9  18  34  55  82 112 146 196 233 289 345
#     4  11  21  34  56  82 111 152 194 243 289 345
#     4  10  19  36  62  89 110 161 190 244 296 340
#     4   9  19  36  55  82 120 154 192 240 281 346
#     4   9  19  36  56  78 109 152 190 234 296 341
#     4   9  19  36  62  85 121 153 192 239 290 348
#     4   9  20  35  64  84 120 149 201 235 293 350
#     4  10  21  36  55  80 116 152 196 232 292 351
#
# _framework density 25.210871999999998
#
# number of rings (size 3 to 8) (size 9 to 14) (size 15 to 20)
#    0.750    1.750    0.000    2.250    1.750    0.500 
#    0.000   16.875    0.000    1.500    0.000    0.000 
#    0.000    0.000    0.000    0.000    0.000    0.000 
#
# Total GULP energy -89204.592397 kJ/mol
# GULP energy per Si atom -5575.287025 kJ/mol
# Density = 2.515349 g / cm^3
# Si number density = 25.210872 Si / 1000 Ang^3
#
#
#
# Elastic Constant Matrix: (Units=GPa)
#
#
# Indices 1 2 3 4 5 6 
#
# 1 76.0241 26.9920 15.5835 -1.2849 -10.5149 20.2858
# 2 26.9920 74.5692 9.9082 -22.4845 -8.8039 1.0884
# 3 15.5835 9.9082 66.8002 -4.3222 -11.1175 -1.6948
# 4 -1.2849 -22.4845 -4.3222 41.0770 1.9897 5.1330
# 5 -10.5149 -8.8039 -11.1175 1.9897 30.7066 -4.1956
# 6 20.2858 1.0884 -1.6948 5.1330 -4.1956 34.7047
#
#
#
# Elastic Compliance Matrix: (Units=1/GPa)
#
#
# Indices 1 2 3 4 5 6 
#
# 1 0.019431 -0.006840 -0.003593 -0.002274 0.002073 -0.010732
# 2 -0.006840 0.019164 -0.000087 0.009847 0.002793 0.002274
# 3 -0.003593 -0.000087 0.016842 0.000930 0.005250 0.003422
# 4 -0.002274 0.009847 0.000930 0.030189 -0.000040 -0.003404
# 5 0.002073 0.002793 0.005250 -0.000040 0.036441 0.003369
# 6 -0.010732 0.002274 0.003422 -0.003404 0.003369 0.036094
#
#
# Mechanical properties :
#
#
# Convention : Reuss Voigt Hill
#
# Bulk Modulus (GPa) = 29.07309 35.81791 32.44550
# Shear Modulus (GPa) = 26.22406 32.29163 29.25785
#
# Velocity S-wave (km/s) = 3.22869 3.58279 3.41034
# Velocity P-wave (km/s) = 5.04542 5.59941 5.32962
#
# Compressibility (1/GPa) = 0.03439607
#
# Stress axis : x y z
#
# Youngs Moduli (GPa) = 51.46520 52.18223 59.37612
#
# Poissons Ratio (x) = 0.35694 0.21332
# Poissons Ratio (y) = 0.35203 0.00517
# Poissons Ratio (z) = 0.18490 0.00454
#
# Static dielectric constant tensor:
#      x y z
#    x 2.055960 0.029010 0.025670 
#    y 0.029010 2.020690 0.014520 
#    z 0.025670 0.014520 2.103640 
# 
# From -- ./inp_files/328164.got.cif
#   From: 2010.05.17/outbox.cif.g08.bks.cpg/sg2_165_cif.got.tgz:328164.got - 2010.06.03 11:33:40.
