data_PCOD9087234
_publ_section_title
;
Structure prediction by ZEFSAII (Michael W. Deem and Ramdas Pophale) SiO2 
 PCOD9087234
Probable space group: P -1
;
_chemical_formula_sum "Si O2"
_cell_formula_units_Z 16
_cell_length_a 9.271275
_cell_length_b 10.577710
_cell_length_c 10.057195
_cell_angle_alpha 81.834772
_cell_angle_beta 124.861058
_cell_angle_gamma 68.676296
_cell_volume 670.277526
_symmetry_space_group_name_H-M "P -1"
_symmetry_group_IT_number 2
_symmetry_cell_setting 'triclinic'
loop_
_space_group_symop_operation_xyz
x,y,z
-x,-y,-z
loop_
_atom_site_type_symbol
_atom_site_label
_atom_site_fract_x
_atom_site_fract_y
_atom_site_fract_z
Si Si1 0.325958 0.981779 0.336930
Si Si2 0.331044 0.587787 0.783787
Si Si3 0.706234 0.690084 0.541270
Si Si4 0.614750 0.508620 0.690170
Si Si5 0.930014 0.771064 0.057282
Si Si6 0.091606 0.117084 0.433422
Si Si7 0.107857 0.410093 0.727901
Si Si8 0.262397 0.090575 0.804244
O O1 0.172589 0.998205 0.372368
O O2 0.500000 0.000000 0.500000
O O3 0.467170 0.820269 0.358957
O O4 0.202787 0.114389 0.145851
O O5 0.457219 0.561799 0.720284
O O6 0.213967 0.499104 0.738778
O O7 0.155753 0.766050 0.691440
O O8 0.500000 0.500000 0.000000
O O9 0.676516 0.631461 0.675845
O O10 0.835856 0.769741 0.594927
O O11 0.801111 0.738377 0.292115
O O12 0.857437 0.528725 0.571832
O O13 0.500000 0.500000 0.500000
O O14 0.831085 0.343989 0.843750
O O15 0.853054 0.664158 0.092187
O O16 0.889341 0.872271 0.154356
O O17 0.209484 0.040630 0.646666
O O18 0.500000 0.000000 0.000000
#
# Coordination Sequence:
#
# PCOD9087234 Si02
#       8
#     2   2   2   2   2   2   2   2
#     4  10  19  36  62  90 119 151 195 251 299 347
#     4  11  23  39  59  87 124 162 194 244 297 352
#     4   9  20  38  61  90 113 155 202 247 287 351
#     4  11  23  39  62  84 121 160 203 244 294 350
#     4   9  20  39  61  88 117 151 202 246 289 357
#     4  10  21  36  63  89 120 152 198 247 301 349
#     4   8  21  38  65  89 115 152 211 243 292 351
#     4  10  19  36  65  94 115 147 198 258 297 342
#
# _framework density 23.870709999999999
#
# number of rings (size 3 to 8) (size 9 to 14) (size 15 to 20)
#    0.750    1.500    0.000    3.000    1.750    3.000 
#    0.000    8.750    5.500    0.000    0.000    0.000 
#    0.000    0.000    0.000    0.000    0.000    0.000 
#
# Total GULP energy -89244.775784 kJ/mol
# GULP energy per Si atom -5577.798487 kJ/mol
# Density = 2.381638 g / cm^3
# Si number density = 23.870710 Si / 1000 Ang^3
#
#
#
# Elastic Constant Matrix: (Units=GPa)
#
#
# Indices 1 2 3 4 5 6 
#
# 1 111.0614 60.9953 47.0027 -2.1570 -6.4563 -31.0157
# 2 60.9953 119.0668 58.5166 -38.7314 0.1880 -33.6087
# 3 47.0027 58.5166 160.9384 -30.6985 -26.0102 -19.2692
# 4 -2.1570 -38.7314 -30.6985 43.1277 -7.0961 3.6825
# 5 -6.4563 0.1880 -26.0102 -7.0961 24.4492 0.4276
# 6 -31.0157 -33.6087 -19.2692 3.6825 0.4276 44.7667
#
#
#
# Elastic Compliance Matrix: (Units=1/GPa)
#
#
# Indices 1 2 3 4 5 6 
#
# 1 0.015969 -0.008721 -0.003306 -0.010090 -0.002230 0.003945
# 2 -0.008721 0.021243 -0.000401 0.018013 0.002191 0.008230
# 3 -0.003306 -0.000401 0.011803 0.010149 0.014606 0.001514
# 4 -0.010090 0.018013 0.010149 0.049160 0.022146 0.006646
# 5 -0.002230 0.002191 0.014606 0.022146 0.062192 0.003971
# 6 0.003945 0.008230 0.001514 0.006646 0.003971 0.031317
#
#
# Mechanical properties :
#
#
# Convention : Reuss Voigt Hill
#
# Bulk Modulus (GPa) = 41.39368 80.45509 60.92439
# Shear Modulus (GPa) = 22.26260 37.43886 29.85073
#
# Velocity S-wave (km/s) = 3.05722 3.96460 3.54010
# Velocity P-wave (km/s) = 5.46265 7.39832 6.50291
#
# Compressibility (1/GPa) = 0.02415827
#
# Stress axis : x y z
#
# Youngs Moduli (GPa) = 62.62274 47.07492 84.72668
#
# Poissons Ratio (x) = 0.41054 0.28007
# Poissons Ratio (y) = 0.54614 0.03399
# Poissons Ratio (z) = 0.20700 0.01889
#
# Static dielectric constant tensor:
#      x y z
#    x 2.048940 0.094980 0.171720 
#    y 0.094980 2.125050 0.200980 
#    z 0.171720 0.200980 2.219480 
# 
# From -- ./inp_files/170427.got.cif
#   From: 2010.05.17/outbox.cif.g08.bks.cpg/sg2_86_cif.got.tgz:170427.got - 2010.06.03 11:33:40.
