data_PCOD9087509
_publ_section_title
;
Structure prediction by ZEFSAII (Michael W. Deem and Ramdas Pophale) SiO2 
 PCOD9087509
Probable space group: P -1
;
_chemical_formula_sum "Si O2"
_cell_formula_units_Z 16
_cell_length_a 24.151889
_cell_length_b 11.943848
_cell_length_c 18.256762
_cell_angle_alpha 24.842409
_cell_angle_beta 20.173269
_cell_angle_gamma 23.282565
_cell_volume 677.170601
_symmetry_space_group_name_H-M "P -1"
_symmetry_group_IT_number 2
_symmetry_cell_setting 'triclinic'
loop_
_space_group_symop_operation_xyz
x,y,z
-x,-y,-z
loop_
_atom_site_type_symbol
_atom_site_label
_atom_site_fract_x
_atom_site_fract_y
_atom_site_fract_z
Si Si1 0.192997 0.064042 0.511009
Si Si2 0.389149 0.274367 0.809887
Si Si3 0.280595 0.774068 0.303983
Si Si4 0.943347 0.144844 0.335668
Si Si5 0.586531 0.636052 0.114540
Si Si6 0.831145 0.322686 0.868706
Si Si7 0.265254 0.221775 0.845537
Si Si8 0.505999 0.184078 0.312706
O O1 0.184740 0.391372 0.326418
O O2 0.037186 0.073933 0.751825
O O3 0.400677 0.853042 0.394859
O O4 0.141503 0.992816 0.536318
O O5 0.371464 0.452855 0.800784
O O6 0.284352 0.381789 0.800499
O O7 0.334538 0.014627 0.058231
O O8 0.098848 0.916785 0.493186
O O9 0.429395 0.602233 0.286364
O O10 0.327698 0.505338 0.347702
O O11 0.848617 0.507226 0.229107
O O12 0.148816 0.052598 0.113712
O O13 0.765078 0.453511 0.953808
O O14 0.500000 0.000000 0.000000
O O15 0.685417 0.228140 0.074823
O O16 0.451747 0.998925 0.706982
O O17 0.500000 0.000000 0.500000
#
# Coordination Sequence:
#
# PCOD9087509 Si02
#       8
#     2   2   2   2   2   2   2   2
#     4  11  19  36  63  90 122 156 209 259 298 361
#     4  11  21  38  61  95 124 154 206 272 301 355
#     4  10  19  36  64  87 115 166 212 242 302 372
#     4  11  22  42  62  84 123 172 207 246 309 390
#     4   9  15  33  57  86 114 152 196 243 293 357
#     4  10  20  34  63  94 113 162 214 246 299 369
#     4  11  26  39  58  93 128 161 205 255 321 365
#     4  11  20  39  62  87 121 167 206 244 304 387
#
# _framework density 23.627724000000001
#
# number of rings (size 3 to 8) (size 9 to 14) (size 15 to 20)
#    0.000    1.500    7.500    0.750    0.000    1.500 
#    0.000    1.250    0.000    1.500    0.000    0.000 
#    0.000    0.000    0.000    0.000    0.000    0.000 
#
# Total GULP energy -89326.385089 kJ/mol
# GULP energy per Si atom -5582.899068 kJ/mol
# Density = 2.357395 g / cm^3
# Si number density = 23.627724 Si / 1000 Ang^3
#
#
#
# Elastic Constant Matrix: (Units=GPa)
#
#
# Indices 1 2 3 4 5 6 
#
# 1 96.5782 16.7252 15.7011 8.1972 15.7400 10.2261
# 2 16.7252 60.9312 22.6991 15.0986 23.6876 26.0598
# 3 15.7011 22.6991 124.2945 11.6339 15.1255 5.5093
# 4 8.1972 15.0986 11.6339 45.1085 19.9699 9.5239
# 5 15.7400 23.6876 15.1255 19.9699 27.3444 8.4183
# 6 10.2261 26.0598 5.5093 9.5239 8.4183 29.2254
#
#
#
# Elastic Compliance Matrix: (Units=1/GPa)
#
#
# Indices 1 2 3 4 5 6 
#
# 1 0.011715 0.000839 -0.000762 0.001689 -0.007313 -0.003147
# 2 0.000839 0.038849 -0.003090 0.006071 -0.028175 -0.028215
# 3 -0.000762 -0.003090 0.008916 -0.000713 -0.001954 0.002136
# 4 0.001689 0.006071 -0.000713 0.034385 -0.028192 -0.008955
# 5 -0.007313 -0.028175 -0.001954 -0.028192 0.082729 0.013408
# 6 -0.003147 -0.028215 0.002136 -0.008955 0.013408 0.059130
#
#
# Mechanical properties :
#
#
# Convention : Reuss Voigt Hill
#
# Bulk Modulus (GPa) = 18.70779 43.56162 31.13470
# Shear Modulus (GPa) = 19.26286 35.44757 27.35522
#
# Velocity S-wave (km/s) = 2.85838 3.87751 3.40628
# Velocity P-wave (km/s) = 4.33921 6.20673 5.35501
#
# Compressibility (1/GPa) = 0.05345368
#
# Stress axis : x y z
#
# Youngs Moduli (GPa) = 85.36352 25.74079 112.16203
#
# Poissons Ratio (x) = -0.02159 0.08543
# Poissons Ratio (y) = -0.07159 0.34654
# Poissons Ratio (z) = 0.06502 0.07953
#
# Static dielectric constant tensor:
#      x y z
#    x 1.904660 0.034610 0.004030 
#    y 0.034610 1.961930 0.008150 
#    z 0.004030 0.008150 1.941140 
# 
# From -- ./inp_files/579219.got.cif
#   From: 2010.05.17/outbox.cif.g08.bks.cpg/sg2_290_cif.got.tgz:579219.got - 2010.06.03 11:33:40.
