data_PCOD9087851
_publ_section_title
;
Structure prediction by ZEFSAII (Michael W. Deem and Ramdas Pophale) SiO2 
 PCOD9087851
Probable space group: P -1
;
_chemical_formula_sum "Si O2"
_cell_formula_units_Z 14
_cell_length_a 8.275504
_cell_length_b 5.438806
_cell_length_c 24.240985
_cell_angle_alpha 113.500189
_cell_angle_beta 147.937732
_cell_angle_gamma 77.827894
_cell_volume 512.723563
_symmetry_space_group_name_H-M "P -1"
_symmetry_group_IT_number 2
_symmetry_cell_setting 'triclinic'
loop_
_space_group_symop_operation_xyz
x,y,z
-x,-y,-z
loop_
_atom_site_type_symbol
_atom_site_label
_atom_site_fract_x
_atom_site_fract_y
_atom_site_fract_z
Si Si1 0.909065 0.786128 0.672202
Si Si2 0.988422 0.726643 0.180709
Si Si3 0.422762 0.744240 0.401854
Si Si4 0.427063 0.269519 0.030526
Si Si5 0.418264 0.523058 0.166350
Si Si6 0.532914 0.894782 0.785753
Si Si7 0.888318 0.017705 0.406993
O O1 0.738786 0.485700 0.620511
O O2 0.210452 0.823459 0.723128
O O3 0.680940 0.966207 0.596805
O O4 0.011668 0.964945 0.773053
O O5 0.696887 0.526552 0.109384
O O6 0.287821 0.668730 0.293210
O O7 0.902302 0.710096 0.090535
O O8 0.794287 0.795156 0.510861
O O9 0.435881 0.319975 0.102596
O O10 0.500000 0.000000 0.000000
O O11 0.271720 0.309717 0.153809
O O12 0.740327 0.720326 0.307142
O O13 0.313928 0.779270 0.131348
O O14 0.404277 0.854243 0.681749
O O15 0.000000 0.000000 0.500000
#
# Coordination Sequence:
#
# PCOD9087851 Si02
#       7
#     2   2   2   2   2   2   2
#     4  10  19  37  54  90 122 153 189 239 304 367
#     4   9  19  31  53  85 122 155 190 229 293 356
#     4  10  22  36  59  87 120 160 193 243 298 359
#     4  11  19  32  58  86 128 159 188 234 300 368
#     4  10  22  37  54  90 114 158 200 237 293 345
#     4  10  20  37  57  83 122 151 192 241 295 352
#     4  10  25  44  62  84 117 164 209 249 290 345
#
# _framework density 27.305160000000001
#
# number of rings (size 3 to 8) (size 9 to 14) (size 15 to 20)
#    1.714    0.286    1.429    3.429    4.000    1.714 
#    0.000    0.000    0.000    0.857    0.000    3.000 
#    0.000    0.000    0.000    0.000    0.000    0.000 
#
# Total GULP energy -78094.103112 kJ/mol
# GULP energy per Si atom -5578.150222 kJ/mol
# Density = 2.724301 g / cm^3
# Si number density = 27.305160 Si / 1000 Ang^3
#
#
#
# Elastic Constant Matrix: (Units=GPa)
#
#
# Indices 1 2 3 4 5 6 
#
# 1 71.7531 32.3355 26.7338 5.7734 -9.8620 5.0593
# 2 32.3355 210.8909 44.0876 1.4239 -13.0755 -18.2616
# 3 26.7338 44.0876 157.2509 -17.1064 -29.8773 -6.9024
# 4 5.7734 1.4239 -17.1064 60.2079 6.4467 0.7048
# 5 -9.8620 -13.0755 -29.8773 6.4467 36.1609 -12.5757
# 6 5.0593 -18.2616 -6.9024 0.7048 -12.5757 37.1943
#
#
#
# Elastic Compliance Matrix: (Units=1/GPa)
#
#
# Indices 1 2 3 4 5 6 
#
# 1 0.016379 -0.002239 -0.002380 -0.002250 0.000902 -0.003421
# 2 -0.002239 0.005692 -0.000661 -0.000396 0.002278 0.003754
# 3 -0.002380 -0.000661 0.008745 0.001885 0.007426 0.004097
# 4 -0.002250 -0.000396 0.001885 0.017658 -0.002610 -0.000755
# 5 0.000902 0.002278 0.007426 -0.002610 0.040987 0.016281
# 6 -0.003421 0.003754 0.004097 -0.000755 0.016281 0.035474
#
#
# Mechanical properties :
#
#
# Convention : Reuss Voigt Hill
#
# Bulk Modulus (GPa) = 49.36772 71.80096 60.58434
# Shear Modulus (GPa) = 35.14998 49.16182 42.15590
#
# Velocity S-wave (km/s) = 3.59179 4.24778 3.93349
# Velocity P-wave (km/s) = 5.94311 7.10008 6.54720
#
# Compressibility (1/GPa) = 0.02025615
#
# Stress axis : x y z
#
# Youngs Moduli (GPa) = 61.05450 175.67929 114.34949
#
# Poissons Ratio (x) = 0.39332 0.27220
# Poissons Ratio (y) = 0.13669 0.07555
# Poissons Ratio (z) = 0.14534 0.11607
#
# Static dielectric constant tensor:
#      x y z
#    x 2.239280 -0.076950 -0.128340 
#    y -0.076950 2.230500 -0.090210 
#    z -0.128340 -0.090210 2.355890 
# 
# From -- ./inp_files/608911.got.cif
#   From: 2010.05.17/outbox.cif.g08.bks.cpg/sg2_305_cif.got.tgz:608911.got - 2010.06.03 11:33:40.
