data_PCOD9087934
_publ_section_title
;
Structure prediction by ZEFSAII (Michael W. Deem and Ramdas Pophale) SiO2 
 PCOD9087934
Probable space group: P -1
;
_chemical_formula_sum "Si O2"
_cell_formula_units_Z 12
_cell_length_a 21.681425
_cell_length_b 8.542994
_cell_length_c 9.094930
_cell_angle_alpha 79.364804
_cell_angle_beta 136.052183
_cell_angle_gamma 135.259816
_cell_volume 611.601141
_symmetry_space_group_name_H-M "P -1"
_symmetry_group_IT_number 2
_symmetry_cell_setting 'triclinic'
loop_
_space_group_symop_operation_xyz
x,y,z
-x,-y,-z
loop_
_atom_site_type_symbol
_atom_site_label
_atom_site_fract_x
_atom_site_fract_y
_atom_site_fract_z
Si Si1 0.279548 0.258805 0.318003
Si Si2 0.502642 0.301825 0.618066
Si Si3 0.633780 0.111031 0.309506
Si Si4 0.051103 0.211651 0.340384
Si Si5 0.681395 0.837536 0.296985
Si Si6 0.819950 0.906661 0.252157
O O1 0.350164 0.196830 0.384138
O O2 0.419564 0.587491 0.430634
O O3 0.264911 0.202596 0.474791
O O4 0.102266 0.043422 0.989258
O O5 0.442255 0.048990 0.634676
O O6 0.652888 0.600648 0.928218
O O7 0.801892 0.467255 0.537341
O O8 0.671158 0.997380 0.318229
O O9 0.500000 0.000000 0.000000
O O10 0.122622 0.159387 0.543338
O O11 0.962574 0.164657 0.335310
O O12 0.785000 0.986230 0.299477
O O13 0.500000 0.500000 0.000000
#
# Coordination Sequence:
#
# PCOD9087934 Si02
#       6
#     2   2   2   2   2   2
#     4   9  19  33  57  84 106 147 183 230 265 331
#     4   9  17  34  57  81 106 147 186 217 270 336
#     4  11  20  35  60  83 111 147 187 226 272 332
#     4  10  21  35  58  84 111 145 186 227 274 326
#     4  11  20  35  59  84 110 147 187 225 275 328
#     4  10  19  37  57  83 111 147 185 222 276 335
#
# _framework density 19.620630999999999
#
# number of rings (size 3 to 8) (size 9 to 14) (size 15 to 20)
#    0.000    2.000    5.000    0.000    0.000    4.000 
#    0.000    0.000    3.667    2.000    0.000    0.000 
#    0.000    0.000    0.000    0.000    0.000    0.000 
#
# Total GULP energy -66892.718632 kJ/mol
# GULP energy per Si atom -5574.393219 kJ/mol
# Density = 1.957597 g / cm^3
# Si number density = 19.620631 Si / 1000 Ang^3
#
#
#
# Elastic Constant Matrix: (Units=GPa)
#
#
# Indices 1 2 3 4 5 6 
#
# 1 37.5919 -5.7195 -8.8065 -4.2354 -0.9835 12.7845
# 2 -5.7195 101.8298 6.8624 -6.9042 5.4837 23.4631
# 3 -8.8065 6.8624 75.9601 -17.5333 9.4770 -4.4340
# 4 -4.2354 -6.9042 -17.5333 32.9641 6.6712 1.5596
# 5 -0.9835 5.4837 9.4770 6.6712 19.0935 -3.4117
# 6 12.7845 23.4631 -4.4340 1.5596 -3.4117 22.4884
#
#
#
# Elastic Compliance Matrix: (Units=1/GPa)
#
#
# Indices 1 2 3 4 5 6 
#
# 1 0.049044 0.015684 0.009216 0.021267 -0.022436 -0.047306
# 2 0.015684 0.019665 0.003165 0.012701 -0.016604 -0.032209
# 3 0.009216 0.003165 0.019267 0.015951 -0.017079 -0.008439
# 4 0.021267 0.012701 0.015951 0.052648 -0.034416 -0.031069
# 5 -0.022436 -0.016604 -0.017079 -0.034416 0.083964 0.041836
# 6 -0.047306 -0.032209 -0.008439 -0.031069 0.041836 0.111803
#
#
# Mechanical properties :
#
#
# Convention : Reuss Voigt Hill
#
# Bulk Modulus (GPa) = 6.93941 22.22829 14.58385
# Shear Modulus (GPa) = 15.23011 29.77888 22.50449
#
# Velocity S-wave (km/s) = 2.78911 3.90004 3.39039
# Velocity P-wave (km/s) = 3.73050 5.62441 4.77235
#
# Compressibility (1/GPa) = 0.14410449
#
# Stress axis : x y z
#
# Youngs Moduli (GPa) = 20.38988 50.85265 51.90171
#
# Poissons Ratio (x) = -0.79756 -0.47831
# Poissons Ratio (y) = -0.31979 -0.16426
# Poissons Ratio (z) = -0.18791 -0.16094
#
# Static dielectric constant tensor:
#      x y z
#    x 1.741860 0.041490 0.005440 
#    y 0.041490 1.704140 -0.023740 
#    z 0.005440 -0.023740 1.683610 
# 
# From -- ./inp_files/147552.got.cif
#   From: 2010.05.17/outbox.cif.g08.bks.cpg/sg2_74_cif.got.tgz:147552.got - 2010.06.03 11:33:40.
