data_PCOD9087337
_publ_section_title
;
Structure prediction by ZEFSAII (Michael W. Deem and Ramdas Pophale) SiO2 
 PCOD9087337
Probable space group: P -1
;
_chemical_formula_sum "Si O2"
_cell_formula_units_Z 16
_cell_length_a 6.234439
_cell_length_b 7.741068
_cell_length_c 16.801007
_cell_angle_alpha 116.325809
_cell_angle_beta 96.863539
_cell_angle_gamma 62.896063
_cell_volume 643.461164
_symmetry_space_group_name_H-M "P -1"
_symmetry_group_IT_number 2
_symmetry_cell_setting 'triclinic'
loop_
_space_group_symop_operation_xyz
x,y,z
-x,-y,-z
loop_
_atom_site_type_symbol
_atom_site_label
_atom_site_fract_x
_atom_site_fract_y
_atom_site_fract_z
Si Si1 0.350448 0.317827 0.046568
Si Si2 0.639878 0.047091 0.296203
Si Si3 0.018212 0.821633 0.581223
Si Si4 0.114195 0.277240 0.880879
Si Si5 0.465027 0.760592 0.332964
Si Si6 0.809344 0.716592 0.791289
Si Si7 0.720775 0.410374 0.147693
Si Si8 0.054664 0.436177 0.608570
O O1 0.289973 0.271997 0.122717
O O2 0.616300 0.295959 0.059708
O O3 0.159575 0.569432 0.074748
O O4 0.282729 0.197403 0.949827
O O5 0.412191 0.147157 0.247469
O O6 0.729978 0.190954 0.380226
O O7 0.857367 0.904919 0.216832
O O8 0.577455 0.902306 0.323688
O O9 0.959830 0.664620 0.605009
O O10 0.019834 0.722177 0.474905
O O11 0.807355 0.067612 0.625349
O O12 0.205061 0.431236 0.867785
O O13 0.517424 0.563272 0.233785
O O14 0.654040 0.658557 0.392790
O O15 0.940717 0.489229 0.702606
O O16 0.046455 0.753202 0.825174
#
# Coordination Sequence:
#
# PCOD9087337 Si02
#       8
#     2   2   2   2   2   2   2   2
#     4  10  19  36  63  85 116 164 199 245 306 353
#     4  11  23  39  60  88 125 158 195 256 301 355
#     4  11  23  42  64  89 120 163 201 249 310 351
#     4   9  20  37  57  91 121 149 209 250 289 366
#     4  10  21  40  60  89 123 155 202 253 294 360
#     4  10  22  37  56  86 124 150 203 247 293 361
#     4   9  19  36  61  86 119 164 197 244 303 352
#     4  10  23  43  62  90 123 156 207 252 293 370
#
# _framework density 24.865528000000001
#
# number of rings (size 3 to 8) (size 9 to 14) (size 15 to 20)
#    0.000    2.000    1.250    2.250    3.500    1.500 
#    0.000    0.625    0.000    0.000    0.000    0.000 
#    0.000    0.000    0.000    0.000    0.000    0.000 
#
# Total GULP energy -89416.328176 kJ/mol
# GULP energy per Si atom -5588.520511 kJ/mol
# Density = 2.480893 g / cm^3
# Si number density = 24.865528 Si / 1000 Ang^3
#
#
#
# Elastic Constant Matrix: (Units=GPa)
#
#
# Indices 1 2 3 4 5 6 
#
# 1 36.1399 18.1787 16.5080 -4.5071 5.0112 -8.8299
# 2 18.1787 82.0952 12.9873 -11.2461 0.6037 -24.0227
# 3 16.5080 12.9873 103.5664 -28.3577 20.6117 -9.1858
# 4 -4.5071 -11.2461 -28.3577 22.7878 -1.1201 1.3889
# 5 5.0112 0.6037 20.6117 -1.1201 34.4424 -8.6456
# 6 -8.8299 -24.0227 -9.1858 1.3889 -8.6456 34.2328
#
#
#
# Elastic Compliance Matrix: (Units=1/GPa)
#
#
# Indices 1 2 3 4 5 6 
#
# 1 0.033502 -0.006193 -0.004770 -0.002600 -0.001295 0.002794
# 2 -0.006193 0.017982 0.001756 0.009252 0.002804 0.011825
# 3 -0.004770 0.001756 0.018172 0.021988 -0.009071 0.001695
# 4 -0.002600 0.009252 0.021988 0.074466 -0.008901 0.006453
# 5 -0.001295 0.002804 -0.009071 -0.008901 0.036517 0.008783
# 6 0.002794 0.011825 0.001695 0.006453 0.008783 0.040642
#
#
# Mechanical properties :
#
#
# Convention : Reuss Voigt Hill
#
# Bulk Modulus (GPa) = 19.51502 35.23883 27.37693
# Shear Modulus (GPa) = 19.47240 29.90113 24.68676
#
# Velocity S-wave (km/s) = 2.80144 3.47149 3.15431
# Velocity P-wave (km/s) = 4.28128 5.50189 4.92951
#
# Compressibility (1/GPa) = 0.05124258
#
# Stress axis : x y z
#
# Youngs Moduli (GPa) = 29.84891 55.61266 55.03041
#
# Poissons Ratio (x) = 0.34440 0.26248
# Poissons Ratio (y) = 0.18485 -0.09665
# Poissons Ratio (z) = 0.14237 -0.09767
#
# Static dielectric constant tensor:
#      x y z
#    x 2.008470 -0.066880 -0.009190 
#    y -0.066880 2.038320 -0.021780 
#    z -0.009190 -0.021780 1.945540 
# 
# From -- ./inp_files/124834.got.cif
#   From: 2010.05.17/outbox.cif.g08.bks.cpg/sg2_63_cif.got.tgz:124834.got - 2010.06.03 11:33:40.
