data_PCOD9087252
_publ_section_title
;
Structure prediction by ZEFSAII (Michael W. Deem and Ramdas Pophale) SiO2 
 PCOD9087252
Probable space group: P -1
;
_chemical_formula_sum "Si O2"
_cell_formula_units_Z 16
_cell_length_a 18.104484
_cell_length_b 5.331748
_cell_length_c 8.319811
_cell_angle_alpha 66.158844
_cell_angle_beta 65.193842
_cell_angle_gamma 81.924277
_cell_volume 666.383684
_symmetry_space_group_name_H-M "P -1"
_symmetry_group_IT_number 2
_symmetry_cell_setting 'triclinic'
loop_
_space_group_symop_operation_xyz
x,y,z
-x,-y,-z
loop_
_atom_site_type_symbol
_atom_site_label
_atom_site_fract_x
_atom_site_fract_y
_atom_site_fract_z
Si Si1 0.641960 0.726581 0.453493
Si Si2 0.227011 0.926980 0.634331
Si Si3 0.912226 0.539094 0.646991
Si Si4 0.945873 0.260058 0.022429
Si Si5 0.577221 0.497884 0.044737
Si Si6 0.664528 0.975126 0.011897
Si Si7 0.180513 0.928474 0.326321
Si Si8 0.392632 0.735010 0.582094
O O1 0.733661 0.777830 0.422269
O O2 0.599920 0.433958 0.542980
O O3 0.590602 0.944040 0.541565
O O4 0.643628 0.843796 0.238691
O O5 0.233341 0.902439 0.444741
O O6 0.293453 0.728676 0.703112
O O7 0.134730 0.851169 0.782295
O O8 0.913572 0.388961 0.855041
O O9 0.886621 0.850058 0.622195
O O10 0.000000 0.500000 0.500000
O O11 0.853788 0.363653 0.627203
O O12 0.000000 0.500000 0.000000
O O13 0.000000 0.000000 0.000000
O O14 0.566588 0.375547 0.267534
O O15 0.500000 0.500000 0.000000
O O16 0.615954 0.798227 0.968437
O O17 0.640230 0.290693 0.959519
O O18 0.759980 0.953181 0.896262
#
# Coordination Sequence:
#
# PCOD9087252 Si02
#       8
#     2   2   2   2   2   2   2   2
#     4   8  17  31  55  76 108 140 193 237 275 343
#     4  10  23  37  61  83 118 157 206 243 302 358
#     4  12  26  44  61  89 127 162 205 260 320 355
#     4  12  26  41  63  85 116 159 207 249 301 367
#     4  10  19  36  62  91 122 155 200 253 302 366
#     4  10  20  36  56  93 117 153 203 247 308 353
#     4  12  25  38  65  88 126 160 201 262 306 364
#     4   8  18  31  56  82 109 145 198 237 283 347
#
# _framework density 24.010190000000001
#
# number of rings (size 3 to 8) (size 9 to 14) (size 15 to 20)
#    0.750    1.000    0.000    4.500    7.000    0.000 
#    0.000    0.000    0.000    1.500    0.000    0.000 
#    0.000    0.000    0.000    0.000    0.000    0.000 
#
# Total GULP energy -89370.831676 kJ/mol
# GULP energy per Si atom -5585.676980 kJ/mol
# Density = 2.395554 g / cm^3
# Si number density = 24.010190 Si / 1000 Ang^3
#
#
#
# Elastic Constant Matrix: (Units=GPa)
#
#
# Indices 1 2 3 4 5 6 
#
# 1 119.4440 46.8465 17.0507 7.5823 5.7000 13.9470
# 2 46.8465 181.8035 11.7009 19.3901 -1.1816 24.6845
# 3 17.0507 11.7009 34.3988 1.0149 6.2963 4.3068
# 4 7.5823 19.3901 1.0149 16.5743 0.8270 3.0431
# 5 5.7000 -1.1816 6.2963 0.8270 41.5055 5.3642
# 6 13.9470 24.6845 4.3068 3.0431 5.3642 51.9746
#
#
#
# Elastic Compliance Matrix: (Units=1/GPa)
#
#
# Indices 1 2 3 4 5 6 
#
# 1 0.009998 -0.001967 -0.003962 -0.001769 -0.000631 -0.001252
# 2 -0.001967 0.007175 -0.001150 -0.007023 0.001110 -0.002488
# 3 -0.003962 -0.001150 0.032261 0.001528 -0.004322 -0.000707
# 4 -0.001769 -0.007023 0.001528 0.069383 -0.001543 -0.000220
# 5 -0.000631 0.001110 -0.004322 -0.001543 0.025222 -0.002513
# 6 -0.001252 -0.002488 -0.000707 -0.000220 -0.002513 0.021089
#
#
# Mechanical properties :
#
#
# Convention : Reuss Voigt Hill
#
# Bulk Modulus (GPa) = 28.34877 54.09362 41.22119
# Shear Modulus (GPa) = 26.17191 39.34744 32.75968
#
# Velocity S-wave (km/s) = 3.30515 4.05258 3.69780
# Velocity P-wave (km/s) = 5.13789 6.66905 5.95290
#
# Compressibility (1/GPa) = 0.03527490
#
# Stress axis : x y z
#
# Youngs Moduli (GPa) = 100.02392 139.36720 30.99763
#
# Poissons Ratio (x) = 0.27408 0.12282
# Poissons Ratio (y) = 0.19671 0.03566
# Poissons Ratio (z) = 0.39632 0.16033
#
# Static dielectric constant tensor:
#      x y z
#    x 1.917510 -0.015210 -0.006350 
#    y -0.015210 2.057090 -0.027080 
#    z -0.006350 -0.027080 1.810140 
# 
# From -- ./inp_files/323427.got.cif
#   From: 2010.05.17/outbox.cif.g08.bks.cpg/sg2_162_cif.got.tgz:323427.got - 2010.06.03 11:33:40.
