data_PCOD9087057
_publ_section_title
;
Structure prediction by ZEFSAII (Michael W. Deem and Ramdas Pophale) SiO2 
 PCOD9087057
Probable space group: P -1
;
_chemical_formula_sum "Si O2"
_cell_formula_units_Z 12
_cell_length_a 9.974492
_cell_length_b 6.817455
_cell_length_c 10.714130
_cell_angle_alpha 78.041359
_cell_angle_beta 61.625707
_cell_angle_gamma 106.433794
_cell_volume 562.211958
_symmetry_space_group_name_H-M "P -1"
_symmetry_group_IT_number 2
_symmetry_cell_setting 'triclinic'
loop_
_space_group_symop_operation_xyz
x,y,z
-x,-y,-z
loop_
_atom_site_type_symbol
_atom_site_label
_atom_site_fract_x
_atom_site_fract_y
_atom_site_fract_z
Si Si1 0.231119 0.357613 0.149542
Si Si2 0.091403 0.701316 0.835886
Si Si3 0.787950 0.426219 0.451771
Si Si4 0.484016 0.154622 0.096713
Si Si5 0.969413 0.753491 0.513757
Si Si6 0.543306 0.949654 0.346921
O O1 0.319532 0.194617 0.139103
O O2 0.179612 0.398826 0.305164
O O3 0.058349 0.253721 0.162086
O O4 0.359654 0.597744 0.008718
O O5 0.165128 0.603650 0.705569
O O6 0.252721 0.931049 0.774036
O O7 0.000000 0.500000 0.000000
O O8 0.893792 0.676022 0.421075
O O9 0.870942 0.292921 0.515737
O O10 0.585034 0.313723 0.575134
O O11 0.484699 0.060676 0.246203
O O12 0.500000 0.000000 0.000000
O O13 0.000000 0.000000 0.500000
O O14 0.500000 0.000000 0.500000
#
# Coordination Sequence:
#
# PCOD9087057 Si02
#       6
#     2   2   2   2   2   2
#     4  10  22  37  63  91 123 168 216 261 324 380
#     4  10  19  38  63  91 132 174 208 262 324 386
#     4   9  20  35  62  91 121 169 210 252 321 381
#     4  11  22  39  65  92 127 165 219 272 319 382
#     4  10  19  36  61  90 126 158 215 265 314 378
#     4  10  20  38  66  93 129 175 210 263 329 382
#
# _framework density 21.344266000000001
#
# number of rings (size 3 to 8) (size 9 to 14) (size 15 to 20)
#    0.000    2.000    1.667    2.000    0.000    2.667 
#    0.000    0.833   11.000   22.000    0.000    0.000 
#    0.000    0.000    0.000    0.000    0.000    0.000 
#
# Total GULP energy -66933.632579 kJ/mol
# GULP energy per Si atom -5577.802715 kJ/mol
# Density = 2.129569 g / cm^3
# Si number density = 21.344266 Si / 1000 Ang^3
#
#
#
# Elastic Constant Matrix: (Units=GPa)
#
#
# Indices 1 2 3 4 5 6 
#
# 1 114.5753 47.3858 59.9404 -1.6283 -20.8257 13.2182
# 2 47.3858 86.5582 17.1006 4.6761 -5.4327 13.8909
# 3 59.9404 17.1006 106.2149 -13.2534 -3.0755 8.2572
# 4 -1.6283 4.6761 -13.2534 19.3309 3.9088 -7.1087
# 5 -20.8257 -5.4327 -3.0755 3.9088 44.4351 -4.9862
# 6 13.2182 13.8909 8.2572 -7.1087 -4.9862 30.1650
#
#
#
# Elastic Compliance Matrix: (Units=1/GPa)
#
#
# Indices 1 2 3 4 5 6 
#
# 1 0.017916 -0.006863 -0.009308 -0.005486 0.007143 -0.002255
# 2 -0.006863 0.016395 0.000947 -0.005990 -0.001342 -0.006435
# 3 -0.009308 0.000947 0.015674 0.011013 -0.003986 0.001289
# 4 -0.005486 -0.005990 0.011013 0.067872 -0.006598 0.017052
# 5 0.007143 -0.001342 -0.003986 -0.006598 0.026144 0.001345
# 6 -0.002255 -0.006435 0.001289 0.017052 0.001345 0.040990
#
#
# Mechanical properties :
#
#
# Convention : Reuss Voigt Hill
#
# Bulk Modulus (GPa) = 51.18313 61.80022 56.49168
# Shear Modulus (GPa) = 22.52740 30.98097 26.75419
#
# Velocity S-wave (km/s) = 3.25226 3.81397 3.54426
# Velocity P-wave (km/s) = 6.17534 6.95788 6.57826
#
# Compressibility (1/GPa) = 0.01953769
#
# Stress axis : x y z
#
# Youngs Moduli (GPa) = 55.81491 60.99501 63.80042
#
# Poissons Ratio (x) = 0.41859 0.59387
# Poissons Ratio (y) = 0.38304 -0.06044
# Poissons Ratio (z) = 0.51954 -0.05778
#
# Static dielectric constant tensor:
#      x y z
#    x 1.522050 2.430800 -1.130960 
#    y 2.430800 -19.073740 9.855680 
#    z -1.130960 9.855680 -2.838950 
# 
# From -- ./inp_files/169094.got.cif
#   From: 2010.05.17/outbox.cif.g08.bks.cpg/sg2_85_cif.got.tgz:169094.got - 2010.06.03 11:33:40.
