data_PCOD9087210
_publ_section_title
;
Structure prediction by ZEFSAII (Michael W. Deem and Ramdas Pophale) SiO2 
 PCOD9087210
Probable space group: P -1
;
_chemical_formula_sum "Si O2"
_cell_formula_units_Z 15
_cell_length_a 11.890979
_cell_length_b 11.003096
_cell_length_c 8.914174
_cell_angle_alpha 104.434486
_cell_angle_beta 130.273409
_cell_angle_gamma 45.939481
_cell_volume 595.269802
_symmetry_space_group_name_H-M "P -1"
_symmetry_group_IT_number 2
_symmetry_cell_setting 'triclinic'
loop_
_space_group_symop_operation_xyz
x,y,z
-x,-y,-z
loop_
_atom_site_type_symbol
_atom_site_label
_atom_site_fract_x
_atom_site_fract_y
_atom_site_fract_z
Si Si1 0.086486 0.000703 0.916472
Si Si2 0.405524 0.530577 0.688545
Si Si3 0.673909 0.621395 0.678039
Si Si4 0.723588 0.811977 0.565607
Si Si5 0.421093 0.286353 0.814468
Si Si6 0.880291 0.334938 0.994728
Si Si7 0.000000 0.000000 0.500000
Si Si8 0.620009 0.164382 0.260519
O O1 0.021046 0.973208 0.700331
O O2 0.976986 0.202332 0.895531
O O3 0.341111 0.859058 0.096697
O O4 0.000000 0.000000 0.000000
O O5 0.382508 0.466610 0.495501
O O6 0.338577 0.473921 0.743632
O O7 0.291730 0.739835 0.647484
O O8 0.656980 0.412402 0.882174
O O9 0.768229 0.663487 0.662607
O O10 0.463245 0.803822 0.636483
O O11 0.810322 0.504781 0.904706
O O12 0.693600 0.765432 0.364798
O O13 0.930504 0.769457 0.755386
O O14 0.500000 0.000000 0.500000
O O15 0.456415 0.253208 0.011456
O O16 0.841832 0.968984 0.347647
#
# Coordination Sequence:
#
# PCOD9087210 Si02
#       8
#     2   2   2   2   2   2   1   2
#     4  11  20  35  61  90 123 155 204 254 307 361
#     4  10  19  36  62  89 114 155 194 247 304 361
#     4  10  22  39  62  86 118 158 198 252 304 364
#     4  11  23  39  59  84 116 161 209 245 297 373
#     4  10  21  36  57  86 120 153 193 252 298 358
#     4  11  20  36  64  87 118 158 208 243 301 365
#     4  10  22  32  56  92 122 150 200 252 310 358
#     4  10  20  36  57  86 124 146 194 250 309 353
#
# _framework density 25.198657000000001
#
# number of rings (size 3 to 8) (size 9 to 14) (size 15 to 20)
#    0.000    1.600    2.667    4.000    1.867    0.000 
#    0.000    3.333    2.933    0.000    0.000    0.000 
#    0.000    0.000    0.000    0.000    0.000    0.000 
#
# Total GULP energy -83553.433806 kJ/mol
# GULP energy per Si atom -5570.228920 kJ/mol
# Density = 2.514130 g / cm^3
# Si number density = 25.198657 Si / 1000 Ang^3
#
#
#
# Elastic Constant Matrix: (Units=GPa)
#
#
# Indices 1 2 3 4 5 6 
#
# 1 55.7450 15.2632 47.6166 16.2926 -11.7634 -14.4459
# 2 15.2632 43.1189 20.1086 4.9677 9.0685 -11.3720
# 3 47.6166 20.1086 193.0139 16.4472 -0.0876 -8.2945
# 4 16.2926 4.9677 16.4472 36.6889 -12.4748 -3.7140
# 5 -11.7634 9.0685 -0.0876 -12.4748 36.5968 9.9972
# 6 -14.4459 -11.3720 -8.2945 -3.7140 9.9972 26.3799
#
#
#
# Elastic Compliance Matrix: (Units=1/GPa)
#
#
# Indices 1 2 3 4 5 6 
#
# 1 0.030293 -0.006345 -0.005859 -0.006849 0.006630 0.008535
# 2 -0.006345 0.034505 -0.000838 -0.005587 -0.017093 0.016828
# 3 -0.005859 -0.000838 0.006759 -0.001003 -0.001749 -0.000923
# 4 -0.006849 -0.005587 -0.001003 0.035258 0.012953 -0.006419
# 5 0.006630 -0.017093 -0.001749 0.012953 0.043253 -0.018856
# 6 0.008535 0.016828 -0.000923 -0.006419 -0.018856 0.055788
#
#
# Mechanical properties :
#
#
# Convention : Reuss Voigt Hill
#
# Bulk Modulus (GPa) = 21.99117 50.87274 36.43195
# Shear Modulus (GPa) = 20.23492 33.85908 27.04700
#
# Velocity S-wave (km/s) = 2.83683 3.66961 3.27976
# Velocity P-wave (km/s) = 4.41318 6.17958 5.36952
#
# Compressibility (1/GPa) = 0.04547280
#
# Stress axis : x y z
#
# Youngs Moduli (GPa) = 33.01083 28.98106 147.95820
#
# Poissons Ratio (x) = 0.18389 0.86687
# Poissons Ratio (y) = 0.20946 0.12399
# Poissons Ratio (z) = 0.19341 0.02429
#
# Static dielectric constant tensor:
#      x y z
#    x 10.794320 -17.430610 7.336120 
#    y -17.430610 37.186740 -14.683850 
#    z 7.336120 -14.683850 8.150830 
# 
# From -- ./inp_files/237643.got.cif
#   From: 2010.05.17/outbox.cif.g08.bks.cpg/sg2_119_cif.got.tgz:237643.got - 2010.06.03 11:33:40.
