data_PCOD9087732
_publ_section_title
;
Structure prediction by ZEFSAII (Michael W. Deem and Ramdas Pophale) SiO2 
 PCOD9087732
Probable space group: P -1
;
_chemical_formula_sum "Si O2"
_cell_formula_units_Z 16
_cell_length_a 5.273435
_cell_length_b 23.840210
_cell_length_c 15.870124
_cell_angle_alpha 23.744520
_cell_angle_beta 88.748746
_cell_angle_gamma 77.181769
_cell_volume 694.902742
_symmetry_space_group_name_H-M "P -1"
_symmetry_group_IT_number 2
_symmetry_cell_setting 'triclinic'
loop_
_space_group_symop_operation_xyz
x,y,z
-x,-y,-z
loop_
_atom_site_type_symbol
_atom_site_label
_atom_site_fract_x
_atom_site_fract_y
_atom_site_fract_z
Si Si1 0.193296 0.552505 0.478625
Si Si2 0.078360 0.114181 0.043947
Si Si3 0.568286 0.968928 0.668760
Si Si4 0.647883 0.247065 0.479398
Si Si5 0.467803 0.706762 0.772592
Si Si6 0.046217 0.714900 0.912497
Si Si7 0.595756 0.278675 0.956633
Si Si8 0.944437 0.443831 0.222148
O O1 0.500000 0.500000 0.500000
O O2 0.294011 0.436580 0.717882
O O3 0.000000 0.500000 0.500000
O O4 0.992295 0.745985 0.215365
O O5 0.297126 0.084421 0.163226
O O6 0.774084 0.190174 0.992766
O O7 0.190101 0.940795 0.241030
O O8 0.810466 0.893613 0.697398
O O9 0.435749 0.158188 0.404826
O O10 0.402227 0.870426 0.792313
O O11 0.696614 0.252213 0.371513
O O12 0.295220 0.329407 0.374329
O O13 0.786987 0.344391 0.388863
O O14 0.248873 0.710524 0.840685
O O15 0.757249 0.532933 0.016763
O O16 0.240257 0.655625 0.077045
O O17 0.910123 0.600377 0.055354
#
# Coordination Sequence:
#
# PCOD9087732 Si02
#       8
#     2   2   2   2   2   2   2   2
#     4  10  19  36  66  95 126 152 192 244 317 371
#     4   9  21  38  62  97 122 156 193 259 308 365
#     4  10  21  37  62  90 127 157 202 252 310 366
#     4  11  26  40  65  87 123 158 215 255 300 345
#     4  11  24  40  61  90 121 164 210 259 302 355
#     4  11  24  39  58  87 125 171 205 246 306 361
#     4  10  21  39  61  95 128 157 195 249 313 376
#     4  12  25  43  60  86 120 170 211 254 293 355
#
# _framework density 23.024805000000001
#
# number of rings (size 3 to 8) (size 9 to 14) (size 15 to 20)
#    0.000    1.500    2.500    1.875    5.250    4.000 
#    0.000    0.000    0.000    1.500    0.000    0.000 
#    0.000    0.000    0.000    0.000    0.000    0.000 
#
# Total GULP energy -89257.772050 kJ/mol
# GULP energy per Si atom -5578.610753 kJ/mol
# Density = 2.297240 g / cm^3
# Si number density = 23.024805 Si / 1000 Ang^3
#
#
#
# Elastic Constant Matrix: (Units=GPa)
#
#
# Indices 1 2 3 4 5 6 
#
# 1 92.5020 2.9483 38.5603 -6.1735 -14.9970 11.9878
# 2 2.9483 20.7721 11.6918 -10.1800 -6.9319 4.1555
# 3 38.5603 11.6918 183.1994 -27.7040 -1.2798 22.2924
# 4 -6.1735 -10.1800 -27.7040 28.3219 6.3575 -5.5219
# 5 -14.9970 -6.9319 -1.2798 6.3575 30.8571 -7.0174
# 6 11.9878 4.1555 22.2924 -5.5219 -7.0174 34.0081
#
#
#
# Elastic Compliance Matrix: (Units=1/GPa)
#
#
# Indices 1 2 3 4 5 6 
#
# 1 0.013120 0.001703 -0.002754 -0.001030 0.006433 -0.001868
# 2 0.001703 0.061544 -0.001120 0.018658 0.010253 -0.002241
# 3 -0.002754 -0.001120 0.007473 0.006393 -0.003382 -0.003451
# 4 -0.001030 0.018658 0.006393 0.049545 -0.006097 0.000679
# 5 0.006433 0.010253 -0.003382 -0.006097 0.040324 0.006027
# 6 -0.001868 -0.002241 -0.003451 0.000679 0.006027 0.033953
#
#
# Mechanical properties :
#
#
# Convention : Reuss Voigt Hill
#
# Bulk Modulus (GPa) = 12.85419 44.76383 28.80901
# Shear Modulus (GPa) = 21.16560 34.85562 28.01061
#
# Velocity S-wave (km/s) = 3.03521 3.89502 3.49168
# Velocity P-wave (km/s) = 4.22826 6.30174 5.36610
#
# Compressibility (1/GPa) = 0.07779564
#
# Stress axis : x y z
#
# Youngs Moduli (GPa) = 76.21679 16.24849 133.82027
#
# Poissons Ratio (x) = -0.02768 0.36852
# Poissons Ratio (y) = -0.12983 0.14994
# Poissons Ratio (z) = 0.20989 0.01821
#
# Static dielectric constant tensor:
#      x y z
#    x 1.931640 -0.009360 0.006460 
#    y -0.009360 1.883130 0.023650 
#    z 0.006460 0.023650 1.901270 
# 
# From -- ./inp_files/477265.got.cif
#   From: 2010.05.17/outbox.cif.g08.bks.cpg/sg2_239_cif.got.tgz:477265.got - 2010.06.03 11:33:40.
