data_PCOD9087434
_publ_section_title
;
Structure prediction by ZEFSAII (Michael W. Deem and Ramdas Pophale) SiO2 
 PCOD9087434
Probable space group: P -1
;
_chemical_formula_sum "Si O2"
_cell_formula_units_Z 16
_cell_length_a 8.357677
_cell_length_b 10.781687
_cell_length_c 17.764214
_cell_angle_alpha 129.207349
_cell_angle_beta 146.174956
_cell_angle_gamma 68.881432
_cell_volume 638.044326
_symmetry_space_group_name_H-M "P -1"
_symmetry_group_IT_number 2
_symmetry_cell_setting 'triclinic'
loop_
_space_group_symop_operation_xyz
x,y,z
-x,-y,-z
loop_
_atom_site_type_symbol
_atom_site_label
_atom_site_fract_x
_atom_site_fract_y
_atom_site_fract_z
Si Si1 0.586544 0.081305 0.330034
Si Si2 0.574880 0.617165 0.686498
Si Si3 0.094029 0.324929 0.890545
Si Si4 0.961496 0.990485 0.800335
Si Si5 0.935468 0.840647 0.330287
Si Si6 0.431910 0.502838 0.757106
Si Si7 0.356418 0.176519 0.538937
Si Si8 0.000354 0.341514 0.266561
O O1 0.504832 0.213396 0.295515
O O2 0.272934 0.995251 0.223061
O O3 0.883365 0.194076 0.541670
O O4 0.687374 0.927516 0.282127
O O5 0.567434 0.591191 0.763390
O O6 0.308646 0.452522 0.478963
O O7 0.882981 0.633856 0.765421
O O8 0.188914 0.310395 0.836691
O O9 0.725441 0.271330 0.723825
O O10 0.300888 0.496771 0.080224
O O11 0.140343 0.173434 0.901058
O O12 0.753081 0.874646 0.607204
O O13 0.123266 0.865824 0.847356
O O14 0.216573 0.999081 0.461213
O O15 0.224697 0.309744 0.574763
O O16 0.240002 0.585929 0.764151
#
# Coordination Sequence:
#
# PCOD9087434 Si02
#       8
#     2   2   2   2   2   2   2   2
#     4  10  19  36  63  93 119 155 212 268 297 347
#     4  10  22  40  63  95 123 161 211 260 303 368
#     4  11  23  39  59  93 126 165 198 257 315 369
#     4  10  19  39  64  86 120 154 215 253 298 358
#     4  10  20  37  66  92 116 162 219 252 301 369
#     4  12  25  40  62  96 131 164 202 248 326 378
#     4  11  20  40  64  87 119 166 210 256 295 368
#     4  10  22  40  64  92 120 168 207 257 301 365
#
# _framework density 25.076626000000001
#
# number of rings (size 3 to 8) (size 9 to 14) (size 15 to 20)
#    0.000    1.500    3.750    2.250    3.500    0.500 
#    2.250    1.250    0.000    5.250    0.000    0.000 
#    0.000    0.000    0.000    0.000    0.000    0.000 
#
# Total GULP energy -89442.934592 kJ/mol
# GULP energy per Si atom -5590.183412 kJ/mol
# Density = 2.501955 g / cm^3
# Si number density = 25.076626 Si / 1000 Ang^3
#
#
#
# Elastic Constant Matrix: (Units=GPa)
#
#
# Indices 1 2 3 4 5 6 
#
# 1 133.9701 29.9734 35.7820 -11.7113 -18.0654 -25.9171
# 2 29.9734 65.7017 -5.5115 -6.3427 3.3363 -12.8462
# 3 35.7820 -5.5115 50.4989 5.4061 -21.6416 -5.7705
# 4 -11.7113 -6.3427 5.4061 17.3849 0.2964 -8.5313
# 5 -18.0654 3.3363 -21.6416 0.2964 31.8610 0.3009
# 6 -25.9171 -12.8462 -5.7705 -8.5313 0.3009 44.7930
#
#
#
# Elastic Compliance Matrix: (Units=1/GPa)
#
#
# Indices 1 2 3 4 5 6 
#
# 1 0.014686 -0.004402 -0.011189 0.016094 0.000955 0.008852
# 2 -0.004402 0.019004 0.004557 0.004736 -0.001477 0.004402
# 3 -0.011189 0.004557 0.038196 -0.020150 0.019351 -0.004214
# 4 0.016094 0.004736 -0.020150 0.088738 -0.006120 0.025016
# 5 0.000955 -0.001477 0.019351 -0.006120 0.045272 0.001152
# 6 0.008852 0.004402 -0.004214 0.025016 0.001152 0.032923
#
#
# Mechanical properties :
#
#
# Convention : Reuss Voigt Hill
#
# Bulk Modulus (GPa) = 20.07343 41.18427 30.62885
# Shear Modulus (GPa) = 18.01846 31.46955 24.74400
#
# Velocity S-wave (km/s) = 2.68346 3.54635 3.14464
# Velocity P-wave (km/s) = 4.19803 5.76436 5.04239
#
# Compressibility (1/GPa) = 0.04981708
#
# Stress axis : x y z
#
# Youngs Moduli (GPa) = 68.09322 52.62118 26.18059
#
# Poissons Ratio (x) = 0.23166 0.29292
# Poissons Ratio (y) = 0.29977 -0.11929
# Poissons Ratio (z) = 0.76187 -0.23977
#
# Static dielectric constant tensor:
#      x y z
#    x 2.034580 0.012610 0.028080 
#    y 0.012610 2.051960 -0.003430 
#    z 0.028080 -0.003430 1.959850 
# 
# From -- ./inp_files/263586.got.cif
#   From: 2010.05.17/outbox.cif.g08.bks.cpg/sg2_132_cif.got.tgz:263586.got - 2010.06.03 11:33:40.
