data_PCOD9087080
_publ_section_title
;
Structure prediction by ZEFSAII (Michael W. Deem and Ramdas Pophale) SiO2 
 PCOD9087080
Probable space group: P -1
;
_chemical_formula_sum "Si O2"
_cell_formula_units_Z 14
_cell_length_a 6.844241
_cell_length_b 19.952928
_cell_length_c 16.431616
_cell_angle_alpha 24.554213
_cell_angle_beta 51.107371
_cell_angle_gamma 42.580867
_cell_volume 623.908672
_symmetry_space_group_name_H-M "P -1"
_symmetry_group_IT_number 2
_symmetry_cell_setting 'triclinic'
loop_
_space_group_symop_operation_xyz
x,y,z
-x,-y,-z
loop_
_atom_site_type_symbol
_atom_site_label
_atom_site_fract_x
_atom_site_fract_y
_atom_site_fract_z
Si Si1 0.864129 0.962062 0.206896
Si Si2 0.536955 0.460842 0.264414
Si Si3 0.468752 0.809488 0.802292
Si Si4 0.097082 0.358514 0.548682
Si Si5 0.052000 0.083643 0.476305
Si Si6 0.568268 0.336083 0.770763
Si Si7 0.467644 0.201427 0.786423
O O1 0.681023 0.051989 0.235599
O O2 0.774380 0.830247 0.329914
O O3 0.793378 0.137187 0.973765
O O4 0.206668 0.842255 0.269658
O O5 0.223541 0.478156 0.341834
O O6 0.605455 0.524497 0.263611
O O7 0.763199 0.248547 0.413348
O O8 0.523440 0.608332 0.038745
O O9 0.757192 0.817131 0.698751
O O10 0.243215 0.905959 0.681008
O O11 0.240817 0.308345 0.655812
O O12 0.765621 0.403462 0.598497
O O13 0.000000 0.000000 0.500000
O O14 0.400746 0.289078 0.797976
O O15 0.500000 0.000000 0.000000
#
# Coordination Sequence:
#
# PCOD9087080 Si02
#       7
#     2   2   2   2   2   2   2
#     4  10  19  36  61  92 126 173 216 258 315 380
#     4  11  24  42  66  99 134 168 217 270 324 387
#     4  10  24  45  69  95 131 164 212 276 330 384
#     4  11  20  36  60  91 135 177 213 257 312 376
#     4  11  24  48  73  95 122 167 217 269 338 396
#     4  10  21  37  56  92 134 174 214 263 308 372
#     4  11  18  33  61  90 127 178 220 253 306 369
#
# _framework density 22.439181000000001
#
# number of rings (size 3 to 8) (size 9 to 14) (size 15 to 20)
#    0.000    1.429    2.857    3.429    0.000    1.143 
#    0.000    8.571    0.000    0.000    0.000    0.000 
#    0.000    0.000    0.000    0.000    0.000    0.000 
#
# Total GULP energy -78268.390699 kJ/mol
# GULP energy per Si atom -5590.599336 kJ/mol
# Density = 2.238811 g / cm^3
# Si number density = 22.439181 Si / 1000 Ang^3
#
#
#
# Elastic Constant Matrix: (Units=GPa)
#
#
# Indices 1 2 3 4 5 6 
#
# 1 150.4225 55.0502 53.1951 -6.7751 5.6203 16.8974
# 2 55.0502 105.3214 7.3334 -6.9691 5.0149 4.6854
# 3 53.1951 7.3334 129.2484 11.0939 -0.2358 0.7563
# 4 -6.7751 -6.9691 11.0939 31.3421 3.4410 -9.0326
# 5 5.6203 5.0149 -0.2358 3.4410 37.3046 -7.5456
# 6 16.8974 4.6854 0.7563 -9.0326 -7.5456 46.9068
#
#
#
# Elastic Compliance Matrix: (Units=1/GPa)
#
#
# Indices 1 2 3 4 5 6 
#
# 1 0.010364 -0.004779 -0.004146 0.001945 -0.001751 -0.003096
# 2 -0.004779 0.012027 0.001148 0.001521 -0.000898 0.000650
# 3 -0.004146 0.001148 0.009722 -0.004018 0.001027 0.000614
# 4 0.001945 0.001521 -0.004018 0.036030 -0.002690 0.005717
# 5 -0.001751 -0.000898 0.001027 -0.002690 0.028407 0.004756
# 6 -0.003096 0.000650 0.000614 0.005717 0.004756 0.024225
#
#
# Mechanical properties :
#
#
# Convention : Reuss Voigt Hill
#
# Bulk Modulus (GPa) = 60.38929 68.46109 64.42519
# Shear Modulus (GPa) = 35.24893 41.07161 38.16027
#
# Velocity S-wave (km/s) = 3.96771 4.28290 4.12832
# Velocity P-wave (km/s) = 6.92540 7.41846 7.17617
#
# Compressibility (1/GPa) = 0.01655923
#
# Stress axis : x y z
#
# Youngs Moduli (GPa) = 96.48826 83.14641 102.86379
#
# Poissons Ratio (x) = 0.39732 0.42652
# Poissons Ratio (y) = 0.46107 -0.11812
# Poissons Ratio (z) = 0.40008 -0.09548
#
# Static dielectric constant tensor:
#      x y z
#    x 1.837990 0.001320 0.012380 
#    y 0.001320 1.875180 -0.051020 
#    z 0.012380 -0.051020 1.894470 
# 
# From -- ./inp_files/221781.got.cif
#   From: 2010.05.17/outbox.cif.g08.bks.cpg/sg2_111_cif.got.tgz:221781.got - 2010.06.03 11:33:40.
