data_PCOD9087452
_publ_section_title
;
Structure prediction by ZEFSAII (Michael W. Deem and Ramdas Pophale) SiO2 
 PCOD9087452
Probable space group: P -1
;
_chemical_formula_sum "Si O2"
_cell_formula_units_Z 16
_cell_length_a 20.781167
_cell_length_b 9.552447
_cell_length_c 8.882360
_cell_angle_alpha 64.689129
_cell_angle_beta 44.888042
_cell_angle_gamma 33.066927
_cell_volume 612.441309
_symmetry_space_group_name_H-M "P -1"
_symmetry_group_IT_number 2
_symmetry_cell_setting 'triclinic'
loop_
_space_group_symop_operation_xyz
x,y,z
-x,-y,-z
loop_
_atom_site_type_symbol
_atom_site_label
_atom_site_fract_x
_atom_site_fract_y
_atom_site_fract_z
Si Si1 0.313346 0.841208 0.144544
Si Si2 0.453872 0.708452 0.697416
Si Si3 0.183616 0.307149 0.301521
Si Si4 0.335813 0.367229 0.392400
Si Si5 0.196441 0.891306 0.625806
Si Si6 0.419793 0.925221 0.355224
Si Si7 0.968235 0.190657 0.120990
Si Si8 0.230466 0.604761 0.132307
O O1 0.199158 0.928728 0.425034
O O2 0.294235 0.050049 0.119903
O O3 0.500000 0.500000 0.000000
O O4 0.300832 0.854310 0.979105
O O5 0.554240 0.686980 0.650252
O O6 0.605640 0.379802 0.544216
O O7 0.388197 0.888811 0.580246
O O8 0.185148 0.490702 0.215265
O O9 0.000000 0.500000 0.500000
O O10 0.265661 0.136852 0.400371
O O11 0.260090 0.567147 0.281230
O O12 0.441478 0.076898 0.282494
O O13 0.173650 0.525981 0.673652
O O14 0.068459 0.139945 0.848341
O O15 0.145075 0.784084 0.777849
O O16 0.589474 0.625942 0.134973
O O17 0.094942 0.913105 0.144737
#
# Coordination Sequence:
#
# PCOD9087452 Si02
#       8
#     2   2   2   2   2   2   2   2
#     4  10  21  41  67  87 123 169 218 255 317 387
#     4  10  19  38  64  93 125 166 219 266 315 376
#     4  11  24  43  64  93 133 174 205 262 336 386
#     4  10  21  35  62 100 128 166 208 271 322 369
#     4   9  19  36  61  93 124 168 209 265 322 377
#     4  11  22  40  65  98 130 165 223 265 316 381
#     4  10  19  36  63  94 129 159 217 265 317 375
#     4  11  21  39  68  97 127 166 220 266 317 384
#
# _framework density 26.124949999999998
#
# number of rings (size 3 to 8) (size 9 to 14) (size 15 to 20)
#    0.000    1.750    1.250    4.500    0.000    0.000 
#    2.250    5.625   11.000    0.000    0.000    0.000 
#    0.000    0.000    0.000    0.000    0.000    0.000 
#
# Total GULP energy -89429.059986 kJ/mol
# GULP energy per Si atom -5589.316249 kJ/mol
# Density = 2.606549 g / cm^3
# Si number density = 26.124950 Si / 1000 Ang^3
#
#
#
# Elastic Constant Matrix: (Units=GPa)
#
#
# Indices 1 2 3 4 5 6 
#
# 1 123.7312 27.1027 43.0989 17.7224 -14.8455 -7.0644
# 2 27.1027 70.8583 43.6711 9.2141 -1.3005 -9.0084
# 3 43.0989 43.6711 222.9595 -14.3404 8.0616 -7.2843
# 4 17.7224 9.2141 -14.3404 44.1916 4.1264 11.2173
# 5 -14.8455 -1.3005 8.0616 4.1264 40.9721 -2.6620
# 6 -7.0644 -9.0084 -7.2843 11.2173 -2.6620 24.6416
#
#
#
# Elastic Compliance Matrix: (Units=1/GPa)
#
#
# Indices 1 2 3 4 5 6 
#
# 1 0.011174 -0.000994 -0.002430 -0.007097 0.005597 0.005958
# 2 -0.000994 0.018975 -0.003781 -0.007315 0.002315 0.009114
# 3 -0.002430 -0.003781 0.006009 0.004671 -0.002831 -0.002735
# 4 -0.007097 -0.007315 0.004671 0.034354 -0.008474 -0.019882
# 5 0.005597 0.002315 -0.002831 -0.008474 0.028474 0.008548
# 6 0.005958 0.009114 -0.002735 -0.019882 0.008548 0.054787
#
#
# Mechanical properties :
#
#
# Convention : Reuss Voigt Hill
#
# Bulk Modulus (GPa) = 45.97714 71.69937 58.83826
# Shear Modulus (GPa) = 28.50098 42.20614 35.35356
#
# Velocity S-wave (km/s) = 3.30653 4.02375 3.68264
# Velocity P-wave (km/s) = 5.67580 7.00655 6.37599
#
# Compressibility (1/GPa) = 0.02174994
#
# Stress axis : x y z
#
# Youngs Moduli (GPa) = 89.49139 52.69972 166.42215
#
# Poissons Ratio (x) = 0.05236 0.40435
# Poissons Ratio (y) = 0.08892 0.62925
# Poissons Ratio (z) = 0.21743 0.19926
#
# Static dielectric constant tensor:
#      x y z
#    x 2.184270 0.090960 -0.025780 
#    y 0.090960 2.081390 -0.043920 
#    z -0.025780 -0.043920 2.123460 
# 
# From -- ./inp_files/353463.got.cif
#   From: 2010.05.17/outbox.cif.g08.bks.cpg/sg2_177_cif.got.tgz:353463.got - 2010.06.03 11:33:40.
