data_PCOD9087266
_publ_section_title
;
Structure prediction by ZEFSAII (Michael W. Deem and Ramdas Pophale) SiO2 
 PCOD9087266
Probable space group: P -1
;
_chemical_formula_sum "Si O2"
_cell_formula_units_Z 16
_cell_length_a 25.949706
_cell_length_b 8.563930
_cell_length_c 25.832050
_cell_angle_alpha 43.643548
_cell_angle_beta 11.143169
_cell_angle_gamma 43.518151
_cell_volume 760.755251
_symmetry_space_group_name_H-M "P -1"
_symmetry_group_IT_number 2
_symmetry_cell_setting 'triclinic'
loop_
_space_group_symop_operation_xyz
x,y,z
-x,-y,-z
loop_
_atom_site_type_symbol
_atom_site_label
_atom_site_fract_x
_atom_site_fract_y
_atom_site_fract_z
Si Si1 0.708015 0.164834 0.699621
Si Si2 0.001721 0.490107 0.839464
Si Si3 0.269785 0.187394 0.806698
Si Si4 0.052335 0.326304 0.409657
Si Si5 0.551779 0.183540 0.361587
Si Si6 0.197336 0.193143 0.132981
Si Si7 0.261561 0.686232 0.171676
Si Si8 0.236162 0.661671 0.666712
O O1 0.818540 0.301070 0.605466
O O2 0.416782 0.248377 0.945367
O O3 0.733289 0.897008 0.755579
O O4 0.921041 0.180891 0.439331
O O5 0.271252 0.336983 0.592563
O O6 0.104513 0.654750 0.742070
O O7 0.785589 0.333352 0.112749
O O8 0.857216 0.627181 0.901751
O O9 0.279769 0.398367 0.706193
O O10 0.486063 0.233068 0.626398
O O11 0.346805 0.955334 0.756058
O O12 0.975635 0.210154 0.115469
O O13 0.943218 0.300230 0.581519
O O14 0.156222 0.572136 0.251324
O O15 0.500000 0.000000 0.500000
O O16 0.313991 0.947190 0.053004
O O17 0.500000 0.500000 0.000000
#
# Coordination Sequence:
#
# PCOD9087266 Si02
#       8
#     2   2   2   2   2   2   2   2
#     4  10  21  38  62  90 122 164 204 257 306 358
#     4  12  25  42  63  91 129 168 206 257 325 381
#     4  10  21  37  62  92 121 147 205 260 303 363
#     4   9  20  34  61  95 120 154 215 260 298 350
#     4  12  24  41  67  95 119 162 215 261 305 373
#     4  11  24  41  60  86 129 166 203 249 317 375
#     4  10  19  36  62  92 120 161 209 259 296 364
#     4  10  21  37  62  92 120 157 195 255 316 364
#
# _framework density 21.031732000000002
#
# number of rings (size 3 to 8) (size 9 to 14) (size 15 to 20)
#    0.000    1.500    2.500    2.625    5.250    1.500 
#    0.000    3.750    2.750    0.000    0.000    0.000 
#    0.000    0.000    0.000    0.000    0.000    0.000 
#
# Total GULP energy -89410.549643 kJ/mol
# GULP energy per Si atom -5588.159353 kJ/mol
# Density = 2.098386 g / cm^3
# Si number density = 21.031732 Si / 1000 Ang^3
#
#
#
# Elastic Constant Matrix: (Units=GPa)
#
#
# Indices 1 2 3 4 5 6 
#
# 1 85.6684 31.2578 -2.5932 -3.2255 -21.8889 4.5879
# 2 31.2578 64.2625 12.7448 14.2994 -6.9182 13.6352
# 3 -2.5932 12.7448 67.1361 9.8605 -10.3599 -4.7813
# 4 -3.2255 14.2994 9.8605 28.5831 2.4053 -4.1392
# 5 -21.8889 -6.9182 -10.3599 2.4053 31.2034 3.5592
# 6 4.5879 13.6352 -4.7813 -4.1392 3.5592 26.6973
#
#
#
# Elastic Compliance Matrix: (Units=1/GPa)
#
#
# Indices 1 2 3 4 5 6 
#
# 1 0.018437 -0.010040 0.003750 0.005132 0.011339 0.001915
# 2 -0.010040 0.028500 -0.004421 -0.016300 0.000921 -0.016272
# 3 0.003750 -0.004421 0.017802 -0.003667 0.007474 0.003237
# 4 0.005132 -0.016300 -0.003667 0.047724 -0.006628 0.015069
# 5 0.011339 0.000921 0.007474 -0.006628 0.044110 -0.007989
# 6 0.001915 -0.016272 0.003237 0.015069 -0.007989 0.049420
#
#
# Mechanical properties :
#
#
# Convention : Reuss Voigt Hill
#
# Bulk Modulus (GPa) = 23.08465 33.32062 28.20263
# Shear Modulus (GPa) = 20.67375 29.00726 24.84051
#
# Velocity S-wave (km/s) = 3.13865 3.71781 3.44044
# Velocity P-wave (km/s) = 4.91272 5.85721 5.40563
#
# Compressibility (1/GPa) = 0.04331883
#
# Stress axis : x y z
#
# Youngs Moduli (GPa) = 54.23743 35.08776 56.17464
#
# Poissons Ratio (x) = 0.35227 -0.21067
# Poissons Ratio (y) = 0.54452 0.24834
# Poissons Ratio (z) = -0.20341 0.15512
#
# Static dielectric constant tensor:
#      x y z
#    x 1.778530 0.018300 0.003340 
#    y 0.018300 1.779220 -0.024950 
#    z 0.003340 -0.024950 1.789300 
# 
# From -- ./inp_files/551005.got.cif
#   From: 2010.05.17/outbox.cif.g08.bks.cpg/sg2_276_cif.got.tgz:551005.got - 2010.06.03 11:33:40.
