data_PCOD9087524
_publ_section_title
;
Structure prediction by ZEFSAII (Michael W. Deem and Ramdas Pophale) SiO2 
 PCOD9087524
Probable space group: P -1
;
_chemical_formula_sum "Si O2"
_cell_formula_units_Z 16
_cell_length_a 22.459628
_cell_length_b 15.618210
_cell_length_c 6.073861
_cell_angle_alpha 72.831804
_cell_angle_beta 112.083262
_cell_angle_gamma 157.575193
_cell_volume 744.826538
_symmetry_space_group_name_H-M "P -1"
_symmetry_group_IT_number 2
_symmetry_cell_setting 'triclinic'
loop_
_space_group_symop_operation_xyz
x,y,z
-x,-y,-z
loop_
_atom_site_type_symbol
_atom_site_label
_atom_site_fract_x
_atom_site_fract_y
_atom_site_fract_z
Si Si1 0.294706 0.363965 0.863675
Si Si2 0.047869 0.491766 0.384016
Si Si3 0.065019 0.082643 0.295319
Si Si4 0.675473 0.453864 0.846337
Si Si5 0.895765 0.581052 0.152345
Si Si6 0.428883 0.235040 0.388555
Si Si7 0.789614 0.894361 0.712804
Si Si8 0.861198 0.222161 0.940774
O O1 0.114592 0.146733 0.671163
O O2 0.433731 0.543958 0.739323
O O3 0.328791 0.491433 0.978982
O O4 0.279513 0.253378 0.067505
O O5 0.143502 0.679101 0.208315
O O6 0.000000 0.500000 0.500000
O O7 0.130574 0.513751 0.597140
O O8 0.887859 0.252335 0.215144
O O9 0.178639 0.315028 0.268409
O O10 0.167369 0.121777 0.401857
O O11 0.000000 0.000000 0.000000
O O12 0.512617 0.265472 0.627652
O O13 0.733846 0.427968 0.985997
O O14 0.977812 0.621118 0.054061
O O15 0.040650 0.838148 0.202723
O O16 0.343681 0.200872 0.447235
O O17 0.290786 0.020335 0.197319
#
# Coordination Sequence:
#
# PCOD9087524 Si02
#       8
#     2   2   2   2   2   2   2   2
#     4  11  21  38  57  84 125 173 208 249 297 346
#     4   9  19  39  67  89 115 150 201 248 302 363
#     4  11  20  37  61  82 120 175 219 248 285 352
#     4  11  22  38  58  88 129 161 206 253 294 362
#     4  10  19  36  64  89 114 159 207 245 297 356
#     4  11  24  38  59  92 129 159 196 258 316 349
#     4  10  21  39  56  86 123 161 215 254 286 353
#     4   9  21  40  63  93 117 148 201 252 301 372
#
# _framework density 21.481513
#
# number of rings (size 3 to 8) (size 9 to 14) (size 15 to 20)
#    0.000    1.750    3.750    1.125    0.000    7.000 
#    2.250    0.625    0.000    7.500    0.000    0.000 
#    0.000    0.000    0.000    0.000    0.000    0.000 
#
# Total GULP energy -89248.882466 kJ/mol
# GULP energy per Si atom -5578.055154 kJ/mol
# Density = 2.143262 g / cm^3
# Si number density = 21.481513 Si / 1000 Ang^3
#
#
#
# Elastic Constant Matrix: (Units=GPa)
#
#
# Indices 1 2 3 4 5 6 
#
# 1 122.2098 41.3626 62.9610 0.2687 29.2945 3.1863
# 2 41.3626 36.2028 12.9931 4.3191 6.3318 4.5073
# 3 62.9610 12.9931 77.8482 12.0465 25.7950 0.5811
# 4 0.2687 4.3191 12.0465 32.0864 -1.7168 2.6228
# 5 29.2945 6.3318 25.7950 -1.7168 43.5704 3.3262
# 6 3.1863 4.5073 0.5811 2.6228 3.3262 33.0576
#
#
#
# Elastic Compliance Matrix: (Units=1/GPa)
#
#
# Indices 1 2 3 4 5 6 
#
# 1 0.026119 -0.024197 -0.017398 0.009330 -0.003430 0.000692
# 2 -0.024197 0.052539 0.012073 -0.010976 0.001383 -0.004312
# 3 -0.017398 0.012073 0.029660 -0.013169 -0.008241 0.001383
# 4 0.009330 -0.010976 -0.013169 0.037985 0.004819 -0.002670
# 5 -0.003430 0.001383 -0.008241 0.004819 0.030366 -0.003151
# 6 0.000692 -0.004312 0.001383 -0.002670 -0.003151 0.031276
#
#
# Mechanical properties :
#
#
# Convention : Reuss Voigt Hill
#
# Bulk Modulus (GPa) = 20.29461 52.32158 36.30810
# Shear Modulus (GPa) = 17.64200 29.67249 23.65724
#
# Velocity S-wave (km/s) = 2.86888 3.72062 3.32216
# Velocity P-wave (km/s) = 4.52128 6.54727 5.62622
#
# Compressibility (1/GPa) = 0.04927416
#
# Stress axis : x y z
#
# Youngs Moduli (GPa) = 38.28579 19.03331 33.71577
#
# Poissons Ratio (x) = 0.46055 0.58660
# Poissons Ratio (y) = 0.92641 -0.40707
# Poissons Ratio (z) = 0.66611 -0.22980
#
# Static dielectric constant tensor:
#      x y z
#    x 1.865620 0.036450 -0.181850 
#    y 0.036450 1.792390 -0.039010 
#    z -0.181850 -0.039010 2.298060 
# 
# From -- ./inp_files/119429.got.cif
#   From: 2010.05.17/outbox.cif.g08.bks.cpg/sg2_60_cif.got.tgz:119429.got - 2010.06.03 11:33:40.
