data_PCOD9087047
_publ_section_title
;
Structure prediction by ZEFSAII (Michael W. Deem and Ramdas Pophale) SiO2 
 PCOD9087047
Probable space group: P -1
;
_chemical_formula_sum "Si O2"
_cell_formula_units_Z 13
_cell_length_a 7.447901
_cell_length_b 12.120538
_cell_length_c 9.775255
_cell_angle_alpha 139.246473
_cell_angle_beta 105.620130
_cell_angle_gamma 87.745401
_cell_volume 535.427123
_symmetry_space_group_name_H-M "P -1"
_symmetry_group_IT_number 2
_symmetry_cell_setting 'triclinic'
loop_
_space_group_symop_operation_xyz
x,y,z
-x,-y,-z
loop_
_atom_site_type_symbol
_atom_site_label
_atom_site_fract_x
_atom_site_fract_y
_atom_site_fract_z
Si Si1 0.532569 0.407879 0.752898
Si Si2 0.427735 0.624135 0.708664
Si Si3 0.427360 0.028809 0.324016
Si Si4 0.135898 0.623196 0.429492
Si Si5 0.807381 0.345421 0.966376
Si Si6 0.124051 0.875465 0.458021
Si Si7 0.500000 0.000000 0.000000
O O1 0.435493 0.543109 0.783532
O O2 0.694950 0.393572 0.657428
O O3 0.657110 0.436667 0.945150
O O4 0.394414 0.210124 0.547041
O O5 0.500000 0.500000 0.500000
O O6 0.224606 0.636630 0.611235
O O7 0.549342 0.823996 0.914617
O O8 0.293097 0.843148 0.166014
O O9 0.646560 0.037318 0.423642
O O10 0.426404 0.048310 0.179319
O O11 0.092419 0.802823 0.538120
O O12 0.954409 0.465784 0.212875
O O13 0.924138 0.290010 0.810222
O O14 0.000000 0.000000 0.500000
#
# Coordination Sequence:
#
# PCOD9087047 Si02
#       7
#     2   2   2   2   2   2   1
#     4   9  17  37  63  84 119 165 204 244 310 373
#     4  10  19  37  62  87 120 160 215 243 300 378
#     4  10  21  38  62  89 123 160 212 254 303 374
#     4   9  18  36  56  89 120 158 200 249 309 368
#     4  10  20  38  62  91 124 159 200 262 315 351
#     4  10  19  36  61  90 120 161 208 249 302 376
#     4  12  20  38  64  88 116 168 208 244 306 372
#
# _framework density 24.279682000000001
#
# number of rings (size 3 to 8) (size 9 to 14) (size 15 to 20)
#    0.000    2.462    4.615    3.692    0.000    3.692 
#    0.000    6.154    3.385    0.000    0.000    0.000 
#    0.000    0.000    0.000    0.000    0.000    0.000 
#
# Total GULP energy -72369.275719 kJ/mol
# GULP energy per Si atom -5566.867363 kJ/mol
# Density = 2.422442 g / cm^3
# Si number density = 24.279682 Si / 1000 Ang^3
#
#
#
# Elastic Constant Matrix: (Units=GPa)
#
#
# Indices 1 2 3 4 5 6 
#
# 1 34.2372 33.4655 1.5053 5.7169 8.7854 -10.2248
# 2 33.4655 252.5309 46.7656 -4.9635 10.4518 -17.9793
# 3 1.5053 46.7656 59.7137 9.4547 19.2404 7.6110
# 4 5.7169 -4.9635 9.4547 54.6712 7.5759 -11.3634
# 5 8.7854 10.4518 19.2404 7.5759 28.8371 3.6538
# 6 -10.2248 -17.9793 7.6110 -11.3634 3.6538 41.7966
#
#
#
# Elastic Compliance Matrix: (Units=1/GPa)
#
#
# Indices 1 2 3 4 5 6 
#
# 1 0.041212 -0.005918 0.008364 -0.002664 -0.016140 0.006700
# 2 -0.005918 0.006010 -0.006172 0.002403 0.002773 0.002672
# 3 0.008364 -0.006172 0.028460 -0.005152 -0.017226 -0.005686
# 4 -0.002664 0.002403 -0.005152 0.021692 -0.003272 0.007504
# 5 -0.016140 0.002773 -0.017226 -0.003272 0.051579 -0.005017
# 6 0.006700 0.002672 -0.005686 0.007504 -0.005017 0.030228
#
#
# Mechanical properties :
#
#
# Convention : Reuss Voigt Hill
#
# Bulk Modulus (GPa) = 14.65615 56.66162 35.65888
# Shear Modulus (GPa) = 23.88055 42.71067 33.29561
#
# Velocity S-wave (km/s) = 3.13958 4.19873 3.70717
# Velocity P-wave (km/s) = 4.38088 6.84788 5.74829
#
# Compressibility (1/GPa) = 0.06823074
#
# Stress axis : x y z
#
# Youngs Moduli (GPa) = 24.26485 166.39353 35.13657
#
# Poissons Ratio (x) = 0.98466 -0.29388
# Poissons Ratio (y) = 0.14359 0.21686
# Poissons Ratio (z) = -0.20295 1.02699
#
# Static dielectric constant tensor:
#      x y z
#    x 2.062350 0.041070 -0.026810 
#    y 0.041070 1.996150 0.005600 
#    z -0.026810 0.005600 2.005580 
# 
# From -- ./inp_files/316781.got.cif
#   From: 2010.05.17/outbox.cif.g08.bks.cpg/sg2_159_cif.got.tgz:316781.got - 2010.06.03 11:33:40.
