data_PCOD9087058
_publ_section_title
;
Structure prediction by ZEFSAII (Michael W. Deem and Ramdas Pophale) SiO2 
 PCOD9087058
Probable space group: P -1
;
_chemical_formula_sum "Si O2"
_cell_formula_units_Z 14
_cell_length_a 7.513858
_cell_length_b 8.387851
_cell_length_c 12.258530
_cell_angle_alpha 82.271730
_cell_angle_beta 127.259767
_cell_angle_gamma 72.852492
_cell_volume 535.513502
_symmetry_space_group_name_H-M "P -1"
_symmetry_group_IT_number 2
_symmetry_cell_setting 'triclinic'
loop_
_space_group_symop_operation_xyz
x,y,z
-x,-y,-z
loop_
_atom_site_type_symbol
_atom_site_label
_atom_site_fract_x
_atom_site_fract_y
_atom_site_fract_z
Si Si1 0.183886 0.609711 0.952398
Si Si2 0.820297 0.271716 0.665058
Si Si3 0.204110 0.959548 0.981675
Si Si4 0.661510 0.059357 0.472764
Si Si5 0.656761 0.780410 0.874275
Si Si6 0.983425 0.316087 0.366173
Si Si7 0.684095 0.556901 0.425661
O O1 0.941656 0.689207 0.936755
O O2 0.073092 0.630114 0.786413
O O3 0.299917 0.749179 0.002462
O O4 0.353812 0.393425 0.059919
O O5 0.669996 0.223894 0.523126
O O6 0.862292 0.419359 0.601038
O O7 0.612190 0.369887 0.672641
O O8 0.047777 0.092068 0.812380
O O9 0.376014 0.049643 0.078157
O O10 0.000000 0.000000 0.000000
O O11 0.528040 0.133394 0.303018
O O12 0.500000 0.000000 0.500000
O O13 0.948298 0.895212 0.587859
O O14 0.236962 0.288541 0.531996
O O15 0.767164 0.457582 0.351412
#
# Coordination Sequence:
#
# PCOD9087058 Si02
#       7
#     2   2   2   2   2   2   2
#     4  10  19  36  61  90 126 168 213 259 319 380
#     4  11  21  41  65  96 121 164 229 261 315 390
#     4  10  20  35  62  93 124 166 215 266 312 383
#     4  12  20  38  67  96 125 168 215 265 315 388
#     4  10  21  35  62  98 127 168 215 262 319 386
#     4  11  21  41  63  96 132 166 209 272 331 372
#     4  10  24  36  65  97 127 162 214 279 320 376
#
# _framework density 26.143129999999999
#
# number of rings (size 3 to 8) (size 9 to 14) (size 15 to 20)
#    0.000    1.429    4.286    1.714    0.000    6.286 
#    0.000    0.000    3.143    6.857    3.714    0.000 
#    0.000    0.000    0.000    0.000    0.000    0.000 
#
# Total GULP energy -78300.721345 kJ/mol
# GULP energy per Si atom -5592.908667 kJ/mol
# Density = 2.608363 g / cm^3
# Si number density = 26.143130 Si / 1000 Ang^3
#
#
#
# Elastic Constant Matrix: (Units=GPa)
#
#
# Indices 1 2 3 4 5 6 
#
# 1 62.2503 40.4007 10.9667 2.5970 -7.7262 -16.5245
# 2 40.4007 155.0724 69.5336 10.7171 -10.6048 -8.7278
# 3 10.9667 69.5336 164.5187 -15.9680 -7.3444 10.1876
# 4 2.5970 10.7171 -15.9680 50.9936 4.0493 -9.5757
# 5 -7.7262 -10.6048 -7.3444 4.0493 14.9942 7.4228
# 6 -16.5245 -8.7278 10.1876 -9.5757 7.4228 24.4619
#
#
#
# Elastic Compliance Matrix: (Units=1/GPa)
#
#
# Indices 1 2 3 4 5 6 
#
# 1 0.023476 -0.005516 0.000121 0.002788 0.000130 0.014892
# 2 -0.005516 0.010153 -0.004041 -0.003609 0.003826 -0.000994
# 3 0.000121 -0.004041 0.008449 0.002312 0.003160 -0.004933
# 4 0.002788 -0.003609 0.002312 0.024470 -0.013124 0.013194
# 5 0.000130 0.003826 0.003160 -0.013124 0.090650 -0.032508
# 6 0.014892 -0.000994 -0.004933 0.013194 -0.032508 0.067669
#
#
# Mechanical properties :
#
#
# Convention : Reuss Voigt Hill
#
# Bulk Modulus (GPa) = 43.09485 69.29371 56.19428
# Shear Modulus (GPa) = 19.88270 35.48596 27.68433
#
# Velocity S-wave (km/s) = 2.76077 3.68825 3.25769
# Velocity P-wave (km/s) = 5.16550 6.68585 5.97424
#
# Compressibility (1/GPa) = 0.02320463
#
# Stress axis : x y z
#
# Youngs Moduli (GPa) = 42.59748 98.49514 118.35290
#
# Poissons Ratio (x) = 0.54327 -0.01426
# Poissons Ratio (y) = 0.23496 0.47830
# Poissons Ratio (z) = -0.00513 0.39805
#
# Static dielectric constant tensor:
#      x y z
#    x 2.284610 0.055420 -0.022740 
#    y 0.055420 2.050310 -0.008760 
#    z -0.022740 -0.008760 1.981060 
# 
# From -- ./inp_files/378847.got.cif
#   From: 2010.05.17/outbox.cif.g08.bks.cpg/sg2_190_cif.got.tgz:378847.got - 2010.06.03 11:33:40.
