data_PCOD9087570
_publ_section_title
;
Structure prediction by ZEFSAII (Michael W. Deem and Ramdas Pophale) SiO2 
 PCOD9087570
Probable space group: P -1
;
_chemical_formula_sum "Si O2"
_cell_formula_units_Z 12
_cell_length_a 9.752888
_cell_length_b 12.800131
_cell_length_c 9.269804
_cell_angle_alpha 84.477273
_cell_angle_beta 131.564408
_cell_angle_gamma 128.913397
_cell_volume 562.424837
_symmetry_space_group_name_H-M "P -1"
_symmetry_group_IT_number 2
_symmetry_cell_setting 'triclinic'
loop_
_space_group_symop_operation_xyz
x,y,z
-x,-y,-z
loop_
_atom_site_type_symbol
_atom_site_label
_atom_site_fract_x
_atom_site_fract_y
_atom_site_fract_z
Si Si1 0.627597 0.501030 0.448016
Si Si2 0.024939 0.154773 0.059635
Si Si3 0.634083 0.147501 0.674983
Si Si4 0.019870 0.495006 0.841152
Si Si5 0.930156 0.011976 0.707566
Si Si6 0.599135 0.639420 0.152575
O O1 0.500000 0.500000 0.500000
O O2 0.881285 0.533999 0.660105
O O3 0.697344 0.621336 0.366888
O O4 0.351742 0.316531 0.229159
O O5 0.001403 0.079516 0.201074
O O6 0.843141 0.182296 0.928735
O O7 0.906228 0.041953 0.852647
O O8 0.823464 0.309314 0.694552
O O9 0.500000 0.000000 0.500000
O O10 0.372807 0.100154 0.560462
O O11 0.000000 0.500000 0.000000
O O12 0.331646 0.597039 0.002789
O O13 0.159432 0.183134 0.768693
O O14 0.500000 0.500000 0.000000
#
# Coordination Sequence:
#
# PCOD9087570 Si02
#       6
#     2   2   2   2   2   2
#     4  12  23  42  68  93 132 184 219 265 341 407
#     4  10  19  38  62  90 129 172 214 257 338 397
#     4  10  19  36  64  92 126 175 220 262 330 403
#     4  12  24  43  69  96 134 185 223 268 343 409
#     4  10  21  36  62  94 129 164 213 278 322 382
#     4  12  24  42  65 106 137 162 231 292 319 387
#
# _framework density 21.336185
#
# number of rings (size 3 to 8) (size 9 to 14) (size 15 to 20)
#    0.000    1.000    6.667    1.000    0.000    2.000 
#    0.000    3.333    0.000    4.000    0.000    0.000 
#    0.000    0.000    0.000    0.000    0.000    0.000 
#
# Total GULP energy -66987.914881 kJ/mol
# GULP energy per Si atom -5582.326240 kJ/mol
# Density = 2.128762 g / cm^3
# Si number density = 21.336185 Si / 1000 Ang^3
#
#
#
# Elastic Constant Matrix: (Units=GPa)
#
#
# Indices 1 2 3 4 5 6 
#
# 1 58.5400 23.8478 47.6971 -29.4537 30.3267 -0.9419
# 2 23.8478 163.0785 60.3580 -42.3828 37.8561 16.5311
# 3 47.6971 60.3580 125.7454 -40.5936 54.4771 -3.6649
# 4 -29.4537 -42.3828 -40.5936 49.4993 -18.4276 4.3688
# 5 30.3267 37.8561 54.4771 -18.4276 54.8123 1.4409
# 6 -0.9419 16.5311 -3.6649 4.3688 1.4409 29.0516
#
#
#
# Elastic Compliance Matrix: (Units=1/GPa)
#
#
# Indices 1 2 3 4 5 6 
#
# 1 0.032403 0.003705 -0.004727 0.014892 -0.010694 -0.003363
# 2 0.003705 0.010159 -0.002035 0.008339 -0.004056 -0.006970
# 3 -0.004727 -0.002035 0.017613 0.005226 -0.011807 0.003027
# 4 0.014892 0.008339 0.005226 0.039146 -0.005790 -0.009202
# 5 -0.010694 -0.004056 -0.011807 -0.005790 0.036763 -0.000481
# 6 -0.003363 -0.006970 0.003027 -0.009202 -0.000481 0.040068
#
#
# Mechanical properties :
#
#
# Convention : Reuss Voigt Hill
#
# Bulk Modulus (GPa) = 18.49798 67.90774 43.20286
# Shear Modulus (GPa) = 24.96416 41.03670 33.00043
#
# Velocity S-wave (km/s) = 3.42429 4.39035 3.93706
# Velocity P-wave (km/s) = 4.93183 7.58925 6.39999
#
# Compressibility (1/GPa) = 0.05405996
#
# Stress axis : x y z
#
# Youngs Moduli (GPa) = 30.86121 98.43560 56.77635
#
# Poissons Ratio (x) = -0.36467 0.26837
# Poissons Ratio (y) = -0.11433 0.11556
# Poissons Ratio (z) = 0.14587 0.20036
#
# Static dielectric constant tensor:
#      x y z
#    x 1.583990 0.090790 0.083830 
#    y 0.090790 1.664050 -0.062370 
#    z 0.083830 -0.062370 1.829580 
# 
# From -- ./inp_files/156432.got.cif
#   From: 2010.05.17/outbox.cif.g08.bks.cpg/sg2_79_cif.got.tgz:156432.got - 2010.06.03 11:33:40.
