data_PCOD9087062
_publ_section_title
;
Structure prediction by ZEFSAII (Michael W. Deem and Ramdas Pophale) SiO2 
 PCOD9087062
Probable space group: P -1
;
_chemical_formula_sum "Si O2"
_cell_formula_units_Z 16
_cell_length_a 11.481005
_cell_length_b 11.808138
_cell_length_c 9.280824
_cell_angle_alpha 63.497314
_cell_angle_beta 54.200190
_cell_angle_gamma 62.246691
_cell_volume 876.194038
_symmetry_space_group_name_H-M "P -1"
_symmetry_group_IT_number 2
_symmetry_cell_setting 'triclinic'
loop_
_space_group_symop_operation_xyz
x,y,z
-x,-y,-z
loop_
_atom_site_type_symbol
_atom_site_label
_atom_site_fract_x
_atom_site_fract_y
_atom_site_fract_z
Si Si1 0.052773 0.478569 0.639710
Si Si2 0.536180 0.572132 0.075076
Si Si3 0.743393 0.344578 0.568838
Si Si4 0.247591 0.660577 0.765540
Si Si5 0.784374 0.700073 0.851040
Si Si6 0.937684 0.070521 0.151709
Si Si7 0.080634 0.284300 0.972490
Si Si8 0.956293 0.890460 0.496843
O O1 0.201102 0.524818 0.528438
O O2 0.080933 0.338510 0.779799
O O3 0.000000 0.500000 0.500000
O O4 0.916855 0.577680 0.766820
O O5 0.388895 0.643854 0.230477
O O6 0.639570 0.456460 0.165946
O O7 0.500000 0.500000 0.000000
O O8 0.632782 0.674673 0.919333
O O9 0.703070 0.327022 0.441220
O O10 0.891195 0.226861 0.564060
O O11 0.204617 0.798279 0.808924
O O12 0.082179 0.637897 0.886842
O O13 0.832564 0.827112 0.688466
O O14 0.793755 0.699603 0.018519
O O15 0.908105 0.962949 0.340736
O O16 0.068269 0.135483 0.071327
O O17 0.000000 0.000000 0.000000
O O18 0.000000 0.000000 0.500000
#
# Coordination Sequence:
#
# PCOD9087062 Si02
#       8
#     2   2   2   2   2   2   2   2
#     4  11  20  32  57  90 114 148 205 256 300 340
#     4  12  26  40  57  91 129 161 197 246 316 363
#     4  11  23  37  61  87 120 165 195 249 299 372
#     4  10  20  40  61  86 120 161 200 249 306 362
#     4  11  20  38  63  83 121 161 195 257 294 361
#     4  10  21  34  63  95 120 151 195 266 300 341
#     4  10  19  36  61  91 115 152 204 250 302 350
#     4  11  19  40  66  92 117 147 217 249 297 356
#
# _framework density 18.260795000000002
#
# number of rings (size 3 to 8) (size 9 to 14) (size 15 to 20)
#    0.750    0.500    6.250    2.250    5.250    0.000 
#    0.000    0.625    0.000    0.750    0.000    0.000 
#    0.000    0.000    0.000    0.000    0.000    0.000 
#
# Total GULP energy -89107.673901 kJ/mol
# GULP energy per Si atom -5569.229619 kJ/mol
# Density = 1.821923 g / cm^3
# Si number density = 18.260795 Si / 1000 Ang^3
#
#
#
# Elastic Constant Matrix: (Units=GPa)
#
#
# Indices 1 2 3 4 5 6 
#
# 1 59.7467 20.8561 36.3048 3.6038 -9.9824 17.1646
# 2 20.8561 66.2048 42.4991 -2.0199 -1.8475 8.2009
# 3 36.3048 42.4991 114.7531 -6.9889 -3.8683 10.7826
# 4 3.6038 -2.0199 -6.9889 33.0619 1.0661 5.6185
# 5 -9.9824 -1.8475 -3.8683 1.0661 35.5616 0.1844
# 6 17.1646 8.2009 10.7826 5.6185 0.1844 26.5141
#
#
#
# Elastic Compliance Matrix: (Units=1/GPa)
#
#
# Indices 1 2 3 4 5 6 
#
# 1 0.026457 -0.002685 -0.006025 -0.002260 0.006769 -0.013415
# 2 -0.002685 0.020370 -0.006485 0.000525 -0.000406 -0.002033
# 3 -0.006025 -0.006485 0.013198 0.003091 -0.000685 -0.000111
# 4 -0.002260 0.000525 0.003091 0.032374 -0.001206 -0.006808
# 5 0.006769 -0.000406 -0.000685 -0.001206 0.029981 -0.003931
# 6 -0.013415 -0.002033 -0.000111 -0.006808 -0.003931 0.048545
#
#
# Mechanical properties :
#
#
# Convention : Reuss Voigt Hill
#
# Bulk Modulus (GPa) = 33.74452 48.89161 41.31806
# Shear Modulus (GPa) = 23.67491 28.43048 26.05269
#
# Velocity S-wave (km/s) = 3.60458 3.95005 3.78127
# Velocity P-wave (km/s) = 5.98693 6.90189 6.46063
#
# Compressibility (1/GPa) = 0.02963444
#
# Stress axis : x y z
#
# Youngs Moduli (GPa) = 37.79729 49.09114 75.76958
#
# Poissons Ratio (x) = 0.13183 0.45648
# Poissons Ratio (y) = 0.10150 0.49139
# Poissons Ratio (z) = 0.22772 0.31837
#
# Static dielectric constant tensor:
#      x y z
#    x 1.641800 0.011200 -0.044480 
#    y 0.011200 1.610790 -0.114970 
#    z -0.044480 -0.114970 1.411740 
# 
# From -- ./inp_files/261970.got.cif
#   From: 2010.05.17/outbox.cif.g08.bks.cpg/sg2_131_cif.got.tgz:261970.got - 2010.06.03 11:33:40.
