data_PCOD9087190
_publ_section_title
;
Structure prediction by ZEFSAII (Michael W. Deem and Ramdas Pophale) SiO2 
 PCOD9087190
Probable space group: P -1
;
_chemical_formula_sum "Si O2"
_cell_formula_units_Z 16
_cell_length_a 9.452138
_cell_length_b 11.733951
_cell_length_c 6.958968
_cell_angle_alpha 64.460287
_cell_angle_beta 62.938826
_cell_angle_gamma 67.820665
_cell_volume 604.161406
_symmetry_space_group_name_H-M "P -1"
_symmetry_group_IT_number 2
_symmetry_cell_setting 'triclinic'
loop_
_space_group_symop_operation_xyz
x,y,z
-x,-y,-z
loop_
_atom_site_type_symbol
_atom_site_label
_atom_site_fract_x
_atom_site_fract_y
_atom_site_fract_z
Si Si1 0.350001 0.446964 0.219530
Si Si2 0.232749 0.921404 0.955474
Si Si3 0.168092 0.960409 0.539126
Si Si4 0.609055 0.611991 0.300083
Si Si5 0.250483 0.665874 0.569227
Si Si6 0.925513 0.314748 0.689786
Si Si7 0.611171 0.840224 0.681605
Si Si8 0.250894 0.182213 0.797494
O O1 0.380951 0.408564 0.455704
O O2 0.186402 0.558764 0.238373
O O3 0.330914 0.315643 0.223213
O O4 0.500000 0.500000 0.000000
O O5 0.143541 0.969128 0.776648
O O6 0.424430 0.870455 0.837851
O O7 0.214192 0.050848 0.996237
O O8 0.159964 0.805606 0.156157
O O9 0.235117 0.804795 0.576852
O O10 0.286590 0.061114 0.365785
O O11 0.000000 0.000000 0.500000
O O12 0.416915 0.649930 0.350539
O O13 0.704009 0.475183 0.253005
O O14 0.684573 0.735400 0.142564
O O15 0.089682 0.663562 0.545768
O O16 0.094964 0.271714 0.723996
O O17 0.622605 0.859914 0.426993
#
# Coordination Sequence:
#
# PCOD9087190 Si02
#       8
#     2   2   2   2   2   2   2   2
#     4  10  19  36  62  88 113 145 203 242 281 336
#     4  11  21  39  62  84 117 155 199 235 283 342
#     4  11  22  36  59  86 119 155 189 236 289 343
#     4   9  20  36  61  82 111 154 191 240 280 344
#     4  10  20  37  57  85 116 148 193 228 295 340
#     4  11  23  36  61  89 116 153 187 248 294 330
#     4  10  20  37  63  87 111 158 201 232 275 355
#     4  10  20  36  58  89 114 148 201 238 281 343
#
# _framework density 26.482989
#
# number of rings (size 3 to 8) (size 9 to 14) (size 15 to 20)
#    0.000    1.750    1.250    5.625    0.000    5.500 
#    0.000    3.750    0.000    1.500    0.000    0.000 
#    0.000    0.000    0.000    0.000    0.000    0.000 
#
# Total GULP energy -89546.217874 kJ/mol
# GULP energy per Si atom -5596.638617 kJ/mol
# Density = 2.642271 g / cm^3
# Si number density = 26.482989 Si / 1000 Ang^3
#
#
#
# Elastic Constant Matrix: (Units=GPa)
#
#
# Indices 1 2 3 4 5 6 
#
# 1 122.7978 47.5333 10.0848 -3.6775 -0.2472 13.6721
# 2 47.5333 197.5026 18.3179 -30.7225 -4.4808 29.1969
# 3 10.0848 18.3179 62.4208 -2.0310 1.6010 9.4543
# 4 -3.6775 -30.7225 -2.0310 41.0463 12.4037 -4.2584
# 5 -0.2472 -4.4808 1.6010 12.4037 39.1840 -5.2083
# 6 13.6721 29.1969 9.4543 -4.2584 -5.2083 56.6614
#
#
#
# Elastic Compliance Matrix: (Units=1/GPa)
#
#
# Indices 1 2 3 4 5 6 
#
# 1 0.009110 -0.002110 -0.000721 -0.000906 -0.000008 -0.001059
# 2 -0.002110 0.006784 -0.001078 0.004899 -0.001081 -0.002538
# 3 -0.000721 -0.001078 0.016814 0.000075 -0.001128 -0.002174
# 4 -0.000906 0.004899 0.000075 0.030663 -0.009270 -0.000866
# 5 -0.000008 -0.001081 -0.001128 -0.009270 0.028735 0.002692
# 6 -0.001059 -0.002538 -0.002174 -0.000866 0.002692 0.019757
#
#
# Mechanical properties :
#
#
# Convention : Reuss Voigt Hill
#
# Bulk Modulus (GPa) = 40.18006 59.39925 49.78965
# Shear Modulus (GPa) = 39.06869 47.83067 43.44968
#
# Velocity S-wave (km/s) = 3.84505 4.25442 4.05491
# Velocity P-wave (km/s) = 5.90910 6.82725 6.38470
#
# Compressibility (1/GPa) = 0.02488797
#
# Stress axis : x y z
#
# Youngs Moduli (GPa) = 109.76516 147.41137 59.47457
#
# Poissons Ratio (x) = 0.31108 0.04291
# Poissons Ratio (y) = 0.23163 0.06413
# Poissons Ratio (z) = 0.07919 0.15896
#
# Static dielectric constant tensor:
#      x y z
#    x 2.051180 0.017780 0.014890 
#    y 0.017780 2.126080 -0.022730 
#    z 0.014890 -0.022730 2.218710 
# 
# From -- ./inp_files/251893.got.cif
#   From: 2010.05.17/outbox.cif.g08.bks.cpg/sg2_126_cif.got.tgz:251893.got - 2010.06.03 11:33:40.
