data_PCOD9087862
_publ_section_title
;
Structure prediction by ZEFSAII (Michael W. Deem and Ramdas Pophale) SiO2 
 PCOD9087862
Probable space group: P -1
;
_chemical_formula_sum "Si O2"
_cell_formula_units_Z 12
_cell_length_a 10.935456
_cell_length_b 9.009223
_cell_length_c 7.344345
_cell_angle_alpha 49.280294
_cell_angle_beta 94.596974
_cell_angle_gamma 72.063716
_cell_volume 480.483136
_symmetry_space_group_name_H-M "P -1"
_symmetry_group_IT_number 2
_symmetry_cell_setting 'triclinic'
loop_
_space_group_symop_operation_xyz
x,y,z
-x,-y,-z
loop_
_atom_site_type_symbol
_atom_site_label
_atom_site_fract_x
_atom_site_fract_y
_atom_site_fract_z
Si Si1 0.032321 0.623269 0.565938
Si Si2 0.690045 0.734184 0.182994
Si Si3 0.779666 0.825545 0.655705
Si Si4 0.017708 0.064238 0.240701
Si Si5 0.388278 0.852764 0.929085
Si Si6 0.277486 0.519163 0.229686
O O1 0.186197 0.441681 0.786295
O O2 0.000000 0.500000 0.500000
O O3 0.918113 0.683644 0.660299
O O4 0.034389 0.844364 0.319768
O O5 0.699826 0.593717 0.479141
O O6 0.697665 0.949762 0.091066
O O7 0.543455 0.814698 0.003415
O O8 0.847795 0.897125 0.770975
O O9 0.701856 0.676999 0.750023
O O10 0.680257 0.046672 0.353389
O O11 0.000000 0.000000 0.500000
O O12 0.877614 0.277788 0.990420
O O13 0.376655 0.631121 0.135425
#
# Coordination Sequence:
#
# PCOD9087862 Si02
#       6
#     2   2   2   2   2   2
#     4  11  18  38  55  85 113 138 185 231 272 316
#     4  10  22  34  55  87 112 143 180 230 276 318
#     4  10  21  37  59  82 111 146 184 222 275 326
#     4  10  20  35  57  81 112 146 180 231 270 320
#     4  10  19  37  55  81 114 146 179 226 272 328
#     4  11  18  34  61  79 107 147 191 218 268 335
#
# _framework density 24.974862000000002
#
# number of rings (size 3 to 8) (size 9 to 14) (size 15 to 20)
#    0.000    1.667    6.667    1.000    0.000    0.667 
#    3.000    0.833    0.000    1.000    0.000    0.000 
#    0.000    0.000    0.000    0.000    0.000    0.000 
#
# Total GULP energy -67125.382714 kJ/mol
# GULP energy per Si atom -5593.781893 kJ/mol
# Density = 2.491802 g / cm^3
# Si number density = 24.974862 Si / 1000 Ang^3
#
#
#
# Elastic Constant Matrix: (Units=GPa)
#
#
# Indices 1 2 3 4 5 6 
#
# 1 46.3057 32.8142 13.5461 -11.9544 0.3696 35.9864
# 2 32.8142 74.5237 22.2422 -9.2714 -19.7908 30.2609
# 3 13.5461 22.2422 69.8124 -1.1973 1.9413 -8.8545
# 4 -11.9544 -9.2714 -1.1973 42.1858 17.8931 -10.1546
# 5 0.3696 -19.7908 1.9413 17.8931 56.5242 -14.2737
# 6 35.9864 30.2609 -8.8545 -10.1546 -14.2737 51.8998
#
#
#
# Elastic Compliance Matrix: (Units=1/GPa)
#
#
# Indices 1 2 3 4 5 6 
#
# 1 0.088548 -0.012990 -0.019727 0.017854 -0.025426 -0.060689
# 2 -0.012990 0.024927 -0.006335 -0.003299 0.008858 -0.004818
# 3 -0.019727 -0.006335 0.022783 -0.002563 0.003419 0.021698
# 4 0.017854 -0.003299 -0.002563 0.031592 -0.013298 -0.008369
# 5 -0.025426 0.008858 0.003419 -0.013298 0.029756 0.018631
# 6 -0.060689 -0.004818 0.021698 -0.008369 0.018631 0.071346
#
#
# Mechanical properties :
#
#
# Convention : Reuss Voigt Hill
#
# Bulk Modulus (GPa) = 17.19563 36.42743 26.81153
# Shear Modulus (GPa) = 13.64480 38.25790 25.95135
#
# Velocity S-wave (km/s) = 2.33993 3.91814 3.22700
# Velocity P-wave (km/s) = 3.76835 5.92338 4.96422
#
# Compressibility (1/GPa) = 0.05815431
#
# Stress axis : x y z
#
# Youngs Moduli (GPa) = 11.29334 40.11709 43.89185
#
# Poissons Ratio (x) = 0.52110 0.86586
# Poissons Ratio (y) = 0.14670 0.27806
# Poissons Ratio (z) = 0.22278 0.25415
#
# Static dielectric constant tensor:
#      x y z
#    x 2.062080 -0.024170 -0.040080 
#    y -0.024170 2.056270 0.034060 
#    z -0.040080 0.034060 2.026960 
# 
# From -- ./inp_files/236854.got.cif
#   From: 2010.05.17/outbox.cif.g08.bks.cpg/sg2_119_cif.got.tgz:236854.got - 2010.06.03 11:33:40.
