data_PCOD9087664
_publ_section_title
;
Structure prediction by ZEFSAII (Michael W. Deem and Ramdas Pophale) SiO2 
 PCOD9087664
Probable space group: P -1
;
_chemical_formula_sum "Si O2"
_cell_formula_units_Z 16
_cell_length_a 20.508845
_cell_length_b 20.637370
_cell_length_c 8.971570
_cell_angle_alpha 140.939866
_cell_angle_beta 48.440337
_cell_angle_gamma 160.296641
_cell_volume 764.760952
_symmetry_space_group_name_H-M "P -1"
_symmetry_group_IT_number 2
_symmetry_cell_setting 'triclinic'
loop_
_space_group_symop_operation_xyz
x,y,z
-x,-y,-z
loop_
_atom_site_type_symbol
_atom_site_label
_atom_site_fract_x
_atom_site_fract_y
_atom_site_fract_z
Si Si1 0.347571 0.757662 0.444403
Si Si2 0.823630 0.729606 0.248900
Si Si3 0.732444 0.516929 0.714225
Si Si4 0.584637 0.440876 0.362611
Si Si5 0.678001 0.865752 0.521156
Si Si6 0.012841 0.124081 0.276227
Si Si7 0.980942 0.284603 0.013517
Si Si8 0.383889 0.023741 0.825199
O O1 0.284172 0.609067 0.400352
O O2 0.544993 0.925014 0.358003
O O3 0.377949 0.907803 0.710007
O O4 0.167688 0.562094 0.242205
O O5 0.623939 0.531285 0.302165
O O6 0.922655 0.725314 0.137303
O O7 0.761525 0.639133 0.011217
O O8 0.000000 0.000000 0.500000
O O9 0.523347 0.310706 0.572232
O O10 0.918207 0.723509 0.685368
O O11 0.406446 0.281651 0.464410
O O12 0.799256 0.681663 0.548080
O O13 0.538754 0.271422 0.101513
O O14 0.810937 0.939459 0.340444
O O15 0.830679 0.117270 0.800997
O O16 0.000000 0.000000 0.000000
O O17 0.833062 0.153609 0.141739
#
# Coordination Sequence:
#
# PCOD9087664 Si02
#       8
#     2   2   2   2   2   2   2   2
#     4  10  20  38  62  92 125 156 203 256 310 354
#     4  11  21  41  63  90 126 159 198 265 309 348
#     4  10  23  37  60  94 126 150 205 266 295 355
#     4  10  20  40  62  86 120 158 208 244 301 367
#     4  10  22  40  62  85 120 168 202 244 300 370
#     4  11  22  41  61  83 124 170 201 246 311 364
#     4  10  20  38  62  86 122 159 208 242 298 376
#     4  10  19  36  65  91 117 164 204 249 307 368
#
# _framework density 20.921571
#
# number of rings (size 3 to 8) (size 9 to 14) (size 15 to 20)
#    0.000    1.750    3.750    1.125    0.000    4.000 
#    2.250    9.375    0.000    6.750    0.000    0.000 
#    0.000    0.000    0.000    0.000    0.000    0.000 
#
# Total GULP energy -89251.046392 kJ/mol
# GULP energy per Si atom -5578.190399 kJ/mol
# Density = 2.087395 g / cm^3
# Si number density = 20.921571 Si / 1000 Ang^3
#
#
#
# Elastic Constant Matrix: (Units=GPa)
#
#
# Indices 1 2 3 4 5 6 
#
# 1 50.0837 27.2854 30.6280 2.7068 -2.2431 -17.7403
# 2 27.2854 148.2947 34.7101 -24.4646 -8.6041 -10.0908
# 3 30.6280 34.7101 106.7748 12.5483 -7.8068 -5.0022
# 4 2.7068 -24.4646 12.5483 36.9636 -4.6189 4.6802
# 5 -2.2431 -8.6041 -7.8068 -4.6189 32.7528 6.0860
# 6 -17.7403 -10.0908 -5.0022 4.6802 6.0860 31.1742
#
#
#
# Elastic Compliance Matrix: (Units=1/GPa)
#
#
# Indices 1 2 3 4 5 6 
#
# 1 0.033144 -0.004533 -0.006827 -0.006000 -0.004763 0.018129
# 2 -0.004533 0.009607 -0.002642 0.008187 0.003058 -0.001720
# 3 -0.006827 -0.002642 0.012795 -0.005112 0.001581 -0.002229
# 4 -0.006000 0.008187 -0.005112 0.036632 0.007267 -0.008503
# 5 -0.004763 0.003058 0.001581 0.007267 0.034124 -0.009220
# 6 0.018129 -0.001720 -0.002229 -0.008503 -0.009220 0.044557
#
#
# Mechanical properties :
#
#
# Convention : Reuss Voigt Hill
#
# Bulk Modulus (GPa) = 36.30956 54.48890 45.39923
# Shear Modulus (GPa) = 24.03360 34.34677 29.19019
#
# Velocity S-wave (km/s) = 3.39299 4.05618 3.73932
# Velocity P-wave (km/s) = 5.72212 6.93092 6.35532
#
# Compressibility (1/GPa) = 0.02754095
#
# Stress axis : x y z
#
# Youngs Moduli (GPa) = 30.17160 104.09420 78.15704
#
# Poissons Ratio (x) = 0.47184 0.53362
# Poissons Ratio (y) = 0.13676 0.20648
# Poissons Ratio (z) = 0.20600 0.27500
#
# Static dielectric constant tensor:
#      x y z
#    x 1.773940 -0.026280 0.020710 
#    y -0.026280 1.802320 -0.014930 
#    z 0.020710 -0.014930 1.765370 
# 
# From -- ./inp_files/327147.got.cif
#   From: 2010.05.17/outbox.cif.g08.bks.cpg/sg2_164_cif.got.tgz:327147.got - 2010.06.03 11:33:40.
