data_PCOD9087516
_publ_section_title
;
Structure prediction by ZEFSAII (Michael W. Deem and Ramdas Pophale) SiO2 
 PCOD9087516
Probable space group: P -1
;
_chemical_formula_sum "Si O2"
_cell_formula_units_Z 14
_cell_length_a 10.230424
_cell_length_b 14.956704
_cell_length_c 9.281569
_cell_angle_alpha 67.916030
_cell_angle_beta 119.285652
_cell_angle_gamma 147.532533
_cell_volume 662.904355
_symmetry_space_group_name_H-M "P -1"
_symmetry_group_IT_number 2
_symmetry_cell_setting 'triclinic'
loop_
_space_group_symop_operation_xyz
x,y,z
-x,-y,-z
loop_
_atom_site_type_symbol
_atom_site_label
_atom_site_fract_x
_atom_site_fract_y
_atom_site_fract_z
Si Si1 0.213320 0.638176 0.296142
Si Si2 0.906274 0.274385 0.613357
Si Si3 0.993120 0.129296 0.344935
Si Si4 0.439604 0.080259 0.260986
Si Si5 0.519746 0.125186 0.950361
Si Si6 0.764701 0.579980 0.557695
Si Si7 0.268199 0.108135 0.402143
O O1 0.020023 0.595746 0.323487
O O2 0.249169 0.709217 0.120083
O O3 0.211549 0.522494 0.345091
O O4 0.476870 0.792658 0.436896
O O5 0.695503 0.189344 0.426106
O O6 0.754300 0.113941 0.722189
O O7 0.145832 0.360710 0.596565
O O8 0.033636 0.261623 0.321641
O O9 0.229802 0.200810 0.350641
O O10 0.745647 0.978021 0.205176
O O11 0.958247 0.062794 0.524697
O O12 0.292618 0.085980 0.267214
O O13 0.518381 0.149879 0.101713
O O14 0.500000 0.000000 0.000000
O O15 0.500000 0.500000 0.500000
#
# Coordination Sequence:
#
# PCOD9087516 Si02
#       7
#     2   2   2   2   2   2   2
#     4  10  21  37  61  89 121 148 198 239 300 349
#     4  10  20  37  61  91 114 153 198 250 280 352
#     4  10  20  35  58  84 119 151 201 238 289 341
#     4  10  19  36  64  88 115 145 205 247 295 332
#     4  11  21  36  60  89 117 154 192 249 296 345
#     4  12  22  37  61  89 120 158 196 242 291 351
#     4   9  18  36  59  87 108 153 200 249 275 343
#
# _framework density 21.119187
#
# number of rings (size 3 to 8) (size 9 to 14) (size 15 to 20)
#    0.000    1.714    4.286    1.286    0.000    0.571 
#    0.000    2.857    3.143    1.714    0.000    0.000 
#    0.000    0.000    0.000    0.000    0.000    0.000 
#
# Total GULP energy -78059.324461 kJ/mol
# GULP energy per Si atom -5575.666033 kJ/mol
# Density = 2.107112 g / cm^3
# Si number density = 21.119187 Si / 1000 Ang^3
#
#
#
# Elastic Constant Matrix: (Units=GPa)
#
#
# Indices 1 2 3 4 5 6 
#
# 1 150.8895 30.2201 32.5641 -3.0092 -37.4316 -15.7308
# 2 30.2201 70.7794 13.5958 -11.4846 -19.4766 -23.5038
# 3 32.5641 13.5958 75.9535 -12.5179 -33.7585 -2.4961
# 4 -3.0092 -11.4846 -12.5179 20.9707 1.4250 -3.1005
# 5 -37.4316 -19.4766 -33.7585 1.4250 34.9000 7.6157
# 6 -15.7308 -23.5038 -2.4961 -3.1005 7.6157 37.9895
#
#
#
# Elastic Compliance Matrix: (Units=1/GPa)
#
#
# Indices 1 2 3 4 5 6 
#
# 1 0.009232 -0.000710 0.000762 0.000947 0.009870 0.001533
# 2 -0.000710 0.025138 0.006124 0.018357 0.015369 0.014078
# 3 0.000762 0.006124 0.028537 0.018601 0.030790 0.001325
# 4 0.000947 0.018357 0.018601 0.069453 0.023372 0.013955
# 5 0.009870 0.015369 0.030790 0.023372 0.076151 0.002260
# 6 0.001533 0.014078 0.001325 0.013955 0.002260 0.036441
#
#
# Mechanical properties :
#
#
# Convention : Reuss Voigt Hill
#
# Bulk Modulus (GPa) = 13.28738 50.04247 31.66492
# Shear Modulus (GPa) = 19.40341 33.52155 26.46248
#
# Velocity S-wave (km/s) = 3.03439 3.98836 3.54362
# Velocity P-wave (km/s) = 4.31068 6.70493 5.63640
#
# Compressibility (1/GPa) = 0.07525939
#
# Stress axis : x y z
#
# Youngs Moduli (GPa) = 108.31741 39.78049 35.04201
#
# Poissons Ratio (x) = 0.02823 -0.02670
# Poissons Ratio (y) = 0.07687 -0.21459
# Poissons Ratio (z) = -0.08254 -0.24360
#
# Static dielectric constant tensor:
#      x y z
#    x 1.850120 0.026860 0.016960 
#    y 0.026860 1.862170 0.019630 
#    z 0.016960 0.019630 1.746890 
# 
# From -- ./inp_files/267701.got.cif
#   From: 2010.05.17/outbox.cif.g08.bks.cpg/sg2_134_cif.got.tgz:267701.got - 2010.06.03 11:33:40.
