data_PCOD9087917
_publ_section_title
;
Structure prediction by ZEFSAII (Michael W. Deem and Ramdas Pophale) SiO2 
 PCOD9087917
Probable space group: P -1
;
_chemical_formula_sum "Si O2"
_cell_formula_units_Z 16
_cell_length_a 23.349082
_cell_length_b 9.375408
_cell_length_c 5.451044
_cell_angle_alpha 106.899895
_cell_angle_beta 117.834460
_cell_angle_gamma 47.102509
_cell_volume 772.341056
_symmetry_space_group_name_H-M "P -1"
_symmetry_group_IT_number 2
_symmetry_cell_setting 'triclinic'
loop_
_space_group_symop_operation_xyz
x,y,z
-x,-y,-z
loop_
_atom_site_type_symbol
_atom_site_label
_atom_site_fract_x
_atom_site_fract_y
_atom_site_fract_z
Si Si1 0.801201 0.020519 0.862666
Si Si2 0.649529 0.493789 0.795949
Si Si3 0.235239 0.961942 0.701445
Si Si4 0.145014 0.773483 0.426755
Si Si5 0.951842 0.415669 0.361485
Si Si6 0.794723 0.476446 0.077678
Si Si7 0.587556 0.457937 0.154075
Si Si8 0.990391 0.831864 0.146743
O O1 0.724856 0.255091 0.827263
O O2 0.792169 0.933715 0.560197
O O3 0.792171 0.933713 0.042211
O O4 0.889426 0.978141 0.017928
O O5 0.599441 0.536080 0.465783
O O6 0.694543 0.588827 0.933496
O O7 0.599440 0.536082 0.968047
O O8 0.184748 0.877770 0.558374
O O9 0.334231 0.775648 0.806287
O O10 0.176894 0.644348 0.671140
O O11 0.043348 0.907357 0.290371
O O12 0.176889 0.644367 0.180746
O O13 0.982044 0.293546 0.613567
O O14 0.000000 0.500000 0.500000
O O15 0.849524 0.546785 0.222432
O O16 0.982034 0.293600 0.108056
O O17 0.500000 0.500000 0.000000
#
# Coordination Sequence:
#
# PCOD9087917 Si02
#       8
#     2   2   2   2   2   2   2   2
#     4  10  18  28  42  63  89 116 144 187 201 256
#     4  10  17  30  43  61  93 118 142 177 219 247
#     4  10  17  28  41  57  92 120 139 174 219 238
#     4  10  16  28  40  60  85 114 149 175 205 251
#     4  10  21  35  47  61  85 115 152 194 224 252
#     4  10  16  30  45  61  81 119 150 171 225 253
#     4  10  18  27  42  61  85 123 154 170 202 257
#     4  10  21  30  46  66  82 115 157 178 219 256
#
# _framework density 20.716239000000002
#
# number of rings (size 3 to 8) (size 9 to 14) (size 15 to 20)
#    0.000    2.000    5.000    1.500    0.000    1.000 
#    0.000    0.000    0.000    0.000    0.000    0.000 
#    0.000    0.000    0.000   90.000    0.000    0.000 
#
# Total GULP energy -89228.710574 kJ/mol
# GULP energy per Si atom -5576.794411 kJ/mol
# Density = 2.066909 g / cm^3
# Si number density = 20.716239 Si / 1000 Ang^3
#
#
#
# Elastic Constant Matrix: (Units=GPa)
#
#
# Indices 1 2 3 4 5 6 
#
# 1 150.5447 33.0004 92.6504 1.4059 8.6382 -24.4089
# 2 33.0004 18.0619 27.2550 3.8028 4.3460 -6.4904
# 3 92.6504 27.2550 170.2341 6.0177 -13.5109 -19.2011
# 4 1.4059 3.8028 6.0177 20.9846 -12.9627 4.9084
# 5 8.6382 4.3460 -13.5109 -12.9627 55.3092 -1.4546
# 6 -24.4089 -6.4904 -19.2011 4.9084 -1.4546 28.6199
#
#
#
# Elastic Compliance Matrix: (Units=1/GPa)
#
#
# Indices 1 2 3 4 5 6 
#
# 1 0.013989 -0.016945 -0.004537 0.001396 -0.001510 0.004728
# 2 -0.016945 0.110269 -0.007495 -0.027624 -0.014072 0.009549
# 3 -0.004537 -0.007495 0.009953 0.001010 0.003995 0.001139
# 4 0.001396 -0.027624 0.001010 0.066513 0.017395 -0.014920
# 5 -0.001510 -0.014072 0.003995 0.017395 0.024382 -0.003543
# 6 0.004728 0.009549 0.001139 -0.014920 -0.003543 0.044282
#
#
# Mechanical properties :
#
#
# Convention : Reuss Voigt Hill
#
# Bulk Modulus (GPa) = 13.11351 71.62803 42.37077
# Shear Modulus (GPa) = 14.17394 33.37840 23.77617
#
# Velocity S-wave (km/s) = 2.61855 4.01835 3.39146
# Velocity P-wave (km/s) = 3.93525 7.49536 5.98609
#
# Compressibility (1/GPa) = 0.07625726
#
# Stress axis : x y z
#
# Youngs Moduli (GPa) = 71.48309 9.06875 100.47077
#
# Poissons Ratio (x) = 0.15367 0.45580
# Poissons Ratio (y) = 1.21130 0.75304
# Poissons Ratio (z) = 0.32429 0.06797
#
# Static dielectric constant tensor:
#      x y z
#    x 1.785740 -0.010640 -0.042130 
#    y -0.010640 1.758430 0.012630 
#    z -0.042130 0.012630 1.824950 
# 
# From -- ./inp_files/75815.got.cif
#   From: 2010.05.17/outbox.cif.g08.bks.cpg/sg2_38_cif.got.tgz:75815.got - 2010.06.03 11:33:40.
