data_PCOD9087939
_publ_section_title
;
Structure prediction by ZEFSAII (Michael W. Deem and Ramdas Pophale) SiO2 
 PCOD9087939
Probable space group: P -1
;
_chemical_formula_sum "Si O2"
_cell_formula_units_Z 16
_cell_length_a 10.609999
_cell_length_b 15.114148
_cell_length_c 9.794915
_cell_angle_alpha 68.968662
_cell_angle_beta 51.330866
_cell_angle_gamma 40.887953
_cell_volume 782.719392
_symmetry_space_group_name_H-M "P -1"
_symmetry_group_IT_number 2
_symmetry_cell_setting 'triclinic'
loop_
_space_group_symop_operation_xyz
x,y,z
-x,-y,-z
loop_
_atom_site_type_symbol
_atom_site_label
_atom_site_fract_x
_atom_site_fract_y
_atom_site_fract_z
Si Si1 0.433879 0.424476 0.431163
Si Si2 0.181975 0.142713 0.817676
Si Si3 0.647343 0.345470 0.037210
Si Si4 0.725024 0.104737 0.162795
Si Si5 0.530256 0.793979 0.440830
Si Si6 0.760434 0.113866 0.683674
Si Si7 0.233191 0.082849 0.114420
Si Si8 0.815743 0.287878 0.490006
O O1 0.593176 0.371346 0.220808
O O2 0.328760 0.364026 0.542904
O O3 0.615058 0.357274 0.471883
O O4 0.235511 0.589193 0.479789
O O5 0.325829 0.171872 0.654551
O O6 0.327024 0.982281 0.792682
O O7 0.139646 0.171252 0.992749
O O8 0.922595 0.244368 0.872682
O O9 0.600401 0.251264 0.097533
O O10 0.500000 0.500000 0.000000
O O11 0.673025 0.127924 0.348963
O O12 0.000000 0.000000 0.000000
O O13 0.434092 0.829679 0.330857
O O14 0.766138 0.221131 0.661740
O O15 0.763548 0.032608 0.840143
O O16 0.000000 0.000000 0.500000
O O17 0.066019 0.175400 0.305921
O O18 0.500000 0.000000 0.000000
#
# Coordination Sequence:
#
# PCOD9087939 Si02
#       8
#     2   2   2   2   2   2   2   2
#     4   9  18  36  58  77 110 151 192 230 277 344
#     4  11  21  38  59  83 120 149 185 247 289 339
#     4  10  21  40  59  83 109 152 196 237 286 341
#     4   9  21  37  61  84 110 151 195 236 283 342
#     4  10  19  37  57  84 114 149 186 234 294 329
#     4   9  19  31  55  83 113 146 187 226 276 335
#     4  11  20  35  55  88 120 144 183 236 295 337
#     4   9  18  35  55  80 112 152 189 228 280 338
#
# _framework density 20.441554
#
# number of rings (size 3 to 8) (size 9 to 14) (size 15 to 20)
#    0.000    2.250    2.500    0.375    5.250    1.000 
#    6.750    5.625    0.000    0.000    0.000    0.000 
#    0.000    0.000    0.000    0.000    0.000    0.000 
#
# Total GULP energy -89089.299464 kJ/mol
# GULP energy per Si atom -5568.081216 kJ/mol
# Density = 2.039503 g / cm^3
# Si number density = 20.441554 Si / 1000 Ang^3
#
#
#
# Elastic Constant Matrix: (Units=GPa)
#
#
# Indices 1 2 3 4 5 6 
#
# 1 34.1539 27.4127 17.5636 -7.6763 -17.5851 15.8719
# 2 27.4127 141.5456 48.5095 -16.6628 -28.3991 33.2860
# 3 17.5636 48.5095 96.1520 -19.5618 -15.4826 13.8108
# 4 -7.6763 -16.6628 -19.5618 33.9806 7.2255 -3.0268
# 5 -17.5851 -28.3991 -15.4826 7.2255 28.5828 -6.9379
# 6 15.8719 33.2860 13.8108 -3.0268 -6.9379 34.0037
#
#
#
# Elastic Compliance Matrix: (Units=1/GPa)
#
#
# Indices 1 2 3 4 5 6 
#
# 1 0.053221 0.000701 -0.002329 0.003676 0.026683 -0.018811
# 2 0.000701 0.011927 -0.003250 0.001654 0.007939 -0.008915
# 3 -0.002329 -0.003250 0.013893 0.005544 0.001313 -0.000613
# 4 0.003676 0.001654 0.005544 0.034535 -0.002559 -0.003035
# 5 0.026683 0.007939 0.001313 -0.002559 0.058449 -0.009062
# 6 -0.018811 -0.008915 -0.000613 -0.003035 -0.009062 0.045046
#
#
# Mechanical properties :
#
#
# Convention : Reuss Voigt Hill
#
# Bulk Modulus (GPa) = 14.43320 50.98031 32.70675
# Shear Modulus (GPa) = 20.00632 31.20447 25.60539
#
# Velocity S-wave (km/s) = 3.13183 3.91131 3.54307
# Velocity P-wave (km/s) = 4.48930 6.73732 5.72474
#
# Compressibility (1/GPa) = 0.06928472
#
# Stress axis : x y z
#
# Youngs Moduli (GPa) = 18.78966 83.84332 71.98075
#
# Poissons Ratio (x) = -0.05876 0.16763
# Poissons Ratio (y) = -0.01317 0.23393
# Poissons Ratio (z) = 0.04376 0.27248
#
# Static dielectric constant tensor:
#      x y z
#    x 1.787340 0.023170 0.030590 
#    y 0.023170 1.817020 -0.034250 
#    z 0.030590 -0.034250 1.717020 
# 
# From -- ./inp_files/197961.got.cif
#   From: 2010.05.17/outbox.cif.g08.bks.cpg/sg2_99_cif.got.tgz:197961.got - 2010.06.03 11:33:40.
