data_PCOD9087943
_publ_section_title
;
Structure prediction by ZEFSAII (Michael W. Deem and Ramdas Pophale) SiO2 
 PCOD9087943
Probable space group: P -1
;
_chemical_formula_sum "Si O2"
_cell_formula_units_Z 14
_cell_length_a 5.437820
_cell_length_b 9.784251
_cell_length_c 12.140960
_cell_angle_alpha 130.216081
_cell_angle_beta 91.873948
_cell_angle_gamma 75.138541
_cell_volume 468.971050
_symmetry_space_group_name_H-M "P -1"
_symmetry_group_IT_number 2
_symmetry_cell_setting 'triclinic'
loop_
_space_group_symop_operation_xyz
x,y,z
-x,-y,-z
loop_
_atom_site_type_symbol
_atom_site_label
_atom_site_fract_x
_atom_site_fract_y
_atom_site_fract_z
Si Si1 0.008884 0.276027 0.828272
Si Si2 0.692253 0.128538 0.475477
Si Si3 0.002786 0.796456 0.951663
Si Si4 0.841619 0.350877 0.423464
Si Si5 0.514013 0.719574 0.803474
Si Si6 0.500441 0.695062 0.205810
Si Si7 0.357228 0.049824 0.242793
O O1 0.199028 0.387537 0.847741
O O2 0.721325 0.398502 0.856281
O O3 0.106401 0.079367 0.654196
O O4 0.040481 0.211231 0.921672
O O5 0.808710 0.287934 0.515177
O O6 0.570010 0.182562 0.620285
O O7 0.461919 0.143729 0.394449
O O8 0.803930 0.695585 0.840798
O O9 0.309197 0.696184 0.877221
O O10 0.000000 0.000000 0.000000
O O11 0.591069 0.378886 0.354171
O O12 0.000000 0.500000 0.500000
O O13 0.057432 0.161317 0.284102
O O14 0.488830 0.920526 0.846814
O O15 0.420695 0.841719 0.178902
#
# Coordination Sequence:
#
# PCOD9087943 Si02
#       7
#     2   2   2   2   2   2   2
#     4  11  21  34  56  88 121 156 189 233 295 367
#     4  10  22  35  58  87 124 155 189 245 299 355
#     4  12  21  36  56  85 122 162 194 234 296 362
#     4  11  23  40  62  88 119 159 205 248 292 347
#     4  11  23  38  56  83 123 159 197 244 290 349
#     4  11  21  35  58  87 124 155 183 241 304 358
#     4  10  19  37  57  84 121 151 192 238 304 349
#
# _framework density 29.852588999999998
#
# number of rings (size 3 to 8) (size 9 to 14) (size 15 to 20)
#    0.000    1.143    2.857    6.857    2.000    2.286 
#    0.000    0.000    0.000    0.000    0.000    6.000 
#    0.000    0.000    0.000    0.000    0.000    0.000 
#
# Total GULP energy -78275.889421 kJ/mol
# GULP energy per Si atom -5591.134959 kJ/mol
# Density = 2.978464 g / cm^3
# Si number density = 29.852589 Si / 1000 Ang^3
#
#
#
# Elastic Constant Matrix: (Units=GPa)
#
#
# Indices 1 2 3 4 5 6 
#
# 1 280.5057 63.6029 66.4692 -18.7529 15.5651 25.4109
# 2 63.6029 132.6750 33.5680 -5.5955 -11.5405 25.3330
# 3 66.4692 33.5680 169.1069 -34.6279 12.7035 30.4287
# 4 -18.7529 -5.5955 -34.6279 51.3376 19.0211 -9.6191
# 5 15.5651 -11.5405 12.7035 19.0211 54.0050 -4.8990
# 6 25.4109 25.3330 30.4287 -9.6191 -4.8990 57.3653
#
#
#
# Elastic Compliance Matrix: (Units=1/GPa)
#
#
# Indices 1 2 3 4 5 6 
#
# 1 0.004470 -0.001946 -0.000776 0.001569 -0.002131 -0.000628
# 2 -0.001946 0.009551 -0.001409 -0.002444 0.003548 -0.002715
# 3 -0.000776 -0.001409 0.008756 0.006676 -0.004758 -0.002965
# 4 0.001569 -0.002444 0.006676 0.029132 -0.012747 0.000639
# 5 -0.002131 0.003548 -0.004758 -0.012747 0.025675 0.001956
# 6 -0.000628 -0.002715 -0.002965 0.000639 0.001956 0.020756
#
#
# Mechanical properties :
#
#
# Convention : Reuss Voigt Hill
#
# Bulk Modulus (GPa) = 68.89932 101.06310 84.98121
# Shear Modulus (GPa) = 44.86655 60.45143 52.65899
#
# Velocity S-wave (km/s) = 3.88098 4.50488 4.20452
# Velocity P-wave (km/s) = 6.57363 7.80936 7.21799
#
# Compressibility (1/GPa) = 0.01451393
#
# Stress axis : x y z
#
# Youngs Moduli (GPa) = 223.70267 104.70656 114.20227
#
# Poissons Ratio (x) = 0.20374 0.08867
# Poissons Ratio (y) = 0.43529 0.16095
# Poissons Ratio (z) = 0.17369 0.14756
#
# Static dielectric constant tensor:
#      x y z
#    x 2.514560 -0.043250 -0.060960 
#    y -0.043250 2.326830 0.113140 
#    z -0.060960 0.113140 2.454870 
# 
# From -- ./inp_files/365194.got.cif
#   From: 2010.05.17/outbox.cif.g08.bks.cpg/sg2_183_cif.got.tgz:365194.got - 2010.06.03 11:33:40.
