data_PCOD9087370
_publ_section_title
;
Structure prediction by ZEFSAII (Michael W. Deem and Ramdas Pophale) SiO2 
 PCOD9087370
Probable space group: P -1
;
_chemical_formula_sum "Si O2"
_cell_formula_units_Z 16
_cell_length_a 20.872365
_cell_length_b 9.077815
_cell_length_c 11.617001
_cell_angle_alpha 111.297275
_cell_angle_beta 28.842425
_cell_angle_gamma 93.216880
_cell_volume 803.792783
_symmetry_space_group_name_H-M "P -1"
_symmetry_group_IT_number 2
_symmetry_cell_setting 'triclinic'
loop_
_space_group_symop_operation_xyz
x,y,z
-x,-y,-z
loop_
_atom_site_type_symbol
_atom_site_label
_atom_site_fract_x
_atom_site_fract_y
_atom_site_fract_z
Si Si1 0.821406 0.139371 0.373373
Si Si2 0.609596 0.364190 0.550308
Si Si3 0.362528 0.730297 0.761752
Si Si4 0.900697 0.333697 0.764381
Si Si5 0.251200 0.008805 0.203239
Si Si6 0.773426 0.311875 0.731553
Si Si7 0.821269 0.508334 0.169468
Si Si8 0.195330 0.176636 0.563713
O O1 0.696907 0.262231 0.502167
O O2 0.825482 0.267836 0.504639
O O3 0.776453 0.004025 0.463379
O O4 0.000000 0.000000 0.000000
O O5 0.633135 0.228140 0.367101
O O6 0.695208 0.462566 0.394957
O O7 0.419217 0.523678 0.913960
O O8 0.500000 0.500000 0.500000
O O9 0.191351 0.761304 0.070171
O O10 0.378403 0.860546 0.865282
O O11 0.855526 0.371759 0.712024
O O12 0.093242 0.184591 0.436126
O O13 0.832960 0.508833 0.012252
O O14 0.293943 0.097690 0.265313
O O15 0.198481 0.884518 0.318089
O O16 0.775252 0.697787 0.363142
O O17 0.003266 0.325494 0.871160
#
# Coordination Sequence:
#
# PCOD9087370 Si02
#       8
#     2   2   2   2   2   2   2   2
#     4  11  22  34  52  76 103 140 176 213 258 307
#     4  11  20  32  52  82 104 136 168 215 265 311
#     4  10  16  27  48  77 105 125 162 218 257 294
#     4   9  17  29  51  77  99 133 173 219 254 300
#     4   9  17  29  49  75 104 131 173 213 259 295
#     4  10  19  32  49  74 111 133 167 217 262 304
#     4   9  18  32  58  78 103 135 177 211 263 306
#     4   9  18  36  52  77 107 139 171 219 250 308
#
# _framework density 19.905626999999999
#
# number of rings (size 3 to 8) (size 9 to 14) (size 15 to 20)
#    0.000    2.250    3.750    1.875    3.500    0.000 
#    0.000    2.500    0.000    3.000    0.000    0.000 
#    0.000    0.000    0.000    0.000    0.000    0.000 
#
# Total GULP energy -89172.334426 kJ/mol
# GULP energy per Si atom -5573.270902 kJ/mol
# Density = 1.986032 g / cm^3
# Si number density = 19.905627 Si / 1000 Ang^3
#
#
#
# Elastic Constant Matrix: (Units=GPa)
#
#
# Indices 1 2 3 4 5 6 
#
# 1 209.4451 41.2197 65.3554 24.2468 47.5626 -13.2108
# 2 41.2197 16.8185 14.5874 9.7584 4.1650 -0.5132
# 3 65.3554 14.5874 81.8190 15.4928 33.0487 -5.0046
# 4 24.2468 9.7584 15.4928 14.6708 -0.0207 5.4055
# 5 47.5626 4.1650 33.0487 -0.0207 43.3981 9.5409
# 6 -13.2108 -0.5132 -5.0046 5.4055 9.5409 26.7272
#
#
#
# Elastic Compliance Matrix: (Units=1/GPa)
#
#
# Indices 1 2 3 4 5 6 
#
# 1 0.026935 -0.034149 0.019473 -0.059646 -0.051368 0.046704
# 2 -0.034149 0.161155 -0.011531 -0.030209 0.035689 -0.022575
# 3 0.019473 -0.011531 0.054068 -0.106948 -0.076514 0.068471
# 4 -0.059646 -0.030209 -0.106948 0.371512 0.192531 -0.193953
# 5 -0.051368 0.035689 -0.076514 0.192531 0.164310 -0.136625
# 6 0.046704 -0.022575 0.068471 -0.193953 -0.136625 0.160886
#
#
# Mechanical properties :
#
#
# Convention : Reuss Voigt Hill
#
# Bulk Modulus (GPa) = 5.27026 61.15640 33.21333
# Shear Modulus (GPa) = 4.74146 29.42055 17.08101
#
# Velocity S-wave (km/s) = 1.54504 3.84865 2.93251
# Velocity P-wave (km/s) = 2.41583 7.10910 5.30922
#
# Compressibility (1/GPa) = 0.18974402
#
# Stress axis : x y z
#
# Youngs Moduli (GPa) = 37.12667 6.20520 18.49519
#
# Poissons Ratio (x) = 0.21190 -0.36016
# Poissons Ratio (y) = 1.26785 0.21327
# Poissons Ratio (z) = -0.72297 0.07155
#
# Static dielectric constant tensor:
#      x y z
#    x 1.805900 0.031740 0.036810 
#    y 0.031740 1.875780 -0.049990 
#    z 0.036810 -0.049990 1.735330 
# 
# From -- ./inp_files/189229.got.cif
#   From: 2010.05.17/outbox.cif.g08.bks.cpg/sg2_95_cif.got.tgz:189229.got - 2010.06.03 11:33:40.
