data_PCOD9087542
_publ_section_title
;
Structure prediction by ZEFSAII (Michael W. Deem and Ramdas Pophale) SiO2 
 PCOD9087542
Probable space group: P -1
;
_chemical_formula_sum "Si O2"
_cell_formula_units_Z 16
_cell_length_a 28.160892
_cell_length_b 5.726768
_cell_length_c 16.613569
_cell_angle_alpha 63.076786
_cell_angle_beta 163.165356
_cell_angle_gamma 110.984752
_cell_volume 661.800776
_symmetry_space_group_name_H-M "P -1"
_symmetry_group_IT_number 2
_symmetry_cell_setting 'triclinic'
loop_
_space_group_symop_operation_xyz
x,y,z
-x,-y,-z
loop_
_atom_site_type_symbol
_atom_site_label
_atom_site_fract_x
_atom_site_fract_y
_atom_site_fract_z
Si Si1 0.299253 0.126935 0.124939
Si Si2 0.934103 0.763411 0.127798
Si Si3 0.801061 0.767380 0.408698
Si Si4 0.018100 0.694072 0.926873
Si Si5 0.398920 0.783893 0.893340
Si Si6 0.419276 0.762202 0.749153
Si Si7 0.322253 0.289969 0.411941
Si Si8 0.625901 0.337553 0.801665
O O1 0.275341 0.453430 0.037685
O O2 0.500000 0.000000 0.500000
O O3 0.283421 0.955963 0.046178
O O4 0.150988 0.096917 0.949532
O O5 0.066555 0.457445 0.397041
O O6 0.999670 0.983989 0.148408
O O7 0.772339 0.727702 0.821999
O O8 0.883671 0.656900 0.646922
O O9 0.748754 0.092857 0.300446
O O10 0.614569 0.773355 0.073949
O O11 0.210869 0.565238 0.228520
O O12 0.000000 0.500000 0.000000
O O13 0.348764 0.727377 0.728960
O O14 0.545175 0.515453 0.200386
O O15 0.500000 0.000000 0.000000
O O16 0.315435 0.035374 0.495345
O O17 0.511376 0.287069 0.697025
O O18 0.500000 0.500000 0.500000
#
# Coordination Sequence:
#
# PCOD9087542 Si02
#       8
#     2   2   2   2   2   2   2   2
#     4  10  19  36  64  90 124 158 208 262 323 386
#     4  11  23  37  61  90 121 162 205 258 320 381
#     4  10  22  38  57  83 118 166 201 248 308 378
#     4  11  24  38  56  89 130 164 205 257 312 377
#     4   9  19  37  58  80 111 166 209 250 295 366
#     4  10  21  38  59  85 119 160 213 253 307 370
#     4  11  23  36  62  95 120 156 208 266 319 373
#     4  10  19  37  62  95 123 159 203 269 328 380
#
# _framework density 24.176459000000001
#
# number of rings (size 3 to 8) (size 9 to 14) (size 15 to 20)
#    0.000    1.750    2.500    3.000    1.750    9.000 
#    0.000    0.000    0.000    1.500    0.000    0.000 
#    0.000    0.000    0.000    0.000    0.000    0.000 
#
# Total GULP energy -89082.350158 kJ/mol
# GULP energy per Si atom -5567.646885 kJ/mol
# Density = 2.412143 g / cm^3
# Si number density = 24.176459 Si / 1000 Ang^3
#
#
#
# Elastic Constant Matrix: (Units=GPa)
#
#
# Indices 1 2 3 4 5 6 
#
# 1 66.1030 24.0889 25.0924 -13.4913 35.0021 -5.1648
# 2 24.0889 127.2152 19.4267 -28.9589 18.8805 -13.3108
# 3 25.0924 19.4267 88.2802 -19.6721 27.4212 -14.8111
# 4 -13.4913 -28.9589 -19.6721 39.9610 -13.4317 8.3566
# 5 35.0021 18.8805 27.4212 -13.4317 31.0350 -3.6978
# 6 -5.1648 -13.3108 -14.8111 8.3566 -3.6978 30.8499
#
#
#
# Elastic Compliance Matrix: (Units=1/GPa)
#
#
# Indices 1 2 3 4 5 6 
#
# 1 0.038759 -0.001168 0.003806 -0.002275 -0.047017 0.002793
# 2 -0.001168 0.009928 0.000625 0.005742 -0.002487 0.002534
# 3 0.003806 0.000625 0.017428 0.002929 -0.018051 0.006317
# 4 -0.002275 0.005742 0.002929 0.034455 0.010857 -0.004529
# 5 -0.047017 -0.002487 -0.018051 0.010857 0.106482 -0.007789
# 6 0.002793 0.002534 0.006317 -0.004529 -0.007789 0.037302
#
#
# Mechanical properties :
#
#
# Convention : Reuss Voigt Hill
#
# Bulk Modulus (GPa) = 13.76651 46.53494 30.15072
# Shear Modulus (GPa) = 19.08097 34.56855 26.82476
#
# Velocity S-wave (km/s) = 2.81238 3.78543 3.33459
# Velocity P-wave (km/s) = 4.03145 6.19643 5.22725
#
# Compressibility (1/GPa) = 0.07264008
#
# Stress axis : x y z
#
# Youngs Moduli (GPa) = 25.80070 100.72697 57.38042
#
# Poissons Ratio (x) = 0.11765 -0.21842
# Poissons Ratio (y) = 0.03013 -0.03584
# Poissons Ratio (z) = -0.09821 -0.06291
#
# Static dielectric constant tensor:
#      x y z
#    x 2.013750 -0.077430 0.035720 
#    y -0.077430 2.207700 0.020960 
#    z 0.035720 0.020960 1.949650 
# 
# From -- ./inp_files/580040.got.cif
#   From: 2010.05.17/outbox.cif.g08.bks.cpg/sg2_291_cif.got.tgz:580040.got - 2010.06.03 11:33:40.
