data_PCOD9087010
_publ_section_title
;
Structure prediction by ZEFSAII (Michael W. Deem and Ramdas Pophale) SiO2 
 PCOD9087010
Probable space group: P -1
;
_chemical_formula_sum "Si O2"
_cell_formula_units_Z 16
_cell_length_a 7.453621
_cell_length_b 11.424636
_cell_length_c 8.717880
_cell_angle_alpha 63.708219
_cell_angle_beta 69.304675
_cell_angle_gamma 91.178382
_cell_volume 608.585191
_symmetry_space_group_name_H-M "P -1"
_symmetry_group_IT_number 2
_symmetry_cell_setting 'triclinic'
loop_
_space_group_symop_operation_xyz
x,y,z
-x,-y,-z
loop_
_atom_site_type_symbol
_atom_site_label
_atom_site_fract_x
_atom_site_fract_y
_atom_site_fract_z
Si Si1 0.303729 0.464458 0.759397
Si Si2 0.988396 0.201992 0.589207
Si Si3 0.762779 0.512307 0.573322
Si Si4 0.664800 0.839767 0.058054
Si Si5 0.567039 0.123626 0.609401
Si Si6 0.769258 0.232496 0.896323
Si Si7 0.365861 0.692292 0.810821
Si Si8 0.274492 0.132390 0.299493
O O1 0.537115 0.521418 0.643631
O O2 0.203050 0.497707 0.614048
O O3 0.289316 0.306877 0.858228
O O4 0.260110 0.544453 0.875878
O O5 0.111231 0.353165 0.474258
O O6 0.109649 0.130500 0.477458
O O7 0.770619 0.189040 0.595383
O O8 0.934019 0.167331 0.804766
O O9 0.783852 0.381560 0.736245
O O10 0.621230 0.884675 0.217489
O O11 0.448616 0.841218 0.048374
O O12 0.796298 0.899509 0.836723
O O13 0.571284 0.221647 0.409750
O O14 0.601924 0.979685 0.635528
O O15 0.775473 0.248153 0.067266
O O16 0.573843 0.721808 0.823240
#
# Coordination Sequence:
#
# PCOD9087010 Si02
#       8
#     2   2   2   2   2   2   2   2
#     4  10  19  36  63  95 118 148 202 257 297 353
#     4  11  22  40  60  88 122 163 199 245 307 350
#     4  10  19  36  61  88 122 161 192 244 309 360
#     4   9  21  38  65  90 117 156 205 249 299 357
#     4  11  23  43  61  87 126 161 201 251 295 353
#     4   9  21  36  59  88 127 158 191 243 309 363
#     4  11  22  40  63  93 121 159 204 246 295 361
#     4  11  23  40  66  89 117 164 209 243 293 357
#
# _framework density 26.290488
#
# number of rings (size 3 to 8) (size 9 to 14) (size 15 to 20)
#    0.000    1.750    1.250    4.500    1.750    1.500 
#    2.250    1.875    0.000    0.000    0.000    0.000 
#    0.000    0.000    0.000    0.000    0.000    0.000 
#
# Total GULP energy -89387.724148 kJ/mol
# GULP energy per Si atom -5586.732759 kJ/mol
# Density = 2.623065 g / cm^3
# Si number density = 26.290488 Si / 1000 Ang^3
#
#
#
# Elastic Constant Matrix: (Units=GPa)
#
#
# Indices 1 2 3 4 5 6 
#
# 1 62.2410 16.6000 19.7250 9.6580 -12.2320 7.3652
# 2 16.6000 145.1716 56.8773 34.4562 -7.0900 -6.8636
# 3 19.7250 56.8773 157.6972 46.2924 -9.9283 -37.1927
# 4 9.6580 34.4562 46.2924 59.2472 -13.0600 -9.8931
# 5 -12.2320 -7.0900 -9.9283 -13.0600 33.1747 2.3135
# 6 7.3652 -6.8636 -37.1927 -9.8931 2.3135 38.1436
#
#
#
# Elastic Compliance Matrix: (Units=1/GPa)
#
#
# Indices 1 2 3 4 5 6 
#
# 1 0.019653 -0.000947 -0.003651 0.000354 0.006637 -0.007836
# 2 -0.000947 0.008633 -0.002377 -0.003342 -0.000432 -0.001422
# 3 -0.003651 -0.002377 0.011669 -0.005721 -0.001329 0.010252
# 4 0.000354 -0.003342 -0.005721 0.024845 0.007503 -0.000260
# 5 0.006637 -0.000432 -0.001329 0.007503 0.035253 -0.002847
# 6 -0.007836 -0.001422 0.010252 -0.000260 -0.002847 0.037576
#
#
# Mechanical properties :
#
#
# Convention : Reuss Voigt Hill
#
# Bulk Modulus (GPa) = 38.45423 61.27939 49.86681
# Shear Modulus (GPa) = 31.20215 44.24027 37.72121
#
# Velocity S-wave (km/s) = 3.44877 4.10658 3.79197
# Velocity P-wave (km/s) = 5.52423 6.77086 6.17906
#
# Compressibility (1/GPa) = 0.02600494
#
# Stress axis : x y z
#
# Youngs Moduli (GPa) = 50.88333 115.83850 85.69888
#
# Poissons Ratio (x) = 0.10974 0.31286
# Poissons Ratio (y) = 0.04820 0.20367
# Poissons Ratio (z) = 0.18576 0.27530
#
# Static dielectric constant tensor:
#      x y z
#    x 2.088200 0.066180 -0.010000 
#    y 0.066180 2.174450 0.064200 
#    z -0.010000 0.064200 2.163940 
# 
# From -- ./inp_files/185766.got.cif
#   From: 2010.05.17/outbox.cif.g08.bks.cpg/sg2_93_cif.got.tgz:185766.got - 2010.06.03 11:33:40.
