data_PCOD9087387
_publ_section_title
;
Structure prediction by ZEFSAII (Michael W. Deem and Ramdas Pophale) SiO2 
 PCOD9087387
Probable space group: P -1
;
_chemical_formula_sum "Si O2"
_cell_formula_units_Z 16
_cell_length_a 11.978505
_cell_length_b 11.236368
_cell_length_c 10.699289
_cell_angle_alpha 94.313017
_cell_angle_beta 112.878795
_cell_angle_gamma 141.550641
_cell_volume 617.819435
_symmetry_space_group_name_H-M "P -1"
_symmetry_group_IT_number 2
_symmetry_cell_setting 'triclinic'
loop_
_space_group_symop_operation_xyz
x,y,z
-x,-y,-z
loop_
_atom_site_type_symbol
_atom_site_label
_atom_site_fract_x
_atom_site_fract_y
_atom_site_fract_z
Si Si1 0.631383 0.774916 0.787970
Si Si2 0.999509 0.042711 0.183143
Si Si3 0.201234 0.492484 0.712347
Si Si4 0.313235 0.950847 0.424443
Si Si5 0.298015 0.539407 0.261956
Si Si6 0.179432 0.793916 0.093662
Si Si7 0.406544 0.204244 0.853007
Si Si8 0.355997 0.895192 0.798868
O O1 0.780696 0.865228 0.735241
O O2 0.326804 0.517516 0.661304
O O3 0.702094 0.973192 0.866874
O O4 0.779901 0.829569 0.963985
O O5 0.159955 0.302626 0.239417
O O6 0.821499 0.902088 0.216517
O O7 0.206363 0.640348 0.696311
O O8 0.896767 0.206934 0.573818
O O9 0.381911 0.621218 0.925257
O O10 0.121891 0.760465 0.209851
O O11 0.500000 0.000000 0.500000
O O12 0.516227 0.234987 0.541267
O O13 0.448515 0.646194 0.204071
O O14 0.067210 0.431233 0.118047
O O15 0.407699 0.900172 0.180464
O O16 0.263916 0.950136 0.769873
O O17 0.500000 0.000000 0.000000
#
# Coordination Sequence:
#
# PCOD9087387 Si02
#       8
#     2   2   2   2   2   2   2   2
#     4   8  17  40  67  86 120 164 204 260 308 361
#     4   9  19  38  65  97 118 158 219 252 303 372
#     4   9  19  38  58  86 125 160 203 254 308 362
#     4  12  26  37  58  97 127 162 208 248 306 377
#     4  11  23  40  62  92 128 162 205 258 303 368
#     4  10  21  42  63  87 125 164 202 253 318 356
#     4  10  19  36  63  89 123 165 201 253 313 361
#     4   9  18  33  63  86 113 167 201 246 310 363
#
# _framework density 25.897535999999999
#
# number of rings (size 3 to 8) (size 9 to 14) (size 15 to 20)
#    0.000    2.250    1.250    3.000    5.250    1.000 
#    6.750    6.875    0.000    0.000    0.000    0.000 
#    0.000    0.000    0.000    0.000    0.000    0.000 
#
# Total GULP energy -89261.466389 kJ/mol
# GULP energy per Si atom -5578.841649 kJ/mol
# Density = 2.583859 g / cm^3
# Si number density = 25.897536 Si / 1000 Ang^3
#
#
#
# Elastic Constant Matrix: (Units=GPa)
#
#
# Indices 1 2 3 4 5 6 
#
# 1 118.4920 5.6217 40.9709 10.1750 19.0442 39.0266
# 2 5.6217 44.9174 10.0745 11.7433 5.2739 18.3145
# 3 40.9709 10.0745 87.1336 5.8105 19.8015 -7.4573
# 4 10.1750 11.7433 5.8105 35.9545 8.4127 -2.4323
# 5 19.0442 5.2739 19.8015 8.4127 28.1560 14.2381
# 6 39.0266 18.3145 -7.4573 -2.4323 14.2381 45.2704
#
#
#
# Elastic Compliance Matrix: (Units=1/GPa)
#
#
# Indices 1 2 3 4 5 6 
#
# 1 0.029620 0.024034 -0.024672 -0.020904 0.023204 -0.047743
# 2 0.024034 0.054050 -0.027909 -0.031567 0.032579 -0.059125
# 3 -0.024672 -0.027909 0.037766 0.022264 -0.037473 0.051763
# 4 -0.020904 -0.031567 0.022264 0.052069 -0.035678 0.048478
# 5 0.023204 0.032579 -0.037473 -0.035678 0.085147 -0.068053
# 6 -0.047743 -0.059125 0.051763 0.048478 -0.068053 0.119702
#
#
# Mechanical properties :
#
#
# Convention : Reuss Voigt Hill
#
# Bulk Modulus (GPa) = 15.54190 40.43082 27.98636
# Shear Modulus (GPa) = 10.94343 34.80125 22.87234
#
# Velocity S-wave (km/s) = 2.05787 3.66977 2.97507
# Velocity P-wave (km/s) = 3.41479 5.79673 4.75725
#
# Compressibility (1/GPa) = 0.06434218
#
# Stress axis : x y z
#
# Youngs Moduli (GPa) = 33.76053 18.50135 26.47913
#
# Poissons Ratio (x) = -0.44466 0.65329
# Poissons Ratio (y) = -0.81140 0.73901
# Poissons Ratio (z) = 0.83293 0.51635
#
# Static dielectric constant tensor:
#      x y z
#    x 1.801950 -0.343890 0.361330 
#    y -0.343890 1.537280 0.548060 
#    z 0.361330 0.548060 1.445210 
# 
# From -- ./inp_files/376136.got.cif
#   From: 2010.05.17/outbox.cif.g08.bks.cpg/sg2_189_cif.got.tgz:376136.got - 2010.06.03 11:33:40.
