data_PCOD9087105
_publ_section_title
;
Structure prediction by ZEFSAII (Michael W. Deem and Ramdas Pophale) SiO2 
 PCOD9087105
Probable space group: P -1
;
_chemical_formula_sum "Si O2"
_cell_formula_units_Z 16
_cell_length_a 9.774708
_cell_length_b 9.040745
_cell_length_c 11.703061
_cell_angle_alpha 127.558905
_cell_angle_beta 128.273675
_cell_angle_gamma 76.307818
_cell_volume 626.920175
_symmetry_space_group_name_H-M "P -1"
_symmetry_group_IT_number 2
_symmetry_cell_setting 'triclinic'
loop_
_space_group_symop_operation_xyz
x,y,z
-x,-y,-z
loop_
_atom_site_type_symbol
_atom_site_label
_atom_site_fract_x
_atom_site_fract_y
_atom_site_fract_z
Si Si1 0.522810 0.294069 0.601376
Si Si2 0.572528 0.313422 0.259896
Si Si3 0.184917 0.090967 0.954919
Si Si4 0.941660 0.297224 0.438757
Si Si5 0.449185 0.692674 0.017470
Si Si6 0.742383 0.852890 0.386030
Si Si7 0.107910 0.797071 0.234632
Si Si8 0.730646 0.011838 0.817868
O O1 0.482401 0.494242 0.638954
O O2 0.406880 0.218300 0.622102
O O3 0.734904 0.316615 0.738810
O O4 0.446021 0.135889 0.390695
O O5 0.401266 0.139614 0.088188
O O6 0.755215 0.295350 0.404027
O O7 0.612140 0.341067 0.158500
O O8 0.170647 0.086493 0.082668
O O9 0.104475 0.251904 0.921547
O O10 0.105538 0.886516 0.757560
O O11 0.000000 0.500000 0.500000
O O12 0.109627 0.272205 0.588684
O O13 0.639328 0.839012 0.207455
O O14 0.312417 0.794828 0.060921
O O15 0.500000 0.500000 0.000000
O O16 0.847872 0.065498 0.569808
O O17 0.156585 0.930377 0.210102
#
# Coordination Sequence:
#
# PCOD9087105 Si02
#       8
#     2   2   2   2   2   2   2   2
#     4  11  20  40  65  91 124 169 206 265 317 364
#     4  12  25  42  64  93 138 164 206 267 326 374
#     4  11  26  41  62  97 132 170 205 264 326 372
#     4  11  21  40  64  90 125 168 210 256 310 380
#     4  12  20  37  65  97 123 165 216 261 313 373
#     4  10  19  36  61  96 118 156 214 265 301 362
#     4  10  20  40  64  92 123 165 216 258 309 375
#     4  11  21  39  67  91 128 165 219 261 310 379
#
# _framework density 25.521591999999998
#
# number of rings (size 3 to 8) (size 9 to 14) (size 15 to 20)
#    0.000    1.000    6.250    1.500    0.000    1.000 
#    0.000    3.750    0.000    0.000    0.000    0.000 
#    0.000    0.000    0.000    0.000    0.000    0.000 
#
# Total GULP energy -89396.442969 kJ/mol
# GULP energy per Si atom -5587.277686 kJ/mol
# Density = 2.546350 g / cm^3
# Si number density = 25.521592 Si / 1000 Ang^3
#
#
#
# Elastic Constant Matrix: (Units=GPa)
#
#
# Indices 1 2 3 4 5 6 
#
# 1 54.8463 25.7726 7.2382 -0.0546 11.5164 -21.3187
# 2 25.7726 106.1696 29.3361 -9.6001 5.7231 -38.8635
# 3 7.2382 29.3361 86.1958 -2.3858 9.5157 -4.3089
# 4 -0.0546 -9.6001 -2.3858 52.8397 -11.1650 11.9306
# 5 11.5164 5.7231 9.5157 -11.1650 35.7309 -7.7404
# 6 -21.3187 -38.8635 -4.3089 11.9306 -7.7404 42.7985
#
#
#
# Elastic Compliance Matrix: (Units=1/GPa)
#
#
# Indices 1 2 3 4 5 6 
#
# 1 0.024641 -0.002212 -0.000191 -0.004081 -0.006605 0.010189
# 2 -0.002212 0.016101 -0.004883 0.000181 0.002396 0.013410
# 3 -0.000191 -0.004883 0.013486 -0.000193 -0.003625 -0.003774
# 4 -0.004081 0.000181 -0.000193 0.021893 0.006711 -0.006777
# 5 -0.006605 0.002396 -0.003625 0.006711 0.033376 0.002686
# 6 0.010189 0.013410 -0.003774 -0.006777 0.002686 0.042613
#
#
# Mechanical properties :
#
#
# Convention : Reuss Voigt Hill
#
# Bulk Modulus (GPa) = 25.21715 41.32285 33.27000
# Shear Modulus (GPa) = 27.79298 38.59813 33.19555
#
# Velocity S-wave (km/s) = 3.30358 3.89314 3.61041
# Velocity P-wave (km/s) = 4.94506 6.03616 5.51765
#
# Compressibility (1/GPa) = 0.03965555
#
# Stress axis : x y z
#
# Youngs Moduli (GPa) = 40.58316 62.10708 74.15213
#
# Poissons Ratio (x) = 0.13738 0.01415
# Poissons Ratio (y) = 0.08977 0.36211
# Poissons Ratio (z) = 0.00774 0.30329
#
# Static dielectric constant tensor:
#      x y z
#    x 2.161660 -0.042030 0.098970 
#    y -0.042030 2.078530 -0.028030 
#    z 0.098970 -0.028030 2.024060 
# 
# From -- ./inp_files/519928.got.cif
#   From: 2010.05.17/outbox.cif.g08.bks.cpg/sg2_260_cif.got.tgz:519928.got - 2010.06.03 11:33:40.
