data_PCOD9087410
_publ_section_title
;
Structure prediction by ZEFSAII (Michael W. Deem and Ramdas Pophale) SiO2 
 PCOD9087410
Probable space group: P -1
;
_chemical_formula_sum "Si O2"
_cell_formula_units_Z 16
_cell_length_a 17.043258
_cell_length_b 5.096826
_cell_length_c 19.325338
_cell_angle_alpha 96.639897
_cell_angle_beta 31.240847
_cell_angle_gamma 80.387202
_cell_volume 740.755129
_symmetry_space_group_name_H-M "P -1"
_symmetry_group_IT_number 2
_symmetry_cell_setting 'triclinic'
loop_
_space_group_symop_operation_xyz
x,y,z
-x,-y,-z
loop_
_atom_site_type_symbol
_atom_site_label
_atom_site_fract_x
_atom_site_fract_y
_atom_site_fract_z
Si Si1 0.288145 0.670187 0.753438
Si Si2 0.990882 0.201106 0.833183
Si Si3 0.614938 0.123203 0.454606
Si Si4 0.125189 0.215806 0.446892
Si Si5 0.677678 0.439825 0.976718
Si Si6 0.451746 0.172840 0.168661
Si Si7 0.940882 0.770169 0.963319
Si Si8 0.777994 0.331268 0.749082
O O1 0.475823 0.373703 0.620893
O O2 0.327672 0.744786 0.649144
O O3 0.121407 0.624592 0.868137
O O4 0.217379 0.964157 0.864734
O O5 0.868702 0.296049 0.861663
O O6 0.912854 0.502133 0.949890
O O7 0.972915 0.941327 0.880114
O O8 0.193854 0.105729 0.664090
O O9 0.500000 0.000000 0.500000
O O10 0.292967 0.237412 0.342519
O O11 0.000000 0.500000 0.500000
O O12 0.020872 0.758868 0.389503
O O13 0.201288 0.908254 0.333390
O O14 0.694621 0.312194 0.882481
O O15 0.562200 0.336746 0.104603
O O16 0.582296 0.808034 0.054931
O O17 0.343952 0.334206 0.183834
#
# Coordination Sequence:
#
# PCOD9087410 Si02
#       8
#     2   2   2   2   2   2   2   2
#     4   9  20  34  64  94 114 153 206 257 303 353
#     4  11  24  41  58  86 130 164 202 250 312 373
#     4  10  19  36  63  91 119 156 205 256 302 361
#     4   9  20  37  64  91 123 150 203 267 309 356
#     4  12  25  38  63  88 125 167 206 253 317 369
#     4  11  22  40  63  92 117 159 211 259 301 367
#     4  10  21  39  62  89 121 157 202 254 304 363
#     4  10  21  39  64  95 119 159 210 265 305 364
#
# _framework density 21.599582000000002
#
# number of rings (size 3 to 8) (size 9 to 14) (size 15 to 20)
#    0.000    1.750    2.500    1.500    5.250    1.500 
#    0.000    1.250    8.250    0.000    0.000    0.000 
#    0.000    0.000    0.000    0.000    0.000    0.000 
#
# Total GULP energy -89253.678286 kJ/mol
# GULP energy per Si atom -5578.354893 kJ/mol
# Density = 2.155042 g / cm^3
# Si number density = 21.599582 Si / 1000 Ang^3
#
#
#
# Elastic Constant Matrix: (Units=GPa)
#
#
# Indices 1 2 3 4 5 6 
#
# 1 56.6731 13.7243 41.2444 3.9418 -26.3343 -1.0605
# 2 13.7243 82.5552 23.7797 5.2361 -10.8808 6.4752
# 3 41.2444 23.7797 134.2148 13.5601 -30.5495 -5.2128
# 4 3.9418 5.2361 13.5601 31.9817 1.6763 -6.8594
# 5 -26.3343 -10.8808 -30.5495 1.6763 28.8900 -2.8463
# 6 -1.0605 6.4752 -5.2128 -6.8594 -2.8463 16.8852
#
#
#
# Elastic Compliance Matrix: (Units=1/GPa)
#
#
# Indices 1 2 3 4 5 6 
#
# 1 0.033160 -0.001203 -0.003398 -0.002810 0.026823 0.004875
# 2 -0.001203 0.013738 -0.001592 -0.002967 0.001904 -0.006720
# 3 -0.003398 -0.001592 0.011329 -0.003760 0.008881 0.003864
# 4 -0.002810 -0.002967 -0.003760 0.037015 -0.008482 0.013407
# 5 0.026823 0.001904 0.008881 -0.008482 0.070866 0.012196
# 6 0.004875 -0.006720 0.003864 0.013407 0.012196 0.070802
#
#
# Mechanical properties :
#
#
# Convention : Reuss Voigt Hill
#
# Bulk Modulus (GPa) = 21.81500 47.88224 34.84862
# Shear Modulus (GPa) = 18.89817 28.53102 23.71459
#
# Velocity S-wave (km/s) = 2.96113 3.63837 3.31708
# Velocity P-wave (km/s) = 4.67041 6.31400 5.55335
#
# Compressibility (1/GPa) = 0.04584002
#
# Stress axis : x y z
#
# Youngs Moduli (GPa) = 30.15664 72.79144 88.27214
#
# Poissons Ratio (x) = 0.08754 0.29999
# Poissons Ratio (y) = 0.03627 0.14055
# Poissons Ratio (z) = 0.10249 0.11590
#
# Static dielectric constant tensor:
#      x y z
#    x 1.780220 0.014460 -0.040230 
#    y 0.014460 1.850990 -0.003630 
#    z -0.040230 -0.003630 1.847560 
# 
# From -- ./inp_files/139248.got.cif
#   From: 2010.05.17/outbox.cif.g08.bks.cpg/sg2_70_cif.got.tgz:139248.got - 2010.06.03 11:33:40.
