data_PCOD9087849
_publ_section_title
;
Structure prediction by ZEFSAII (Michael W. Deem and Ramdas Pophale) SiO2 
 PCOD9087849
Probable space group: P -1
;
_chemical_formula_sum "Si O2"
_cell_formula_units_Z 16
_cell_length_a 19.399207
_cell_length_b 8.200526
_cell_length_c 13.813261
_cell_angle_alpha 35.847981
_cell_angle_beta 148.253321
_cell_angle_gamma 144.220920
_cell_volume 621.816766
_symmetry_space_group_name_H-M "P -1"
_symmetry_group_IT_number 2
_symmetry_cell_setting 'triclinic'
loop_
_space_group_symop_operation_xyz
x,y,z
-x,-y,-z
loop_
_atom_site_type_symbol
_atom_site_label
_atom_site_fract_x
_atom_site_fract_y
_atom_site_fract_z
Si Si1 0.631053 0.704441 0.797360
Si Si2 0.411309 0.828743 0.345242
Si Si3 0.395420 0.161355 0.844873
Si Si4 0.736837 0.412277 0.908247
Si Si5 0.974423 0.692173 0.680633
Si Si6 0.372966 0.575347 0.769264
Si Si7 0.898601 0.395399 0.547131
Si Si8 0.152679 0.993110 0.489928
O O1 0.487606 0.695210 0.577113
O O2 0.559998 0.386178 0.923044
O O3 0.736741 0.674425 0.856053
O O4 0.668181 0.984836 0.781720
O O5 0.322640 0.603740 0.263709
O O6 0.548945 0.081711 0.335950
O O7 0.324530 0.358600 0.722773
O O8 0.304810 0.060510 0.687074
O O9 0.372461 0.887109 0.022050
O O10 0.880599 0.351703 0.103844
O O11 0.891078 0.410798 0.646033
O O12 0.000000 0.000000 0.500000
O O13 0.900201 0.752552 0.657965
O O14 0.231635 0.520608 0.686367
O O15 0.500000 0.500000 0.000000
O O16 0.870948 0.078181 0.617306
O O17 0.047537 0.662787 0.566956
#
# Coordination Sequence:
#
# PCOD9087849 Si02
#       8
#     2   2   2   2   2   2   2   2
#     4  10  25  41  60  93 129 165 197 252 313 367
#     4  10  24  43  59  92 130 162 199 251 313 367
#     4  11  20  38  60  95 125 151 204 260 297 360
#     4  12  21  38  67  92 121 161 211 253 302 363
#     4  10  19  37  54  86 125 154 196 257 301 345
#     4  11  21  35  62  92 119 154 201 256 303 355
#     4  10  20  34  54  83 121 160 189 246 312 353
#     4  10  20  34  54  85 123 155 192 246 309 348
#
# _framework density 25.731054
#
# number of rings (size 3 to 8) (size 9 to 14) (size 15 to 20)
#    0.000    1.500    5.000    1.500    1.750    3.000 
#    0.000    0.000    0.000    1.500    0.000    0.000 
#    0.000    0.000    0.000    0.000    0.000    0.000 
#
# Total GULP energy -89387.914076 kJ/mol
# GULP energy per Si atom -5586.744630 kJ/mol
# Density = 2.567249 g / cm^3
# Si number density = 25.731054 Si / 1000 Ang^3
#
#
#
# Elastic Constant Matrix: (Units=GPa)
#
#
# Indices 1 2 3 4 5 6 
#
# 1 112.3814 33.7303 12.8776 -0.1880 21.2776 -50.5510
# 2 33.7303 107.8884 9.4989 6.2041 -0.5612 -24.8541
# 3 12.8776 9.4989 61.3191 6.4655 15.3329 -4.5054
# 4 -0.1880 6.2041 6.4655 20.7547 -8.5556 -10.7223
# 5 21.2776 -0.5612 15.3329 -8.5556 38.1550 -5.1005
# 6 -50.5510 -24.8541 -4.5054 -10.7223 -5.1005 54.7509
#
#
#
# Elastic Compliance Matrix: (Units=1/GPa)
#
#
# Indices 1 2 3 4 5 6 
#
# 1 0.018412 -0.002199 -0.001696 0.007738 -0.005631 0.016853
# 2 -0.002199 0.010789 -0.001545 -0.000310 0.002324 0.002896
# 3 -0.001696 -0.001545 0.020590 -0.012436 -0.010675 -0.004003
# 4 0.007738 -0.000310 -0.012436 0.071599 0.019651 0.021833
# 5 -0.005631 0.002324 -0.010675 0.019651 0.038401 0.002403
# 6 0.016853 0.002896 -0.004003 0.021833 0.002403 0.039310
#
#
# Mechanical properties :
#
#
# Convention : Reuss Voigt Hill
#
# Bulk Modulus (GPa) = 25.69891 43.75585 34.72738
# Shear Modulus (GPa) = 22.42635 37.76425 30.09530
#
# Velocity S-wave (km/s) = 2.95543 3.83515 3.42367
# Velocity P-wave (km/s) = 4.65353 6.05419 5.39947
#
# Compressibility (1/GPa) = 0.03891216
#
# Stress axis : x y z
#
# Youngs Moduli (GPa) = 54.31105 92.68297 48.56706
#
# Poissons Ratio (x) = 0.20381 0.08236
# Poissons Ratio (y) = 0.11943 0.07504
# Poissons Ratio (z) = 0.09210 0.14321
#
# Static dielectric constant tensor:
#      x y z
#    x 2.161660 -0.059980 -0.006060 
#    y -0.059980 2.050870 -0.046260 
#    z -0.006060 -0.046260 2.052490 
# 
# From -- ./inp_files/540191.got.cif
#   From: 2010.05.17/outbox.cif.g08.bks.cpg/sg2_271_cif.got.tgz:540191.got - 2010.06.03 11:33:40.
