data_PCOD9087065
_publ_section_title
;
Structure prediction by ZEFSAII (Michael W. Deem and Ramdas Pophale) SiO2 
 PCOD9087065
Probable space group: P -1
;
_chemical_formula_sum "Si O2"
_cell_formula_units_Z 14
_cell_length_a 12.971996
_cell_length_b 7.354377
_cell_length_c 10.422593
_cell_angle_alpha 46.487213
_cell_angle_beta 56.173951
_cell_angle_gamma 60.128073
_cell_volume 588.071804
_symmetry_space_group_name_H-M "P -1"
_symmetry_group_IT_number 2
_symmetry_cell_setting 'triclinic'
loop_
_space_group_symop_operation_xyz
x,y,z
-x,-y,-z
loop_
_atom_site_type_symbol
_atom_site_label
_atom_site_fract_x
_atom_site_fract_y
_atom_site_fract_z
Si Si1 0.254371 0.800043 0.791498
Si Si2 0.421238 0.782194 0.451481
Si Si3 0.994367 0.965861 0.237127
Si Si4 0.834609 0.693057 0.992088
Si Si5 0.742814 0.404663 0.827026
Si Si6 0.577165 0.064657 0.038459
Si Si7 0.820325 0.905264 0.613690
O O1 0.374363 0.823461 0.610890
O O2 0.130774 0.028300 0.765873
O O3 0.198102 0.583189 0.858177
O O4 0.282104 0.694966 0.964707
O O5 0.500000 0.500000 0.500000
O O6 0.499533 0.993399 0.247441
O O7 0.289275 0.843727 0.431977
O O8 0.939149 0.942981 0.429016
O O9 0.117417 0.746378 0.237541
O O10 0.050609 0.224815 0.051852
O O11 0.849388 0.790245 0.789438
O O12 0.708623 0.867753 0.047851
O O13 0.756651 0.695081 0.685524
O O14 0.624817 0.332654 0.866741
O O15 0.500000 0.000000 0.000000
#
# Coordination Sequence:
#
# PCOD9087065 Si02
#       7
#     2   2   2   2   2   2   2
#     4  10  21  38  60  91 125 160 199 248 306 359
#     4  11  22  39  63  87 124 158 203 254 294 356
#     4  10  20  36  63  89 127 155 200 248 303 359
#     4  10  19  36  61  91 120 163 202 245 299 359
#     4  10  23  40  62  90 124 162 200 249 309 358
#     4  11  22  41  64  86 121 162 207 252 298 358
#     4  10  21  38  61  93 120 160 204 250 301 358
#
# _framework density 23.806618
#
# number of rings (size 3 to 8) (size 9 to 14) (size 15 to 20)
#    0.000    1.714    2.857    1.714    0.000    1.143 
#    0.000    2.857    6.286    0.000    0.000    0.000 
#    0.000    0.000    0.000    0.000    0.000    0.000 
#
# Total GULP energy -78151.214305 kJ/mol
# GULP energy per Si atom -5582.229593 kJ/mol
# Density = 2.375243 g / cm^3
# Si number density = 23.806618 Si / 1000 Ang^3
#
#
#
# Elastic Constant Matrix: (Units=GPa)
#
#
# Indices 1 2 3 4 5 6 
#
# 1 59.9085 21.3218 30.8846 4.6609 -25.7402 2.4236
# 2 21.3218 88.2787 36.2478 9.8699 -25.9716 -9.5573
# 3 30.8846 36.2478 134.7437 36.9077 -20.3677 -6.0174
# 4 4.6609 9.8699 36.9077 39.0054 -4.8590 -1.8403
# 5 -25.7402 -25.9716 -20.3677 -4.8590 36.8118 2.1278
# 6 2.4236 -9.5573 -6.0174 -1.8403 2.1278 17.1074
#
#
#
# Elastic Compliance Matrix: (Units=1/GPa)
#
#
# Indices 1 2 3 4 5 6 
#
# 1 0.026333 -0.000920 -0.004515 0.003009 0.016097 -0.007511
# 2 -0.000920 0.015908 -0.002345 -0.000262 0.008839 0.007065
# 3 -0.004515 -0.002345 0.012009 -0.010070 0.000364 0.002425
# 4 0.003009 -0.000262 -0.010070 0.034974 0.000991 -0.000476
# 5 0.016097 0.008839 0.000364 0.000991 0.045147 -0.002723
# 6 -0.007511 0.007065 0.002425 -0.000476 -0.002723 0.064606
#
#
# Mechanical properties :
#
#
# Convention : Reuss Voigt Hill
#
# Bulk Modulus (GPa) = 25.84669 51.09325 38.46997
# Shear Modulus (GPa) = 21.98455 31.55004 26.76729
#
# Velocity S-wave (km/s) = 3.04215 3.64437 3.35679
# Velocity P-wave (km/s) = 4.81872 6.26234 5.58735
#
# Compressibility (1/GPa) = 0.03868968
#
# Stress axis : x y z
#
# Youngs Moduli (GPa) = 37.97496 62.86311 83.27238
#
# Poissons Ratio (x) = 0.05785 0.37594
# Poissons Ratio (y) = 0.03495 0.19528
# Poissons Ratio (z) = 0.17144 0.14742
#
# Static dielectric constant tensor:
#      x y z
#    x 1.980640 -0.017400 -0.001040 
#    y -0.017400 1.987670 -0.019790 
#    z -0.001040 -0.019790 1.883280 
# 
# From -- ./inp_files/234704.got.cif
#   From: 2010.05.17/outbox.cif.g08.bks.cpg/sg2_118_cif.got.tgz:234704.got - 2010.06.03 11:33:40.
