data_PCOD9087428
_publ_section_title
;
Structure prediction by ZEFSAII (Michael W. Deem and Ramdas Pophale) SiO2 
 PCOD9087428
Probable space group: P -1
;
_chemical_formula_sum "Si O2"
_cell_formula_units_Z 16
_cell_length_a 8.667605
_cell_length_b 14.500511
_cell_length_c 14.691895
_cell_angle_alpha 57.769819
_cell_angle_beta 92.197656
_cell_angle_gamma 138.910226
_cell_volume 776.626020
_symmetry_space_group_name_H-M "P -1"
_symmetry_group_IT_number 2
_symmetry_cell_setting 'triclinic'
loop_
_space_group_symop_operation_xyz
x,y,z
-x,-y,-z
loop_
_atom_site_type_symbol
_atom_site_label
_atom_site_fract_x
_atom_site_fract_y
_atom_site_fract_z
Si Si1 0.773850 0.457113 0.548931
Si Si2 0.211654 0.930649 0.295355
Si Si3 0.848884 0.038618 0.917602
Si Si4 0.906498 0.973989 0.306211
Si Si5 0.511516 0.356930 0.777006
Si Si6 0.108403 0.688715 0.885117
Si Si7 0.770781 0.654021 0.769691
Si Si8 0.948657 0.762418 0.986668
O O1 0.462350 0.269476 0.580333
O O2 0.669411 0.380653 0.691794
O O3 0.000000 0.500000 0.500000
O O4 0.952890 0.680835 0.432937
O O5 0.278335 0.978673 0.163185
O O6 0.090853 0.973667 0.303997
O O7 0.540957 0.098737 0.256231
O O8 0.198610 0.218047 0.802407
O O9 0.899328 0.127485 0.968993
O O10 0.631469 0.802590 0.060360
O O11 0.011308 0.111316 0.322337
O O12 0.990154 0.099366 0.153441
O O13 0.733006 0.585474 0.702712
O O14 0.893176 0.626496 0.845395
O O15 0.000000 0.500000 0.000000
O O16 0.082701 0.740115 0.950987
O O17 0.421733 0.472334 0.886561
#
# Coordination Sequence:
#
# PCOD9087428 Si02
#       8
#     2   2   2   2   2   2   2   2
#     4  12  25  43  63  90 127 171 208 251 312 378
#     4  12  24  38  64  93 126 166 207 255 310 374
#     4  10  19  37  65  96 120 158 211 264 303 357
#     4  11  20  40  63  89 123 163 211 248 311 374
#     4  10  20  40  67  92 124 160 210 256 311 364
#     4  11  21  36  56  94 132 161 205 256 315 366
#     4  10  21  37  64  90 119 166 206 258 309 365
#     4  10  19  36  63  92 124 161 207 258 313 362
#
# _framework density 20.601937
#
# number of rings (size 3 to 8) (size 9 to 14) (size 15 to 20)
#    0.000    1.250    2.500    7.125    0.000    0.500 
#    2.250    3.125    0.000    0.000    0.000    0.000 
#    0.000    0.000    0.000    0.000    0.000    0.000 
#
# Total GULP energy -89389.119652 kJ/mol
# GULP energy per Si atom -5586.819978 kJ/mol
# Density = 2.055505 g / cm^3
# Si number density = 20.601937 Si / 1000 Ang^3
#
#
#
# Elastic Constant Matrix: (Units=GPa)
#
#
# Indices 1 2 3 4 5 6 
#
# 1 131.6254 47.8335 29.0867 -9.5050 -21.7156 -22.6698
# 2 47.8335 115.2875 20.4659 -24.4903 -15.1335 -20.6222
# 3 29.0867 20.4659 38.2803 -21.1392 -9.2767 -4.3834
# 4 -9.5050 -24.4903 -21.1392 38.1771 -3.8134 1.2928
# 5 -21.7156 -15.1335 -9.2767 -3.8134 37.0045 -0.8990
# 6 -22.6698 -20.6222 -4.3834 1.2928 -0.8990 36.4087
#
#
#
# Elastic Compliance Matrix: (Units=1/GPa)
#
#
# Indices 1 2 3 4 5 6 
#
# 1 0.011432 -0.002668 -0.007326 -0.002727 0.003619 0.004911
# 2 -0.002668 0.013134 0.002113 0.009276 0.005433 0.005837
# 3 -0.007326 0.002113 0.048928 0.027734 0.011733 0.001831
# 4 -0.002727 0.009276 0.027734 0.048056 0.014233 0.005540
# 5 0.003619 0.005433 0.011733 0.014233 0.035950 0.007125
# 6 0.004911 0.005837 0.001831 0.005540 0.007125 0.034029
#
#
# Mechanical properties :
#
#
# Convention : Reuss Voigt Hill
#
# Bulk Modulus (GPa) = 17.32185 53.32950 35.32567
# Shear Modulus (GPa) = 22.07151 34.83853 28.45502
#
# Velocity S-wave (km/s) = 3.27667 4.11668 3.72046
# Velocity P-wave (km/s) = 4.76881 6.96692 5.96990
#
# Compressibility (1/GPa) = 0.05773057
#
# Stress axis : x y z
#
# Youngs Moduli (GPa) = 87.47406 76.14055 20.43802
#
# Poissons Ratio (x) = 0.20318 0.14974
# Poissons Ratio (y) = 0.23342 -0.04319
# Poissons Ratio (z) = 0.64087 -0.16089
#
# Static dielectric constant tensor:
#      x y z
#    x 1.717150 -0.015650 0.005720 
#    y -0.015650 1.776350 -0.005010 
#    z 0.005720 -0.005010 1.737470 
# 
# From -- ./inp_files/504067.got.cif
#   From: 2010.05.17/outbox.cif.g08.bks.cpg/sg2_253_cif.got.tgz:504067.got - 2010.06.03 11:33:40.
