data_PCOD9087094
_publ_section_title
;
Structure prediction by ZEFSAII (Michael W. Deem and Ramdas Pophale) SiO2 
 PCOD9087094
Probable space group: P -1
;
_chemical_formula_sum "Si O2"
_cell_formula_units_Z 16
_cell_length_a 8.884317
_cell_length_b 11.580285
_cell_length_c 9.419550
_cell_angle_alpha 79.369863
_cell_angle_beta 91.731481
_cell_angle_gamma 54.198821
_cell_volume 760.824470
_symmetry_space_group_name_H-M "P -1"
_symmetry_group_IT_number 2
_symmetry_cell_setting 'triclinic'
loop_
_space_group_symop_operation_xyz
x,y,z
-x,-y,-z
loop_
_atom_site_type_symbol
_atom_site_label
_atom_site_fract_x
_atom_site_fract_y
_atom_site_fract_z
Si Si1 0.248358 0.973437 0.127567
Si Si2 0.792891 0.541158 0.103035
Si Si3 0.344055 0.497223 0.416001
Si Si4 0.943492 0.719758 0.003508
Si Si5 0.493017 0.393647 0.132338
Si Si6 0.637700 0.712936 0.332195
Si Si7 0.162213 0.923625 0.822332
Si Si8 0.943128 0.778120 0.300024
O O1 0.428910 0.848837 0.248770
O O2 0.237314 0.120703 0.083991
O O3 0.245757 0.918427 0.982185
O O4 0.046977 0.030562 0.174234
O O5 0.701371 0.586732 0.244107
O O6 0.912776 0.371461 0.099387
O O7 0.914248 0.602710 0.087781
O O8 0.641403 0.630447 0.954126
O O9 0.500000 0.500000 0.500000
O O10 0.394503 0.475153 0.256588
O O11 0.352897 0.359514 0.503484
O O12 0.136342 0.646310 0.406272
O O13 0.003074 0.761040 0.137697
O O14 0.691530 0.238140 0.199186
O O15 0.500000 0.500000 0.000000
O O16 0.780892 0.756074 0.319452
O O17 0.137697 0.056000 0.704602
#
# Coordination Sequence:
#
# PCOD9087094 Si02
#       8
#     2   2   2   2   2   2   2   2
#     4  10  20  36  61  95 130 161 207 253 321 362
#     4  10  19  36  61  94 123 158 214 256 309 356
#     4  12  26  44  64  91 129 168 209 256 317 380
#     4   9  19  34  62  95 126 160 206 266 300 365
#     4  12  24  40  66  93 123 161 217 260 311 367
#     4  11  23  40  65  94 130 170 205 253 318 378
#     4  10  22  37  64  94 127 161 211 264 305 367
#     4  10  22  41  64  94 129 167 210 256 314 371
#
# _framework density 21.029817000000001
#
# number of rings (size 3 to 8) (size 9 to 14) (size 15 to 20)
#    0.000    1.500    2.500    2.625    5.250    1.500 
#    0.000    4.375    0.000    0.000    0.000    0.000 
#    0.000    0.000    0.000    0.000    0.000    0.000 
#
# Total GULP energy -89271.890319 kJ/mol
# GULP energy per Si atom -5579.493145 kJ/mol
# Density = 2.098195 g / cm^3
# Si number density = 21.029817 Si / 1000 Ang^3
#
#
#
# Elastic Constant Matrix: (Units=GPa)
#
#
# Indices 1 2 3 4 5 6 
#
# 1 68.6314 34.5376 16.2899 -12.7831 2.5313 -13.2004
# 2 34.5376 120.9013 22.2975 -28.9368 -10.4878 -17.5698
# 3 16.2899 22.2975 66.5938 -16.3569 -12.0462 -7.3368
# 4 -12.7831 -28.9368 -16.3569 38.8981 -3.4797 5.1947
# 5 2.5313 -10.4878 -12.0462 -3.4797 26.2005 -8.8512
# 6 -13.2004 -17.5698 -7.3368 5.1947 -8.8512 31.9816
#
#
#
# Elastic Compliance Matrix: (Units=1/GPa)
#
#
# Indices 1 2 3 4 5 6 
#
# 1 0.018428 -0.004354 -0.003198 0.000690 -0.003780 0.003322
# 2 -0.004354 0.013320 0.001421 0.009016 0.010020 0.007155
# 3 -0.003198 0.001421 0.020798 0.009113 0.013877 0.006592
# 4 0.000690 0.009016 0.009113 0.037058 0.014447 0.005308
# 5 -0.003780 0.010020 0.013877 0.014447 0.057868 0.020797
# 6 0.003322 0.007155 0.006592 0.005308 0.020797 0.042976
#
#
# Mechanical properties :
#
#
# Convention : Reuss Voigt Hill
#
# Bulk Modulus (GPa) = 24.82477 44.70853 34.76665
# Shear Modulus (GPa) = 23.13333 31.61614 27.37473
#
# Velocity S-wave (km/s) = 3.32026 3.88157 3.61184
# Velocity P-wave (km/s) = 5.15063 6.43386 5.82767
#
# Compressibility (1/GPa) = 0.04028234
#
# Stress axis : x y z
#
# Youngs Moduli (GPa) = 54.26581 75.07440 48.08211
#
# Poissons Ratio (x) = 0.32690 0.15377
# Poissons Ratio (y) = 0.23629 -0.06831
# Poissons Ratio (z) = 0.17354 -0.10666
#
# Static dielectric constant tensor:
#      x y z
#    x 1.852520 -0.001420 -0.022360 
#    y -0.001420 1.786660 0.010530 
#    z -0.022360 0.010530 1.758100 
# 
# From -- ./inp_files/186697.got.cif
#   From: 2010.05.17/outbox.cif.g08.bks.cpg/sg2_94_cif.got.tgz:186697.got - 2010.06.03 11:33:40.
