data_PCOD9087823
_publ_section_title
;
Structure prediction by ZEFSAII (Michael W. Deem and Ramdas Pophale) SiO2 
 PCOD9087823
Probable space group: P -1
;
_chemical_formula_sum "Si O2"
_cell_formula_units_Z 15
_cell_length_a 8.313866
_cell_length_b 12.031619
_cell_length_c 9.065332
_cell_angle_alpha 120.737210
_cell_angle_beta 51.633797
_cell_angle_gamma 94.913469
_cell_volume 573.890859
_symmetry_space_group_name_H-M "P -1"
_symmetry_group_IT_number 2
_symmetry_cell_setting 'triclinic'
loop_
_space_group_symop_operation_xyz
x,y,z
-x,-y,-z
loop_
_atom_site_type_symbol
_atom_site_label
_atom_site_fract_x
_atom_site_fract_y
_atom_site_fract_z
Si Si1 0.957067 0.206597 0.760753
Si Si2 0.122386 0.066827 0.301149
Si Si3 0.172481 0.373783 0.904375
Si Si4 0.500000 0.000000 0.500000
Si Si5 0.420898 0.098193 0.928702
Si Si6 0.488326 0.680559 0.763912
Si Si7 0.096838 0.577624 0.615715
Si Si8 0.626704 0.243686 0.455772
O O1 0.972215 0.196932 0.568767
O O2 0.158388 0.237945 0.737601
O O3 0.967110 0.057542 0.710028
O O4 0.736579 0.313345 0.025224
O O5 0.351838 0.018328 0.229567
O O6 0.209931 0.071212 0.092240
O O7 0.421907 0.358049 0.731699
O O8 0.000000 0.500000 0.000000
O O9 0.075850 0.380820 0.125885
O O10 0.440213 0.101847 0.747138
O O11 0.636310 0.096814 0.412691
O O12 0.423500 0.230114 0.111817
O O13 0.675675 0.535204 0.535979
O O14 0.426135 0.747579 0.683788
O O15 0.168757 0.704129 0.608366
O O16 0.000000 0.500000 0.500000
#
# Coordination Sequence:
#
# PCOD9087823 Si02
#       8
#     2   2   2   1   2   2   2   2
#     4  10  19  36  71 111 138 189 260 307 376 446
#     4   9  19  38  66 102 145 195 256 307 363 467
#     4  12  24  44  80 112 145 202 264 320 384 464
#     4  12  26  44  74 116 162 204 238 320 404 448
#     4  10  21  39  66 103 153 196 251 310 377 455
#     4  11  22  47  80 108 150 204 261 319 379 464
#     4  12  29  52  76 114 155 204 261 333 393 448
#     4  12  26  51  79 114 159 203 263 319 385 471
#
# _framework density 26.137374999999999
#
# number of rings (size 3 to 8) (size 9 to 14) (size 15 to 20)
#    0.000    1.067    2.667    5.200    1.867    0.533 
#    4.800    2.000    0.000    0.800    0.000    0.000 
#    0.000    0.000    0.000    0.000    0.000    0.000 
#
# Total GULP energy -83830.840868 kJ/mol
# GULP energy per Si atom -5588.722725 kJ/mol
# Density = 2.607789 g / cm^3
# Si number density = 26.137375 Si / 1000 Ang^3
#
#
#
# Elastic Constant Matrix: (Units=GPa)
#
#
# Indices 1 2 3 4 5 6 
#
# 1 80.8756 65.1429 43.9837 -2.9020 8.7928 2.6386
# 2 65.1429 115.9462 50.8471 -28.6463 18.4800 24.4292
# 3 43.9837 50.8471 214.7410 -32.6475 14.3460 -9.5227
# 4 -2.9020 -28.6463 -32.6475 45.9526 -5.4660 -0.0777
# 5 8.7928 18.4800 14.3460 -5.4660 53.8160 8.8882
# 6 2.6386 24.4292 -9.5227 -0.0777 8.8882 40.4817
#
#
#
# Elastic Compliance Matrix: (Units=1/GPa)
#
#
# Indices 1 2 3 4 5 6 
#
# 1 0.029952 -0.021001 -0.002712 -0.013104 0.000051 0.010047
# 2 -0.021001 0.027989 -0.000512 0.015499 -0.001962 -0.015181
# 3 -0.002712 -0.000512 0.006055 0.003700 -0.000971 0.002130
# 4 -0.013104 0.015499 0.003700 0.033269 0.000478 -0.007670
# 5 0.000051 -0.001962 -0.000971 0.000478 0.020127 -0.003466
# 6 0.010047 -0.015181 0.002130 -0.007670 -0.003466 0.034456
#
#
# Mechanical properties :
#
#
# Convention : Reuss Voigt Hill
#
# Bulk Modulus (GPa) = 64.32437 81.27889 72.80163
# Shear Modulus (GPa) = 24.33312 44.82268 34.57790
#
# Velocity S-wave (km/s) = 3.05449 4.14561 3.64116
# Velocity P-wave (km/s) = 6.09126 7.35385 6.75213
#
# Compressibility (1/GPa) = 0.01554621
#
# Stress axis : x y z
#
# Youngs Moduli (GPa) = 33.38656 35.72826 165.14473
#
# Poissons Ratio (x) = 0.75034 0.44791
# Poissons Ratio (y) = 0.70116 0.08448
# Poissons Ratio (z) = 0.09055 0.01828
#
# Static dielectric constant tensor:
#      x y z
#    x 2.173960 -0.089890 -0.093620 
#    y -0.089890 2.222140 0.075540 
#    z -0.093620 0.075540 2.024780 
# 
# From -- ./inp_files/189662.got.cif
#   From: 2010.05.17/outbox.cif.g08.bks.cpg/sg2_95_cif.got.tgz:189662.got - 2010.06.03 11:33:40.
