data_PCOD9087757
_publ_section_title
;
Structure prediction by ZEFSAII (Michael W. Deem and Ramdas Pophale) SiO2 
 PCOD9087757
Probable space group: P -1
;
_chemical_formula_sum "Si O2"
_cell_formula_units_Z 14
_cell_length_a 10.287152
_cell_length_b 9.293393
_cell_length_c 7.769653
_cell_angle_alpha 74.522148
_cell_angle_beta 68.339052
_cell_angle_gamma 64.765135
_cell_volume 619.144362
_symmetry_space_group_name_H-M "P -1"
_symmetry_group_IT_number 2
_symmetry_cell_setting 'triclinic'
loop_
_space_group_symop_operation_xyz
x,y,z
-x,-y,-z
loop_
_atom_site_type_symbol
_atom_site_label
_atom_site_fract_x
_atom_site_fract_y
_atom_site_fract_z
Si Si1 0.761213 0.652993 0.617623
Si Si2 0.799667 0.414533 0.373654
Si Si3 0.429787 0.885319 0.668589
Si Si4 0.646208 0.193426 0.613968
Si Si5 0.377897 0.117533 0.898139
Si Si6 0.904353 0.887074 0.619227
Si Si7 0.165309 0.443969 0.016552
O O1 0.806762 0.558302 0.446201
O O2 0.579452 0.737164 0.698281
O O3 0.830341 0.793706 0.553576
O O4 0.821023 0.537160 0.792001
O O5 0.690964 0.347394 0.557893
O O6 0.754186 0.474085 0.181895
O O7 0.960374 0.268761 0.325093
O O8 0.331473 0.839950 0.591348
O O9 0.500000 0.000000 0.500000
O O10 0.336938 0.999527 0.828264
O O11 0.476472 0.209955 0.728004
O O12 0.754913 0.034630 0.709841
O O13 0.242691 0.252360 0.013130
O O14 0.500000 0.000000 0.000000
O O15 0.000000 0.000000 0.500000
O O16 0.000000 0.500000 0.000000
#
# Coordination Sequence:
#
# PCOD9087757 Si02
#       7
#     2   2   2   2   2   2   2
#     4  12  22  43  66  96 131 174 223 265 336 394
#     4  11  25  42  67  96 138 177 212 282 333 388
#     4  10  19  36  67  90 123 171 221 265 321 394
#     4  10  22  42  67  96 129 174 231 266 331 395
#     4  11  21  40  65  94 129 173 217 276 325 386
#     4  10  20  38  67  95 128 173 222 272 321 394
#     4  12  26  40  66  99 134 172 222 269 333 399
#
# _framework density 22.61185
#
# number of rings (size 3 to 8) (size 9 to 14) (size 15 to 20)
#    0.000    1.143    5.714    2.143    0.000    2.286 
#    2.571    1.429    0.000    4.286    0.000    0.000 
#    0.000    0.000    0.000    0.000    0.000    0.000 
#
# Total GULP energy -77940.295794 kJ/mol
# GULP energy per Si atom -5567.163985 kJ/mol
# Density = 2.256038 g / cm^3
# Si number density = 22.611850 Si / 1000 Ang^3
#
#
#
# Elastic Constant Matrix: (Units=GPa)
#
#
# Indices 1 2 3 4 5 6 
#
# 1 58.0229 19.3787 14.6776 -2.3111 -2.5075 -10.4930
# 2 19.3787 83.7823 14.8637 -14.9429 -5.4243 -4.3144
# 3 14.6776 14.8637 67.8009 -6.4187 8.4592 3.6721
# 4 -2.3111 -14.9429 -6.4187 35.0354 -7.3735 -1.7713
# 5 -2.5075 -5.4243 8.4592 -7.3735 34.3662 -2.8029
# 6 -10.4930 -4.3144 3.6721 -1.7713 -2.8029 46.4763
#
#
#
# Elastic Compliance Matrix: (Units=1/GPa)
#
#
# Indices 1 2 3 4 5 6 
#
# 1 0.020458 -0.003640 -0.004196 -0.000252 0.002284 0.004740
# 2 -0.003640 0.014699 -0.002401 0.006524 0.004145 0.001231
# 3 -0.004196 -0.002401 0.017014 0.000630 -0.004965 -0.002790
# 4 -0.000252 0.006524 0.000630 0.033259 0.008176 0.002260
# 5 0.002284 0.004145 -0.004965 0.008176 0.033190 0.003606
# 6 0.004740 0.001231 -0.002790 0.002260 0.003606 0.023225
#
#
# Mechanical properties :
#
#
# Convention : Reuss Voigt Hill
#
# Bulk Modulus (GPa) = 31.54911 34.16068 32.85489
# Shear Modulus (GPa) = 28.92108 33.88798 31.40453
#
# Velocity S-wave (km/s) = 3.58022 3.87548 3.73077
# Velocity P-wave (km/s) = 5.57435 5.93010 5.75497
#
# Compressibility (1/GPa) = 0.03169661
#
# Stress axis : x y z
#
# Youngs Moduli (GPa) = 48.88112 68.03217 58.77516
#
# Poissons Ratio (x) = 0.24766 0.24663
# Poissons Ratio (y) = 0.17794 0.14110
# Poissons Ratio (z) = 0.20511 0.16332
#
# Static dielectric constant tensor:
#      x y z
#    x 1.883800 0.011150 0.000830 
#    y 0.011150 1.888650 -0.003600 
#    z 0.000830 -0.003600 1.978480 
# 
# From -- ./inp_files/242861.got.cif
#   From: 2010.05.17/outbox.cif.g08.bks.cpg/sg2_122_cif.got.tgz:242861.got - 2010.06.03 11:33:40.
