data_PCOD9087221
_publ_section_title
;
Structure prediction by ZEFSAII (Michael W. Deem and Ramdas Pophale) SiO2 
 PCOD9087221
Probable space group: P -1
;
_chemical_formula_sum "Si O2"
_cell_formula_units_Z 16
_cell_length_a 8.306274
_cell_length_b 10.826834
_cell_length_c 20.074556
_cell_angle_alpha 146.774939
_cell_angle_beta 139.859058
_cell_angle_gamma 51.718604
_cell_volume 636.679261
_symmetry_space_group_name_H-M "P -1"
_symmetry_group_IT_number 2
_symmetry_cell_setting 'triclinic'
loop_
_space_group_symop_operation_xyz
x,y,z
-x,-y,-z
loop_
_atom_site_type_symbol
_atom_site_label
_atom_site_fract_x
_atom_site_fract_y
_atom_site_fract_z
Si Si1 0.565618 0.686248 0.182595
Si Si2 0.148911 0.706559 0.962714
Si Si3 0.822691 0.826869 0.088132
Si Si4 0.257161 0.303950 0.533105
Si Si5 0.338822 0.656493 0.228584
Si Si6 0.246543 0.949215 0.700340
Si Si7 0.727466 0.754622 0.763981
Si Si8 0.981947 0.714488 0.689737
O O1 0.704167 0.457442 0.113128
O O2 0.537972 0.749608 0.278292
O O3 0.698977 0.876622 0.263946
O O4 0.277672 0.646763 0.046535
O O5 0.860864 0.667243 0.832849
O O6 0.212896 0.972873 0.095868
O O7 0.074765 0.748901 0.168175
O O8 0.680568 0.930588 0.152174
O O9 0.690804 0.612145 0.914356
O O10 0.890051 0.032510 0.152414
O O11 0.536657 0.273691 0.631350
O O12 0.218762 0.278565 0.430676
O O13 0.038389 0.140639 0.422817
O O14 0.178348 0.545474 0.645984
O O15 0.429159 0.742775 0.659278
O O16 0.859991 0.660105 0.697862
#
# Coordination Sequence:
#
# PCOD9087221 Si02
#       8
#     2   2   2   2   2   2   2   2
#     4  10  19  37  61  90 127 155 192 250 301 354
#     4   9  18  32  59  93 122 150 192 249 303 343
#     4  10  22  40  63  92 118 153 202 254 298 352
#     4  10  24  44  60  85 123 163 200 247 296 353
#     4  11  22  40  65  89 120 157 201 247 300 356
#     4  10  22  39  60  89 126 157 197 247 297 356
#     4  10  19  36  62  89 122 159 196 245 302 357
#     4  10  22  42  62  85 122 160 200 242 297 355
#
# _framework density 25.130390999999999
#
# number of rings (size 3 to 8) (size 9 to 14) (size 15 to 20)
#    0.000    2.000    0.000    4.500    0.000    5.500 
#    0.000   21.250    0.000    0.000    0.000    0.000 
#    0.000    0.000    0.000    0.000    0.000    0.000 
#
# Total GULP energy -89502.011361 kJ/mol
# GULP energy per Si atom -5593.875710 kJ/mol
# Density = 2.507319 g / cm^3
# Si number density = 25.130391 Si / 1000 Ang^3
#
#
#
# Elastic Constant Matrix: (Units=GPa)
#
#
# Indices 1 2 3 4 5 6 
#
# 1 78.6513 12.0862 22.0549 0.0252 1.2504 18.6280
# 2 12.0862 57.8899 46.2647 -5.1182 -4.3029 -7.0632
# 3 22.0549 46.2647 89.0973 -4.6402 13.2467 8.3963
# 4 0.0252 -5.1182 -4.6402 45.4522 3.1197 -0.1019
# 5 1.2504 -4.3029 13.2467 3.1197 28.2079 8.9978
# 6 18.6280 -7.0632 8.3963 -0.1019 8.9978 24.4574
#
#
#
# Elastic Compliance Matrix: (Units=1/GPa)
#
#
# Indices 1 2 3 4 5 6 
#
# 1 0.017353 -0.004242 -0.001310 -0.000949 0.004269 -0.015567
# 2 -0.004242 0.039537 -0.022761 0.001427 0.010857 0.018475
# 3 -0.001310 -0.022761 0.026237 0.000964 -0.012679 -0.009914
# 4 -0.000949 0.001427 0.000964 0.022496 -0.003362 0.002135
# 5 0.004269 0.010857 -0.012679 -0.003362 0.047468 -0.013241
# 6 -0.015567 0.018475 -0.009914 0.002135 -0.013241 0.066363
#
#
# Mechanical properties :
#
#
# Convention : Reuss Voigt Hill
#
# Bulk Modulus (GPa) = 37.73477 42.93892 40.33684
# Shear Modulus (GPa) = 17.54921 29.30568 23.42745
#
# Velocity S-wave (km/s) = 2.64545 3.41859 3.05657
# Velocity P-wave (km/s) = 4.93755 5.71891 5.34253
#
# Compressibility (1/GPa) = 0.02650076
#
# Stress axis : x y z
#
# Youngs Moduli (GPa) = 57.62749 25.29250 38.11480
#
# Poissons Ratio (x) = 0.10729 0.04993
# Poissons Ratio (y) = 0.24444 0.86754
# Poissons Ratio (z) = 0.07550 0.57569
#
# Static dielectric constant tensor:
#      x y z
#    x 1.981450 -0.018500 0.039440 
#    y -0.018500 2.027420 0.000960 
#    z 0.039440 0.000960 1.992130 
# 
# From -- ./inp_files/589753.got.cif
#   From: 2010.05.17/outbox.cif.g08.bks.cpg/sg2_295_cif.got.tgz:589753.got - 2010.06.03 11:33:40.
