data_PCOD9087429
_publ_section_title
;
Structure prediction by ZEFSAII (Michael W. Deem and Ramdas Pophale) SiO2 
 PCOD9087429
Probable space group: P -1
;
_chemical_formula_sum "Si O2"
_cell_formula_units_Z 12
_cell_length_a 9.447848
_cell_length_b 7.521419
_cell_length_c 15.179631
_cell_angle_alpha 147.746642
_cell_angle_beta 48.667859
_cell_angle_gamma 117.831370
_cell_volume 420.799072
_symmetry_space_group_name_H-M "P -1"
_symmetry_group_IT_number 2
_symmetry_cell_setting 'triclinic'
loop_
_space_group_symop_operation_xyz
x,y,z
-x,-y,-z
loop_
_atom_site_type_symbol
_atom_site_label
_atom_site_fract_x
_atom_site_fract_y
_atom_site_fract_z
Si Si1 0.235661 0.925549 0.733381
Si Si2 0.290968 0.316747 0.224272
Si Si3 0.914153 0.514897 0.269159
Si Si4 0.146835 0.266567 0.435119
Si Si5 0.641117 0.639077 0.268310
Si Si6 0.657537 0.717350 0.013258
O O1 0.218309 0.253447 0.817659
O O2 0.070978 0.831083 0.823344
O O3 0.256987 0.588379 0.523644
O O4 0.385058 0.976180 0.769409
O O5 0.236825 0.091690 0.234124
O O6 0.490330 0.430989 0.207103
O O7 0.320253 0.187957 0.057567
O O8 0.086727 0.609022 0.428041
O O9 0.835524 0.807609 0.498230
O O10 0.766328 0.525664 0.255931
O O11 0.128235 0.512966 0.148592
O O12 0.500000 0.000000 0.500000
O O13 0.500000 0.500000 0.000000
#
# Coordination Sequence:
#
# PCOD9087429 Si02
#       6
#     2   2   2   2   2   2
#     4  10  21  39  67  89 129 171 201 254 326 370
#     4  10  19  36  63  92 124 161 211 263 303 364
#     4   9  23  41  63  95 126 166 215 250 315 387
#     4   8  19  39  63  85 125 168 205 258 310 364
#     4  12  22  39  67  95 126 166 211 266 314 366
#     4  11  21  40  67  93 131 167 207 260 313 377
#
# _framework density 28.517174000000001
#
# number of rings (size 3 to 8) (size 9 to 14) (size 15 to 20)
#    1.000    1.000    3.333    0.500    0.000    3.333 
#    0.000    5.833    0.000    0.000    0.000    0.000 
#    0.000    0.000    0.000    0.000    0.000    0.000 
#
# Total GULP energy -66950.159794 kJ/mol
# GULP energy per Si atom -5579.179983 kJ/mol
# Density = 2.845227 g / cm^3
# Si number density = 28.517174 Si / 1000 Ang^3
#
#
#
# Elastic Constant Matrix: (Units=GPa)
#
#
# Indices 1 2 3 4 5 6 
#
# 1 239.0155 80.8302 58.9092 -15.1897 7.5130 5.0032
# 2 80.8302 166.8364 14.3076 -29.9778 1.4289 -2.1296
# 3 58.9092 14.3076 93.6908 -26.5274 -11.1316 -11.3897
# 4 -15.1897 -29.9778 -26.5274 34.0283 -0.1649 11.7568
# 5 7.5130 1.4289 -11.1316 -0.1649 57.2173 -18.3652
# 6 5.0032 -2.1296 -11.3897 11.7568 -18.3652 60.1785
#
#
#
# Elastic Compliance Matrix: (Units=1/GPa)
#
#
# Indices 1 2 3 4 5 6 
#
# 1 0.006400 -0.003277 -0.004928 -0.003324 -0.002246 -0.001617
# 2 -0.003277 0.008922 0.003330 0.009108 0.000778 -0.000324
# 3 -0.004928 0.003330 0.018146 0.013947 0.005024 0.002770
# 4 -0.003324 0.009108 0.013947 0.048864 0.001151 -0.005957
# 5 -0.002246 0.000778 0.005024 0.001151 0.021102 0.007380
# 6 -0.001617 -0.000324 0.002770 -0.005957 0.007380 0.020680
#
#
# Mechanical properties :
#
#
# Convention : Reuss Voigt Hill
#
# Bulk Modulus (GPa) = 42.16269 89.73742 65.95006
# Shear Modulus (GPa) = 35.26851 53.31787 44.29319
#
# Velocity S-wave (km/s) = 3.52056 4.32867 3.94536
# Velocity P-wave (km/s) = 5.59847 7.51793 6.62805
#
# Compressibility (1/GPa) = 0.02371765
#
# Stress axis : x y z
#
# Youngs Moduli (GPa) = 156.25777 112.08666 55.10863
#
# Poissons Ratio (x) = 0.36726 0.27157
# Poissons Ratio (y) = 0.51199 -0.18350
# Poissons Ratio (z) = 0.77003 -0.37322
#
# Static dielectric constant tensor:
#      x y z
#    x 2.252770 -0.059670 0.166770 
#    y -0.059670 2.273610 0.089220 
#    z 0.166770 0.089220 2.680440 
# 
# From -- ./inp_files/180752.got.cif
#   From: 2010.05.17/outbox.cif.g08.bks.cpg/sg2_91_cif.got.tgz:180752.got - 2010.06.03 11:33:40.
