data_PCOD9087674
_publ_section_title
;
Structure prediction by ZEFSAII (Michael W. Deem and Ramdas Pophale) SiO2 
 PCOD9087674
Probable space group: P -1
;
_chemical_formula_sum "Si O2"
_cell_formula_units_Z 15
_cell_length_a 12.850282
_cell_length_b 8.151525
_cell_length_c 9.185661
_cell_angle_alpha 82.319997
_cell_angle_beta 99.568654
_cell_angle_gamma 137.148786
_cell_volume 645.180254
_symmetry_space_group_name_H-M "P -1"
_symmetry_group_IT_number 2
_symmetry_cell_setting 'triclinic'
loop_
_space_group_symop_operation_xyz
x,y,z
-x,-y,-z
loop_
_atom_site_type_symbol
_atom_site_label
_atom_site_fract_x
_atom_site_fract_y
_atom_site_fract_z
Si Si1 0.536724 0.182085 0.863259
Si Si2 0.149017 0.301239 0.804823
Si Si3 0.882245 0.138937 0.373677
Si Si4 0.308236 0.775831 0.625090
Si Si5 0.919367 0.289469 0.887845
Si Si6 0.000000 0.000000 0.500000
Si Si7 0.790794 0.432094 0.670632
Si Si8 0.700995 0.860689 0.075623
O O1 0.706404 0.385510 0.806553
O O2 0.467481 0.274401 0.898325
O O3 0.436644 0.016583 0.718122
O O4 0.500000 0.000000 0.000000
O O5 0.262181 0.569433 0.737638
O O6 0.056954 0.125834 0.666716
O O7 0.248843 0.271324 0.905923
O O8 0.031255 0.264999 0.884433
O O9 0.833142 0.255498 0.413480
O O10 0.835444 0.928869 0.482076
O O11 0.066080 0.293149 0.391750
O O12 0.812645 0.056131 0.207544
O O13 0.324099 0.728851 0.470452
O O14 0.882970 0.369719 0.737243
O O15 0.000000 0.500000 0.000000
O O16 0.757162 0.029974 0.931821
#
# Coordination Sequence:
#
# PCOD9087674 Si02
#       8
#     2   2   2   2   2   1   2   2
#     4  11  24  42  64  84 129 175 219 263 312 390
#     4  11  22  37  67  91 134 159 213 269 324 377
#     4  10  19  36  65  92 127 157 212 263 318 376
#     4  11  22  40  63  95 121 170 217 266 321 379
#     4  12  21  37  66 100 125 164 219 266 319 379
#     4  10  20  36  58 100 128 160 194 266 332 370
#     4  12  21  36  66  95 123 163 219 265 312 379
#     4  10  22  40  58  93 125 169 206 263 319 378
#
# _framework density 23.249316
#
# number of rings (size 3 to 8) (size 9 to 14) (size 15 to 20)
#    0.000    1.067    5.333    2.800    0.000    0.000 
#    0.000    1.333    8.800    0.000    0.000    0.000 
#    0.000    0.000    0.000    0.000    0.000    0.000 
#
# Total GULP energy -83516.559600 kJ/mol
# GULP energy per Si atom -5567.770640 kJ/mol
# Density = 2.319640 g / cm^3
# Si number density = 23.249316 Si / 1000 Ang^3
#
#
#
# Elastic Constant Matrix: (Units=GPa)
#
#
# Indices 1 2 3 4 5 6 
#
# 1 132.5513 35.0469 15.9550 -16.1787 -30.1473 -6.6383
# 2 35.0469 48.6369 23.5375 11.8506 -12.4991 -3.4991
# 3 15.9550 23.5375 61.8627 2.5629 -7.2994 16.3530
# 4 -16.1787 11.8506 2.5629 34.7138 5.7942 2.4404
# 5 -30.1473 -12.4991 -7.2994 5.7942 37.3957 -5.2203
# 6 -6.6383 -3.4991 16.3530 2.4404 -5.2203 35.7425
#
#
#
# Elastic Compliance Matrix: (Units=1/GPa)
#
#
# Indices 1 2 3 4 5 6 
#
# 1 0.012348 -0.009332 0.000327 0.007821 0.005905 0.001559
# 2 -0.009332 0.042507 -0.015090 -0.020005 0.008505 0.011940
# 3 0.000327 -0.015090 0.024891 0.004843 -0.002558 -0.013509
# 4 0.007821 -0.020005 0.004843 0.040481 -0.006609 -0.006451
# 5 0.005905 0.008505 -0.002558 -0.006609 0.036101 0.008824
# 6 0.001559 0.011940 -0.013509 -0.006451 0.008824 0.037346
#
#
# Mechanical properties :
#
#
# Convention : Reuss Voigt Hill
#
# Bulk Modulus (GPa) = 31.69117 43.56999 37.63058
# Shear Modulus (GPa) = 19.81121 32.80450 26.30786
#
# Velocity S-wave (km/s) = 2.92228 3.76039 3.36751
# Velocity P-wave (km/s) = 5.00468 6.13474 5.59830
#
# Compressibility (1/GPa) = 0.03155453
#
# Stress axis : x y z
#
# Youngs Moduli (GPa) = 80.98447 23.52557 40.17570
#
# Poissons Ratio (x) = 0.21954 -0.01312
# Poissons Ratio (y) = 0.75574 0.60626
# Poissons Ratio (z) = -0.02645 0.35501
#
# Static dielectric constant tensor:
#      x y z
#    x 2.211340 -0.757040 0.269240 
#    y -0.757040 4.415880 -0.886850 
#    z 0.269240 -0.886850 2.190840 
# 
# From -- ./inp_files/155536.got.cif
#   From: 2010.05.17/outbox.cif.g08.bks.cpg/sg2_78_cif.got.tgz:155536.got - 2010.06.03 11:33:40.
