data_PCOD9087364
_publ_section_title
;
Structure prediction by ZEFSAII (Michael W. Deem and Ramdas Pophale) SiO2 
 PCOD9087364
Probable space group: P -1
;
_chemical_formula_sum "Si O2"
_cell_formula_units_Z 16
_cell_length_a 18.667039
_cell_length_b 7.621960
_cell_length_c 13.670340
_cell_angle_alpha 82.663412
_cell_angle_beta 158.529441
_cell_angle_gamma 108.370027
_cell_volume 593.938776
_symmetry_space_group_name_H-M "P -1"
_symmetry_group_IT_number 2
_symmetry_cell_setting 'triclinic'
loop_
_space_group_symop_operation_xyz
x,y,z
-x,-y,-z
loop_
_atom_site_type_symbol
_atom_site_label
_atom_site_fract_x
_atom_site_fract_y
_atom_site_fract_z
Si Si1 0.463551 0.914248 0.570763
Si Si2 0.426642 0.660436 0.020064
Si Si3 0.365036 0.176482 0.536748
Si Si4 0.760158 0.511207 0.401245
Si Si5 0.141456 0.435203 0.950692
Si Si6 0.825622 0.071813 0.194343
Si Si7 0.195138 0.444902 0.237166
Si Si8 0.973159 0.755564 0.378406
O O1 0.414272 0.681425 0.519582
O O2 0.500000 0.000000 0.500000
O O3 0.282157 0.967277 0.383869
O O4 0.658281 0.030264 0.894108
O O5 0.575823 0.842756 0.274719
O O6 0.572371 0.546124 0.208095
O O7 0.365989 0.669377 0.829417
O O8 0.186117 0.489329 0.779496
O O9 0.202112 0.269596 0.320412
O O10 0.608904 0.367060 0.783687
O O11 0.937094 0.484910 0.693817
O O12 0.929525 0.724907 0.541715
O O13 0.030687 0.251199 0.742731
O O14 0.192509 0.386827 0.125173
O O15 0.802831 0.129978 0.273404
O O16 0.844543 0.871948 0.235912
O O17 0.000000 0.500000 0.000000
#
# Coordination Sequence:
#
# PCOD9087364 Si02
#       8
#     2   2   2   2   2   2   2   2
#     4  12  24  40  67  95 124 166 210 263 309 370
#     4   9  20  36  60  91 124 167 194 250 311 373
#     4  11  23  40  67  93 123 166 215 255 309 377
#     4  10  19  36  63  87 128 156 202 252 311 362
#     4  11  21  39  64  92 116 165 207 255 303 375
#     4  10  20  38  59  93 122 155 206 259 300 362
#     4  12  27  46  64  91 130 165 208 264 320 372
#     4   9  21  36  64  86 122 163 205 250 307 365
#
# _framework density 26.938803
#
# number of rings (size 3 to 8) (size 9 to 14) (size 15 to 20)
#    0.000    1.500    2.500    2.625    3.500    2.000 
#    2.250    0.000    0.000    3.750    0.000    0.000 
#    0.000    0.000    0.000    0.000    0.000    0.000 
#
# Total GULP energy -89414.043525 kJ/mol
# GULP energy per Si atom -5588.377720 kJ/mol
# Density = 2.687749 g / cm^3
# Si number density = 26.938803 Si / 1000 Ang^3
#
#
#
# Elastic Constant Matrix: (Units=GPa)
#
#
# Indices 1 2 3 4 5 6 
#
# 1 72.4619 9.1217 46.1559 33.0502 -34.6087 -26.3642
# 2 9.1217 94.9251 16.6332 2.2496 -13.2884 -17.1545
# 3 46.1559 16.6332 139.1214 -5.4516 -31.3315 -4.1332
# 4 33.0502 2.2496 -5.4516 40.5515 -8.8102 -3.3213
# 5 -34.6087 -13.2884 -31.3315 -8.8102 58.9791 11.8379
# 6 -26.3642 -17.1545 -4.1332 -3.3213 11.8379 40.5947
#
#
#
# Elastic Compliance Matrix: (Units=1/GPa)
#
#
# Indices 1 2 3 4 5 6 
#
# 1 0.083894 0.008722 -0.025833 -0.064572 0.018840 0.044763
# 2 0.008722 0.012596 -0.003692 -0.006875 0.003134 0.009135
# 3 -0.025833 -0.003692 0.016390 0.022038 -0.001071 -0.014553
# 4 -0.064572 -0.006875 0.022038 0.075780 -0.009673 -0.033577
# 5 0.018840 0.003134 -0.001071 -0.009673 0.025664 0.005176
# 6 0.044763 0.009135 -0.014553 -0.033577 0.005176 0.051827
#
#
# Mechanical properties :
#
#
# Convention : Reuss Voigt Hill
#
# Bulk Modulus (GPa) = 14.03045 50.03666 32.03356
# Shear Modulus (GPa) = 15.08227 43.66488 29.37358
#
# Velocity S-wave (km/s) = 2.36873 4.03040 3.30568
# Velocity P-wave (km/s) = 3.56381 6.34613 5.14656
#
# Compressibility (1/GPa) = 0.07127353
#
# Stress axis : x y z
#
# Youngs Moduli (GPa) = 11.91984 79.39086 61.01238
#
# Poissons Ratio (x) = -0.69245 1.57616
# Poissons Ratio (y) = -0.10397 0.22524
# Poissons Ratio (z) = 0.30793 0.29309
#
# Static dielectric constant tensor:
#      x y z
#    x 2.118480 -0.040380 0.068320 
#    y -0.040380 2.157240 -0.038430 
#    z 0.068320 -0.038430 2.226670 
# 
# From -- ./inp_files/222426.got.cif
#   From: 2010.05.17/outbox.cif.g08.bks.cpg/sg2_112_cif.got.tgz:222426.got - 2010.06.03 11:33:40.
