data_PCOD9087848
_publ_section_title
;
Structure prediction by ZEFSAII (Michael W. Deem and Ramdas Pophale) SiO2 
 PCOD9087848
Probable space group: P -1
;
_chemical_formula_sum "Si O2"
_cell_formula_units_Z 16
_cell_length_a 16.740983
_cell_length_b 20.186500
_cell_length_c 13.349958
_cell_angle_alpha 26.242228
_cell_angle_beta 40.717632
_cell_angle_gamma 21.983014
_cell_volume 668.424384
_symmetry_space_group_name_H-M "P -1"
_symmetry_group_IT_number 2
_symmetry_cell_setting 'triclinic'
loop_
_space_group_symop_operation_xyz
x,y,z
-x,-y,-z
loop_
_atom_site_type_symbol
_atom_site_label
_atom_site_fract_x
_atom_site_fract_y
_atom_site_fract_z
Si Si1 0.520875 0.311749 0.143707
Si Si2 0.440947 0.831516 0.325115
Si Si3 0.903729 0.048947 0.239752
Si Si4 0.638162 0.312314 0.811764
Si Si5 0.793386 0.686642 0.256884
Si Si6 0.246100 0.372835 0.196035
Si Si7 0.028788 0.728780 0.728762
Si Si8 0.487836 0.877450 0.900958
O O1 0.316162 0.609822 0.997458
O O2 0.600598 0.312797 0.963732
O O3 0.372307 0.329736 0.220265
O O4 0.767521 0.044453 0.332971
O O5 0.472621 0.632592 0.520293
O O6 0.689738 0.633977 0.399112
O O7 0.242037 0.043074 0.314684
O O8 0.349013 0.042823 0.042634
O O9 0.099874 0.909762 0.168711
O O10 0.017501 0.889314 0.455649
O O11 0.578103 0.226433 0.920702
O O12 0.066887 0.432516 0.318670
O O13 0.713873 0.820963 0.259966
O O14 0.103881 0.643109 0.891613
O O15 0.446043 0.116874 0.274254
O O16 0.250411 0.402436 0.913893
#
# Coordination Sequence:
#
# PCOD9087848 Si02
#       8
#     2   2   2   2   2   2   2   2
#     4  10  21  37  54  82 116 143 188 230 278 331
#     4  10  21  34  55  82 121 143 183 232 283 324
#     4  11  21  33  56  83 111 152 180 228 284 332
#     4  11  21  37  56  85 113 147 184 233 277 333
#     4  10  19  37  54  83 113 152 182 229 276 336
#     4   8  19  36  54  80 109 146 182 230 276 323
#     4   9  19  35  52  84 110 148 177 233 275 328
#     4   9  20  34  57  83 112 144 188 226 278 330
#
# _framework density 23.936888
#
# number of rings (size 3 to 8) (size 9 to 14) (size 15 to 20)
#    0.750    1.500    1.250    1.875    0.000    5.500 
#    2.250    0.000    0.000    1.500    0.000    0.000 
#    0.000    0.000    0.000    0.000    0.000    0.000 
#
# Total GULP energy -89212.774865 kJ/mol
# GULP energy per Si atom -5575.798429 kJ/mol
# Density = 2.388241 g / cm^3
# Si number density = 23.936888 Si / 1000 Ang^3
#
#
#
# Elastic Constant Matrix: (Units=GPa)
#
#
# Indices 1 2 3 4 5 6 
#
# 1 54.8256 108.0904 26.8513 40.4400 15.9747 -14.7085
# 2 108.0904 -49.1567 -33.1361 -124.2191 -99.5329 -37.5379
# 3 26.8513 -33.1361 24.2623 -46.7437 -26.8718 -18.2942
# 4 40.4400 -124.2191 -46.7437 -74.8546 -63.2544 -16.8033
# 5 15.9747 -99.5329 -26.8718 -63.2544 -29.2774 -14.0715
# 6 -14.7085 -37.5379 -18.2942 -16.8033 -14.0715 33.2186
#
#
#
# Elastic Compliance Matrix: (Units=1/GPa)
#
#
# Indices 1 2 3 4 5 6 
#
# 1 0.026674 -0.007547 0.003023 0.004514 0.020114 0.015751
# 2 -0.007547 0.010565 -0.008231 -0.012454 -0.003737 -0.003819
# 3 0.003023 -0.008231 0.028929 0.005204 -0.011017 0.005935
# 4 0.004514 -0.012454 0.005204 0.034241 -0.031448 -0.005210
# 5 0.020114 -0.003737 -0.011017 -0.031448 0.063053 0.009418
# 6 0.015751 -0.003819 0.005935 -0.005210 0.009418 0.037385
#
#
# Mechanical properties :
#
#
# Convention : Reuss Voigt Hill
#
# Bulk Modulus (GPa) = 24.59581 25.94916 25.27248
# Shear Modulus (GPa) = 20.84117 -18.97431 0.93343
#
# Velocity S-wave (km/s) = 2.95392 -2.81851 0.62514
# Velocity P-wave (km/s) = 4.68313 0.52170 3.33196
#
# Compressibility (1/GPa) = 0.04065734
#
# Stress axis : x y z
#
# Youngs Moduli (GPa) = 37.49007 94.65380 34.56696
#
# Poissons Ratio (x) = 0.71435 -0.10449
# Poissons Ratio (y) = 0.28294 0.28453
# Poissons Ratio (z) = -0.11333 0.77912
#
# Static dielectric constant tensor:
#      x y z
#    x 2.110090 0.035030 -0.020300 
#    y 0.035030 1.918310 -0.018860 
#    z -0.020300 -0.018860 1.961660 
# 
# From -- ./inp_files/539179.got.cif
#   From: 2010.05.17/outbox.cif.g08.bks.cpg/sg2_270_cif.got.tgz:539179.got - 2010.06.03 11:33:40.
