data_PCOD9087647
_publ_section_title
;
Structure prediction by ZEFSAII (Michael W. Deem and Ramdas Pophale) SiO2 
 PCOD9087647
Probable space group: P -1
;
_chemical_formula_sum "Si O2"
_cell_formula_units_Z 14
_cell_length_a 5.498625
_cell_length_b 8.534653
_cell_length_c 11.828573
_cell_angle_alpha 95.325651
_cell_angle_beta 83.250110
_cell_angle_gamma 99.259317
_cell_volume 542.522213
_symmetry_space_group_name_H-M "P -1"
_symmetry_group_IT_number 2
_symmetry_cell_setting 'triclinic'
loop_
_space_group_symop_operation_xyz
x,y,z
-x,-y,-z
loop_
_atom_site_type_symbol
_atom_site_label
_atom_site_fract_x
_atom_site_fract_y
_atom_site_fract_z
Si Si1 0.163463 0.845044 0.092226
Si Si2 0.012227 0.641104 0.661962
Si Si3 0.082004 0.040561 0.365574
Si Si4 0.313326 0.197821 0.049467
Si Si5 0.555512 0.924530 0.370096
Si Si6 0.356010 0.618335 0.452253
Si Si7 0.091294 0.496900 0.123411
O O1 0.142971 0.685137 0.161854
O O2 0.222526 0.038639 0.118129
O O3 0.408650 0.815452 0.005235
O O4 0.897972 0.821824 0.039072
O O5 0.840418 0.774791 0.655166
O O6 0.862904 0.475465 0.615490
O O7 0.089903 0.602922 0.781095
O O8 0.231536 0.700077 0.567486
O O9 0.309806 0.950481 0.320700
O O10 0.000000 0.000000 0.500000
O O11 0.823084 0.988417 0.311753
O O12 0.301480 0.378384 0.107285
O O13 0.542643 0.738833 0.378944
O O14 0.500000 0.000000 0.500000
O O15 0.500000 0.500000 0.500000
O O16 0.000000 0.500000 0.000000
#
# Coordination Sequence:
#
# PCOD9087647 Si02
#       7
#     2   2   2   2   2   2   2
#     4   9  18  37  65  91 128 165 226 272 333 389
#     4  11  24  41  66  98 135 178 231 273 355 409
#     4  10  19  38  62  92 125 167 219 276 323 413
#     4   9  18  37  65  91 122 177 217 279 327 392
#     4  10  19  36  65  88 128 167 214 274 339 396
#     4  11  23  41  65  96 136 176 219 292 339 415
#     4  10  22  44  67  97 138 182 226 284 339 409
#
# _framework density 25.805394
#
# number of rings (size 3 to 8) (size 9 to 14) (size 15 to 20)
#    0.000    2.000    2.857    2.143    2.000    0.000 
#   12.857    0.000    6.286    0.000    0.000    0.000 
#    0.000    0.000    0.000    0.000    0.000    0.000 
#
# Total GULP energy -78035.735714 kJ/mol
# GULP energy per Si atom -5573.981122 kJ/mol
# Density = 2.574666 g / cm^3
# Si number density = 25.805394 Si / 1000 Ang^3
#
#
#
# Elastic Constant Matrix: (Units=GPa)
#
#
# Indices 1 2 3 4 5 6 
#
# 1 129.9078 9.0568 19.7764 -3.2964 -4.8719 -5.0648
# 2 9.0568 171.1542 44.3137 -34.0567 7.3771 -19.5823
# 3 19.7764 44.3137 86.2666 -27.3624 16.6099 -0.4211
# 4 -3.2964 -34.0567 -27.3624 38.6483 -2.4450 -6.2289
# 5 -4.8719 7.3771 16.6099 -2.4450 14.9813 -9.0849
# 6 -5.0648 -19.5823 -0.4211 -6.2289 -9.0849 43.9493
#
#
#
# Elastic Compliance Matrix: (Units=1/GPa)
#
#
# Indices 1 2 3 4 5 6 
#
# 1 0.008725 0.000394 -0.004155 -0.000832 0.008843 0.002851
# 2 0.000394 0.008324 -0.003053 0.006310 0.003710 0.005386
# 3 -0.004155 -0.003053 0.022434 0.010255 -0.026468 -0.005642
# 4 -0.000832 0.006310 0.010255 0.039634 -0.003620 0.007683
# 5 0.008843 0.003710 -0.026468 -0.003620 0.111713 0.024998
# 6 0.002851 0.005386 -0.005642 0.007683 0.024998 0.031684
#
#
# Mechanical properties :
#
#
# Convention : Reuss Voigt Hill
#
# Bulk Modulus (GPa) = 38.67725 59.29138 48.98432
# Shear Modulus (GPa) = 20.42824 40.46123 30.44473
#
# Velocity S-wave (km/s) = 2.81664 3.96401 3.43852
# Velocity P-wave (km/s) = 5.05950 6.63155 5.89813
#
# Compressibility (1/GPa) = 0.02585499
#
# Stress axis : x y z
#
# Youngs Moduli (GPa) = 114.61953 120.13063 44.57540
#
# Poissons Ratio (x) = -0.04729 0.18520
# Poissons Ratio (y) = -0.04512 0.13608
# Poissons Ratio (z) = 0.47622 0.36672
#
# Static dielectric constant tensor:
#      x y z
#    x 2.076780 -0.064090 0.016330 
#    y -0.064090 2.512140 0.175390 
#    z 0.016330 0.175390 2.188710 
# 
# From -- ./inp_files/132195.got.cif
#   From: 2010.05.17/outbox.cif.g08.bks.cpg/sg2_67_cif.got.tgz:132195.got - 2010.06.03 11:33:40.
