data_PCOD9087845
_publ_section_title
;
Structure prediction by ZEFSAII (Michael W. Deem and Ramdas Pophale) SiO2 
 PCOD9087845
Probable space group: P -1
;
_chemical_formula_sum "Si O2"
_cell_formula_units_Z 14
_cell_length_a 14.616033
_cell_length_b 7.321497
_cell_length_c 11.345090
_cell_angle_alpha 90.243986
_cell_angle_beta 149.146077
_cell_angle_gamma 102.549083
_cell_volume 561.885391
_symmetry_space_group_name_H-M "P -1"
_symmetry_group_IT_number 2
_symmetry_cell_setting 'triclinic'
loop_
_space_group_symop_operation_xyz
x,y,z
-x,-y,-z
loop_
_atom_site_type_symbol
_atom_site_label
_atom_site_fract_x
_atom_site_fract_y
_atom_site_fract_z
Si Si1 0.408741 0.313494 0.698088
Si Si2 0.599819 0.777875 0.593052
Si Si3 0.807634 0.352631 0.215603
Si Si4 0.033600 0.300066 0.244488
Si Si5 0.791898 0.254275 0.765922
Si Si6 0.957371 0.830813 0.139758
Si Si7 0.141092 0.942981 0.571009
O O1 0.419446 0.269975 0.568900
O O2 0.260377 0.421352 0.535807
O O3 0.294584 0.122829 0.659925
O O4 0.628846 0.411444 0.992950
O O5 0.387153 0.684213 0.420736
O O6 0.690045 0.021272 0.701619
O O7 0.755662 0.728659 0.842205
O O8 0.883656 0.302862 0.176410
O O9 0.743018 0.151494 0.223112
O O10 0.000000 0.500000 0.500000
O O11 0.009520 0.070944 0.195113
O O12 0.971804 0.366174 0.055505
O O13 0.877000 0.218160 0.738779
O O14 0.980592 0.788725 0.300906
O O15 0.000000 0.000000 0.500000
#
# Coordination Sequence:
#
# PCOD9087845 Si02
#       7
#     2   2   2   2   2   2   2
#     4  11  20  38  65  88 117 156 204 250 297 340
#     4  10  17  27  55  93 115 144 188 252 304 343
#     4  12  26  42  59  84 123 168 203 240 295 363
#     4  10  18  34  56  85 118 151 194 244 291 347
#     4  10  16  27  52  92 121 139 187 247 303 346
#     4  10  18  31  56  89 121 144 188 254 303 334
#     4  11  22  40  60  88 126 157 198 252 288 349
#
# _framework density 24.916111999999998
#
# number of rings (size 3 to 8) (size 9 to 14) (size 15 to 20)
#    0.000    1.429    8.571    1.286    0.000    0.571 
#    2.571    0.000    0.000    1.714    0.000    0.000 
#    0.000    0.143    0.000    0.000    0.000    0.000 
#
# Total GULP energy -78178.868212 kJ/mol
# GULP energy per Si atom -5584.204872 kJ/mol
# Density = 2.485940 g / cm^3
# Si number density = 24.916112 Si / 1000 Ang^3
#
#
#
# Elastic Constant Matrix: (Units=GPa)
#
#
# Indices 1 2 3 4 5 6 
#
# 1 156.8271 14.4424 60.7951 -9.5627 -6.7347 1.6127
# 2 14.4424 54.0865 3.7364 7.5289 1.5978 6.3063
# 3 60.7951 3.7364 169.6638 -23.6357 9.0103 10.1279
# 4 -9.5627 7.5289 -23.6357 29.3068 2.7506 -11.0974
# 5 -6.7347 1.5978 9.0103 2.7506 48.0437 -9.2516
# 6 1.6127 6.3063 10.1279 -11.0974 -9.2516 15.5896
#
#
#
# Elastic Compliance Matrix: (Units=1/GPa)
#
#
# Indices 1 2 3 4 5 6 
#
# 1 0.008046 -0.003225 -0.002885 0.003263 0.002810 0.006337
# 2 -0.003225 0.024472 0.000100 -0.015820 -0.004970 -0.023842
# 3 -0.002885 0.000100 0.007886 0.004360 -0.002795 -0.003420
# 4 0.003263 -0.015820 0.004360 0.061373 0.006421 0.050728
# 5 0.002810 -0.004970 -0.002795 0.006421 0.026070 0.023577
# 6 0.006337 -0.023842 -0.003420 0.050728 0.023577 0.125458
#
#
# Mechanical properties :
#
#
# Convention : Reuss Voigt Hill
#
# Bulk Modulus (GPa) = 35.23206 59.83612 47.53409
# Shear Modulus (GPa) = 18.19586 38.69494 28.44540
#
# Velocity S-wave (km/s) = 2.70531 3.94510 3.38249
# Velocity P-wave (km/s) = 4.89175 6.69469 5.86294
#
# Compressibility (1/GPa) = 0.02838324
#
# Stress axis : x y z
#
# Youngs Moduli (GPa) = 124.27946 40.86279 126.81420
#
# Poissons Ratio (x) = 0.13180 0.36587
# Poissons Ratio (y) = 0.40085 -0.01269
# Poissons Ratio (z) = 0.35856 -0.00409
#
# Static dielectric constant tensor:
#      x y z
#    x 1.942400 0.074000 0.021070 
#    y 0.074000 2.113500 0.047440 
#    z 0.021070 0.047440 2.030260 
# 
# From -- ./inp_files/447704.got.cif
#   From: 2010.05.17/outbox.cif.g08.bks.cpg/sg2_224_cif.got.tgz:447704.got - 2010.06.03 11:33:40.
