data_PCOD9087274
_publ_section_title
;
Structure prediction by ZEFSAII (Michael W. Deem and Ramdas Pophale) SiO2 
 PCOD9087274
Probable space group: P -1
;
_chemical_formula_sum "Si O2"
_cell_formula_units_Z 16
_cell_length_a 11.001633
_cell_length_b 17.068232
_cell_length_c 11.905443
_cell_angle_alpha 113.948218
_cell_angle_beta 51.920593
_cell_angle_gamma 68.446201
_cell_volume 824.278971
_symmetry_space_group_name_H-M "P -1"
_symmetry_group_IT_number 2
_symmetry_cell_setting 'triclinic'
loop_
_space_group_symop_operation_xyz
x,y,z
-x,-y,-z
loop_
_atom_site_type_symbol
_atom_site_label
_atom_site_fract_x
_atom_site_fract_y
_atom_site_fract_z
Si Si1 0.770021 0.682804 0.009502
Si Si2 0.917036 0.134491 0.177292
Si Si3 0.102925 0.192085 0.946238
Si Si4 0.826336 0.841611 0.375988
Si Si5 0.844737 0.671702 0.404180
Si Si6 0.609146 0.041465 0.003042
Si Si7 0.218858 0.973818 0.341922
Si Si8 0.637972 0.689340 0.321726
O O1 0.943880 0.510385 0.803725
O O2 0.964039 0.677436 0.903583
O O3 0.547751 0.795679 0.098547
O O4 0.581629 0.767686 0.284412
O O5 0.596218 0.275276 0.506184
O O6 0.918411 0.205039 0.119568
O O7 0.000000 0.000000 0.000000
O O8 0.149518 0.062363 0.094669
O O9 0.066717 0.205399 0.840382
O O10 0.458603 0.010322 0.671766
O O11 0.967971 0.696185 0.282690
O O12 0.887854 0.896058 0.445522
O O13 0.685315 0.773833 0.668764
O O14 0.607370 0.755427 0.492978
O O15 0.750144 0.017843 0.800314
O O16 0.500000 0.000000 0.000000
O O17 0.000000 0.000000 0.500000
O O18 0.000000 0.500000 0.000000
#
# Coordination Sequence:
#
# PCOD9087274 Si02
#       8
#     2   2   2   2   2   2   2   2
#     4  10  22  40  66  87 129 176 208 264 341 392
#     4  12  23  38  68 105 125 170 229 273 321 388
#     4  10  20  35  64  96 124 158 217 272 317 382
#     4  10  19  36  62  92 126 166 210 264 328 387
#     4  11  20  40  65  92 123 174 213 259 339 395
#     4  12  23  40  66  94 132 171 218 273 321 393
#     4  11  24  38  59  91 123 169 220 267 313 387
#     4  10  21  39  65  92 131 173 208 268 333 388
#
# _framework density 19.410906000000001
#
# number of rings (size 3 to 8) (size 9 to 14) (size 15 to 20)
#    0.000    1.250    5.000    1.500    5.250    0.500 
#    0.000    3.125    8.250    0.000    0.000    0.000 
#    0.000    0.000    0.000    0.000    0.000    0.000 
#
# Total GULP energy -89167.746850 kJ/mol
# GULP energy per Si atom -5572.984178 kJ/mol
# Density = 1.936673 g / cm^3
# Si number density = 19.410906 Si / 1000 Ang^3
#
#
#
# Elastic Constant Matrix: (Units=GPa)
#
#
# Indices 1 2 3 4 5 6 
#
# 1 101.7115 48.1440 46.0405 -4.9873 22.5343 15.2523
# 2 48.1440 126.3505 46.4100 -10.3427 9.5591 34.5561
# 3 46.0405 46.4100 70.3434 -9.1264 11.7749 16.6305
# 4 -4.9873 -10.3427 -9.1264 40.0873 8.3868 1.3810
# 5 22.5343 9.5591 11.7749 8.3868 29.3279 -4.3113
# 6 15.2523 34.5561 16.6305 1.3810 -4.3113 33.6332
#
#
#
# Elastic Compliance Matrix: (Units=1/GPa)
#
#
# Indices 1 2 3 4 5 6 
#
# 1 0.016910 -0.001848 -0.006751 0.002524 -0.010982 -0.003943
# 2 -0.001848 0.014136 -0.003879 0.003926 -0.004593 -0.012518
# 3 -0.006751 -0.003879 0.024142 0.005012 -0.005528 -0.005804
# 4 0.002524 0.003926 0.005012 0.031081 -0.015729 -0.010949
# 5 -0.010982 -0.004593 -0.005528 -0.015729 0.053683 0.019960
# 6 -0.003943 -0.012518 -0.005804 -0.010949 0.019960 0.050260
#
#
# Mechanical properties :
#
#
# Convention : Reuss Voigt Hill
#
# Bulk Modulus (GPa) = 33.07776 64.39938 48.73857
# Shear Modulus (GPa) = 22.19795 31.13040 26.66418
#
# Velocity S-wave (km/s) = 3.38536 4.00904 3.71033
# Velocity P-wave (km/s) = 5.68847 7.39451 6.59687
#
# Compressibility (1/GPa) = 0.03023179
#
# Stress axis : x y z
#
# Youngs Moduli (GPa) = 59.13548 70.74208 41.42209
#
# Poissons Ratio (x) = 0.13072 0.27964
# Poissons Ratio (y) = 0.10928 0.16069
# Poissons Ratio (z) = 0.39922 0.27443
#
# Static dielectric constant tensor:
#      x y z
#    x 1.689770 0.019790 -0.006650 
#    y 0.019790 1.776440 0.017960 
#    z -0.006650 0.017960 1.741230 
# 
# From -- ./inp_files/403200.got.cif
#   From: 2010.05.17/outbox.cif.g08.bks.cpg/sg2_202_cif.got.tgz:403200.got - 2010.06.03 11:33:40.
