data_PCOD9087677
_publ_section_title
;
Structure prediction by ZEFSAII (Michael W. Deem and Ramdas Pophale) SiO2 
 PCOD9087677
Probable space group: P -1
;
_chemical_formula_sum "Si O2"
_cell_formula_units_Z 16
_cell_length_a 9.271341
_cell_length_b 15.324086
_cell_length_c 15.002895
_cell_angle_alpha 137.870230
_cell_angle_beta 47.001752
_cell_angle_gamma 144.643088
_cell_volume 810.914560
_symmetry_space_group_name_H-M "P -1"
_symmetry_group_IT_number 2
_symmetry_cell_setting 'triclinic'
loop_
_space_group_symop_operation_xyz
x,y,z
-x,-y,-z
loop_
_atom_site_type_symbol
_atom_site_label
_atom_site_fract_x
_atom_site_fract_y
_atom_site_fract_z
Si Si1 0.399798 0.213542 0.012386
Si Si2 0.406683 0.444600 0.896878
Si Si3 0.735881 0.255466 0.362479
Si Si4 0.082061 0.682462 0.080599
Si Si5 0.832678 0.057531 0.623695
Si Si6 0.899156 0.045054 0.206400
Si Si7 0.200936 0.590204 0.362001
Si Si8 0.798120 0.123751 0.485083
O O1 0.614835 0.215394 0.970278
O O2 0.322577 0.127548 0.881289
O O3 0.485176 0.396932 0.094446
O O4 0.158254 0.108497 0.099213
O O5 0.543354 0.367861 0.752179
O O6 0.101912 0.339302 0.936187
O O7 0.500000 0.500000 0.000000
O O8 0.845997 0.169287 0.291460
O O9 0.734796 0.358076 0.521829
O O10 0.951824 0.395535 0.310227
O O11 0.446254 0.101644 0.342912
O O12 0.049122 0.778436 0.242834
O O13 0.000000 0.500000 0.000000
O O14 0.821093 0.104273 0.563639
O O15 0.000000 0.000000 0.500000
O O16 0.908514 0.063349 0.323151
O O17 0.122606 0.695898 0.433691
O O18 0.500000 0.000000 0.500000
#
# Coordination Sequence:
#
# PCOD9087677 Si02
#       8
#     2   2   2   2   2   2   2   2
#     4  10  20  38  62  88 132 170 208 256 322 383
#     4  11  24  36  62  92 122 165 214 263 318 389
#     4  10  19  38  64  91 127 168 210 264 316 382
#     4  10  23  40  60  92 132 168 213 268 331 381
#     4  12  24  42  68  96 130 171 215 273 331 381
#     4  10  19  36  65  93 123 170 218 253 315 384
#     4  10  21  37  62  95 126 160 218 263 315 376
#     4  11  22  38  66  95 125 162 219 269 309 383
#
# _framework density 19.730808
#
# number of rings (size 3 to 8) (size 9 to 14) (size 15 to 20)
#    0.000    1.500    5.000    0.750    5.250    0.000 
#    0.000    1.875    0.000    3.000    0.000    0.000 
#    0.000    0.000    0.000    0.000    0.000    0.000 
#
# Total GULP energy -89117.470649 kJ/mol
# GULP energy per Si atom -5569.841916 kJ/mol
# Density = 1.968590 g / cm^3
# Si number density = 19.730808 Si / 1000 Ang^3
#
#
#
# Elastic Constant Matrix: (Units=GPa)
#
#
# Indices 1 2 3 4 5 6 
#
# 1 105.4303 10.2055 29.2853 -7.9243 -1.6442 23.2412
# 2 10.2055 54.6448 3.9606 9.6523 -4.1431 10.6717
# 3 29.2853 3.9606 96.9103 2.2121 -9.1391 17.2474
# 4 -7.9243 9.6523 2.2121 27.4647 5.0032 -6.0178
# 5 -1.6442 -4.1431 -9.1391 5.0032 27.5500 -3.3455
# 6 23.2412 10.6717 17.2474 -6.0178 -3.3455 24.7062
#
#
#
# Elastic Compliance Matrix: (Units=1/GPa)
#
#
# Indices 1 2 3 4 5 6 
#
# 1 0.012414 -0.000857 -0.002257 0.002315 -0.001698 -0.009398
# 2 -0.000857 0.023497 0.002442 -0.012545 0.004939 -0.013435
# 3 -0.002257 0.002442 0.012984 -0.005266 0.004442 -0.008677
# 4 0.002315 -0.012545 -0.005266 0.047493 -0.010041 0.017126
# 5 -0.001698 0.004939 0.004442 -0.010041 0.040158 -0.000645
# 6 -0.009398 -0.013435 -0.008677 0.017126 -0.000645 0.065262
#
#
# Mechanical properties :
#
#
# Convention : Reuss Voigt Hill
#
# Bulk Modulus (GPa) = 21.02961 38.20979 29.61970
# Shear Modulus (GPa) = 22.83077 30.17978 26.50528
#
# Velocity S-wave (km/s) = 3.40533 3.91522 3.66914
# Velocity P-wave (km/s) = 5.11303 6.31239 5.74410
#
# Compressibility (1/GPa) = 0.04755201
#
# Stress axis : x y z
#
# Youngs Moduli (GPa) = 80.55377 42.55815 77.01529
#
# Poissons Ratio (x) = 0.03648 0.17380
# Poissons Ratio (y) = 0.06904 -0.18806
# Poissons Ratio (z) = 0.18178 -0.10392
#
# Static dielectric constant tensor:
#      x y z
#    x 1.677140 0.043770 0.007310 
#    y 0.043770 1.813290 -0.007220 
#    z 0.007310 -0.007220 1.762650 
# 
# From -- ./inp_files/504356.got.cif
#   From: 2010.05.17/outbox.cif.g08.bks.cpg/sg2_253_cif.got.tgz:504356.got - 2010.06.03 11:33:40.
