data_PCOD9087693
_publ_section_title
;
Structure prediction by ZEFSAII (Michael W. Deem and Ramdas Pophale) SiO2 
 PCOD9087693
Probable space group: P -1
;
_chemical_formula_sum "Si O2"
_cell_formula_units_Z 16
_cell_length_a 10.014632
_cell_length_b 12.546852
_cell_length_c 22.720822
_cell_angle_alpha 25.323495
_cell_angle_beta 34.916527
_cell_angle_gamma 46.301922
_cell_volume 684.022458
_symmetry_space_group_name_H-M "P -1"
_symmetry_group_IT_number 2
_symmetry_cell_setting 'triclinic'
loop_
_space_group_symop_operation_xyz
x,y,z
-x,-y,-z
loop_
_atom_site_type_symbol
_atom_site_label
_atom_site_fract_x
_atom_site_fract_y
_atom_site_fract_z
Si Si1 0.385184 0.098152 0.705414
Si Si2 0.243600 0.307569 0.535522
Si Si3 0.044916 0.287397 0.816292
Si Si4 0.425513 0.855398 0.008309
Si Si5 0.895300 0.192503 0.622201
Si Si6 0.121604 0.010849 0.387176
Si Si7 0.940982 0.456642 0.888293
Si Si8 0.354447 0.341838 0.862662
O O1 0.648682 0.107804 0.626922
O O2 0.361266 0.160140 0.614888
O O3 0.255820 0.287745 0.694356
O O4 0.248071 0.806995 0.910215
O O5 0.120813 0.514011 0.510177
O O6 0.434934 0.471999 0.340803
O O7 0.046548 0.133741 0.652905
O O8 0.094003 0.453593 0.774181
O O9 0.795935 0.307180 0.865907
O O10 0.000000 0.000000 0.000000
O O11 0.629175 0.020871 0.810707
O O12 0.322383 0.064671 0.980201
O O13 0.556011 0.697776 0.084614
O O14 0.011342 0.143814 0.542864
O O15 0.173055 0.299099 0.200252
O O16 0.000000 0.000000 0.500000
O O17 0.117538 0.449381 0.882738
#
# Coordination Sequence:
#
# PCOD9087693 Si02
#       8
#     2   2   2   2   2   2   2   2
#     4  11  23  42  67  98 126 171 223 267 321 383
#     4  10  23  39  67  98 131 163 221 278 317 371
#     4  10  20  36  66  98 124 162 222 269 314 369
#     4  10  19  36  65  97 129 161 214 274 315 377
#     4  10  23  42  64  96 133 172 214 265 328 380
#     4  12  28  45  63  94 139 177 212 260 331 397
#     4  11  23  43  65  94 132 173 212 267 325 393
#     4  10  20  36  63  98 130 162 211 270 329 369
#
# _framework density 23.391045999999999
#
# number of rings (size 3 to 8) (size 9 to 14) (size 15 to 20)
#    0.000    1.500    2.500    3.375    8.750    0.500 
#    0.000    6.250    0.000    0.000    0.000    0.000 
#    0.000    0.000    0.000    0.000    0.000    0.000 
#
# Total GULP energy -89528.602818 kJ/mol
# GULP energy per Si atom -5595.537676 kJ/mol
# Density = 2.333781 g / cm^3
# Si number density = 23.391046 Si / 1000 Ang^3
#
#
#
# Elastic Constant Matrix: (Units=GPa)
#
#
# Indices 1 2 3 4 5 6 
#
# 1 154.4588 46.4066 27.6462 0.7644 32.2208 -6.3434
# 2 46.4066 52.0530 18.4654 -2.7655 4.9880 6.5290
# 3 27.6462 18.4654 72.0850 -7.1997 16.7840 1.9792
# 4 0.7644 -2.7655 -7.1997 26.1092 -5.2826 8.8775
# 5 32.2208 4.9880 16.7840 -5.2826 32.2349 -1.1006
# 6 -6.3434 6.5290 1.9792 8.8775 -1.1006 32.2534
#
#
#
# Elastic Compliance Matrix: (Units=1/GPa)
#
#
# Indices 1 2 3 4 5 6 
#
# 1 0.012477 -0.011069 -0.000020 -0.005886 -0.011511 0.005923
# 2 -0.011069 0.031615 -0.005078 0.007654 0.009728 -0.010040
# 3 -0.000020 -0.005078 0.017323 0.003061 -0.007751 -0.001146
# 4 -0.005886 0.007654 0.003061 0.047537 0.010362 -0.015626
# 5 -0.011511 0.009728 -0.007751 0.010362 0.046585 -0.005020
# 6 0.005923 -0.010040 -0.001146 -0.015626 -0.005020 0.038402
#
#
# Mechanical properties :
#
#
# Convention : Reuss Voigt Hill
#
# Bulk Modulus (GPa) = 34.38776 51.51480 42.95128
# Shear Modulus (GPa) = 21.18938 30.52475 25.85706
#
# Velocity S-wave (km/s) = 3.01304 3.61636 3.32840
# Velocity P-wave (km/s) = 5.18051 6.28558 5.75961
#
# Compressibility (1/GPa) = 0.02908011
#
# Stress axis : x y z
#
# Youngs Moduli (GPa) = 80.14694 31.63077 57.72674
#
# Poissons Ratio (x) = 0.35012 0.00117
# Poissons Ratio (y) = 0.88716 0.29314
# Poissons Ratio (z) = 0.00162 0.16062
#
# Static dielectric constant tensor:
#      x y z
#    x 1.879440 0.008990 -0.012050 
#    y 0.008990 1.893830 0.022310 
#    z -0.012050 0.022310 1.906470 
# 
# From -- ./inp_files/187488.got.cif
#   From: 2010.05.17/outbox.cif.g08.bks.cpg/sg2_94_cif.got.tgz:187488.got - 2010.06.03 11:33:40.
