data_PCOD9087174
_publ_section_title
;
Structure prediction by ZEFSAII (Michael W. Deem and Ramdas Pophale) SiO2 
 PCOD9087174
Probable space group: P -1
;
_chemical_formula_sum "Si O2"
_cell_formula_units_Z 14
_cell_length_a 8.378845
_cell_length_b 12.584589
_cell_length_c 20.464215
_cell_angle_alpha 144.125279
_cell_angle_beta 49.246368
_cell_angle_gamma 146.681805
_cell_volume 692.604926
_symmetry_space_group_name_H-M "P -1"
_symmetry_group_IT_number 2
_symmetry_cell_setting 'triclinic'
loop_
_space_group_symop_operation_xyz
x,y,z
-x,-y,-z
loop_
_atom_site_type_symbol
_atom_site_label
_atom_site_fract_x
_atom_site_fract_y
_atom_site_fract_z
Si Si1 0.700761 0.651347 0.121751
Si Si2 0.405183 0.420851 0.220005
Si Si3 0.026212 0.243809 0.686380
Si Si4 0.815154 0.363673 0.546678
Si Si5 0.874927 0.115712 0.517136
Si Si6 0.324602 0.641766 0.121825
Si Si7 0.805440 0.083219 0.963663
O O1 0.589267 0.600171 0.198503
O O2 0.569639 0.734784 0.154428
O O3 0.595156 0.399584 0.990106
O O4 0.044953 0.851585 0.115503
O O5 0.651048 0.516046 0.255115
O O6 0.204250 0.459149 0.320568
O O7 0.233745 0.138252 0.106983
O O8 0.988730 0.258430 0.626743
O O9 0.788502 0.222253 0.777359
O O10 0.997878 0.011009 0.588335
O O11 0.933282 0.278828 0.521252
O O12 0.000000 0.500000 0.500000
O O13 0.476875 0.113979 0.497338
O O14 0.041132 0.348893 0.069497
O O15 0.500000 0.000000 0.000000
#
# Coordination Sequence:
#
# PCOD9087174 Si02
#       7
#     2   2   2   2   2   2   2
#     4   9  21  38  56  87 124 159 202 239 295 363
#     4  11  21  36  62  85 120 159 197 247 303 357
#     4  10  19  36  62  86 118 163 194 246 302 353
#     4  10  22  41  63  89 113 154 205 255 298 362
#     4   9  21  40  61  84 119 155 200 249 308 350
#     4   9  19  38  59  84 126 158 200 245 293 358
#     4  10  20  36  58  88 120 156 198 247 290 358
#
# _framework density 20.213543000000001
#
# number of rings (size 3 to 8) (size 9 to 14) (size 15 to 20)
#    0.857    1.429    1.429    0.857    0.000    7.429 
#    0.000    7.857    0.000    0.000    0.000    0.000 
#    0.000    0.000    0.000    0.000    0.000    0.000 
#
# Total GULP energy -78044.628953 kJ/mol
# GULP energy per Si atom -5574.616354 kJ/mol
# Density = 2.016754 g / cm^3
# Si number density = 20.213543 Si / 1000 Ang^3
#
#
#
# Elastic Constant Matrix: (Units=GPa)
#
#
# Indices 1 2 3 4 5 6 
#
# 1 90.5267 34.0873 36.7059 -13.2799 -12.5838 -5.9510
# 2 34.0873 94.6320 18.9302 -25.1117 -14.7795 -8.5854
# 3 36.7059 18.9302 54.3524 -18.3555 -24.5894 2.7685
# 4 -13.2799 -25.1117 -18.3555 27.3544 10.6099 1.1687
# 5 -12.5838 -14.7795 -24.5894 10.6099 31.4372 -1.5312
# 6 -5.9510 -8.5854 2.7685 1.1687 -1.5312 22.3904
#
#
#
# Elastic Compliance Matrix: (Units=1/GPa)
#
#
# Indices 1 2 3 4 5 6 
#
# 1 0.017522 -0.004824 -0.013582 -0.003480 -0.004491 0.004361
# 2 -0.004824 0.016066 0.003899 0.013132 0.004436 0.004014
# 3 -0.013582 0.003899 0.043178 0.016879 0.024147 -0.006683
# 4 -0.003480 0.013132 0.016879 0.059082 -0.002016 -0.001199
# 5 -0.004491 0.004436 0.024147 -0.002016 0.051721 0.001164
# 6 0.004361 0.004014 -0.006683 -0.001199 0.001164 0.048329
#
#
# Mechanical properties :
#
#
# Convention : Reuss Voigt Hill
#
# Bulk Modulus (GPa) = 20.94154 46.55087 33.74621
# Shear Modulus (GPa) = 17.80439 26.22222 22.01331
#
# Velocity S-wave (km/s) = 2.97107 3.60566 3.30364
# Velocity P-wave (km/s) = 4.70663 6.35719 5.59313
#
# Compressibility (1/GPa) = 0.04775198
#
# Stress axis : x y z
#
# Youngs Moduli (GPa) = 57.07132 62.24136 23.16010
#
# Poissons Ratio (x) = 0.30024 0.31457
# Poissons Ratio (y) = 0.27530 -0.09030
# Poissons Ratio (z) = 0.77515 -0.24267
#
# Static dielectric constant tensor:
#      x y z
#    x 1.712570 0.013370 -0.003830 
#    y 0.013370 1.706630 0.014910 
#    z -0.003830 0.014910 1.758990 
# 
# From -- ./inp_files/589623.got.cif
#   From: 2010.05.17/outbox.cif.g08.bks.cpg/sg2_295_cif.got.tgz:589623.got - 2010.06.03 11:33:40.
