data_PCOD9087067
_publ_section_title
;
Structure prediction by ZEFSAII (Michael W. Deem and Ramdas Pophale) SiO2 
 PCOD9087067
Probable space group: P -1
;
_chemical_formula_sum "Si O2"
_cell_formula_units_Z 16
_cell_length_a 14.830124
_cell_length_b 15.864639
_cell_length_c 11.338825
_cell_angle_alpha 143.446794
_cell_angle_beta 140.353211
_cell_angle_gamma 26.875845
_cell_volume 703.941737
_symmetry_space_group_name_H-M "P -1"
_symmetry_group_IT_number 2
_symmetry_cell_setting 'triclinic'
loop_
_space_group_symop_operation_xyz
x,y,z
-x,-y,-z
loop_
_atom_site_type_symbol
_atom_site_label
_atom_site_fract_x
_atom_site_fract_y
_atom_site_fract_z
Si Si1 0.444886 0.530166 0.177457
Si Si2 0.504985 0.282963 0.365505
Si Si3 0.406093 0.882406 0.083778
Si Si4 0.117689 0.012585 0.763560
Si Si5 0.228768 0.010419 0.289223
Si Si6 0.793536 0.314827 0.109331
Si Si7 0.927769 0.275113 0.645741
Si Si8 0.337136 0.063335 0.707670
O O1 0.406968 0.668006 0.396628
O O2 0.611951 0.481507 0.204117
O O3 0.536251 0.323343 0.092043
O O4 0.267398 0.606911 0.997688
O O5 0.672068 0.151208 0.283658
O O6 0.286672 0.497046 0.342890
O O7 0.509887 0.131664 0.271086
O O8 0.381943 0.943160 0.263719
O O9 0.564192 0.861515 0.147725
O O10 0.183179 0.046376 0.984323
O O11 0.056286 0.893224 0.588148
O O12 0.966264 0.207728 0.745637
O O13 0.298833 0.006845 0.483814
O O14 0.207882 0.855551 0.086396
O O15 0.002098 0.225312 0.269205
O O16 0.119463 0.226333 0.736957
#
# Coordination Sequence:
#
# PCOD9087067 Si02
#       8
#     2   2   2   2   2   2   2   2
#     4  10  19  36  61  91 122 154 205 254 296 355
#     4  11  21  40  69  88 119 162 209 248 300 360
#     4  11  24  41  58  88 134 157 193 255 308 358
#     4  10  23  40  65  93 119 158 208 257 298 350
#     4  10  20  37  62  87 123 159 201 245 308 358
#     4   9  19  33  61  95 113 155 210 254 287 356
#     4  10  22  40  66  91 117 158 209 255 292 360
#     4  11  24  42  62  91 127 163 195 250 314 363
#
# _framework density 22.729154000000001
#
# number of rings (size 3 to 8) (size 9 to 14) (size 15 to 20)
#    0.000    1.750    2.500    1.500    3.500    3.000 
#    2.250    1.875    0.000    0.000    0.000    0.000 
#    0.000    0.000    0.000    0.000    0.000    0.000 
#
# Total GULP energy -89481.091599 kJ/mol
# GULP energy per Si atom -5592.568225 kJ/mol
# Density = 2.267742 g / cm^3
# Si number density = 22.729154 Si / 1000 Ang^3
#
#
#
# Elastic Constant Matrix: (Units=GPa)
#
#
# Indices 1 2 3 4 5 6 
#
# 1 81.0802 35.7190 6.9223 -3.0838 8.8476 10.2490
# 2 35.7190 128.8735 1.8344 -21.8407 -7.7090 9.5902
# 3 6.9223 1.8344 38.6018 -9.1652 -6.8472 8.1382
# 4 -3.0838 -21.8407 -9.1652 19.1827 -2.1733 -8.2624
# 5 8.8476 -7.7090 -6.8472 -2.1733 31.7352 -2.6147
# 6 10.2490 9.5902 8.1382 -8.2624 -2.6147 27.5474
#
#
#
# Elastic Compliance Matrix: (Units=1/GPa)
#
#
# Indices 1 2 3 4 5 6 
#
# 1 0.017117 -0.006629 -0.005633 -0.011363 -0.008924 -0.006652
# 2 -0.006629 0.012891 0.005759 0.018310 0.007682 0.002498
# 3 -0.005633 0.005759 0.034554 0.022531 0.011783 -0.002241
# 4 -0.011363 0.018310 0.022531 0.093364 0.020614 0.021157
# 5 -0.008924 0.007682 0.011783 0.020614 0.040411 0.007183
# 6 -0.006652 0.002498 -0.002241 0.021157 0.007183 0.045596
#
#
# Mechanical properties :
#
#
# Convention : Reuss Voigt Hill
#
# Bulk Modulus (GPa) = 19.39541 37.50079 28.44810
# Shear Modulus (GPa) = 18.23998 29.29839 23.76919
#
# Velocity S-wave (km/s) = 2.83590 3.59419 3.23733
# Velocity P-wave (km/s) = 4.39032 5.81026 5.14947
#
# Compressibility (1/GPa) = 0.05155858
#
# Stress axis : x y z
#
# Youngs Moduli (GPa) = 58.42162 77.57073 28.94006
#
# Poissons Ratio (x) = 0.51418 0.16302
# Poissons Ratio (y) = 0.38725 -0.16668
# Poissons Ratio (z) = 0.32909 -0.44677
#
# Static dielectric constant tensor:
#      x y z
#    x 1.847610 -0.006620 -0.023800 
#    y -0.006620 1.903150 -0.021480 
#    z -0.023800 -0.021480 1.833520 
# 
# From -- ./inp_files/390211.got.cif
#   From: 2010.05.17/outbox.cif.g08.bks.cpg/sg2_196_cif.got.tgz:390211.got - 2010.06.03 11:33:40.
