data_PCOD9087605
_publ_section_title
;
Structure prediction by ZEFSAII (Michael W. Deem and Ramdas Pophale) SiO2 
 PCOD9087605
Probable space group: P -1
;
_chemical_formula_sum "Si O2"
_cell_formula_units_Z 16
_cell_length_a 9.662563
_cell_length_b 21.706824
_cell_length_c 25.249542
_cell_angle_alpha 161.620409
_cell_angle_beta 151.922976
_cell_angle_gamma 28.762606
_cell_volume 757.856409
_symmetry_space_group_name_H-M "P -1"
_symmetry_group_IT_number 2
_symmetry_cell_setting 'triclinic'
loop_
_space_group_symop_operation_xyz
x,y,z
-x,-y,-z
loop_
_atom_site_type_symbol
_atom_site_label
_atom_site_fract_x
_atom_site_fract_y
_atom_site_fract_z
Si Si1 0.674393 0.154578 0.427963
Si Si2 0.690450 0.947634 0.870689
Si Si3 0.398336 0.367981 0.081007
Si Si4 0.432620 0.953313 0.283651
Si Si5 0.350335 0.902073 0.416492
Si Si6 0.310411 0.551972 0.661436
Si Si7 0.234410 0.987855 0.939459
Si Si8 0.697360 0.548515 0.997640
O O1 0.421862 0.174232 0.312384
O O2 0.620183 0.388945 0.615628
O O3 0.586985 0.047638 0.364098
O O4 0.002634 0.029618 0.416134
O O5 0.421307 0.157371 0.946549
O O6 0.748405 0.874930 0.890963
O O7 0.000000 0.000000 0.000000
O O8 0.651490 0.446338 0.260783
O O9 0.454135 0.331580 0.008404
O O10 0.061524 0.512984 0.089825
O O11 0.478361 0.070320 0.448147
O O12 0.579776 0.708462 0.135421
O O13 0.084422 0.973375 0.166642
O O14 0.355812 0.674170 0.212381
O O15 0.500000 0.000000 0.500000
O O16 0.289964 0.765251 0.801751
O O17 0.000000 0.500000 0.500000
O O18 0.500000 0.000000 0.000000
#
# Coordination Sequence:
#
# PCOD9087605 Si02
#       8
#     2   2   2   2   2   2   2   2
#     4  12  21  43  68  99 128 173 232 281 334 397
#     4  11  19  39  65  93 127 169 222 266 325 409
#     4  10  19  36  64  96 126 165 219 281 328 384
#     4  12  24  45  72  97 131 180 233 280 343 409
#     4  12  29  43  64 101 141 179 223 285 346 412
#     4  11  22  39  67 100 135 176 227 285 338 404
#     4  11  26  43  65  99 137 177 218 283 346 409
#     4  11  21  41  67  95 131 175 225 282 337 394
#
# _framework density 21.112178
#
# number of rings (size 3 to 8) (size 9 to 14) (size 15 to 20)
#    0.000    0.750    5.000    3.375    1.750    1.500 
#    0.000    0.625    0.000    0.000    0.000    0.000 
#    0.000    0.000    0.000    0.000    0.000    0.000 
#
# Total GULP energy -89218.428490 kJ/mol
# GULP energy per Si atom -5576.151781 kJ/mol
# Density = 2.106413 g / cm^3
# Si number density = 21.112178 Si / 1000 Ang^3
#
#
#
# Elastic Constant Matrix: (Units=GPa)
#
#
# Indices 1 2 3 4 5 6 
#
# 1 109.3328 20.4616 23.1816 -24.3059 2.8772 -1.6436
# 2 20.4616 90.5653 28.4857 -14.0128 -2.8329 -6.0844
# 3 23.1816 28.4857 78.9262 -8.0368 -13.0054 11.7318
# 4 -24.3059 -14.0128 -8.0368 48.1156 0.9603 -13.9084
# 5 2.8772 -2.8329 -13.0054 0.9603 29.5324 -6.6859
# 6 -1.6436 -6.0844 11.7318 -13.9084 -6.6859 25.4968
#
#
#
# Elastic Compliance Matrix: (Units=1/GPa)
#
#
# Indices 1 2 3 4 5 6 
#
# 1 0.011652 0.000007 -0.003875 0.006977 -0.001735 0.005887
# 2 0.000007 0.014515 -0.005940 0.006023 0.000773 0.009686
# 3 -0.003875 -0.005940 0.018042 -0.003859 0.005470 -0.010640
# 4 0.006977 0.006023 -0.003859 0.031566 0.002020 0.021412
# 5 -0.001735 0.000773 0.005470 0.002020 0.038425 0.008733
# 6 0.005887 0.009686 -0.010640 0.021412 0.008733 0.060777
#
#
# Mechanical properties :
#
#
# Convention : Reuss Voigt Hill
#
# Bulk Modulus (GPa) = 40.66223 47.00912 43.83568
# Shear Modulus (GPa) = 24.65587 34.40864 29.53226
#
# Velocity S-wave (km/s) = 3.42109 4.04146 3.74415
# Velocity P-wave (km/s) = 5.90822 6.64022 6.28489
#
# Compressibility (1/GPa) = 0.02459285
#
# Stress axis : x y z
#
# Youngs Moduli (GPa) = 85.82190 68.89308 55.42600
#
# Poissons Ratio (x) = -0.00050 0.21480
# Poissons Ratio (y) = -0.00062 0.32923
# Poissons Ratio (z) = 0.33260 0.40922
#
# Static dielectric constant tensor:
#      x y z
#    x 1.766640 -0.001720 -0.090250 
#    y -0.001720 1.780010 0.031330 
#    z -0.090250 0.031330 1.882270 
# 
# From -- ./inp_files/608676.got.cif
#   From: 2010.05.17/outbox.cif.g08.bks.cpg/sg2_305_cif.got.tgz:608676.got - 2010.06.03 11:33:40.
