data_PCOD9087166
_publ_section_title
;
Structure prediction by ZEFSAII (Michael W. Deem and Ramdas Pophale) SiO2 
 PCOD9087166
Probable space group: P -1
;
_chemical_formula_sum "Si O2"
_cell_formula_units_Z 14
_cell_length_a 14.698889
_cell_length_b 5.399228
_cell_length_c 7.522745
_cell_angle_alpha 92.983266
_cell_angle_beta 72.688159
_cell_angle_gamma 66.599399
_cell_volume 513.131298
_symmetry_space_group_name_H-M "P -1"
_symmetry_group_IT_number 2
_symmetry_cell_setting 'triclinic'
loop_
_space_group_symop_operation_xyz
x,y,z
-x,-y,-z
loop_
_atom_site_type_symbol
_atom_site_label
_atom_site_fract_x
_atom_site_fract_y
_atom_site_fract_z
Si Si1 0.102594 0.596899 0.816708
Si Si2 0.092981 0.649726 0.247043
Si Si3 0.620106 0.838074 0.856075
Si Si4 0.914099 0.825033 0.649829
Si Si5 0.765464 0.060698 0.303490
Si Si6 0.572455 0.468609 0.627776
Si Si7 0.360695 0.672106 0.971762
O O1 0.996265 0.711830 0.764709
O O2 0.080472 0.645418 0.042871
O O3 0.159897 0.782073 0.727208
O O4 0.173299 0.269884 0.739666
O O5 0.982499 0.768263 0.428714
O O6 0.149312 0.356397 0.299585
O O7 0.142487 0.855435 0.275700
O O8 0.612518 0.701795 0.665748
O O9 0.666901 0.572662 0.951641
O O10 0.500000 0.000000 0.000000
O O11 0.655144 0.081163 0.875526
O O12 0.676512 0.193592 0.510225
O O13 0.707074 0.165569 0.152873
O O14 0.500000 0.500000 0.500000
O O15 0.483109 0.517405 0.829449
#
# Coordination Sequence:
#
# PCOD9087166 Si02
#       7
#     2   2   2   2   2   2   2
#     4  12  23  41  61  94 135 161 204 251 326 368
#     4  10  21  40  68  94 122 162 208 252 300 369
#     4  10  19  36  62  86 108 148 212 271 311 350
#     4  10  21  40  68  95 120 161 212 249 299 375
#     4  11  25  40  57  89 129 169 201 254 322 371
#     4   9  20  39  61  84 117 160 215 258 296 361
#     4  10  21  40  61  84 116 162 219 260 299 366
#
# _framework density 27.283467999999999
#
# number of rings (size 3 to 8) (size 9 to 14) (size 15 to 20)
#    0.000    1.714    0.000    5.143    0.000    3.429 
#    7.714   12.143    0.000    0.000    0.000    0.000 
#    0.000    0.000    0.000    0.000    0.000    0.000 
#
# Total GULP energy -78355.459416 kJ/mol
# GULP energy per Si atom -5596.818530 kJ/mol
# Density = 2.722137 g / cm^3
# Si number density = 27.283468 Si / 1000 Ang^3
#
#
#
# Elastic Constant Matrix: (Units=GPa)
#
#
# Indices 1 2 3 4 5 6 
#
# 1 72.1520 64.3431 32.1120 0.1122 -11.4056 21.6640
# 2 64.3431 238.9207 68.8949 27.4870 -11.7348 15.5863
# 3 32.1120 68.8949 187.2782 7.9706 0.7052 -0.4388
# 4 0.1122 27.4870 7.9706 57.6747 -3.5441 -1.6628
# 5 -11.4056 -11.7348 0.7052 -3.5441 48.2017 10.4267
# 6 21.6640 15.5863 -0.4388 -1.6628 10.4267 57.6057
#
#
#
# Elastic Compliance Matrix: (Units=1/GPa)
#
#
# Indices 1 2 3 4 5 6 
#
# 1 0.022727 -0.004950 -0.002236 0.002767 0.006197 -0.008266
# 2 -0.004950 0.006221 -0.001323 -0.002762 0.000146 0.000062
# 3 -0.002236 -0.001323 0.006229 -0.000262 -0.001280 0.001470
# 4 0.002767 -0.002762 -0.000262 0.018770 0.001366 -0.000001
# 5 0.006197 0.000146 -0.001280 0.001366 0.023805 -0.006649
# 6 -0.008266 0.000062 0.001470 -0.000001 -0.006649 0.021666
#
#
# Mechanical properties :
#
#
# Convention : Reuss Voigt Hill
#
# Bulk Modulus (GPa) = 55.07089 92.11678 73.59384
# Shear Modulus (GPa) = 40.82018 54.89647 47.85833
#
# Velocity S-wave (km/s) = 3.87221 4.49049 4.19276
# Velocity P-wave (km/s) = 6.34196 7.79244 7.10432
#
# Compressibility (1/GPa) = 0.01815841
#
# Stress axis : x y z
#
# Youngs Moduli (GPa) = 44.00118 160.75060 160.53799
#
# Poissons Ratio (x) = 0.79576 0.35900
# Poissons Ratio (y) = 0.21782 0.21232
# Poissons Ratio (z) = 0.09840 0.21260
#
# Static dielectric constant tensor:
#      x y z
#    x 2.305120 0.044690 0.058870 
#    y 0.044690 2.172330 0.007580 
#    z 0.058870 0.007580 2.133240 
# 
# From -- ./inp_files/321944.got.cif
#   From: 2010.05.17/outbox.cif.g08.bks.cpg/sg2_161_cif.got.tgz:321944.got - 2010.06.03 11:33:40.
