data_PCOD9087991
_publ_section_title
;
Structure prediction by ZEFSAII (Michael W. Deem and Ramdas Pophale) SiO2 
 PCOD9087991
Probable space group: P -1
;
_chemical_formula_sum "Si O2"
_cell_formula_units_Z 14
_cell_length_a 11.519095
_cell_length_b 12.946336
_cell_length_c 12.782332
_cell_angle_alpha 39.711577
_cell_angle_beta 141.693533
_cell_angle_gamma 140.110795
_cell_volume 687.506230
_symmetry_space_group_name_H-M "P -1"
_symmetry_group_IT_number 2
_symmetry_cell_setting 'triclinic'
loop_
_space_group_symop_operation_xyz
x,y,z
-x,-y,-z
loop_
_atom_site_type_symbol
_atom_site_label
_atom_site_fract_x
_atom_site_fract_y
_atom_site_fract_z
Si Si1 0.076181 0.195911 0.452952
Si Si2 0.257830 0.645187 0.857324
Si Si3 0.785720 0.482702 0.313075
Si Si4 0.878038 0.615977 0.855453
Si Si5 0.281536 0.161565 0.003934
Si Si6 0.390962 0.131303 0.336994
Si Si7 0.966795 0.018545 0.222802
O O1 0.213766 0.332765 0.354161
O O2 0.900109 0.267629 0.294020
O O3 0.000000 0.000000 0.500000
O O4 0.142743 0.154505 0.646287
O O5 0.212331 0.559064 0.776749
O O6 0.486564 0.794609 0.899861
O O7 0.254782 0.497043 0.053956
O O8 0.579803 0.322709 0.336479
O O9 0.000000 0.500000 0.500000
O O10 0.763594 0.664689 0.173567
O O11 0.034174 0.805764 0.863043
O O12 0.000000 0.500000 0.000000
O O13 0.276681 0.124733 0.151861
O O14 0.134527 0.015876 0.935140
O O15 0.210748 0.065027 0.347124
O O16 0.500000 0.000000 0.500000
#
# Coordination Sequence:
#
# PCOD9087991 Si02
#       7
#     2   2   2   2   2   2   2
#     4   9  19  36  57  79 105 146 195 238 281 327
#     4  10  19  37  58  80 115 153 185 236 287 330
#     4  11  22  37  58  87 120 153 188 228 284 353
#     4   9  19  36  58  78 102 146 193 233 281 327
#     4  11  22  36  56  87 118 151 190 230 284 351
#     4  11  22  36  57  87 118 152 188 229 283 346
#     4  11  20  36  58  82 114 149 184 236 285 334
#
# _framework density 20.363451000000001
#
# number of rings (size 3 to 8) (size 9 to 14) (size 15 to 20)
#    0.000    1.714    0.000    7.286    0.000    1.143 
#    0.000    7.143    0.000    6.857    0.000    0.000 
#    0.000    0.000    0.000    0.000    0.000    0.000 
#
# Total GULP energy -78052.273786 kJ/mol
# GULP energy per Si atom -5575.162413 kJ/mol
# Density = 2.031710 g / cm^3
# Si number density = 20.363451 Si / 1000 Ang^3
#
#
#
# Elastic Constant Matrix: (Units=GPa)
#
#
# Indices 1 2 3 4 5 6 
#
# 1 43.2812 36.8741 7.7787 4.9730 -0.2446 4.6758
# 2 36.8741 66.6113 32.4913 4.5083 -4.4949 -19.0915
# 3 7.7787 32.4913 72.6226 -5.3521 -5.3974 5.0636
# 4 4.9730 4.5083 -5.3521 36.7141 -0.1105 9.0063
# 5 -0.2446 -4.4949 -5.3974 -0.1105 31.1385 -27.5117
# 6 4.6758 -19.0915 5.0636 9.0063 -27.5117 20.4787
#
#
#
# Elastic Compliance Matrix: (Units=1/GPa)
#
#
# Indices 1 2 3 4 5 6 
#
# 1 0.024621 -0.003166 -0.002070 -0.009458 0.021948 0.025584
# 2 -0.003166 0.006927 -0.002104 0.006604 -0.026058 -0.030210
# 3 -0.002070 -0.002104 0.015055 -0.000020 0.012339 0.011374
# 4 -0.009458 0.006604 -0.000020 0.025587 0.008687 0.008738
# 5 0.021948 -0.026058 0.012339 0.008687 0.006776 -0.027072
# 6 0.025584 -0.030210 0.011374 0.008738 -0.027072 -0.028199
#
#
# Mechanical properties :
#
#
# Convention : Reuss Voigt Hill
#
# Bulk Modulus (GPa) = 31.32491 37.42259 34.37375
# Shear Modulus (GPa) = 65.71227 24.69100 45.20164
#
# Velocity S-wave (km/s) = 5.68681 3.48590 4.71653
# Velocity P-wave (km/s) = 7.65088 5.88381 6.82478
#
# Compressibility (1/GPa) = 0.03192347
#
# Stress axis : x y z
#
# Youngs Moduli (GPa) = 40.61595 144.36083 66.42183
#
# Poissons Ratio (x) = 0.45703 0.13752
# Poissons Ratio (y) = 0.12858 0.13973
# Poissons Ratio (z) = 0.08409 0.30368
#
# Static dielectric constant tensor:
#      x y z
#    x 1.783360 0.008100 -0.066120 
#    y 0.008100 1.702560 -0.014550 
#    z -0.066120 -0.014550 1.692530 
# 
# From -- ./inp_files/170017.got.cif
#   From: 2010.05.17/outbox.cif.g08.bks.cpg/sg2_86_cif.got.tgz:170017.got - 2010.06.03 11:33:40.
