data_PCOD9087709
_publ_section_title
;
Structure prediction by ZEFSAII (Michael W. Deem and Ramdas Pophale) SiO2 
 PCOD9087709
Probable space group: P -1
;
_chemical_formula_sum "Si O2"
_cell_formula_units_Z 16
_cell_length_a 26.201875
_cell_length_b 25.795145
_cell_length_c 11.072406
_cell_angle_alpha 149.134368
_cell_angle_beta 29.342461
_cell_angle_gamma 168.763131
_cell_volume 714.162516
_symmetry_space_group_name_H-M "P -1"
_symmetry_group_IT_number 2
_symmetry_cell_setting 'triclinic'
loop_
_space_group_symop_operation_xyz
x,y,z
-x,-y,-z
loop_
_atom_site_type_symbol
_atom_site_label
_atom_site_fract_x
_atom_site_fract_y
_atom_site_fract_z
Si Si1 0.328305 0.440902 0.192559
Si Si2 0.211414 0.697340 0.631642
Si Si3 0.634092 0.473456 0.979914
Si Si4 0.068830 0.950128 0.215602
Si Si5 0.893593 0.244863 0.449573
Si Si6 0.743991 0.991782 0.495984
Si Si7 0.742765 0.208344 0.010259
Si Si8 0.673368 0.006420 0.161973
O O1 0.007518 0.160974 0.324788
O O2 0.483320 0.683717 0.401770
O O3 0.500000 0.500000 0.000000
O O4 0.320775 0.425339 0.032053
O O5 0.924975 0.392597 0.657499
O O6 0.202010 0.798833 0.794305
O O7 0.361897 0.764998 0.351446
O O8 0.344835 0.827533 0.750214
O O9 0.794193 0.660763 0.140150
O O10 0.785000 0.502532 0.701562
O O11 0.312673 0.179513 0.074439
O O12 0.000000 0.000000 0.500000
O O13 0.217715 0.008395 0.122272
O O14 0.777507 0.080068 0.473429
O O15 0.788895 0.116567 0.279731
O O16 0.767885 0.109507 0.771504
O O17 0.000000 0.500000 0.000000
O O18 0.500000 0.000000 0.000000
#
# Coordination Sequence:
#
# PCOD9087709 Si02
#       8
#     2   2   2   2   2   2   2   2
#     4  11  23  43  66  96 125 170 219 276 321 378
#     4  11  22  39  63  92 133 169 214 270 321 390
#     4  10  21  38  65  91 115 165 211 258 311 385
#     4  11  22  41  64  90 125 161 214 262 320 383
#     4  10  19  36  66  89 124 161 218 259 316 387
#     4  11  23  39  68  95 131 168 222 267 327 394
#     4  12  25  42  65  96 135 177 217 263 329 398
#     4  10  22  39  61  97 123 170 215 266 331 380
#
# _framework density 22.403863000000001
#
# number of rings (size 3 to 8) (size 9 to 14) (size 15 to 20)
#    0.000    1.250    2.500    4.875    3.500    0.000 
#    4.500    0.000    0.000    0.000    0.000    0.000 
#    0.000    0.000    0.000    0.000    0.000    0.000 
#
# Total GULP energy -89071.658446 kJ/mol
# GULP energy per Si atom -5566.978653 kJ/mol
# Density = 2.235287 g / cm^3
# Si number density = 22.403863 Si / 1000 Ang^3
#
#
#
# Elastic Constant Matrix: (Units=GPa)
#
#
# Indices 1 2 3 4 5 6 
#
# 1 61.3623 -0.5902 25.9313 -0.6652 -13.8324 -0.6014
# 2 -0.5902 87.2398 7.5878 9.7205 6.3014 4.6184
# 3 25.9313 7.5878 77.1095 11.6543 -17.6721 -4.6486
# 4 -0.6652 9.7205 11.6543 31.4240 5.1919 -5.2149
# 5 -13.8324 6.3014 -17.6721 5.1919 33.5847 -0.0389
# 6 -0.6014 4.6184 -4.6486 -5.2149 -0.0389 24.7209
#
#
#
# Elastic Compliance Matrix: (Units=1/GPa)
#
#
# Indices 1 2 3 4 5 6 
#
# 1 0.019879 0.000120 -0.005871 0.001721 0.004809 -0.000272
# 2 0.000120 0.012331 -0.001528 -0.003372 -0.002551 -0.003303
# 3 -0.005871 -0.001528 0.018350 -0.007560 0.008695 0.002012
# 4 0.001721 -0.003372 -0.007560 0.038335 -0.008554 0.007324
# 5 0.004809 -0.002551 0.008695 -0.008554 0.038133 0.000484
# 6 -0.000272 -0.003303 0.002012 0.007324 0.000484 0.042986
#
#
# Mechanical properties :
#
#
# Convention : Reuss Voigt Hill
#
# Bulk Modulus (GPa) = 27.77599 32.39662 30.08630
# Shear Modulus (GPa) = 25.43581 30.79811 28.11696
#
# Velocity S-wave (km/s) = 3.37312 3.71169 3.54645
# Velocity P-wave (km/s) = 5.25313 5.73241 5.49799
#
# Compressibility (1/GPa) = 0.03600232
#
# Stress axis : x y z
#
# Youngs Moduli (GPa) = 50.30414 81.09501 54.49548
#
# Poissons Ratio (x) = -0.00976 0.31997
# Poissons Ratio (y) = -0.00606 0.08327
# Poissons Ratio (z) = 0.29536 0.12391
#
# Static dielectric constant tensor:
#      x y z
#    x 1.857870 -0.016710 -0.039030 
#    y -0.016710 2.002540 0.006020 
#    z -0.039030 0.006020 2.067170 
# 
# From -- ./inp_files/477227.got.cif
#   From: 2010.05.17/outbox.cif.g08.bks.cpg/sg2_239_cif.got.tgz:477227.got - 2010.06.03 11:33:40.
