data_PCOD9087231
_publ_section_title
;
Structure prediction by ZEFSAII (Michael W. Deem and Ramdas Pophale) SiO2 
 PCOD9087231
Probable space group: P -1
;
_chemical_formula_sum "Si O2"
_cell_formula_units_Z 14
_cell_length_a 7.021267
_cell_length_b 10.784944
_cell_length_c 18.939029
_cell_angle_alpha 147.980871
_cell_angle_beta 50.998296
_cell_angle_gamma 111.539606
_cell_volume 540.547265
_symmetry_space_group_name_H-M "P -1"
_symmetry_group_IT_number 2
_symmetry_cell_setting 'triclinic'
loop_
_space_group_symop_operation_xyz
x,y,z
-x,-y,-z
loop_
_atom_site_type_symbol
_atom_site_label
_atom_site_fract_x
_atom_site_fract_y
_atom_site_fract_z
Si Si1 0.150180 0.792380 0.568780
Si Si2 0.125203 0.617217 0.707252
Si Si3 0.599178 0.106202 0.303968
Si Si4 0.663855 0.667254 0.911129
Si Si5 0.687677 0.624374 0.111906
Si Si6 0.237464 0.844272 0.422355
Si Si7 0.289130 0.239751 0.257285
O O1 0.209199 0.912022 0.682810
O O2 0.165238 0.931834 0.560958
O O3 0.349524 0.492271 0.371714
O O4 0.868077 0.775381 0.641633
O O5 0.322016 0.326562 0.501607
O O6 0.294959 0.789495 0.737204
O O7 0.975609 0.636399 0.826685
O O8 0.912267 0.717623 0.740847
O O9 0.627485 0.816523 0.151971
O O10 0.457617 0.574253 0.957419
O O11 0.724399 0.448814 0.731435
O O12 0.512904 0.957414 0.063498
O O13 0.513864 0.813170 0.306915
O O14 0.000000 0.500000 0.000000
O O15 0.000000 0.000000 0.500000
#
# Coordination Sequence:
#
# PCOD9087231 Si02
#       7
#     2   2   2   2   2   2   2
#     4  10  21  36  61  90 124 154 201 260 310 354
#     4  10  19  36  62  90 117 167 205 249 291 381
#     4  10  22  36  59  93 129 154 202 256 317 351
#     4  10  21  36  66  88 118 165 214 243 297 379
#     4  10  21  37  61  89 122 158 205 251 304 362
#     4  10  22  39  65  87 116 165 212 241 298 375
#     4  10  19  36  63  90 120 155 209 252 308 355
#
# _framework density 25.89968
#
# number of rings (size 3 to 8) (size 9 to 14) (size 15 to 20)
#    0.857    1.143    1.429    3.000    0.000    0.571 
#    0.000    1.429    3.143    0.000    0.000    0.000 
#    0.000    0.000    0.000    0.000    0.000    0.000 
#
# Total GULP energy -78000.363656 kJ/mol
# GULP energy per Si atom -5571.454547 kJ/mol
# Density = 2.584073 g / cm^3
# Si number density = 25.899680 Si / 1000 Ang^3
#
#
#
# Elastic Constant Matrix: (Units=GPa)
#
#
# Indices 1 2 3 4 5 6 
#
# 1 82.5102 38.2169 22.3507 0.2115 2.8348 -6.9363
# 2 38.2169 169.6576 55.4692 0.2993 -22.5570 23.7508
# 3 22.3507 55.4692 117.2899 3.8179 -19.7206 23.0136
# 4 0.2115 0.2993 3.8179 42.1941 12.0500 -1.3487
# 5 2.8348 -22.5570 -19.7206 12.0500 29.5659 -2.8893
# 6 -6.9363 23.7508 23.0136 -1.3487 -2.8893 33.1618
#
#
#
# Elastic Compliance Matrix: (Units=1/GPa)
#
#
# Indices 1 2 3 4 5 6 
#
# 1 0.016499 -0.004738 -0.004197 0.003000 -0.008324 0.009153
# 2 -0.004738 0.009084 -0.000889 -0.002179 0.007059 -0.006354
# 3 -0.004197 -0.000889 0.013159 -0.004105 0.009322 -0.008728
# 4 0.003000 -0.002179 -0.004105 0.028780 -0.015947 0.004818
# 5 -0.008324 0.007059 0.009322 -0.015947 0.051805 -0.009401
# 6 0.009153 -0.006354 -0.008728 0.004818 -0.009401 0.042055
#
#
# Mechanical properties :
#
#
# Convention : Reuss Voigt Hill
#
# Bulk Modulus (GPa) = 52.36710 66.83685 59.60198
# Shear Modulus (GPa) = 26.68181 37.87909 32.28045
#
# Velocity S-wave (km/s) = 3.21315 3.82845 3.53422
# Velocity P-wave (km/s) = 5.83343 6.73831 6.30213
#
# Compressibility (1/GPa) = 0.01909596
#
# Stress axis : x y z
#
# Youngs Moduli (GPa) = 60.61047 110.08445 75.99160
#
# Poissons Ratio (x) = 0.52157 0.31891
# Poissons Ratio (y) = 0.28717 0.06752
# Poissons Ratio (z) = 0.25436 0.09782
#
# Static dielectric constant tensor:
#      x y z
#    x 2.124520 0.094720 -0.002700 
#    y 0.094720 2.288010 -0.056820 
#    z -0.002700 -0.056820 2.032890 
# 
# From -- ./inp_files/616940.got.cif
#   From: 2010.05.17/outbox.cif.g08.bks.cpg/sg2_309_cif.got.tgz:616940.got - 2010.06.03 11:33:40.
