data_PCOD9087750
_publ_section_title
;
Structure prediction by ZEFSAII (Michael W. Deem and Ramdas Pophale) SiO2 
 PCOD9087750
Probable space group: P -1
;
_chemical_formula_sum "Si O2"
_cell_formula_units_Z 16
_cell_length_a 8.312815
_cell_length_b 13.816689
_cell_length_c 12.411328
_cell_angle_alpha 103.800369
_cell_angle_beta 125.698337
_cell_angle_gamma 43.622142
_cell_volume 754.431595
_symmetry_space_group_name_H-M "P -1"
_symmetry_group_IT_number 2
_symmetry_cell_setting 'triclinic'
loop_
_space_group_symop_operation_xyz
x,y,z
-x,-y,-z
loop_
_atom_site_type_symbol
_atom_site_label
_atom_site_fract_x
_atom_site_fract_y
_atom_site_fract_z
Si Si1 0.486456 0.810764 0.126061
Si Si2 0.666745 0.646081 0.935650
Si Si3 0.684454 0.624506 0.352079
Si Si4 0.790920 0.840020 0.620776
Si Si5 0.375849 0.815907 0.481732
Si Si6 0.935625 0.862540 0.921114
Si Si7 0.602164 0.446672 0.904273
Si Si8 0.178714 0.826024 0.632568
O O1 0.663386 0.721337 0.281249
O O2 0.357135 0.970290 0.111824
O O3 0.650346 0.713359 0.057579
O O4 0.203875 0.841591 0.028442
O O5 0.561834 0.571155 0.878989
O O6 0.441505 0.773217 0.794229
O O7 0.000000 0.500000 0.000000
O O8 0.429397 0.736732 0.371388
O O9 0.603010 0.555312 0.237097
O O10 0.000000 0.500000 0.500000
O O11 0.672180 0.774440 0.588440
O O12 0.888941 0.852415 0.775214
O O13 0.036194 0.776829 0.610269
O O14 0.500000 0.000000 0.500000
O O15 0.313040 0.772587 0.550761
O O16 0.093827 0.994566 0.417553
O O17 0.063777 0.721729 0.001528
O O18 0.500000 0.500000 0.000000
#
# Coordination Sequence:
#
# PCOD9087750 Si02
#       8
#     2   2   2   2   2   2   2   2
#     4  10  21  41  65  99 128 178 232 286 342 407
#     4  12  26  42  68  96 139 187 227 280 359 414
#     4  11  25  39  70 102 140 176 234 287 349 422
#     4  10  19  36  67 102 127 178 223 279 351 403
#     4  10  24  41  69 103 133 184 231 280 355 407
#     4  10  20  37  69  95 129 168 238 289 328 414
#     4  11  23  44  67  97 131 178 226 279 349 407
#     4  10  22  43  66  97 141 178 230 292 330 424
#
# _framework density 21.208017999999999
#
# number of rings (size 3 to 8) (size 9 to 14) (size 15 to 20)
#    0.000    1.500    3.750    1.500   10.500    0.000 
#    0.000    6.250    0.000    0.000    0.000    0.000 
#    0.000    0.000    0.000    0.000    0.000    0.000 
#
# Total GULP energy -89208.013026 kJ/mol
# GULP energy per Si atom -5575.500814 kJ/mol
# Density = 2.115975 g / cm^3
# Si number density = 21.208018 Si / 1000 Ang^3
#
#
#
# Elastic Constant Matrix: (Units=GPa)
#
#
# Indices 1 2 3 4 5 6 
#
# 1 69.4521 25.8499 27.6454 7.0108 -3.5805 -25.4885
# 2 25.8499 116.0424 41.3104 7.3004 -14.5083 -18.7380
# 3 27.6454 41.3104 127.8284 -8.0588 -10.9806 -9.8840
# 4 7.0108 7.3004 -8.0588 38.0860 -1.3700 -1.5470
# 5 -3.5805 -14.5083 -10.9806 -1.3700 23.9036 6.7141
# 6 -25.4885 -18.7380 -9.8840 -1.5470 6.7141 32.1219
#
#
#
# Elastic Compliance Matrix: (Units=1/GPa)
#
#
# Indices 1 2 3 4 5 6 
#
# 1 0.022777 -0.001232 -0.003844 -0.004233 -0.004068 0.016818
# 2 -0.001232 0.011152 -0.002838 -0.002213 0.004118 0.003687
# 3 -0.003844 -0.002838 0.009879 0.003364 0.003033 -0.002138
# 4 -0.004233 -0.002213 0.003364 0.028133 0.001928 -0.002663
# 5 -0.004068 0.004118 0.003033 0.001928 0.047990 -0.009831
# 6 0.016818 0.003687 -0.002138 -0.002663 -0.009831 0.047896
#
#
# Mechanical properties :
#
#
# Convention : Reuss Voigt Hill
#
# Bulk Modulus (GPa) = 35.74052 55.88160 45.81106
# Shear Modulus (GPa) = 25.90936 33.39010 29.64973
#
# Velocity S-wave (km/s) = 3.49904 3.97219 3.74310
# Velocity P-wave (km/s) = 5.76310 6.88797 6.35049
#
# Compressibility (1/GPa) = 0.02797945
#
# Stress axis : x y z
#
# Youngs Moduli (GPa) = 43.90450 89.67127 101.22680
#
# Poissons Ratio (x) = 0.11048 0.38908
# Poissons Ratio (y) = 0.05409 0.28730
# Poissons Ratio (z) = 0.16875 0.25451
#
# Static dielectric constant tensor:
#      x y z
#    x 2.184810 0.018950 0.247030 
#    y 0.018950 1.833610 -0.057950 
#    z 0.247030 -0.057950 1.951610 
# 
# From -- ./inp_files/399330.got.cif
#   From: 2010.05.17/outbox.cif.g08.bks.cpg/sg2_200_cif.got.tgz:399330.got - 2010.06.03 11:33:40.
