data_PCOD9087426
_publ_section_title
;
Structure prediction by ZEFSAII (Michael W. Deem and Ramdas Pophale) SiO2 
 PCOD9087426
Probable space group: P -1
;
_chemical_formula_sum "Si O2"
_cell_formula_units_Z 16
_cell_length_a 12.664740
_cell_length_b 9.918821
_cell_length_c 19.835471
_cell_angle_alpha 145.527267
_cell_angle_beta 147.069725
_cell_angle_gamma 36.505519
_cell_volume 714.234290
_symmetry_space_group_name_H-M "P -1"
_symmetry_group_IT_number 2
_symmetry_cell_setting 'triclinic'
loop_
_space_group_symop_operation_xyz
x,y,z
-x,-y,-z
loop_
_atom_site_type_symbol
_atom_site_label
_atom_site_fract_x
_atom_site_fract_y
_atom_site_fract_z
Si Si1 0.059603 0.178760 0.814304
Si Si2 0.583028 0.151343 0.218958
Si Si3 0.213166 0.580459 0.123692
Si Si4 0.721224 0.169462 0.523659
Si Si5 0.286735 0.492311 0.469764
Si Si6 0.428107 0.173924 0.789196
Si Si7 0.199638 0.790435 0.075691
Si Si8 0.088112 0.669466 0.833327
O O1 0.930822 0.170911 0.809675
O O2 0.914737 0.148112 0.664647
O O3 0.287762 0.995687 0.837362
O O4 0.077741 0.450581 0.954485
O O5 0.367957 0.364754 0.165961
O O6 0.707473 0.308748 0.388127
O O7 0.557655 0.958638 0.184018
O O8 0.328522 0.657558 0.155542
O O9 0.511861 0.265506 0.496184
O O10 0.717787 0.376639 0.551046
O O11 0.711760 0.936235 0.377918
O O12 0.089836 0.408739 0.328739
O O13 0.652185 0.106225 0.847208
O O14 0.311863 0.480400 0.850822
O O15 0.117815 0.626362 0.912594
O O16 0.999874 0.025482 0.091645
#
# Coordination Sequence:
#
# PCOD9087426 Si02
#       8
#     2   2   2   2   2   2   2   2
#     4  11  23  40  63  93 125 165 210 256 311 365
#     4  11  23  40  68  97 124 159 208 266 313 366
#     4  11  25  42  63  92 132 170 204 252 309 379
#     4  10  19  36  63  92 122 158 206 264 312 357
#     4  10  19  36  63  92 122 158 206 264 312 357
#     4  11  23  40  68  97 124 159 208 266 313 366
#     4  11  25  42  63  92 132 170 204 252 309 379
#     4  11  23  40  63  93 125 165 210 256 311 365
#
# _framework density 22.401613000000001
#
# number of rings (size 3 to 8) (size 9 to 14) (size 15 to 20)
#    0.000    1.250    2.500    3.750    0.000    8.000 
#    0.000    2.500    0.000    3.000    0.000    0.000 
#    0.000    0.000    0.000    0.000    0.000    0.000 
#
# Total GULP energy -89172.938658 kJ/mol
# GULP energy per Si atom -5573.308666 kJ/mol
# Density = 2.235063 g / cm^3
# Si number density = 22.401613 Si / 1000 Ang^3
#
#
#
# Elastic Constant Matrix: (Units=GPa)
#
#
# Indices 1 2 3 4 5 6 
#
# 1 77.4398 42.1906 22.7743 -7.6333 -21.6496 -12.7985
# 2 42.1906 68.3408 23.9116 -6.9226 -11.0694 -15.3098
# 3 22.7743 23.9116 84.3822 -24.3821 3.8015 -0.6306
# 4 -7.6333 -6.9226 -24.3821 27.1555 -5.7331 -7.1260
# 5 -21.6496 -11.0694 3.8015 -5.7331 30.1404 -1.7032
# 6 -12.7985 -15.3098 -0.6306 -7.1260 -1.7032 25.0183
#
#
#
# Elastic Compliance Matrix: (Units=1/GPa)
#
#
# Indices 1 2 3 4 5 6 
#
# 1 0.026856 -0.008726 -0.002544 0.010375 0.019092 0.012589
# 2 -0.008726 0.025567 -0.003436 0.005528 0.005343 0.013033
# 3 -0.002544 -0.003436 0.017661 0.013931 -0.002620 0.000831
# 4 0.010375 0.005528 0.013931 0.065986 0.021934 0.029329
# 5 0.019092 0.005343 -0.002620 0.021934 0.054653 0.022938
# 6 0.012589 0.013033 0.000831 0.029329 0.022938 0.064323
#
#
# Mechanical properties :
#
#
# Convention : Reuss Voigt Hill
#
# Bulk Modulus (GPa) = 24.58684 45.32397 34.95541
# Shear Modulus (GPa) = 16.77770 25.88193 21.32982
#
# Velocity S-wave (km/s) = 2.73967 3.40275 3.08905
# Velocity P-wave (km/s) = 4.58334 5.97617 5.32549
#
# Compressibility (1/GPa) = 0.04067216
#
# Stress axis : x y z
#
# Youngs Moduli (GPa) = 37.23519 39.11289 56.62324
#
# Poissons Ratio (x) = 0.34131 0.14404
# Poissons Ratio (y) = 0.32492 0.19455
# Poissons Ratio (z) = 0.09472 0.13439
#
# Static dielectric constant tensor:
#      x y z
#    x 1.931670 0.006090 0.014690 
#    y 0.006090 1.849020 0.014250 
#    z 0.014690 0.014250 1.837400 
# 
# From -- ./inp_files/567073.got.cif
#   From: 2010.05.17/outbox.cif.g08.bks.cpg/sg2_284_cif.got.tgz:567073.got - 2010.06.03 11:33:40.
