data_PCOD9087958
_publ_section_title
;
Structure prediction by ZEFSAII (Michael W. Deem and Ramdas Pophale) SiO2 
 PCOD9087958
Probable space group: P -1
;
_chemical_formula_sum "Si O2"
_cell_formula_units_Z 16
_cell_length_a 10.894044
_cell_length_b 10.024311
_cell_length_c 9.014977
_cell_angle_alpha 59.393558
_cell_angle_beta 80.592787
_cell_angle_gamma 67.633381
_cell_volume 783.015527
_symmetry_space_group_name_H-M "P -1"
_symmetry_group_IT_number 2
_symmetry_cell_setting 'triclinic'
loop_
_space_group_symop_operation_xyz
x,y,z
-x,-y,-z
loop_
_atom_site_type_symbol
_atom_site_label
_atom_site_fract_x
_atom_site_fract_y
_atom_site_fract_z
Si Si1 0.897748 0.086120 0.603805
Si Si2 0.353946 0.639042 0.635964
Si Si3 0.325087 0.158991 0.524967
Si Si4 0.436663 0.331737 0.639246
Si Si5 0.415102 0.889421 0.025224
Si Si6 0.104955 0.078158 0.000739
Si Si7 0.962398 0.695386 0.382042
Si Si8 0.525132 0.221470 0.246712
O O1 0.758860 0.195354 0.493033
O O2 0.937477 0.222342 0.613748
O O3 0.896717 0.947765 0.805491
O O4 0.000000 0.000000 0.500000
O O5 0.330258 0.476002 0.673270
O O6 0.494399 0.612713 0.542670
O O7 0.395054 0.661008 0.782979
O O8 0.377069 0.206709 0.643837
O O9 0.169288 0.221976 0.539843
O O10 0.383334 0.244412 0.336595
O O11 0.385721 0.962075 0.607305
O O12 0.557845 0.241323 0.774498
O O13 0.258653 0.980689 0.983335
O O14 0.478376 0.794627 0.917837
O O15 0.500000 0.000000 0.000000
O O16 0.064987 0.247811 0.817569
O O17 0.000000 0.000000 0.000000
O O18 0.000000 0.500000 0.500000
#
# Coordination Sequence:
#
# PCOD9087958 Si02
#       8
#     2   2   2   2   2   2   2   2
#     4  11  23  39  64  89 122 170 210 252 311 379
#     4  10  21  37  56  86 119 153 199 248 306 363
#     4  10  19  37  57  88 120 152 203 250 305 365
#     4  10  20  36  59  85 116 154 193 252 308 360
#     4  12  21  37  64  92 118 160 210 260 310 377
#     4  10  23  41  60  93 125 169 211 254 311 391
#     4  11  22  40  64  89 122 168 209 254 309 377
#     4  10  21  34  60  86 121 150 199 258 310 355
#
# _framework density 20.433821999999999
#
# number of rings (size 3 to 8) (size 9 to 14) (size 15 to 20)
#    0.000    1.500    3.750    1.500    1.750    1.500 
#    0.000    1.875    0.000    0.000    0.000    0.000 
#    0.000    0.000    0.000    0.000    0.000    0.000 
#
# Total GULP energy -89101.755351 kJ/mol
# GULP energy per Si atom -5568.859709 kJ/mol
# Density = 2.038731 g / cm^3
# Si number density = 20.433822 Si / 1000 Ang^3
#
#
#
# Elastic Constant Matrix: (Units=GPa)
#
#
# Indices 1 2 3 4 5 6 
#
# 1 71.9853 17.8340 9.8238 5.5372 2.8514 7.2730
# 2 17.8340 72.9540 23.2304 4.2415 4.1507 8.2800
# 3 9.8238 23.2304 83.5849 8.1579 -0.7567 7.0272
# 4 5.5372 4.2415 8.1579 40.1289 -0.1197 6.3147
# 5 2.8514 4.1507 -0.7567 -0.1197 29.9082 9.0070
# 6 7.2730 8.2800 7.0272 6.3147 9.0070 20.9415
#
#
#
# Elastic Compliance Matrix: (Units=1/GPa)
#
#
# Indices 1 2 3 4 5 6 
#
# 1 0.015168 -0.003076 -0.000521 -0.001102 0.000035 -0.003560
# 2 -0.003076 0.016143 -0.003834 0.000068 -0.000947 -0.003641
# 3 -0.000521 -0.003834 0.013543 -0.001781 0.001853 -0.003107
# 4 -0.001102 0.000068 -0.001781 0.026732 0.002640 -0.008242
# 5 0.000035 -0.000947 0.001853 0.002640 0.038989 -0.017825
# 6 -0.003560 -0.003641 -0.003107 -0.008242 -0.017825 0.061623
#
#
# Mechanical properties :
#
#
# Convention : Reuss Voigt Hill
#
# Bulk Modulus (GPa) = 33.34218 36.70005 35.02112
# Shear Modulus (GPa) = 25.37344 30.03811 27.70577
#
# Velocity S-wave (km/s) = 3.52765 3.83824 3.68622
# Velocity P-wave (km/s) = 5.73977 6.13533 5.94084
#
# Compressibility (1/GPa) = 0.02999204
#
# Stress axis : x y z
#
# Youngs Moduli (GPa) = 65.92891 61.94516 73.84105
#
# Poissons Ratio (x) = 0.19054 0.03845
# Poissons Ratio (y) = 0.20280 0.28312
# Poissons Ratio (z) = 0.03433 0.23751
#
# Static dielectric constant tensor:
#      x y z
#    x 1.778840 0.062590 -0.042100 
#    y 0.062590 1.850280 -0.023520 
#    z -0.042100 -0.023520 1.799130 
# 
# From -- ./inp_files/237722.got.cif
#   From: 2010.05.17/outbox.cif.g08.bks.cpg/sg2_119_cif.got.tgz:237722.got - 2010.06.03 11:33:40.
