data_PCOD9087330
_publ_section_title
;
Structure prediction by ZEFSAII (Michael W. Deem and Ramdas Pophale) SiO2 
 PCOD9087330
Probable space group: P -1
;
_chemical_formula_sum "Si O2"
_cell_formula_units_Z 14
_cell_length_a 10.043590
_cell_length_b 12.970743
_cell_length_c 12.566764
_cell_angle_alpha 122.356566
_cell_angle_beta 34.172104
_cell_angle_gamma 123.518914
_cell_volume 755.820830
_symmetry_space_group_name_H-M "P -1"
_symmetry_group_IT_number 2
_symmetry_cell_setting 'triclinic'
loop_
_space_group_symop_operation_xyz
x,y,z
-x,-y,-z
loop_
_atom_site_type_symbol
_atom_site_label
_atom_site_fract_x
_atom_site_fract_y
_atom_site_fract_z
Si Si1 0.079705 0.633791 0.463885
Si Si2 0.590054 0.586345 0.125269
Si Si3 0.557889 0.172089 0.157068
Si Si4 0.440943 0.893992 0.130358
Si Si5 0.710800 0.686312 0.885226
Si Si6 0.948079 0.636732 0.104342
Si Si7 0.080220 0.267015 0.585102
O O1 0.368294 0.653866 0.289403
O O2 0.000000 0.500000 0.500000
O O3 0.945007 0.718361 0.671673
O O4 0.981589 0.639775 0.412830
O O5 0.482822 0.435146 0.104503
O O6 0.718966 0.625376 0.172273
O O7 0.764046 0.632120 0.934546
O O8 0.330495 0.229732 0.370341
O O9 0.538318 0.042060 0.160701
O O10 0.538092 0.137798 0.025933
O O11 0.816730 0.268895 0.049276
O O12 0.156955 0.849351 0.325234
O O13 0.592280 0.804855 0.037106
O O14 0.907748 0.679268 0.274175
O O15 0.000000 0.500000 0.000000
#
# Coordination Sequence:
#
# PCOD9087330 Si02
#       7
#     2   2   2   2   2   2   2
#     4  10  21  33  60  89 114 148 198 239 290 344
#     4  10  21  38  57  87 120 151 193 242 293 352
#     4  10  22  38  59  89 121 153 198 239 299 345
#     4  10  19  37  63  89 113 155 199 250 282 344
#     4  10  19  36  63  84 115 149 203 241 290 341
#     4  11  26  39  58  87 127 157 189 239 302 355
#     4  11  21  39  61  91 119 152 196 248 292 346
#
# _framework density 18.522908000000001
#
# number of rings (size 3 to 8) (size 9 to 14) (size 15 to 20)
#    0.000    1.714    2.857    2.143    6.000    1.714 
#    0.000    0.714    0.000    1.714    0.000    0.000 
#    0.000    0.000    0.000    0.000    0.000    0.000 
#
# Total GULP energy -78084.148998 kJ/mol
# GULP energy per Si atom -5577.439214 kJ/mol
# Density = 1.848075 g / cm^3
# Si number density = 18.522908 Si / 1000 Ang^3
#
#
#
# Elastic Constant Matrix: (Units=GPa)
#
#
# Indices 1 2 3 4 5 6 
#
# 1 110.9318 44.8952 41.8511 4.1344 -1.3317 -12.8083
# 2 44.8952 102.3214 21.0499 2.1060 -3.2158 -14.3456
# 3 41.8511 21.0499 92.3014 -4.7826 -7.8764 -6.1403
# 4 4.1344 2.1060 -4.7826 17.0037 -14.6758 1.9474
# 5 -1.3317 -3.2158 -7.8764 -14.6758 22.1606 2.4903
# 6 -12.8083 -14.3456 -6.1403 1.9474 2.4903 20.5839
#
#
#
# Elastic Compliance Matrix: (Units=1/GPa)
#
#
# Indices 1 2 3 4 5 6 
#
# 1 0.015315 -0.003932 -0.008197 -0.022390 -0.018367 0.008684
# 2 -0.003932 0.012607 -0.000900 -0.002631 -0.001195 0.006464
# 3 -0.008197 -0.000900 0.018363 0.032157 0.027950 -0.006674
# 4 -0.022390 -0.002631 0.032157 0.213775 0.156367 -0.045315
# 5 -0.018367 -0.001195 0.027950 0.156367 0.161637 -0.038274
# 6 0.008684 0.006464 -0.006674 -0.045315 -0.038274 0.065417
#
#
# Mechanical properties :
#
#
# Convention : Reuss Voigt Hill
#
# Bulk Modulus (GPa) = 49.44218 57.90520 53.67369
# Shear Modulus (GPa) = 9.61694 25.13352 17.37523
#
# Velocity S-wave (km/s) = 2.28105 3.68759 3.06607
# Velocity P-wave (km/s) = 5.80413 7.03281 6.44780
#
# Compressibility (1/GPa) = 0.02022564
#
# Stress axis : x y z
#
# Youngs Moduli (GPa) = 65.29461 79.32398 54.45612
#
# Poissons Ratio (x) = 0.31193 0.44638
# Poissons Ratio (y) = 0.25676 0.04903
# Poissons Ratio (z) = 0.53523 0.07142
#
# Static dielectric constant tensor:
#      x y z
#    x 1.625150 -0.021100 0.000180 
#    y -0.021100 1.658290 -0.020530 
#    z 0.000180 -0.020530 1.709990 
# 
# From -- ./inp_files/251327.got.cif
#   From: 2010.05.17/outbox.cif.g08.bks.cpg/sg2_126_cif.got.tgz:251327.got - 2010.06.03 11:33:40.
