data_PCOD9087604
_publ_section_title
;
Structure prediction by ZEFSAII (Michael W. Deem and Ramdas Pophale) SiO2 
 PCOD9087604
Probable space group: P -1
;
_chemical_formula_sum "Si O2"
_cell_formula_units_Z 16
_cell_length_a 12.227800
_cell_length_b 9.083279
_cell_length_c 22.002750
_cell_angle_alpha 38.202042
_cell_angle_beta 152.762412
_cell_angle_gamma 138.216221
_cell_volume 682.124468
_symmetry_space_group_name_H-M "P -1"
_symmetry_group_IT_number 2
_symmetry_cell_setting 'triclinic'
loop_
_space_group_symop_operation_xyz
x,y,z
-x,-y,-z
loop_
_atom_site_type_symbol
_atom_site_label
_atom_site_fract_x
_atom_site_fract_y
_atom_site_fract_z
Si Si1 0.777679 0.005401 0.805674
Si Si2 0.394226 0.761117 0.462186
Si Si3 0.782585 0.211589 0.385439
Si Si4 0.981092 0.445372 0.937747
Si Si5 0.809152 0.109390 0.304872
Si Si6 0.150287 0.796273 0.448457
Si Si7 0.720223 0.091996 0.126033
Si Si8 0.581602 0.322319 0.695789
O O1 0.506349 0.858983 0.728838
O O2 0.786050 0.111428 0.708163
O O3 0.776724 0.222174 0.782251
O O4 0.959841 0.819667 0.960773
O O5 0.257127 0.670607 0.485429
O O6 0.462066 0.528322 0.538604
O O7 0.638958 0.959070 0.524075
O O8 0.849237 0.336933 0.442893
O O9 0.935408 0.988989 0.541338
O O10 0.834554 0.298731 0.312987
O O11 0.157792 0.652623 0.923578
O O12 0.716398 0.449390 0.779735
O O13 0.000000 0.500000 0.000000
O O14 0.617974 0.892218 0.309511
O O15 0.704047 0.145430 0.174024
O O16 0.903932 0.897009 0.279722
O O17 0.500000 0.000000 0.000000
#
# Coordination Sequence:
#
# PCOD9087604 Si02
#       8
#     2   2   2   2   2   2   2   2
#     4  10  22  39  63  96 130 163 212 263 314 381
#     4  10  19  36  64  96 126 157 208 268 319 366
#     4   8  17  36  61  81 123 158 204 257 313 360
#     4  12  25  41  66  92 128 171 212 260 320 373
#     4   9  19  38  61  88 123 166 205 259 313 377
#     4   9  18  35  62  91 120 160 212 266 309 371
#     4  11  22  41  60  91 131 171 211 258 318 386
#     4  11  22  40  64  94 126 170 210 258 320 376
#
# _framework density 23.456130000000002
#
# number of rings (size 3 to 8) (size 9 to 14) (size 15 to 20)
#    0.000    2.000    1.250    2.250    3.500    0.000 
#    4.500    3.750    0.000    0.000    0.000    0.000 
#    0.000    0.000    0.000    0.000    0.000    0.000 
#
# Total GULP energy -89230.795889 kJ/mol
# GULP energy per Si atom -5576.924743 kJ/mol
# Density = 2.340274 g / cm^3
# Si number density = 23.456130 Si / 1000 Ang^3
#
#
#
# Elastic Constant Matrix: (Units=GPa)
#
#
# Indices 1 2 3 4 5 6 
#
# 1 128.5282 15.3379 35.4115 11.5329 -15.6423 -29.6773
# 2 15.3379 55.2347 18.5935 7.7457 -14.1156 -7.2750
# 3 35.4115 18.5935 96.8726 9.7137 -24.2725 -11.8751
# 4 11.5329 7.7457 9.7137 45.7448 -14.1664 -2.2200
# 5 -15.6423 -14.1156 -24.2725 -14.1664 26.6797 7.7295
# 6 -29.6773 -7.2750 -11.8751 -2.2200 7.7295 38.3378
#
#
#
# Elastic Compliance Matrix: (Units=1/GPa)
#
#
# Indices 1 2 3 4 5 6 
#
# 1 0.010354 -0.000765 -0.002488 -0.001415 0.000657 0.006885
# 2 -0.000765 0.021291 -0.001355 -0.000246 0.009112 0.001177
# 3 -0.002488 -0.001355 0.014238 0.001402 0.011527 -0.000015
# 4 -0.001415 -0.000246 0.001402 0.026509 0.015030 -0.002203
# 5 0.000657 0.009112 0.011527 0.015030 0.062894 -0.006002
# 6 0.006885 0.001177 -0.000015 -0.002203 -0.006002 0.032715
#
#
# Mechanical properties :
#
#
# Convention : Reuss Voigt Hill
#
# Bulk Modulus (GPa) = 27.27149 46.59126 36.93138
# Shear Modulus (GPa) = 26.39394 36.23860 31.31627
#
# Velocity S-wave (km/s) = 3.35811 3.93485 3.65787
# Velocity P-wave (km/s) = 5.16601 6.36792 5.79819
#
# Compressibility (1/GPa) = 0.03666833
#
# Stress axis : x y z
#
# Youngs Moduli (GPa) = 96.58463 46.96781 70.23478
#
# Poissons Ratio (x) = 0.03591 0.17472
# Poissons Ratio (y) = 0.07385 0.09517
# Poissons Ratio (z) = 0.24026 0.06364
#
# Static dielectric constant tensor:
#      x y z
#    x 1.923000 -0.078080 -0.032370 
#    y -0.078080 2.052900 0.029010 
#    z -0.032370 0.029010 1.822230 
# 
# From -- ./inp_files/593998.got.cif
#   From: 2010.05.17/outbox.cif.g08.bks.cpg/sg2_297_cif.got.tgz:593998.got - 2010.06.03 11:33:40.
