data_PCOD9087724
_publ_section_title
;
Structure prediction by ZEFSAII (Michael W. Deem and Ramdas Pophale) SiO2 
 PCOD9087724
Probable space group: P -1
;
_chemical_formula_sum "Si O2"
_cell_formula_units_Z 16
_cell_length_a 17.858694
_cell_length_b 9.680341
_cell_length_c 7.979544
_cell_angle_alpha 120.115016
_cell_angle_beta 110.350890
_cell_angle_gamma 35.972085
_cell_volume 696.297984
_symmetry_space_group_name_H-M "P -1"
_symmetry_group_IT_number 2
_symmetry_cell_setting 'triclinic'
loop_
_space_group_symop_operation_xyz
x,y,z
-x,-y,-z
loop_
_atom_site_type_symbol
_atom_site_label
_atom_site_fract_x
_atom_site_fract_y
_atom_site_fract_z
Si Si1 0.782765 0.048210 0.162112
Si Si2 0.018085 0.749205 0.407302
Si Si3 0.605163 0.538780 0.494976
Si Si4 0.569566 0.958732 0.689055
Si Si5 0.821501 0.263930 0.699704
Si Si6 0.687407 0.005684 0.380017
Si Si7 0.192580 0.188140 0.294036
Si Si8 0.374147 0.247871 0.939444
O O1 0.915434 0.887470 0.260324
O O2 0.677606 0.355004 0.278439
O O3 0.725027 0.007246 0.223788
O O4 0.807822 0.946468 0.932396
O O5 0.125469 0.696342 0.377390
O O6 0.074363 0.493425 0.355882
O O7 0.945350 0.956983 0.626639
O O8 0.614311 0.714772 0.640521
O O9 0.706053 0.327463 0.587706
O O10 0.458772 0.718755 0.513924
O O11 0.684227 0.895939 0.707166
O O12 0.500000 0.000000 0.500000
O O13 0.457144 0.223939 0.863105
O O14 0.751281 0.473084 0.915294
O O15 0.782760 0.891732 0.540212
O O16 0.675004 0.833578 0.241328
O O17 0.500000 0.000000 0.000000
#
# Coordination Sequence:
#
# PCOD9087724 Si02
#       8
#     2   2   2   2   2   2   2   2
#     4  11  25  41  63  91 130 178 211 255 318 388
#     4  10  22  40  61  91 127 174 218 255 310 381
#     4  10  20  39  63  94 127 158 211 269 324 376
#     4  11  20  38  63  95 129 156 206 269 321 374
#     4  10  19  36  66  94 124 164 215 268 316 370
#     4  11  23  39  64  98 128 165 210 260 328 389
#     4  12  23  41  67  92 130 172 211 266 318 378
#     4  11  18  34  64  95 122 158 205 261 320 379
#
# _framework density 22.978667999999999
#
# number of rings (size 3 to 8) (size 9 to 14) (size 15 to 20)
#    0.000    1.250    6.250    2.250    0.000    1.000 
#    0.000    0.625    0.000    0.000    0.000    0.000 
#    0.000    0.000    0.000    0.000    0.000    0.000 
#
# Total GULP energy -89067.452095 kJ/mol
# GULP energy per Si atom -5566.715756 kJ/mol
# Density = 2.292637 g / cm^3
# Si number density = 22.978668 Si / 1000 Ang^3
#
#
#
# Elastic Constant Matrix: (Units=GPa)
#
#
# Indices 1 2 3 4 5 6 
#
# 1 56.4981 19.8378 -3.0291 6.6512 -1.7456 -17.4079
# 2 19.8378 101.4031 69.6716 21.9081 -11.5573 -19.9103
# 3 -3.0291 69.6716 147.1439 30.9142 -6.9917 -6.0085
# 4 6.6512 21.9081 30.9142 51.2140 -9.9696 -1.0966
# 5 -1.7456 -11.5573 -6.9917 -9.9696 25.1466 4.0148
# 6 -17.4079 -19.9103 -6.0085 -1.0966 4.0148 39.2077
#
#
#
# Elastic Compliance Matrix: (Units=1/GPa)
#
#
# Indices 1 2 3 4 5 6 
#
# 1 0.022453 -0.004854 0.003688 -0.003334 -0.002279 0.008209
# 2 -0.004854 0.018131 -0.007976 -0.001341 0.004394 0.005342
# 3 0.003688 -0.007976 0.011451 -0.004353 -0.001858 -0.000590
# 4 -0.003334 -0.001341 -0.004353 0.024694 0.008208 -0.002978
# 5 -0.002279 0.004394 -0.001858 0.008208 0.044914 -0.003435
# 6 0.008209 0.005342 -0.000590 -0.002978 -0.003435 0.032041
#
#
# Mechanical properties :
#
#
# Convention : Reuss Voigt Hill
#
# Bulk Modulus (GPa) = 29.62922 53.11173 41.37048
# Shear Modulus (GPa) = 27.28972 37.68462 32.48717
#
# Velocity S-wave (km/s) = 3.44991 4.05406 3.76413
# Velocity P-wave (km/s) = 5.36576 6.71398 6.07738
#
# Compressibility (1/GPa) = 0.03375046
#
# Stress axis : x y z
#
# Youngs Moduli (GPa) = 44.53686 55.15432 87.32956
#
# Poissons Ratio (x) = 0.26773 -0.32207
# Poissons Ratio (y) = 0.21619 0.69655
# Poissons Ratio (z) = -0.16425 0.43992
#
# Static dielectric constant tensor:
#      x y z
#    x 2.135570 0.285050 -0.128380 
#    y 0.285050 2.180260 -0.079330 
#    z -0.128380 -0.079330 2.002390 
# 
# From -- ./inp_files/345624.got.cif
#   From: 2010.05.17/outbox.cif.g08.bks.cpg/sg2_173_cif.got.tgz:345624.got - 2010.06.03 11:33:40.
