data_PCOD9087417
_publ_section_title
;
Structure prediction by ZEFSAII (Michael W. Deem and Ramdas Pophale) SiO2 
 PCOD9087417
Probable space group: P -1
;
_chemical_formula_sum "Si O2"
_cell_formula_units_Z 12
_cell_length_a 19.025622
_cell_length_b 5.321361
_cell_length_c 7.199686
_cell_angle_alpha 75.969751
_cell_angle_beta 138.091224
_cell_angle_gamma 108.345499
_cell_volume 462.090699
_symmetry_space_group_name_H-M "P -1"
_symmetry_group_IT_number 2
_symmetry_cell_setting 'triclinic'
loop_
_space_group_symop_operation_xyz
x,y,z
-x,-y,-z
loop_
_atom_site_type_symbol
_atom_site_label
_atom_site_fract_x
_atom_site_fract_y
_atom_site_fract_z
Si Si1 0.874308 0.402672 0.238077
Si Si2 0.876826 0.005404 0.789974
Si Si3 0.783290 0.861119 0.036889
Si Si4 0.464225 0.705241 0.748635
Si Si5 0.787805 0.457264 0.646599
Si Si6 0.468948 0.232332 0.535230
O O1 0.807527 0.580938 0.186855
O O2 0.000000 0.500000 0.500000
O O3 0.826408 0.093685 0.222856
O O4 0.850593 0.450503 0.966071
O O5 0.841778 0.282617 0.644726
O O6 0.804371 0.764773 0.579939
O O7 0.851176 0.947719 0.967679
O O8 0.000000 0.000000 0.000000
O O9 0.660127 0.820979 0.743211
O O10 0.335512 0.654745 0.526450
O O11 0.487993 0.545507 0.620917
O O12 0.499660 0.026958 0.795794
O O13 0.500000 0.500000 0.000000
O O14 0.500000 0.000000 0.500000
#
# Coordination Sequence:
#
# PCOD9087417 Si02
#       6
#     2   2   2   2   2   2
#     4  10  19  36  63  91 130 182 233 289 352 422
#     4  10  19  36  64  91 131 185 229 285 363 415
#     4  10  21  38  63  99 136 178 236 297 352 432
#     4  11  25  45  72 107 144 190 244 296 370 440
#     4  10  21  41  62  97 141 177 234 303 348 431
#     4  11  23  44  76 102 146 192 237 304 370 430
#
# _framework density 25.968926
#
# number of rings (size 3 to 8) (size 9 to 14) (size 15 to 20)
#    0.000    1.667    3.333    3.000    2.333    0.667 
#    0.000   10.000    0.000    0.000    0.000    0.000 
#    0.000    0.000    0.000    0.000    0.000    0.000 
#
# Total GULP energy -66839.432074 kJ/mol
# GULP energy per Si atom -5569.952673 kJ/mol
# Density = 2.590982 g / cm^3
# Si number density = 25.968926 Si / 1000 Ang^3
#
#
#
# Elastic Constant Matrix: (Units=GPa)
#
#
# Indices 1 2 3 4 5 6 
#
# 1 270.1487 124.2124 31.3982 4.7955 63.0567 -38.0345
# 2 124.2124 366.8903 34.4552 -20.4810 9.5280 -45.6835
# 3 31.3982 34.4552 89.5057 -31.9893 -8.8297 -2.6004
# 4 4.7955 -20.4810 -31.9893 41.3639 6.5948 4.8743
# 5 63.0567 9.5280 -8.8297 6.5948 63.2769 -14.0098
# 6 -38.0345 -45.6835 -2.6004 4.8743 -14.0098 47.5992
#
#
#
# Elastic Compliance Matrix: (Units=1/GPa)
#
#
# Indices 1 2 3 4 5 6 
#
# 1 0.006661 -0.001712 -0.003504 -0.003613 -0.006031 0.002083
# 2 -0.001712 0.003656 -0.000078 0.001415 0.001538 0.002445
# 3 -0.003504 -0.000078 0.017635 0.013603 0.004081 -0.002103
# 4 -0.003613 0.001415 0.013603 0.036238 0.000549 -0.004336
# 5 -0.006031 0.001538 0.004081 0.000549 0.022882 0.003559
# 6 0.002083 0.002445 -0.002103 -0.004336 0.003559 0.026396
#
#
# Mechanical properties :
#
#
# Convention : Reuss Voigt Hill
#
# Bulk Modulus (GPa) = 57.59017 122.96402 90.27710
# Shear Modulus (GPa) = 38.50765 66.21326 52.36046
#
# Velocity S-wave (km/s) = 3.85494 5.05494 4.49516
# Velocity P-wave (km/s) = 6.48373 9.02902 7.86009
#
# Compressibility (1/GPa) = 0.01736407
#
# Stress axis : x y z
#
# Youngs Moduli (GPa) = 150.12325 273.52766 56.70610
#
# Poissons Ratio (x) = 0.46824 0.19868
# Poissons Ratio (y) = 0.25699 0.00445
# Poissons Ratio (z) = 0.52597 0.02147
#
# Static dielectric constant tensor:
#      x y z
#    x 10.295650 -8.462580 -6.080410 
#    y -8.462580 10.242840 5.980110 
#    z -6.080410 5.980110 6.498220 
# 
# From -- ./inp_files/351018.got.cif
#   From: 2010.05.17/outbox.cif.g08.bks.cpg/sg2_176_cif.got.tgz:351018.got - 2010.06.03 11:33:40.
