data_PCOD9087305
_publ_section_title
;
Structure prediction by ZEFSAII (Michael W. Deem and Ramdas Pophale) SiO2 
 PCOD9087305
Probable space group: P -1
;
_chemical_formula_sum "Si O2"
_cell_formula_units_Z 16
_cell_length_a 14.755545
_cell_length_b 11.115649
_cell_length_c 8.769411
_cell_angle_alpha 81.369218
_cell_angle_beta 84.919639
_cell_angle_gamma 149.241910
_cell_volume 656.524690
_symmetry_space_group_name_H-M "P -1"
_symmetry_group_IT_number 2
_symmetry_cell_setting 'triclinic'
loop_
_space_group_symop_operation_xyz
x,y,z
-x,-y,-z
loop_
_atom_site_type_symbol
_atom_site_label
_atom_site_fract_x
_atom_site_fract_y
_atom_site_fract_z
Si Si1 0.711635 0.499753 0.425510
Si Si2 0.952798 0.003186 0.291077
Si Si3 0.618664 0.901216 0.006062
Si Si4 0.378555 0.397039 0.189281
Si Si5 0.825321 0.365696 0.968135
Si Si6 0.981402 0.765271 0.049338
Si Si7 0.630383 0.880151 0.659810
Si Si8 0.947612 0.636450 0.599780
O O1 0.854750 0.663300 0.225917
O O2 0.497153 0.224840 0.442591
O O3 0.783146 0.483799 0.535518
O O4 0.771288 0.706345 0.432199
O O5 0.151281 0.157766 0.238714
O O6 0.986839 0.162671 0.358891
O O7 0.934800 0.034753 0.116948
O O8 0.566105 0.844686 0.845719
O O9 0.639056 0.056556 0.050901
O O10 0.476478 0.642161 0.167395
O O11 0.833014 0.091578 0.945981
O O12 0.396101 0.297846 0.305965
O O13 0.500000 0.500000 0.000000
O O14 0.877629 0.457571 0.768708
O O15 0.834145 0.504280 0.025551
O O16 0.000000 0.500000 0.000000
O O17 0.858134 0.179710 0.548271
#
# Coordination Sequence:
#
# PCOD9087305 Si02
#       8
#     2   2   2   2   2   2   2   2
#     4  12  22  40  66  96 130 171 209 262 327 380
#     4  11  22  39  63  95 136 169 207 262 325 380
#     4  10  19  40  65  95 127 171 216 265 311 379
#     4  10  19  36  62  96 128 161 209 260 310 379
#     4   9  22  43  70  89 123 177 216 261 325 373
#     4  10  19  38  64  93 125 170 218 260 313 382
#     4  11  23  39  65  99 131 165 212 260 326 384
#     4  11  24  45  63  96 133 166 212 269 320 377
#
# _framework density 24.370752
#
# number of rings (size 3 to 8) (size 9 to 14) (size 15 to 20)
#    0.000    1.500    2.500    3.750    0.000    1.000 
#    6.750    6.250    2.750    0.000    0.000    0.000 
#    0.000    0.000    0.000    0.000    0.000    0.000 
#
# Total GULP energy -89564.203285 kJ/mol
# GULP energy per Si atom -5597.762705 kJ/mol
# Density = 2.431528 g / cm^3
# Si number density = 24.370752 Si / 1000 Ang^3
#
#
#
# Elastic Constant Matrix: (Units=GPa)
#
#
# Indices 1 2 3 4 5 6 
#
# 1 53.6118 32.8754 24.6931 5.2036 14.9287 18.8219
# 2 32.8754 117.4556 23.4150 2.1161 20.8867 -5.6833
# 3 24.6931 23.4150 93.5329 11.2364 30.5414 8.3049
# 4 5.2036 2.1161 11.2364 30.9110 8.2800 16.0624
# 5 14.9287 20.8867 30.5414 8.2800 42.6015 4.0736
# 6 18.8219 -5.6833 8.3049 16.0624 4.0736 45.8729
#
#
#
# Elastic Compliance Matrix: (Units=1/GPa)
#
#
# Indices 1 2 3 4 5 6 
#
# 1 0.031177 -0.008027 -0.004449 0.005416 -0.003460 -0.014570
# 2 -0.008027 0.011619 -0.000109 -0.001464 -0.003050 0.005536
# 3 -0.004449 -0.000109 0.014985 -0.002813 -0.008665 0.000853
# 4 0.005416 -0.001464 -0.002813 0.042603 -0.005886 -0.016289
# 5 -0.003460 -0.003050 -0.008665 -0.005886 0.033374 0.001708
# 6 -0.014570 0.005536 0.000853 -0.016289 0.001708 0.033861
#
#
# Mechanical properties :
#
#
# Convention : Reuss Voigt Hill
#
# Bulk Modulus (GPa) = 30.66405 47.39637 39.03021
# Shear Modulus (GPa) = 24.55091 36.11821 30.33456
#
# Velocity S-wave (km/s) = 3.17739 3.85389 3.53187
# Velocity P-wave (km/s) = 5.10595 6.26846 5.71683
#
# Compressibility (1/GPa) = 0.03261148
#
# Stress axis : x y z
#
# Youngs Moduli (GPa) = 32.07519 86.06618 66.73422
#
# Poissons Ratio (x) = 0.69083 0.29687
# Poissons Ratio (y) = 0.25746 0.00729
# Poissons Ratio (z) = 0.14269 0.00940
#
# Static dielectric constant tensor:
#      x y z
#    x 1.964480 -0.045810 -0.021210 
#    y -0.045810 1.983290 0.028710 
#    z -0.021210 0.028710 1.923680 
# 
# From -- ./inp_files/294742.got.cif
#   From: 2010.05.17/outbox.cif.g08.bks.cpg/sg2_148_cif.got.tgz:294742.got - 2010.06.03 11:33:40.
