data_PCOD9087018
_publ_section_title
;
Structure prediction by ZEFSAII (Michael W. Deem and Ramdas Pophale) SiO2 
 PCOD9087018
Probable space group: P -1
;
_chemical_formula_sum "Si O2"
_cell_formula_units_Z 14
_cell_length_a 7.724696
_cell_length_b 13.220171
_cell_length_c 22.585767
_cell_angle_alpha 156.558791
_cell_angle_beta 138.093103
_cell_angle_gamma 54.341635
_cell_volume 567.920737
_symmetry_space_group_name_H-M "P -1"
_symmetry_group_IT_number 2
_symmetry_cell_setting 'triclinic'
loop_
_space_group_symop_operation_xyz
x,y,z
-x,-y,-z
loop_
_atom_site_type_symbol
_atom_site_label
_atom_site_fract_x
_atom_site_fract_y
_atom_site_fract_z
Si Si1 0.216985 0.956453 0.825611
Si Si2 0.616225 0.882316 0.791059
Si Si3 0.660686 0.449720 0.071888
Si Si4 0.921328 0.553421 0.640484
Si Si5 0.453182 0.422316 0.724858
Si Si6 0.059822 0.247273 0.853108
Si Si7 0.783920 0.146591 0.598733
O O1 0.992667 0.980504 0.733472
O O2 0.465397 0.894576 0.821706
O O3 0.343390 0.260841 0.048770
O O4 0.059421 0.739876 0.718822
O O5 0.839474 0.736540 0.766515
O O6 0.358727 0.693325 0.583081
O O7 0.735218 0.178114 0.947659
O O8 0.947291 0.704744 0.293529
O O9 0.500000 0.500000 0.000000
O O10 0.397325 0.356757 0.997957
O O11 0.148822 0.434383 0.653672
O O12 0.579858 0.311815 0.642193
O O13 0.404971 0.172338 0.625512
O O14 0.933541 0.182145 0.720874
O O15 0.000000 0.500000 0.000000
#
# Coordination Sequence:
#
# PCOD9087018 Si02
#       7
#     2   2   2   2   2   2   2
#     4  11  22  39  64  89 122 159 200 251 304 356
#     4  10  23  40  62  91 117 156 213 253 290 367
#     4   9  18  34  60  85 114 151 196 249 297 342
#     4  11  23  41  63  88 123 162 201 250 310 355
#     4  11  22  38  61  89 123 162 199 245 304 370
#     4  10  19  36  61  89 114 151 205 248 290 355
#     4  10  21  39  63  86 123 160 200 248 306 355
#
# _framework density 24.651327999999999
#
# number of rings (size 3 to 8) (size 9 to 14) (size 15 to 20)
#    0.000    1.714    1.429    4.286    2.000    0.571 
#    0.000    4.286    3.143    0.000    0.000    0.000 
#    0.000    0.000    0.000    0.000    0.000    0.000 
#
# Total GULP energy -78151.018232 kJ/mol
# GULP energy per Si atom -5582.215588 kJ/mol
# Density = 2.459522 g / cm^3
# Si number density = 24.651328 Si / 1000 Ang^3
#
#
#
# Elastic Constant Matrix: (Units=GPa)
#
#
# Indices 1 2 3 4 5 6 
#
# 1 84.1362 32.6880 2.5297 14.1450 1.5721 -18.1991
# 2 32.6880 71.5178 8.1310 17.5839 -9.2398 -28.9963
# 3 2.5297 8.1310 115.9752 5.9493 8.1800 -1.2613
# 4 14.1450 17.5839 5.9493 34.6777 -6.4712 4.7104
# 5 1.5721 -9.2398 8.1800 -6.4712 43.6727 3.7868
# 6 -18.1991 -28.9963 -1.2613 4.7104 3.7868 45.9907
#
#
#
# Elastic Compliance Matrix: (Units=1/GPa)
#
#
# Indices 1 2 3 4 5 6 
#
# 1 0.015419 -0.004597 0.000481 -0.005086 -0.002715 0.003961
# 2 -0.004597 0.026037 -0.001085 -0.012779 0.002626 0.015660
# 3 0.000481 -0.001085 0.008923 -0.001593 -0.002162 0.000093
# 4 -0.005086 -0.012779 -0.001593 0.040606 0.005068 -0.014689
# 5 -0.002715 0.002626 -0.002162 0.005068 0.024884 -0.002046
# 6 0.003961 0.015660 0.000093 -0.014689 -0.002046 0.034860
#
#
# Mechanical properties :
#
#
# Convention : Reuss Voigt Hill
#
# Bulk Modulus (GPa) = 25.01228 39.81406 32.41317
# Shear Modulus (GPa) = 28.66060 40.08692 34.37376
#
# Velocity S-wave (km/s) = 3.41345 4.03694 3.73822
# Velocity P-wave (km/s) = 5.06991 6.15752 5.63999
#
# Compressibility (1/GPa) = 0.03998036
#
# Stress axis : x y z
#
# Youngs Moduli (GPa) = 64.85300 38.40705 112.06580
#
# Poissons Ratio (x) = 0.17654 -0.05395
# Poissons Ratio (y) = 0.29810 0.12154
# Poissons Ratio (z) = -0.03122 0.04165
#
# Static dielectric constant tensor:
#      x y z
#    x 2.154220 0.293310 0.230670 
#    y 0.293310 2.585080 0.519790 
#    z 0.230670 0.519790 2.507410 
# 
# From -- ./inp_files/230848.got.cif
#   From: 2010.05.17/outbox.cif.g08.bks.cpg/sg2_116_cif.got.tgz:230848.got - 2010.06.03 11:33:40.
