data_PCOD9087060
_publ_section_title
;
Structure prediction by ZEFSAII (Michael W. Deem and Ramdas Pophale) SiO2 
 PCOD9087060
Probable space group: P -1
;
_chemical_formula_sum "Si O2"
_cell_formula_units_Z 16
_cell_length_a 14.964126
_cell_length_b 9.268712
_cell_length_c 23.933003
_cell_angle_alpha 32.831492
_cell_angle_beta 23.059409
_cell_angle_gamma 39.666596
_cell_volume 704.833534
_symmetry_space_group_name_H-M "P -1"
_symmetry_group_IT_number 2
_symmetry_cell_setting 'triclinic'
loop_
_space_group_symop_operation_xyz
x,y,z
-x,-y,-z
loop_
_atom_site_type_symbol
_atom_site_label
_atom_site_fract_x
_atom_site_fract_y
_atom_site_fract_z
Si Si1 0.271827 0.195978 0.980778
Si Si2 0.588906 0.407475 0.917627
Si Si3 0.111166 0.461355 0.609614
Si Si4 0.277414 0.775359 0.912600
Si Si5 0.996294 0.025642 0.092014
Si Si6 0.553530 0.691824 0.628218
Si Si7 0.217236 0.775817 0.692455
Si Si8 0.506679 0.656928 0.387957
O O1 0.425834 0.530008 0.925256
O O2 0.391808 0.908060 0.002701
O O3 0.160713 0.197297 0.981707
O O4 0.052313 0.194892 0.149202
O O5 0.848828 0.518297 0.731100
O O6 0.500000 0.500000 0.000000
O O7 0.244182 0.425315 0.487566
O O8 0.268083 0.652487 0.494116
O O9 0.116264 0.186869 0.731767
O O10 0.157835 0.786168 0.917906
O O11 0.429015 0.040980 0.738439
O O12 0.108726 0.837251 0.041447
O O13 0.448794 0.442958 0.804092
O O14 0.350661 0.770292 0.676748
O O15 0.669597 0.973294 0.488835
O O16 0.299187 0.506251 0.703654
O O17 0.500000 0.500000 0.500000
#
# Coordination Sequence:
#
# PCOD9087060 Si02
#       8
#     2   2   2   2   2   2   2   2
#     4  11  21  41  66  98 130 173 218 268 328 385
#     4  11  22  38  59  93 138 173 217 266 319 394
#     4  10  19  37  60  91 130 163 216 273 314 383
#     4  11  22  37  60  93 133 177 204 266 335 380
#     4  10  19  36  61  90 129 164 217 266 318 380
#     4  10  20  36  64  97 130 162 217 278 322 365
#     4  10  21  37  63 100 132 160 220 278 318 384
#     4  11  23  40  63 102 131 163 218 275 335 382
#
# _framework density 22.700392999999998
#
# number of rings (size 3 to 8) (size 9 to 14) (size 15 to 20)
#    0.000    1.500    6.250    1.875    0.000    0.500 
#    0.000    0.000    0.000    0.750    3.250   12.250 
#    0.000    0.000    0.000    0.000    0.000    0.000 
#
# Total GULP energy -89366.158972 kJ/mol
# GULP energy per Si atom -5585.384936 kJ/mol
# Density = 2.264873 g / cm^3
# Si number density = 22.700393 Si / 1000 Ang^3
#
#
#
# Elastic Constant Matrix: (Units=GPa)
#
#
# Indices 1 2 3 4 5 6 
#
# 1 85.6831 34.3787 15.2858 7.3849 -2.0006 -28.3768
# 2 34.3787 85.9506 63.4117 4.3435 2.7027 -27.9660
# 3 15.2858 63.4117 137.4511 -0.9274 3.3516 -17.5832
# 4 7.3849 4.3435 -0.9274 50.1170 0.9595 -4.6970
# 5 -2.0006 2.7027 3.3516 0.9595 26.4821 6.5243
# 6 -28.3768 -27.9660 -17.5832 -4.6970 6.5243 29.7318
#
#
#
# Elastic Compliance Matrix: (Units=1/GPa)
#
#
# Indices 1 2 3 4 5 6 
#
# 1 0.017712 -0.003092 0.001452 -0.000846 -0.002248 0.015215
# 2 -0.003092 0.025054 -0.008961 -0.000222 -0.005722 0.016536
# 3 0.001452 -0.008961 0.011237 0.000760 -0.000378 -0.000195
# 4 -0.000846 -0.000222 0.000760 0.020425 -0.001620 0.003015
# 5 -0.002248 -0.005722 -0.000378 -0.001620 0.042555 -0.017346
# 6 0.015215 0.016536 -0.000195 0.003015 -0.017346 0.067877
#
#
# Mechanical properties :
#
#
# Convention : Reuss Voigt Hill
#
# Bulk Modulus (GPa) = 30.48634 59.47080 44.97857
# Shear Modulus (GPa) = 23.04184 34.33343 28.68763
#
# Velocity S-wave (km/s) = 3.18943 3.89325 3.55878
# Velocity P-wave (km/s) = 5.19830 6.81652 6.06165
#
# Compressibility (1/GPa) = 0.03280158
#
# Stress axis : x y z
#
# Youngs Moduli (GPa) = 56.45989 39.91346 88.98803
#
# Poissons Ratio (x) = 0.12340 -0.12922
# Poissons Ratio (y) = 0.17456 0.79744
# Poissons Ratio (z) = -0.08198 0.35767
#
# Static dielectric constant tensor:
#      x y z
#    x 1.793090 0.003120 -0.025590 
#    y 0.003120 1.868750 -0.001660 
#    z -0.025590 -0.001660 1.924590 
# 
# From -- ./inp_files/620238.got.cif
#   From: 2010.05.17/outbox.cif.g08.bks.cpg/sg2_311_cif.got.tgz:620238.got - 2010.06.03 11:33:40.
