data_PCOD9087144
_publ_section_title
;
Structure prediction by ZEFSAII (Michael W. Deem and Ramdas Pophale) SiO2 
 PCOD9087144
Probable space group: P -1
;
_chemical_formula_sum "Si O2"
_cell_formula_units_Z 16
_cell_length_a 12.017742
_cell_length_b 9.141281
_cell_length_c 11.526291
_cell_angle_alpha 56.881590
_cell_angle_beta 126.535067
_cell_angle_gamma 118.424563
_cell_volume 830.483281
_symmetry_space_group_name_H-M "P -1"
_symmetry_group_IT_number 2
_symmetry_cell_setting 'triclinic'
loop_
_space_group_symop_operation_xyz
x,y,z
-x,-y,-z
loop_
_atom_site_type_symbol
_atom_site_label
_atom_site_fract_x
_atom_site_fract_y
_atom_site_fract_z
Si Si1 0.666611 0.535397 0.483957
Si Si2 0.983204 0.511065 0.624439
Si Si3 0.834694 0.729052 0.192932
Si Si4 0.517158 0.798305 0.374518
Si Si5 0.971404 0.112049 0.543729
Si Si6 0.391188 0.618683 0.716958
Si Si7 0.708062 0.028051 0.575389
Si Si8 0.359075 0.090903 0.154189
O O1 0.826198 0.516058 0.566909
O O2 0.644693 0.730173 0.421102
O O3 0.600801 0.383919 0.602025
O O4 0.574131 0.479154 0.335097
O O5 0.070938 0.711983 0.615118
O O6 0.000000 0.500000 0.500000
O O7 0.040893 0.338280 0.771210
O O8 0.895915 0.813317 0.318450
O O9 0.718132 0.541708 0.218170
O O10 0.762263 0.864446 0.020575
O O11 0.579976 0.885838 0.497504
O O12 0.444467 0.951190 0.212652
O O13 0.849264 0.016368 0.597909
O O14 0.000000 0.000000 0.500000
O O15 0.317145 0.775717 0.555882
O O16 0.525315 0.725022 0.825663
O O17 0.703951 0.990878 0.725460
#
# Coordination Sequence:
#
# PCOD9087144 Si02
#       8
#     2   2   2   2   2   2   2   2
#     4  11  18  36  63  87 111 156 211 246 289 342
#     4  10  19  36  62  84 111 155 208 240 283 357
#     4  11  23  39  61  90 123 159 195 251 303 356
#     4  10  22  35  61  89 121 156 201 252 295 354
#     4  11  22  37  62  87 117 158 207 246 290 358
#     4  11  18  39  63  86 113 163 209 240 283 361
#     4  11  20  37  62  89 116 155 210 249 282 353
#     4  11  23  38  58  94 126 154 195 250 312 345
#
# _framework density 19.265889999999999
#
# number of rings (size 3 to 8) (size 9 to 14) (size 15 to 20)
#    0.000    1.250    6.250    2.625    0.000    0.500 
#    0.000    1.875    0.000    1.500    0.000    0.000 
#    0.000    0.000    0.000    0.000    0.000    0.000 
#
# Total GULP energy -89118.116656 kJ/mol
# GULP energy per Si atom -5569.882291 kJ/mol
# Density = 1.922204 g / cm^3
# Si number density = 19.265890 Si / 1000 Ang^3
#
#
#
# Elastic Constant Matrix: (Units=GPa)
#
#
# Indices 1 2 3 4 5 6 
#
# 1 108.4699 41.3764 32.4679 -3.5762 11.9106 -8.2429
# 2 41.3764 90.6993 35.6385 -7.8170 5.8950 -21.7500
# 3 32.4679 35.6385 107.6620 -9.2505 18.1086 -14.8154
# 4 -3.5762 -7.8170 -9.2505 17.6240 -3.6418 4.6291
# 5 11.9106 5.8950 18.1086 -3.6418 17.6962 -4.2263
# 6 -8.2429 -21.7500 -14.8154 4.6291 -4.2263 46.1706
#
#
#
# Elastic Compliance Matrix: (Units=1/GPa)
#
#
# Indices 1 2 3 4 5 6 
#
# 1 0.011990 -0.004952 -0.001282 -0.001339 -0.005619 -0.000984
# 2 -0.004952 0.016002 -0.003312 0.003613 0.003460 0.005546
# 3 -0.001282 -0.003312 0.012906 0.002590 -0.010436 0.001137
# 4 -0.001339 0.003613 0.002590 0.062124 0.009092 -0.003103
# 5 -0.005619 0.003460 -0.010436 0.009092 0.072404 0.002994
# 6 -0.000984 0.005546 0.001137 -0.003103 0.002994 0.025046
#
#
# Mechanical properties :
#
#
# Convention : Reuss Voigt Hill
#
# Bulk Modulus (GPa) = 45.85929 58.42184 52.14057
# Shear Modulus (GPa) = 22.04271 29.45474 25.74873
#
# Velocity S-wave (km/s) = 3.38617 3.91430 3.65977
# Velocity P-wave (km/s) = 6.25646 7.12873 6.70679
#
# Compressibility (1/GPa) = 0.02180583
#
# Stress axis : x y z
#
# Youngs Moduli (GPa) = 83.40306 62.49050 77.48618
#
# Poissons Ratio (x) = 0.30946 0.09933
# Poissons Ratio (y) = 0.41302 0.25664
# Poissons Ratio (z) = 0.10691 0.20697
#
# Static dielectric constant tensor:
#      x y z
#    x 1.765900 0.034590 0.041850 
#    y 0.034590 1.737780 -0.012760 
#    z 0.041850 -0.012760 1.693130 
# 
# From -- ./inp_files/254062.got.cif
#   From: 2010.05.17/outbox.cif.g08.bks.cpg/sg2_128_cif.got.tgz:254062.got - 2010.06.03 11:33:40.
