data_PCOD9087108
_publ_section_title
;
Structure prediction by ZEFSAII (Michael W. Deem and Ramdas Pophale) SiO2 
 PCOD9087108
Probable space group: P -1
;
_chemical_formula_sum "Si O2"
_cell_formula_units_Z 16
_cell_length_a 11.953260
_cell_length_b 11.753255
_cell_length_c 12.084432
_cell_angle_alpha 144.198583
_cell_angle_beta 130.408677
_cell_angle_gamma 46.357651
_cell_volume 702.821196
_symmetry_space_group_name_H-M "P -1"
_symmetry_group_IT_number 2
_symmetry_cell_setting 'triclinic'
loop_
_space_group_symop_operation_xyz
x,y,z
-x,-y,-z
loop_
_atom_site_type_symbol
_atom_site_label
_atom_site_fract_x
_atom_site_fract_y
_atom_site_fract_z
Si Si1 0.183633 0.480252 0.609508
Si Si2 0.324107 0.176270 0.660828
Si Si3 0.395193 0.172695 0.332088
Si Si4 0.227187 0.311798 0.935098
Si Si5 0.026335 0.035360 0.374528
Si Si6 0.404405 0.872967 0.781554
Si Si7 0.109769 0.643360 0.278963
Si Si8 0.763939 0.126413 0.116095
O O1 0.280714 0.336646 0.659019
O O2 0.267324 0.368481 0.462652
O O3 0.208052 0.699643 0.803651
O O4 0.000000 0.500000 0.500000
O O5 0.325126 0.292572 0.871136
O O6 0.178547 0.095192 0.501446
O O7 0.483679 0.973285 0.613756
O O8 0.498021 0.230136 0.346959
O O9 0.305233 0.030828 0.110005
O O10 0.045550 0.416585 0.863679
O O11 0.255902 0.072810 0.797813
O O12 0.246516 0.441096 0.155897
O O13 0.901443 0.235085 0.518319
O O14 0.935235 0.005664 0.185458
O O15 0.084776 0.825720 0.317978
O O16 0.353885 0.772653 0.775560
O O17 0.500000 0.000000 0.000000
#
# Coordination Sequence:
#
# PCOD9087108 Si02
#       8
#     2   2   2   2   2   2   2   2
#     4  12  26  46  69  99 133 176 237 274 318 399
#     4  10  22  45  63  92 136 172 217 286 321 383
#     4  10  25  46  70  94 137 178 216 282 342 388
#     4   9  17  34  59  88 125 166 218 264 321 386
#     4  10  19  36  61  96 139 167 218 275 329 395
#     4   9  19  39  62  93 133 162 206 273 335 392
#     4   9  18  30  58  94 124 170 213 263 330 390
#     4  11  23  43  70  99 134 177 220 272 338 402
#
# _framework density 22.765393
#
# number of rings (size 3 to 8) (size 9 to 14) (size 15 to 20)
#    0.000    2.000    2.500    0.375    1.750    4.500 
#    9.000    0.000    0.000    0.000    0.000    0.000 
#    0.000    0.000    0.000    0.000    0.000    0.000 
#
# Total GULP energy -89214.794393 kJ/mol
# GULP energy per Si atom -5575.924650 kJ/mol
# Density = 2.271358 g / cm^3
# Si number density = 22.765393 Si / 1000 Ang^3
#
#
#
# Elastic Constant Matrix: (Units=GPa)
#
#
# Indices 1 2 3 4 5 6 
#
# 1 48.4243 18.5481 13.0709 10.5303 4.0043 2.3926
# 2 18.5481 67.0963 8.3371 -15.0440 2.2992 6.8668
# 3 13.0709 8.3371 68.4957 3.2361 3.8936 -11.1779
# 4 10.5303 -15.0440 3.2361 29.3907 -12.5515 0.8873
# 5 4.0043 2.2992 3.8936 -12.5515 33.3852 8.0344
# 6 2.3926 6.8668 -11.1779 0.8873 8.0344 36.7348
#
#
#
# Elastic Compliance Matrix: (Units=1/GPa)
#
#
# Indices 1 2 3 4 5 6 
#
# 1 0.032785 -0.014114 -0.002162 -0.024197 -0.012570 0.003179
# 2 -0.014114 0.024767 -0.003266 0.022950 0.010832 -0.007627
# 3 -0.002162 -0.003266 0.017134 -0.005232 -0.005222 0.007233
# 4 -0.024197 0.022950 -0.005232 0.068532 0.030750 -0.012687
# 5 -0.012570 0.010832 -0.005222 0.030750 0.046166 -0.013635
# 6 0.003179 -0.007627 0.007233 -0.012687 -0.013635 0.033930
#
#
# Mechanical properties :
#
#
# Convention : Reuss Voigt Hill
#
# Bulk Modulus (GPa) = 28.08874 29.32538 28.70706
# Shear Modulus (GPa) = 18.23050 29.50615 23.86833
#
# Velocity S-wave (km/s) = 2.83291 3.60404 3.24149
# Velocity P-wave (km/s) = 4.80267 5.49803 5.16207
#
# Compressibility (1/GPa) = 0.03560145
#
# Stress axis : x y z
#
# Youngs Moduli (GPa) = 30.50192 40.37686 58.36367
#
# Poissons Ratio (x) = 0.56989 0.12617
# Poissons Ratio (y) = 0.43052 0.19061
# Poissons Ratio (z) = 0.06594 0.13187
#
# Static dielectric constant tensor:
#      x y z
#    x 1.895580 -0.027420 -0.029740 
#    y -0.027420 1.911100 -0.011640 
#    z -0.029740 -0.011640 1.874580 
# 
# From -- ./inp_files/429126.got.cif
#   From: 2010.05.17/outbox.cif.g08.bks.cpg/sg2_215_cif.got.tgz:429126.got - 2010.06.03 11:33:40.
