data_PCOD9087097
_publ_section_title
;
Structure prediction by ZEFSAII (Michael W. Deem and Ramdas Pophale) SiO2 
 PCOD9087097
Probable space group: P -1
;
_chemical_formula_sum "Si O2"
_cell_formula_units_Z 16
_cell_length_a 9.695424
_cell_length_b 15.891495
_cell_length_c 20.467251
_cell_angle_alpha 152.307406
_cell_angle_beta 142.405525
_cell_angle_gamma 33.250887
_cell_volume 786.729447
_symmetry_space_group_name_H-M "P -1"
_symmetry_group_IT_number 2
_symmetry_cell_setting 'triclinic'
loop_
_space_group_symop_operation_xyz
x,y,z
-x,-y,-z
loop_
_atom_site_type_symbol
_atom_site_label
_atom_site_fract_x
_atom_site_fract_y
_atom_site_fract_z
Si Si1 0.361084 0.440058 0.654886
Si Si2 0.845568 0.961977 0.135370
Si Si3 0.590876 0.260820 0.861792
Si Si4 0.686145 0.776934 0.387266
Si Si5 0.713111 0.050182 0.903855
Si Si6 0.541298 0.754864 0.925156
Si Si7 0.231534 0.317990 0.402004
Si Si8 0.745239 0.346509 0.444513
O O1 0.363572 0.372557 0.684163
O O2 0.546640 0.535214 0.772880
O O3 0.379437 0.266076 0.490906
O O4 0.066946 0.618515 0.655889
O O5 0.144490 0.862415 0.163764
O O6 0.689589 0.078344 0.091802
O O7 0.749846 0.141340 0.277332
O O8 0.778794 0.783114 0.008732
O O9 0.382988 0.241644 0.725429
O O10 0.643935 0.165910 0.888469
O O11 0.500000 0.500000 0.000000
O O12 0.982605 0.721714 0.465465
O O13 0.500000 0.000000 0.500000
O O14 0.685431 0.848346 0.738100
O O15 0.525322 0.176606 0.978134
O O16 0.000000 0.000000 0.000000
O O17 0.249274 0.515502 0.518889
O O18 0.500000 0.500000 0.500000
#
# Coordination Sequence:
#
# PCOD9087097 Si02
#       8
#     2   2   2   2   2   2   2   2
#     4  10  19  36  61  95 121 174 226 269 334 404
#     4  11  23  42  67 100 139 176 224 285 346 403
#     4  12  26  43  65 100 138 181 230 277 347 419
#     4  11  23  41  70  93 135 182 223 280 347 408
#     4  12  22  39  65  98 134 173 233 286 330 404
#     4  11  22  39  68  98 134 171 224 287 338 393
#     4  10  20  34  64  93 127 161 225 284 322 386
#     4  11  23  41  70 102 132 173 232 284 339 404
#
# _framework density 20.337361000000001
#
# number of rings (size 3 to 8) (size 9 to 14) (size 15 to 20)
#    0.000    1.000    5.000    2.250    3.500    2.000 
#    0.000    2.500    0.000    2.250    0.000    0.000 
#    0.000    0.000    0.000    0.000    0.000    0.000 
#
# Total GULP energy -89339.236580 kJ/mol
# GULP energy per Si atom -5583.702286 kJ/mol
# Density = 2.029107 g / cm^3
# Si number density = 20.337361 Si / 1000 Ang^3
#
#
#
# Elastic Constant Matrix: (Units=GPa)
#
#
# Indices 1 2 3 4 5 6 
#
# 1 90.2956 33.6708 28.7277 -11.6291 -0.9597 5.6507
# 2 33.6708 70.8593 33.0230 -12.5291 -6.5070 7.1887
# 3 28.7277 33.0230 113.9960 -5.2063 -13.3552 13.2021
# 4 -11.6291 -12.5291 -5.2063 33.3008 7.2924 -7.9355
# 5 -0.9597 -6.5070 -13.3552 7.2924 40.8641 5.8086
# 6 5.6507 7.1887 13.2021 -7.9355 5.8086 35.2631
#
#
#
# Elastic Compliance Matrix: (Units=1/GPa)
#
#
# Indices 1 2 3 4 5 6 
#
# 1 0.014110 -0.005389 -0.002148 0.003132 -0.001881 0.000657
# 2 -0.005389 0.019425 -0.003849 0.004397 0.001043 -0.000838
# 3 -0.002148 -0.003849 0.011294 -0.002344 0.004057 -0.004295
# 4 0.003132 0.004397 -0.002344 0.036224 -0.007722 0.008903
# 5 -0.001881 0.001043 0.004057 -0.007722 0.028413 -0.007848
# 6 0.000657 -0.000838 -0.004295 0.008903 -0.007848 0.033328
#
#
# Mechanical properties :
#
#
# Convention : Reuss Voigt Hill
#
# Bulk Modulus (GPa) = 45.33708 51.77708 48.55708
# Shear Modulus (GPa) = 28.91522 33.86755 31.39138
#
# Velocity S-wave (km/s) = 3.77474 4.08522 3.93304
# Velocity P-wave (km/s) = 6.42955 6.91132 6.67478
#
# Compressibility (1/GPa) = 0.02205700
#
# Stress axis : x y z
#
# Youngs Moduli (GPa) = 70.87132 51.47910 88.54077
#
# Poissons Ratio (x) = 0.27743 0.19019
# Poissons Ratio (y) = 0.38194 0.34080
# Poissons Ratio (z) = 0.15223 0.19815
#
# Static dielectric constant tensor:
#      x y z
#    x 1.706070 0.014970 0.009100 
#    y 0.014970 1.727680 0.017690 
#    z 0.009100 0.017690 1.805400 
# 
# From -- ./inp_files/561445.got.cif
#   From: 2010.05.17/outbox.cif.g08.bks.cpg/sg2_281_cif.got.tgz:561445.got - 2010.06.03 11:33:40.
