data_PCOD9087975
_publ_section_title
;
Structure prediction by ZEFSAII (Michael W. Deem and Ramdas Pophale) SiO2 
 PCOD9087975
Probable space group: P -1
;
_chemical_formula_sum "Si O2"
_cell_formula_units_Z 14
_cell_length_a 14.237002
_cell_length_b 10.566445
_cell_length_c 12.291654
_cell_angle_alpha 45.745866
_cell_angle_beta 30.670303
_cell_angle_gamma 64.542850
_cell_volume 597.612608
_symmetry_space_group_name_H-M "P -1"
_symmetry_group_IT_number 2
_symmetry_cell_setting 'triclinic'
loop_
_space_group_symop_operation_xyz
x,y,z
-x,-y,-z
loop_
_atom_site_type_symbol
_atom_site_label
_atom_site_fract_x
_atom_site_fract_y
_atom_site_fract_z
Si Si1 0.097079 0.702210 0.174482
Si Si2 0.134392 0.327481 0.775688
Si Si3 0.498858 0.978164 0.383019
Si Si4 0.432768 0.550426 0.654309
Si Si5 0.271099 0.433489 0.219016
Si Si6 0.027978 0.641473 0.781304
Si Si7 0.157159 0.996442 0.574114
O O1 0.228870 0.581774 0.093243
O O2 0.025323 0.784855 0.093856
O O3 0.878720 0.575377 0.526984
O O4 0.261899 0.886792 0.969271
O O5 0.379490 0.405559 0.476293
O O6 0.112566 0.531034 0.682611
O O7 0.044832 0.171720 0.059124
O O8 0.420438 0.756744 0.548829
O O9 0.348941 0.050483 0.432503
O O10 0.500000 0.000000 0.500000
O O11 0.500000 0.500000 0.500000
O O12 0.198235 0.385556 0.008462
O O13 0.171932 0.208855 0.406449
O O14 0.500000 0.500000 0.000000
O O15 0.171247 0.869604 0.534326
O O16 0.000000 0.500000 0.000000
#
# Coordination Sequence:
#
# PCOD9087975 Si02
#       7
#     2   2   2   2   2   2   2
#     4  11  25  41  61  93 125 163 209 258 309 376
#     4  11  22  39  64  95 128 157 204 261 315 369
#     4  12  22  36  65 100 128 156 204 265 316 371
#     4  12  21  34  60  94 127 166 198 249 317 377
#     4  11  25  43  61  85 125 169 209 257 313 366
#     4  10  19  37  57  92 128 156 200 257 309 369
#     4  11  20  38  64  90 123 161 200 256 314 365
#
# _framework density 23.426545999999998
#
# number of rings (size 3 to 8) (size 9 to 14) (size 15 to 20)
#    0.000    0.857    8.571    0.857    2.000    2.286 
#    0.000    0.714    0.000    1.714    0.000    0.000 
#    0.000    0.000    0.000    0.000    0.000    0.000 
#
# Total GULP energy -78105.133777 kJ/mol
# GULP energy per Si atom -5578.938127 kJ/mol
# Density = 2.337323 g / cm^3
# Si number density = 23.426546 Si / 1000 Ang^3
#
#
#
# Elastic Constant Matrix: (Units=GPa)
#
#
# Indices 1 2 3 4 5 6 
#
# 1 53.5424 10.1637 32.1630 2.5859 -26.4642 -12.6963
# 2 10.1637 107.2647 27.9973 -18.4502 -4.6340 -10.9450
# 3 32.1630 27.9973 94.8264 2.8452 -34.1161 -12.9240
# 4 2.5859 -18.4502 2.8452 49.9220 -8.0472 -12.2991
# 5 -26.4642 -4.6340 -34.1161 -8.0472 39.1047 7.6535
# 6 -12.6963 -10.9450 -12.9240 -12.2991 7.6535 26.6263
#
#
#
# Elastic Compliance Matrix: (Units=1/GPa)
#
#
# Indices 1 2 3 4 5 6 
#
# 1 0.031346 0.000386 -0.003250 0.004054 0.017212 0.010453
# 2 0.000386 0.011795 -0.003392 0.005918 -0.001357 0.006509
# 3 -0.003250 -0.003392 0.017306 0.000420 0.012161 0.002154
# 4 0.004054 0.005918 0.000420 0.026726 0.006358 0.015087
# 5 0.017212 -0.001357 0.012161 0.006358 0.048478 0.002555
# 6 0.010453 0.006509 0.002154 0.015087 0.002555 0.052497
#
#
# Mechanical properties :
#
#
# Convention : Reuss Voigt Hill
#
# Bulk Modulus (GPa) = 20.86195 44.03126 32.44661
# Shear Modulus (GPa) = 23.07991 35.48458 29.28225
#
# Velocity S-wave (km/s) = 3.14220 3.89616 3.53931
# Velocity P-wave (km/s) = 4.69991 6.25111 5.53017
#
# Compressibility (1/GPa) = 0.04793415
#
# Stress axis : x y z
#
# Youngs Moduli (GPa) = 31.90171 84.78244 57.78457
#
# Poissons Ratio (x) = -0.03270 0.18782
# Poissons Ratio (y) = -0.01230 0.19599
# Poissons Ratio (z) = 0.10369 0.28755
#
# Static dielectric constant tensor:
#      x y z
#    x 2.053690 0.075490 0.080310 
#    y 0.075490 1.960220 0.008850 
#    z 0.080310 0.008850 1.954510 
# 
# From -- ./inp_files/464691.got.cif
#   From: 2010.05.17/outbox.cif.g08.bks.cpg/sg2_233_cif.got.tgz:464691.got - 2010.06.03 11:33:40.
