data_PCOD9087825
_publ_section_title
;
Structure prediction by ZEFSAII (Michael W. Deem and Ramdas Pophale) SiO2 
 PCOD9087825
Probable space group: P -1
;
_chemical_formula_sum "Si O2"
_cell_formula_units_Z 14
_cell_length_a 9.641546
_cell_length_b 9.251085
_cell_length_c 9.461038
_cell_angle_alpha 45.944961
_cell_angle_beta 116.329081
_cell_angle_gamma 115.365208
_cell_volume 534.042058
_symmetry_space_group_name_H-M "P -1"
_symmetry_group_IT_number 2
_symmetry_cell_setting 'triclinic'
loop_
_space_group_symop_operation_xyz
x,y,z
-x,-y,-z
loop_
_atom_site_type_symbol
_atom_site_label
_atom_site_fract_x
_atom_site_fract_y
_atom_site_fract_z
Si Si1 0.052555 0.377976 0.904106
Si Si2 0.471216 0.486983 0.824555
Si Si3 0.927508 0.175362 0.429918
Si Si4 0.751560 0.106086 0.031903
Si Si5 0.318132 0.128555 0.301559
Si Si6 0.863717 0.701705 0.295055
Si Si7 0.486846 0.959380 0.818820
O O1 0.108104 0.703303 0.031659
O O2 0.019359 0.330471 0.755278
O O3 0.184850 0.243894 0.095368
O O4 0.821908 0.926126 0.109560
O O5 0.579700 0.692852 0.678339
O O6 0.293884 0.461048 0.704286
O O7 0.315451 0.980040 0.786588
O O8 0.500000 0.500000 0.000000
O O9 0.886694 0.382360 0.204278
O O10 0.061249 0.281114 0.529394
O O11 0.777924 0.059782 0.528538
O O12 0.000000 0.000000 0.500000
O O13 0.609524 0.123179 0.850309
O O14 0.563845 0.941626 0.712357
O O15 0.483854 0.730658 0.037370
#
# Coordination Sequence:
#
# PCOD9087825 Si02
#       7
#     2   2   2   2   2   2   2
#     4  12  23  44  82 104 143 196 242 300 381 424
#     4   9  18  38  73 101 138 185 239 288 361 429
#     4  12  30  46  68 113 153 188 250 303 359 440
#     4  10  19  36  73 110 136 183 244 299 360 433
#     4  11  22  47  77  99 150 191 243 300 366 439
#     4  11  21  46  73 108 146 191 247 299 362 447
#     4   9  19  35  69 107 138 182 237 293 365 431
#
# _framework density 26.215164000000001
#
# number of rings (size 3 to 8) (size 9 to 14) (size 15 to 20)
#    0.000    1.429    5.714    1.714    2.000    1.714 
#    0.000    1.429    9.429    0.000    0.000    0.000 
#    0.000    0.000    0.000    0.000    0.000    0.000 
#
# Total GULP energy -78251.524762 kJ/mol
# GULP energy per Si atom -5589.394626 kJ/mol
# Density = 2.615550 g / cm^3
# Si number density = 26.215164 Si / 1000 Ang^3
#
#
#
# Elastic Constant Matrix: (Units=GPa)
#
#
# Indices 1 2 3 4 5 6 
#
# 1 178.4009 80.7045 45.4364 -8.8970 -20.9758 4.0694
# 2 80.7045 153.6791 62.6830 -1.7483 -25.3035 2.7652
# 3 45.4364 62.6830 61.0876 1.8641 2.0435 -8.5958
# 4 -8.8970 -1.7483 1.8641 52.5837 4.5843 -9.2043
# 5 -20.9758 -25.3035 2.0435 4.5843 29.2354 8.1108
# 6 4.0694 2.7652 -8.5958 -9.2043 8.1108 58.0918
#
#
#
# Elastic Compliance Matrix: (Units=1/GPa)
#
#
# Indices 1 2 3 4 5 6 
#
# 1 0.008278 -0.001059 -0.005579 0.000689 0.005878 -0.002067
# 2 -0.001059 0.017900 -0.019032 -0.001601 0.018082 -0.006372
# 3 -0.005579 -0.019032 0.042532 0.001277 -0.026851 0.011541
# 4 0.000689 -0.001601 0.001277 0.020227 -0.005307 0.004163
# 5 0.005878 0.018082 -0.026851 -0.005307 0.060826 -0.014579
# 6 -0.002067 -0.006372 0.011541 0.004163 -0.014579 0.022065
#
#
# Mechanical properties :
#
#
# Convention : Reuss Voigt Hill
#
# Bulk Modulus (GPa) = 57.57229 85.64614 71.60921
# Shear Modulus (GPa) = 21.83802 41.60512 31.72157
#
# Velocity S-wave (km/s) = 2.88936 3.98812 3.48235
# Velocity P-wave (km/s) = 5.75676 7.34494 6.59881
#
# Compressibility (1/GPa) = 0.01736947
#
# Stress axis : x y z
#
# Youngs Moduli (GPa) = 120.80497 55.86703 23.51145
#
# Poissons Ratio (x) = 0.05914 0.13118
# Poissons Ratio (y) = 0.12788 0.44748
# Poissons Ratio (z) = 0.67400 1.06329
#
# Static dielectric constant tensor:
#      x y z
#    x 2.116960 0.013610 0.031220 
#    y 0.013610 2.037500 0.045800 
#    z 0.031220 0.045800 2.274790 
# 
# From -- ./inp_files/242701.got.cif
#   From: 2010.05.17/outbox.cif.g08.bks.cpg/sg2_122_cif.got.tgz:242701.got - 2010.06.03 11:33:40.
