data_PCOD9087041
_publ_section_title
;
Structure prediction by ZEFSAII (Michael W. Deem and Ramdas Pophale) SiO2 
 PCOD9087041
Probable space group: P -1
;
_chemical_formula_sum "Si O2"
_cell_formula_units_Z 15
_cell_length_a 9.248091
_cell_length_b 11.066458
_cell_length_c 9.283959
_cell_angle_alpha 127.298403
_cell_angle_beta 62.553884
_cell_angle_gamma 104.205482
_cell_volume 669.990920
_symmetry_space_group_name_H-M "P -1"
_symmetry_group_IT_number 2
_symmetry_cell_setting 'triclinic'
loop_
_space_group_symop_operation_xyz
x,y,z
-x,-y,-z
loop_
_atom_site_type_symbol
_atom_site_label
_atom_site_fract_x
_atom_site_fract_y
_atom_site_fract_z
Si Si1 0.983582 0.878604 0.625034
Si Si2 0.885691 0.802938 0.302579
Si Si3 0.621968 0.603589 0.709457
Si Si4 0.362541 0.075281 0.016228
Si Si5 0.000000 0.500000 0.500000
Si Si6 0.921481 0.395944 0.155985
Si Si7 0.622271 0.628379 0.395036
Si Si8 0.151889 0.877304 0.815511
O O1 0.963622 0.800169 0.424732
O O2 0.803713 0.906363 0.796562
O O3 0.096434 0.793881 0.633678
O O4 0.070660 0.035893 0.668947
O O5 0.966760 0.674159 0.071728
O O6 0.695542 0.774247 0.392930
O O7 0.590785 0.755714 0.925842
O O8 0.574886 0.653749 0.602351
O O9 0.519750 0.456833 0.680129
O O10 0.811867 0.559108 0.593255
O O11 0.500000 0.000000 0.000000
O O12 0.310943 0.972908 0.830904
O O13 0.974839 0.539049 0.714634
O O14 0.777703 0.508583 0.247194
O O15 0.839704 0.250093 0.159652
O O16 0.000000 0.000000 0.000000
#
# Coordination Sequence:
#
# PCOD9087041 Si02
#       8
#     2   2   2   2   1   2   2   2
#     4  10  22  38  65  92 121 172 214 269 314 382
#     4  11  21  39  62  90 133 167 214 259 331 385
#     4  10  21  38  62  90 124 164 215 263 314 376
#     4  11  20  36  66  95 121 160 221 276 313 370
#     4  10  22  38  64  90 122 164 214 264 308 378
#     4  11  21  36  63  93 122 167 217 258 321 383
#     4  10  22  38  58  92 128 164 208 266 315 388
#     4  10  19  36  61  90 114 157 217 265 302 367
#
# _framework density 22.388362000000001
#
# number of rings (size 3 to 8) (size 9 to 14) (size 15 to 20)
#    0.000    1.600    4.000    2.800    1.867    0.000 
#    0.000    0.667    0.000    4.800    0.000    0.000 
#    0.000    0.000    0.000    0.000    0.000    0.000 
#
# Total GULP energy -83576.338528 kJ/mol
# GULP energy per Si atom -5571.755902 kJ/mol
# Density = 2.233741 g / cm^3
# Si number density = 22.388362 Si / 1000 Ang^3
#
#
#
# Elastic Constant Matrix: (Units=GPa)
#
#
# Indices 1 2 3 4 5 6 
#
# 1 134.9908 17.4947 28.3713 2.0523 18.5464 10.4967
# 2 17.4947 75.5743 1.6192 5.1417 -2.4006 19.8294
# 3 28.3713 1.6192 74.6064 -14.5354 22.0744 -1.1229
# 4 2.0523 5.1417 -14.5354 29.9483 -6.7013 6.5345
# 5 18.5464 -2.4006 22.0744 -6.7013 28.2550 9.0381
# 6 10.4967 19.8294 -1.1229 6.5345 9.0381 35.5702
#
#
#
# Elastic Compliance Matrix: (Units=1/GPa)
#
#
# Indices 1 2 3 4 5 6 
#
# 1 0.008854 -0.001999 -0.002416 -0.002510 -0.004717 0.000085
# 2 -0.001999 0.016836 -0.002036 0.000425 0.007939 -0.010955
# 3 -0.002416 -0.002036 0.019806 0.005833 -0.014287 0.005032
# 4 -0.002510 0.000425 0.005833 0.040496 0.009677 -0.009210
# 5 -0.004717 0.007939 -0.014287 0.009677 0.059107 -0.020281
# 6 0.000085 -0.010955 0.005032 -0.009210 -0.020281 0.041200
#
#
# Mechanical properties :
#
#
# Convention : Reuss Voigt Hill
#
# Bulk Modulus (GPa) = 30.68047 42.23798 36.45923
# Shear Modulus (GPa) = 23.80201 34.60045 29.20123
#
# Velocity S-wave (km/s) = 3.26412 3.93551 3.61543
# Velocity P-wave (km/s) = 5.28578 6.28951 5.80937
#
# Compressibility (1/GPa) = 0.03259402
#
# Stress axis : x y z
#
# Youngs Moduli (GPa) = 112.93846 59.39595 50.48997
#
# Poissons Ratio (x) = 0.11875 0.12198
# Poissons Ratio (y) = 0.22580 0.10280
# Poissons Ratio (z) = 0.27284 0.12093
#
# Static dielectric constant tensor:
#      x y z
#    x 1.776160 0.005680 0.127270 
#    y 0.005680 1.939140 0.409450 
#    z 0.127270 0.409450 2.893650 
# 
# From -- ./inp_files/386005.got.cif
#   From: 2010.05.17/outbox.cif.g08.bks.cpg/sg2_194_cif.got.tgz:386005.got - 2010.06.03 11:33:40.
