data_PCOD9087856
_publ_section_title
;
Structure prediction by ZEFSAII (Michael W. Deem and Ramdas Pophale) SiO2 
 PCOD9087856
Probable space group: P -1
;
_chemical_formula_sum "Si O2"
_cell_formula_units_Z 16
_cell_length_a 14.901530
_cell_length_b 8.982277
_cell_length_c 7.651133
_cell_angle_alpha 49.983459
_cell_angle_beta 96.527251
_cell_angle_gamma 90.875891
_cell_volume 776.981146
_symmetry_space_group_name_H-M "P -1"
_symmetry_group_IT_number 2
_symmetry_cell_setting 'triclinic'
loop_
_space_group_symop_operation_xyz
x,y,z
-x,-y,-z
loop_
_atom_site_type_symbol
_atom_site_label
_atom_site_fract_x
_atom_site_fract_y
_atom_site_fract_z
Si Si1 0.920133 0.583747 0.230725
Si Si2 0.659297 0.877006 0.453893
Si Si3 0.517890 0.564531 0.654824
Si Si4 0.371767 0.667533 0.838873
Si Si5 0.097628 0.725792 0.047302
Si Si6 0.215193 0.433680 0.088885
Si Si7 0.005802 0.224904 0.366366
Si Si8 0.166873 0.153067 0.696966
O O1 0.945301 0.351491 0.397808
O O2 0.857897 0.681069 0.293112
O O3 0.018359 0.674092 0.199804
O O4 0.863699 0.632985 0.003420
O O5 0.570642 0.760632 0.499640
O O6 0.718193 0.750782 0.705239
O O7 0.727900 0.872527 0.307734
O O8 0.637705 0.099729 0.331669
O O9 0.500000 0.500000 0.500000
O O10 0.429560 0.602631 0.729182
O O11 0.580330 0.415947 0.906662
O O12 0.274466 0.579107 0.881434
O O13 0.181955 0.569610 0.145643
O O14 0.039512 0.696130 0.880780
O O15 0.130376 0.943486 0.902740
O O16 0.107875 0.223271 0.460141
O O17 0.000000 0.000000 0.500000
#
# Coordination Sequence:
#
# PCOD9087856 Si02
#       8
#     2   2   2   2   2   2   2   2
#     4  11  21  34  54  85 123 162 212 265 303 349
#     4  11  22  41  65  89 126 165 198 251 323 372
#     4  10  24  44  71  99 123 157 204 253 317 386
#     4  10  22  45  68  95 129 161 201 255 313 387
#     4  10  19  37  55  78 121 167 212 257 297 366
#     4  10  21  39  61  87 122 166 208 250 307 373
#     4   9  19  34  55  76 111 165 211 246 303 358
#     4  11  21  34  56  88 120 161 208 261 311 360
#
# _framework density 20.592517999999998
#
# number of rings (size 3 to 8) (size 9 to 14) (size 15 to 20)
#    0.000    1.750    1.250    4.125    1.750    0.500 
#    2.250    0.000    0.000    0.000    0.000    0.000 
#    0.000    0.000    0.000    0.000    0.000    0.000 
#
# Total GULP energy -89099.313576 kJ/mol
# GULP energy per Si atom -5568.707099 kJ/mol
# Density = 2.054565 g / cm^3
# Si number density = 20.592518 Si / 1000 Ang^3
#
#
#
# Elastic Constant Matrix: (Units=GPa)
#
#
# Indices 1 2 3 4 5 6 
#
# 1 72.3738 19.6333 10.0499 -8.3932 -27.4847 -5.5370
# 2 19.6333 88.2814 53.6611 -6.8900 -19.7178 -8.8661
# 3 10.0499 53.6611 67.1822 -13.1615 -2.2496 -0.8904
# 4 -8.3932 -6.8900 -13.1615 46.8879 2.5661 -2.7205
# 5 -27.4847 -19.7178 -2.2496 2.5661 28.3182 -4.0629
# 6 -5.5370 -8.8661 -0.8904 -2.7205 -4.0629 28.2896
#
#
#
# Elastic Compliance Matrix: (Units=1/GPa)
#
#
# Indices 1 2 3 4 5 6 
#
# 1 0.026049 0.007742 -0.008393 0.002418 0.031512 0.012019
# 2 0.007742 0.036182 -0.029196 -0.002342 0.032960 0.016445
# 3 -0.008393 -0.029196 0.039550 0.006076 -0.027741 -0.012948
# 4 0.002418 -0.002342 0.006076 0.023276 -0.000612 0.002081
# 5 0.031512 0.032960 -0.027741 -0.000612 0.090803 0.028607
# 6 0.012019 0.016445 -0.012948 0.002081 0.028607 0.046756
#
#
# Mechanical properties :
#
#
# Convention : Reuss Voigt Hill
#
# Bulk Modulus (GPa) = 23.75907 43.83620 33.79764
# Shear Modulus (GPa) = 14.86598 30.33201 22.59899
#
# Velocity S-wave (km/s) = 2.68976 3.84208 3.31635
# Velocity P-wave (km/s) = 4.60534 6.40436 5.57786
#
# Compressibility (1/GPa) = 0.04208919
#
# Stress axis : x y z
#
# Youngs Moduli (GPa) = 38.38907 27.63777 25.28450
#
# Poissons Ratio (x) = -0.21397 0.21220
# Poissons Ratio (y) = -0.29721 0.73820
# Poissons Ratio (z) = 0.32218 0.80690
#
# Static dielectric constant tensor:
#      x y z
#    x 1.754800 0.046820 -0.073030 
#    y 0.046820 1.676910 0.076570 
#    z -0.073030 0.076570 1.826990 
# 
# From -- ./inp_files/291592.got.cif
#   From: 2010.05.17/outbox.cif.g08.bks.cpg/sg2_146_cif.got.tgz:291592.got - 2010.06.03 11:33:40.
