data_PCOD9087248
_publ_section_title
;
Structure prediction by ZEFSAII (Michael W. Deem and Ramdas Pophale) SiO2 
 PCOD9087248
Probable space group: P -1
;
_chemical_formula_sum "Si O2"
_cell_formula_units_Z 16
_cell_length_a 9.941915
_cell_length_b 8.748211
_cell_length_c 14.486593
_cell_angle_alpha 60.507952
_cell_angle_beta 89.067376
_cell_angle_gamma 42.099824
_cell_volume 589.267594
_symmetry_space_group_name_H-M "P -1"
_symmetry_group_IT_number 2
_symmetry_cell_setting 'triclinic'
loop_
_space_group_symop_operation_xyz
x,y,z
-x,-y,-z
loop_
_atom_site_type_symbol
_atom_site_label
_atom_site_fract_x
_atom_site_fract_y
_atom_site_fract_z
Si Si1 0.309354 0.769579 0.062657
Si Si2 0.597337 0.378564 0.349961
Si Si3 0.799854 0.825662 0.298788
Si Si4 0.287864 0.162770 0.027586
Si Si5 0.677709 0.737766 0.494957
Si Si6 0.692280 0.495308 0.999739
Si Si7 0.664614 0.074159 0.703543
Si Si8 0.025128 0.711799 0.648663
O O1 0.415805 0.548180 0.215442
O O2 0.171462 0.794464 0.982733
O O3 0.193941 0.088148 0.996986
O O4 0.568530 0.536473 0.075903
O O5 0.408389 0.649181 0.351330
O O6 0.779760 0.343309 0.333813
O O7 0.790894 0.030103 0.494433
O O8 0.746084 0.828733 0.402991
O O9 0.067589 0.627800 0.359667
O O10 0.862689 0.584826 0.309276
O O11 0.554252 0.176255 0.153037
O O12 0.177926 0.469472 0.977423
O O13 0.350047 0.011836 0.173329
O O14 0.500000 0.000000 0.000000
O O15 0.541068 0.769480 0.411975
O O16 0.500000 0.000000 0.500000
O O17 0.916764 0.783123 0.728472
#
# Coordination Sequence:
#
# PCOD9087248 Si02
#       8
#     2   2   2   2   2   2   2   2
#     4   9  20  35  62  90 118 170 214 253 319 385
#     4  10  22  38  57  86 128 167 205 266 326 381
#     4  11  22  35  59  89 123 164 209 266 322 383
#     4   9  18  36  62  89 122 164 212 262 313 372
#     4  11  22  35  55  89 124 158 207 261 320 383
#     4  10  19  36  62  91 120 162 217 261 312 381
#     4  11  20  38  58  89 124 168 214 261 320 396
#     4  11  22  36  60  91 125 164 213 263 329 385
#
# _framework density 27.152350999999999
#
# number of rings (size 3 to 8) (size 9 to 14) (size 15 to 20)
#    0.000    1.750    3.750    1.125    3.500    0.000 
#    0.000    0.000    0.000   31.500    0.000   23.625 
#    0.000    0.000    0.000    0.000    0.000    0.000 
#
# Total GULP energy -89472.149323 kJ/mol
# GULP energy per Si atom -5592.009333 kJ/mol
# Density = 2.709055 g / cm^3
# Si number density = 27.152351 Si / 1000 Ang^3
#
#
#
# Elastic Constant Matrix: (Units=GPa)
#
#
# Indices 1 2 3 4 5 6 
#
# 1 115.2947 44.1174 37.9660 6.3643 7.2377 27.9549
# 2 44.1174 195.1613 45.3259 35.4381 0.1908 20.0881
# 3 37.9660 45.3259 140.1998 25.0086 12.7088 1.3372
# 4 6.3643 35.4381 25.0086 38.2099 0.4312 0.6550
# 5 7.2377 0.1908 12.7088 0.4312 42.3833 5.8525
# 6 27.9549 20.0881 1.3372 0.6550 5.8525 58.9834
#
#
#
# Elastic Compliance Matrix: (Units=1/GPa)
#
#
# Indices 1 2 3 4 5 6 
#
# 1 0.011300 -0.001733 -0.002692 0.001573 -0.000485 -0.004673
# 2 -0.001733 0.006864 -0.000820 -0.005524 0.000776 -0.001513
# 3 -0.002692 -0.000820 0.009193 -0.004808 -0.002471 0.001645
# 4 0.001573 -0.005524 -0.004808 0.034157 0.000741 0.000792
# 5 -0.000485 0.000776 -0.002471 0.000741 0.024744 -0.002442
# 6 -0.004673 -0.001513 0.001645 0.000792 -0.002442 0.019880
#
#
# Mechanical properties :
#
#
# Convention : Reuss Voigt Hill
#
# Bulk Modulus (GPa) = 59.29046 78.38602 68.83824
# Shear Modulus (GPa) = 40.89934 49.46509 45.18221
#
# Velocity S-wave (km/s) = 3.88531 4.27284 4.08367
# Velocity P-wave (km/s) = 6.48160 7.29894 6.90238
#
# Compressibility (1/GPa) = 0.01686612
#
# Stress axis : x y z
#
# Youngs Moduli (GPa) = 88.49701 145.68018 108.78144
#
# Poissons Ratio (x) = 0.25252 0.29279
# Poissons Ratio (y) = 0.15340 0.08925
# Poissons Ratio (z) = 0.23820 0.11953
#
# Static dielectric constant tensor:
#      x y z
#    x 2.183720 -0.003870 -0.002260 
#    y -0.003870 2.123640 -0.047120 
#    z -0.002260 -0.047120 2.134380 
# 
# From -- ./inp_files/515375.got.cif
#   From: 2010.05.17/outbox.cif.g08.bks.cpg/sg2_258_cif.got.tgz:515375.got - 2010.06.03 11:33:40.
