data_PCOD9087835
_publ_section_title
;
Structure prediction by ZEFSAII (Michael W. Deem and Ramdas Pophale) SiO2 
 PCOD9087835
Probable space group: P -1
;
_chemical_formula_sum "Si O2"
_cell_formula_units_Z 16
_cell_length_a 16.224429
_cell_length_b 7.747529
_cell_length_c 15.298322
_cell_angle_alpha 87.139478
_cell_angle_beta 152.715975
_cell_angle_gamma 109.129763
_cell_volume 691.522366
_symmetry_space_group_name_H-M "P -1"
_symmetry_group_IT_number 2
_symmetry_cell_setting 'triclinic'
loop_
_space_group_symop_operation_xyz
x,y,z
-x,-y,-z
loop_
_atom_site_type_symbol
_atom_site_label
_atom_site_fract_x
_atom_site_fract_y
_atom_site_fract_z
Si Si1 0.223822 0.865712 0.249127
Si Si2 0.168713 0.609048 0.438020
Si Si3 0.906906 0.362811 0.035211
Si Si4 0.791784 0.055334 0.238065
Si Si5 0.252765 0.152967 0.618957
Si Si6 0.454388 0.578376 0.854256
Si Si7 0.369947 0.071845 0.548727
Si Si8 0.827425 0.459618 0.261482
O O1 0.072822 0.612731 0.147267
O O2 0.500000 0.000000 0.500000
O O3 0.229832 0.013917 0.327351
O O4 0.122839 0.814077 0.056725
O O5 0.323126 0.596613 0.651149
O O6 0.026783 0.406977 0.240779
O O7 0.978416 0.596687 0.316987
O O8 0.329804 0.844397 0.536746
O O9 0.642580 0.270585 0.796313
O O10 0.775450 0.006185 0.327717
O O11 0.715116 0.204919 0.141738
O O12 0.648617 0.828119 0.056856
O O13 0.046272 0.161542 0.443728
O O14 0.482097 0.400763 0.848596
O O15 0.265265 0.102100 0.533285
O O16 0.309538 0.485669 0.810717
O O17 0.000000 0.500000 0.500000
#
# Coordination Sequence:
#
# PCOD9087835 Si02
#       8
#     2   2   2   2   2   2   2   2
#     4   8  16  35  56  87 113 136 169 222 277 328
#     4  10  21  33  53  82 108 140 186 229 268 324
#     4   9  18  33  59  85 112 138 174 224 276 326
#     4  11  23  37  55  71 110 155 190 233 271 309
#     4  11  23  37  51  78 110 150 191 228 268 322
#     4  11  23  36  52  76 107 149 192 233 271 318
#     4  10  21  33  57  84 113 142 180 223 275 329
#     4  10  19  37  53  73 106 144 189 235 271 309
#
# _framework density 23.137357000000002
#
# number of rings (size 3 to 8) (size 9 to 14) (size 15 to 20)
#    0.000    2.000    2.500    2.250    5.250    2.000 
#    0.000    0.000    0.000    0.750    0.000   30.625 
#    0.000    0.000    0.000    0.000    0.000    0.000 
#
# Total GULP energy -89146.507105 kJ/mol
# GULP energy per Si atom -5571.656694 kJ/mol
# Density = 2.308470 g / cm^3
# Si number density = 23.137357 Si / 1000 Ang^3
#
#
#
# Elastic Constant Matrix: (Units=GPa)
#
#
# Indices 1 2 3 4 5 6 
#
# 1 122.0611 21.6681 57.2528 5.9611 -24.0293 -3.6452
# 2 21.6681 61.1003 16.6758 21.9947 5.6970 -7.6771
# 3 57.2528 16.6758 142.4546 30.1917 -31.6493 0.6173
# 4 5.9611 21.9947 30.1917 32.8805 3.9805 0.2935
# 5 -24.0293 5.6970 -31.6493 3.9805 60.0747 14.1888
# 6 -3.6452 -7.6771 0.6173 0.2935 14.1888 21.2370
#
#
#
# Elastic Compliance Matrix: (Units=1/GPa)
#
#
# Indices 1 2 3 4 5 6 
#
# 1 0.011450 -0.005173 -0.004466 0.005165 0.002777 -0.001702
# 2 -0.005173 0.026129 0.001360 -0.017217 -0.005649 0.012530
# 3 -0.004466 0.001360 0.012927 -0.012766 0.006950 -0.005117
# 4 0.005165 -0.017217 -0.012766 0.053481 -0.006202 -0.001562
# 5 0.002777 -0.005649 0.006950 -0.006202 0.027027 -0.019739
# 6 -0.001702 0.012530 -0.005117 -0.001562 -0.019739 0.064683
#
#
# Mechanical properties :
#
#
# Convention : Reuss Voigt Hill
#
# Bulk Modulus (GPa) = 29.45782 57.42326 43.44054
# Shear Modulus (GPa) = 22.36419 38.17306 30.26863
#
# Velocity S-wave (km/s) = 3.11237 4.06624 3.62085
# Velocity P-wave (km/s) = 5.06706 6.84967 6.02466
#
# Compressibility (1/GPa) = 0.03394684
#
# Stress axis : x y z
#
# Youngs Moduli (GPa) = 87.33971 38.27166 77.35511
#
# Poissons Ratio (x) = 0.19800 0.34549
# Poissons Ratio (y) = 0.45185 -0.10522
# Poissons Ratio (z) = 0.39009 -0.05206
#
# Static dielectric constant tensor:
#      x y z
#    x 1.973170 -0.048980 0.039490 
#    y -0.048980 2.029790 -0.080190 
#    z 0.039490 -0.080190 2.062370 
# 
# From -- ./inp_files/528837.got.cif
#   From: 2010.05.17/outbox.cif.g08.bks.cpg/sg2_265_cif.got.tgz:528837.got - 2010.06.03 11:33:40.
