data_PCOD9087692
_publ_section_title
;
Structure prediction by ZEFSAII (Michael W. Deem and Ramdas Pophale) SiO2 
 PCOD9087692
Probable space group: P -1
;
_chemical_formula_sum "Si O2"
_cell_formula_units_Z 14
_cell_length_a 7.725749
_cell_length_b 17.095542
_cell_length_c 13.357659
_cell_angle_alpha 23.671229
_cell_angle_beta 61.667118
_cell_angle_gamma 56.689809
_cell_volume 589.825282
_symmetry_space_group_name_H-M "P -1"
_symmetry_group_IT_number 2
_symmetry_cell_setting 'triclinic'
loop_
_space_group_symop_operation_xyz
x,y,z
-x,-y,-z
loop_
_atom_site_type_symbol
_atom_site_label
_atom_site_fract_x
_atom_site_fract_y
_atom_site_fract_z
Si Si1 0.084991 0.570256 0.993252
Si Si2 0.658450 0.277558 0.742925
Si Si3 0.542977 0.902444 0.282230
Si Si4 0.483182 0.699537 0.882153
Si Si5 0.730006 0.961139 0.619680
Si Si6 0.973615 0.662541 0.524835
Si Si7 0.746983 0.466297 0.693357
O O1 0.331684 0.469175 0.030373
O O2 0.007735 0.465320 0.230008
O O3 0.000000 0.500000 0.000000
O O4 0.966295 0.812886 0.739832
O O5 0.500000 0.500000 0.500000
O O6 0.750172 0.309144 0.789630
O O7 0.849110 0.238524 0.659914
O O8 0.554565 0.100442 0.987954
O O9 0.747144 0.832858 0.380337
O O10 0.587099 0.696606 0.445281
O O11 0.349810 0.947600 0.356348
O O12 0.596887 0.810850 0.798442
O O13 0.341306 0.868221 0.647434
O O14 0.343083 0.601841 0.101158
O O15 0.958980 0.507032 0.620698
#
# Coordination Sequence:
#
# PCOD9087692 Si02
#       7
#     2   2   2   2   2   2   2
#     4  10  21  36  66  99 130 171 222 268 323 398
#     4  12  24  43  68  94 130 172 223 275 330 390
#     4  10  22  41  66  92 129 175 221 256 343 389
#     4  10  19  39  63  94 133 175 212 267 333 388
#     4  10  19  36  65  96 131 172 220 262 327 394
#     4  10  23  42  64  95 131 172 220 271 326 397
#     4  10  24  41  69  92 134 173 216 277 327 394
#
# _framework density 23.735842000000002
#
# number of rings (size 3 to 8) (size 9 to 14) (size 15 to 20)
#    0.857    0.857    2.857    1.714    2.000    2.857 
#    0.000    4.286    0.000    0.000    0.000    0.000 
#    0.000    0.000    0.000    0.000    0.000    0.000 
#
# Total GULP energy -78245.499185 kJ/mol
# GULP energy per Si atom -5588.964228 kJ/mol
# Density = 2.368182 g / cm^3
# Si number density = 23.735842 Si / 1000 Ang^3
#
#
#
# Elastic Constant Matrix: (Units=GPa)
#
#
# Indices 1 2 3 4 5 6 
#
# 1 57.3142 4.6870 -2.0830 3.3609 11.5509 -5.5202
# 2 4.6870 65.5717 18.0105 -0.0417 10.5897 -8.7905
# 3 -2.0830 18.0105 152.2574 1.0146 12.7532 -3.5071
# 4 3.3609 -0.0417 1.0146 38.4701 -0.2339 5.7676
# 5 11.5509 10.5897 12.7532 -0.2339 34.8627 -10.9918
# 6 -5.5202 -8.7905 -3.5071 5.7676 -10.9918 38.4529
#
#
#
# Elastic Compliance Matrix: (Units=1/GPa)
#
#
# Indices 1 2 3 4 5 6 
#
# 1 0.018974 -0.000444 0.000863 -0.001905 -0.006087 0.001247
# 2 -0.000444 0.016644 -0.001620 -0.000318 -0.003484 0.002645
# 3 0.000863 -0.001620 0.006970 -0.000235 -0.002431 -0.000270
# 4 -0.001905 -0.000318 -0.000235 0.026841 -0.000430 -0.004517
# 5 -0.006087 -0.003484 -0.002431 -0.000430 0.035246 0.008248
# 6 0.001247 0.002645 -0.000270 -0.004517 0.008248 0.029800
#
#
# Mechanical properties :
#
#
# Convention : Reuss Voigt Hill
#
# Bulk Modulus (GPa) = 24.88404 35.15245 30.01825
# Shear Modulus (GPa) = 33.27287 39.32572 36.29930
#
# Velocity S-wave (km/s) = 3.74812 4.07481 3.91487
# Velocity P-wave (km/s) = 5.40719 6.08118 5.75406
#
# Compressibility (1/GPa) = 0.04018640
#
# Stress axis : x y z
#
# Youngs Moduli (GPa) = 52.70379 60.08060 143.46787
#
# Poissons Ratio (x) = 0.02670 -0.12387
# Poissons Ratio (y) = 0.02342 0.23243
# Poissons Ratio (z) = -0.04551 0.09733
#
# Static dielectric constant tensor:
#      x y z
#    x 1.946710 0.010040 -0.022610 
#    y 0.010040 1.897570 -0.036060 
#    z -0.022610 -0.036060 1.861120 
# 
# From -- ./inp_files/508035.got.cif
#   From: 2010.05.17/outbox.cif.g08.bks.cpg/sg2_255_cif.got.tgz:508035.got - 2010.06.03 11:33:40.
