data_PCOD9087157
_publ_section_title
;
Structure prediction by ZEFSAII (Michael W. Deem and Ramdas Pophale) SiO2 
 PCOD9087157
Probable space group: P -1
;
_chemical_formula_sum "Si O2"
_cell_formula_units_Z 16
_cell_length_a 14.721621
_cell_length_b 9.581054
_cell_length_c 8.395877
_cell_angle_alpha 134.838314
_cell_angle_beta 88.241042
_cell_angle_gamma 110.167892
_cell_volume 747.035937
_symmetry_space_group_name_H-M "P -1"
_symmetry_group_IT_number 2
_symmetry_cell_setting 'triclinic'
loop_
_space_group_symop_operation_xyz
x,y,z
-x,-y,-z
loop_
_atom_site_type_symbol
_atom_site_label
_atom_site_fract_x
_atom_site_fract_y
_atom_site_fract_z
Si Si1 0.510019 0.242773 0.733812
Si Si2 0.859796 0.998477 0.412310
Si Si3 0.408331 0.822458 0.027708
Si Si4 0.201985 0.690861 0.134277
Si Si5 0.570245 0.720060 0.569302
Si Si6 0.270352 0.407252 0.099358
Si Si7 0.725414 0.576894 0.514407
Si Si8 0.914675 0.684029 0.384601
O O1 0.508746 0.223320 0.912144
O O2 0.447218 0.280146 0.621744
O O3 0.618647 0.454604 0.871137
O O4 0.500000 0.000000 0.500000
O O5 0.815376 0.122780 0.627444
O O6 0.965923 0.180828 0.480044
O O7 0.885522 0.834992 0.388959
O O8 0.780765 0.843641 0.160268
O O9 0.311923 0.778715 0.114997
O O10 0.447643 0.080058 0.196484
O O11 0.351759 0.645845 0.751782
O O12 0.202594 0.520930 0.130662
O O13 0.117067 0.545733 0.892290
O O14 0.500000 0.500000 0.500000
O O15 0.684740 0.752700 0.611321
O O16 0.282349 0.441772 0.312741
O O17 0.838561 0.638677 0.499008
#
# Coordination Sequence:
#
# PCOD9087157 Si02
#       8
#     2   2   2   2   2   2   2   2
#     4   9  19  40  58  82 118 154 203 240 283 354
#     4  10  19  36  62  85 113 152 200 240 288 350
#     4   9  21  37  59  83 117 157 193 240 295 347
#     4   9  18  37  59  81 115 155 195 233 292 352
#     4  11  21  37  59  85 116 154 200 239 296 355
#     4  10  21  36  55  86 121 153 191 246 294 345
#     4  11  22  38  57  84 126 151 192 246 298 346
#     4   9  20  36  59  89 112 150 196 245 292 346
#
# _framework density 21.417977
#
# number of rings (size 3 to 8) (size 9 to 14) (size 15 to 20)
#    0.000    2.250    1.250    1.875    0.000    2.500 
#    0.000    3.125    0.000    0.000    0.000    0.000 
#    0.000    0.000    0.000    0.000    0.000    0.000 
#
# Total GULP energy -89240.002419 kJ/mol
# GULP energy per Si atom -5577.500151 kJ/mol
# Density = 2.136923 g / cm^3
# Si number density = 21.417977 Si / 1000 Ang^3
#
#
#
# Elastic Constant Matrix: (Units=GPa)
#
#
# Indices 1 2 3 4 5 6 
#
# 1 45.6557 6.3691 13.7072 -1.0651 -1.1832 5.0228
# 2 6.3691 85.6156 25.1386 1.0992 -0.7175 -3.9474
# 3 13.7072 25.1386 107.9431 0.2345 -5.5622 -9.2629
# 4 -1.0651 1.0992 0.2345 18.9453 0.9881 4.7033
# 5 -1.1832 -0.7175 -5.5622 0.9881 32.3999 1.5076
# 6 5.0228 -3.9474 -9.2629 4.7033 1.5076 21.1289
#
#
#
# Elastic Compliance Matrix: (Units=1/GPa)
#
#
# Indices 1 2 3 4 5 6 
#
# 1 0.024123 -0.001197 -0.003477 0.003501 0.000537 -0.008300
# 2 -0.001197 0.012642 -0.002652 -0.001193 -0.000265 0.001768
# 3 -0.003477 -0.002652 0.010861 -0.001578 0.001479 0.005338
# 4 0.003501 -0.001193 -0.001578 0.056677 -0.001234 -0.014276
# 5 0.000537 -0.000265 0.001479 -0.001234 0.031239 -0.001483
# 6 -0.008300 0.001768 0.005338 -0.014276 -0.001483 0.055256
#
#
# Mechanical properties :
#
#
# Convention : Reuss Voigt Hill
#
# Bulk Modulus (GPa) = 30.32544 36.62716 33.47630
# Shear Modulus (GPa) = 23.10115 27.42812 25.26464
#
# Velocity S-wave (km/s) = 3.28775 3.58245 3.43826
# Velocity P-wave (km/s) = 5.34808 5.85236 5.60590
#
# Compressibility (1/GPa) = 0.03297561
#
# Stress axis : x y z
#
# Youngs Moduli (GPa) = 41.45506 79.09931 92.07374
#
# Poissons Ratio (x) = 0.09467 0.32011
# Poissons Ratio (y) = 0.04961 0.24414
# Poissons Ratio (z) = 0.14413 0.20974
#
# Static dielectric constant tensor:
#      x y z
#    x 1.834750 0.009400 -0.018130 
#    y 0.009400 1.823170 0.013320 
#    z -0.018130 0.013320 1.800370 
# 
# From -- ./inp_files/299883.got.cif
#   From: 2010.05.17/outbox.cif.g08.bks.cpg/sg2_150_cif.got.tgz:299883.got - 2010.06.03 11:33:40.
