data_PCOD9087159
_publ_section_title
;
Structure prediction by ZEFSAII (Michael W. Deem and Ramdas Pophale) SiO2 
 PCOD9087159
Probable space group: P -1
;
_chemical_formula_sum "Si O2"
_cell_formula_units_Z 15
_cell_length_a 7.357760
_cell_length_b 14.037802
_cell_length_c 27.239438
_cell_angle_alpha 20.484072
_cell_angle_beta 143.302068
_cell_angle_gamma 138.059531
_cell_volume 588.018684
_symmetry_space_group_name_H-M "P -1"
_symmetry_group_IT_number 2
_symmetry_cell_setting 'triclinic'
loop_
_space_group_symop_operation_xyz
x,y,z
-x,-y,-z
loop_
_atom_site_type_symbol
_atom_site_label
_atom_site_fract_x
_atom_site_fract_y
_atom_site_fract_z
Si Si1 0.000000 0.000000 0.500000
Si Si2 0.713993 0.683185 0.402020
Si Si3 0.129870 0.883842 0.306389
Si Si4 0.374822 0.757815 0.877923
Si Si5 0.517563 0.587356 0.839097
Si Si6 0.864434 0.968654 0.100170
Si Si7 0.868588 0.365972 0.388617
Si Si8 0.791881 0.556515 0.807304
O O1 0.180149 0.721649 0.697168
O O2 0.055341 0.866821 0.521721
O O3 0.896678 0.790211 0.342817
O O4 0.936842 0.651436 0.511593
O O5 0.626983 0.374482 0.521107
O O6 0.494073 0.941582 0.243120
O O7 0.958313 0.933588 0.194347
O O8 0.293725 0.152823 0.227941
O O9 0.037555 0.771640 0.773482
O O10 0.500000 0.500000 0.000000
O O11 0.405857 0.653816 0.990284
O O12 0.640817 0.496776 0.856595
O O13 0.933116 0.671562 0.234617
O O14 0.500000 0.000000 0.000000
O O15 0.947666 0.278130 0.954000
O O16 0.508747 0.351977 0.331744
#
# Coordination Sequence:
#
# PCOD9087159 Si02
#       8
#     1   2   2   2   2   2   2   2
#     4  10  22  40  58  90 118 156 204 256 290 352
#     4  10  21  37  58  94 120 152 199 251 301 346
#     4  10  19  37  63  87 120 156 202 248 294 359
#     4  12  23  36  55  89 122 153 197 252 297 346
#     4  11  21  40  64  84 116 166 203 240 299 364
#     4   9  17  33  59  91 115 150 205 249 287 357
#     4   9  20  37  58  88 120 156 198 250 299 355
#     4  10  19  36  62  85 114 160 204 240 295 363
#
# _framework density 25.509392999999999
#
# number of rings (size 3 to 8) (size 9 to 14) (size 15 to 20)
#    0.000    1.867    2.667    2.000    0.000    0.533 
#    4.800    2.000    0.000    0.800    0.000    0.000 
#    0.000    0.000    0.000    0.000    0.000    0.000 
#
# Total GULP energy -83548.993340 kJ/mol
# GULP energy per Si atom -5569.932889 kJ/mol
# Density = 2.545133 g / cm^3
# Si number density = 25.509393 Si / 1000 Ang^3
#
#
#
# Elastic Constant Matrix: (Units=GPa)
#
#
# Indices 1 2 3 4 5 6 
#
# 1 50.6121 16.2485 15.5123 -4.3680 4.1715 -7.7158
# 2 16.2485 75.9505 20.1158 -17.2696 -4.1706 1.1777
# 3 15.5123 20.1158 168.0994 -39.8843 16.3619 0.4677
# 4 -4.3680 -17.2696 -39.8843 43.6301 -11.6879 -0.9877
# 5 4.1715 -4.1706 16.3619 -11.6879 42.1624 -11.1020
# 6 -7.7158 1.1777 0.4677 -0.9877 -11.1020 34.2272
#
#
#
# Elastic Compliance Matrix: (Units=1/GPa)
#
#
# Indices 1 2 3 4 5 6 
#
# 1 0.022556 -0.004831 -0.001749 -0.001452 -0.001154 0.004859
# 2 -0.004831 0.016008 -0.000276 0.006662 0.003975 -0.000155
# 3 -0.001749 -0.000276 0.007811 0.006499 -0.001273 -0.000717
# 4 -0.001452 0.006662 0.006499 0.033678 0.008422 0.003058
# 5 -0.001154 0.003975 -0.001273 0.008422 0.029541 0.009445
# 6 0.004859 -0.000155 -0.000717 0.003058 0.009445 0.033479
#
#
# Mechanical properties :
#
#
# Convention : Reuss Voigt Hill
#
# Bulk Modulus (GPa) = 30.61498 44.26835 37.44166
# Shear Modulus (GPa) = 29.82004 40.18963 35.00483
#
# Velocity S-wave (km/s) = 3.42275 3.97354 3.70839
# Velocity P-wave (km/s) = 5.25812 6.20028 5.74853
#
# Compressibility (1/GPa) = 0.03266375
#
# Stress axis : x y z
#
# Youngs Moduli (GPa) = 44.33473 62.46692 128.02208
#
# Poissons Ratio (x) = 0.30178 0.22392
# Poissons Ratio (y) = 0.21419 0.03528
# Poissons Ratio (z) = 0.07755 0.01722
#
# Static dielectric constant tensor:
#      x y z
#    x 2.131210 0.088000 0.098070 
#    y 0.088000 2.015600 0.012320 
#    z 0.098070 0.012320 2.101280 
# 
# From -- ./inp_files/358717.got.cif
#   From: 2010.05.17/outbox.cif.g08.bks.cpg/sg2_180_cif.got.tgz:358717.got - 2010.06.03 11:33:40.
