data_PCOD9087353
_publ_section_title
;
Structure prediction by ZEFSAII (Michael W. Deem and Ramdas Pophale) SiO2 
 PCOD9087353
Probable space group: P -1
;
_chemical_formula_sum "Si O2"
_cell_formula_units_Z 14
_cell_length_a 11.307213
_cell_length_b 7.992480
_cell_length_c 14.263007
_cell_angle_alpha 102.387051
_cell_angle_beta 30.364343
_cell_angle_gamma 92.719531
_cell_volume 611.179560
_symmetry_space_group_name_H-M "P -1"
_symmetry_group_IT_number 2
_symmetry_cell_setting 'triclinic'
loop_
_space_group_symop_operation_xyz
x,y,z
-x,-y,-z
loop_
_atom_site_type_symbol
_atom_site_label
_atom_site_fract_x
_atom_site_fract_y
_atom_site_fract_z
Si Si1 0.786869 0.493351 0.512098
Si Si2 0.740518 0.747952 0.736541
Si Si3 0.981257 0.021638 0.231318
Si Si4 0.511402 0.871430 0.084974
Si Si5 0.061065 0.173108 0.933711
Si Si6 0.222004 0.606642 0.687783
Si Si7 0.431639 0.805150 0.342642
O O1 0.702291 0.668636 0.652835
O O2 0.867603 0.497298 0.349272
O O3 0.582350 0.389311 0.640183
O O4 0.004607 0.362921 0.407496
O O5 0.707237 0.955045 0.765963
O O6 0.553864 0.746117 0.949425
O O7 0.997470 0.846621 0.137779
O O8 0.822609 0.195285 0.302307
O O9 0.816741 0.046251 0.439689
O O10 0.243738 0.059295 0.066275
O O11 0.473450 0.795586 0.201659
O O12 0.344175 0.149961 0.754533
O O13 0.918240 0.346416 0.112092
O O14 0.000000 0.000000 0.000000
O O15 0.500000 0.500000 0.500000
#
# Coordination Sequence:
#
# PCOD9087353 Si02
#       7
#     2   2   2   2   2   2   2
#     4  10  22  41  60  93 132 160 208 256 319 362
#     4  10  22  41  65  89 127 172 201 261 309 369
#     4  10  21  39  59  96 127 157 211 262 304 367
#     4  11  21  40  68  90 121 165 218 253 308 367
#     4  10  19  36  63  86 123 165 198 253 317 357
#     4  10  20  36  62  87 123 164 201 249 314 373
#     4  11  20  38  67  91 128 161 210 263 305 373
#
# _framework density 22.906525999999999
#
# number of rings (size 3 to 8) (size 9 to 14) (size 15 to 20)
#    0.000    1.714    5.714    0.429    2.000    1.143 
#    0.000    2.857    6.286    0.000    0.000    0.000 
#    0.000    0.000    0.000    0.000    0.000    0.000 
#
# Total GULP energy -78056.920351 kJ/mol
# GULP energy per Si atom -5575.494311 kJ/mol
# Density = 2.285439 g / cm^3
# Si number density = 22.906526 Si / 1000 Ang^3
#
#
#
# Elastic Constant Matrix: (Units=GPa)
#
#
# Indices 1 2 3 4 5 6 
#
# 1 86.3019 18.7124 44.3168 22.5036 24.6001 16.8157
# 2 18.7124 23.0404 23.7976 8.0070 3.5803 11.8331
# 3 44.3168 23.7976 124.1859 18.8530 27.2399 22.2887
# 4 22.5036 8.0070 18.8530 27.6250 6.8981 10.1248
# 5 24.6001 3.5803 27.2399 6.8981 56.3431 20.5242
# 6 16.8157 11.8331 22.2887 10.1248 20.5242 32.0555
#
#
#
# Elastic Compliance Matrix: (Units=1/GPa)
#
#
# Indices 1 2 3 4 5 6 
#
# 1 0.018849 -0.009527 -0.002446 -0.010315 -0.006083 0.002483
# 2 -0.009527 0.069910 -0.008415 -0.001650 0.012059 -0.022158
# 3 -0.002446 -0.008415 0.011829 -0.002468 -0.003522 -0.000801
# 4 -0.010315 -0.001650 -0.002468 0.049622 0.003414 -0.010123
# 5 -0.006083 0.012059 -0.003522 0.003414 0.027235 -0.017327
# 6 0.002483 -0.022158 -0.000801 -0.010123 -0.017327 0.052921
#
#
# Mechanical properties :
#
#
# Convention : Reuss Voigt Hill
#
# Bulk Modulus (GPa) = 16.71894 45.24244 30.98069
# Shear Modulus (GPa) = 17.17748 32.98482 25.08115
#
# Velocity S-wave (km/s) = 2.74139 3.79882 3.31257
# Velocity P-wave (km/s) = 4.16352 6.24781 5.30896
#
# Compressibility (1/GPa) = 0.05981242
#
# Stress axis : x y z
#
# Youngs Moduli (GPa) = 53.05365 14.30404 84.53899
#
# Poissons Ratio (x) = 0.13627 0.20679
# Poissons Ratio (y) = 0.50544 0.71138
# Poissons Ratio (z) = 0.12977 0.12037
#
# Static dielectric constant tensor:
#      x y z
#    x 1.952510 0.018750 0.089580 
#    y 0.018750 1.856550 0.013200 
#    z 0.089580 0.013200 1.955480 
# 
# From -- ./inp_files/492724.got.cif
#   From: 2010.05.17/outbox.cif.g08.bks.cpg/sg2_247_cif.got.tgz:492724.got - 2010.06.03 11:33:40.
