data_PCOD9087346
_publ_section_title
;
Structure prediction by ZEFSAII (Michael W. Deem and Ramdas Pophale) SiO2 
 PCOD9087346
Probable space group: P -1
;
_chemical_formula_sum "Si O2"
_cell_formula_units_Z 14
_cell_length_a 17.761054
_cell_length_b 9.183440
_cell_length_c 12.528177
_cell_angle_alpha 146.975685
_cell_angle_beta 153.339709
_cell_angle_gamma 41.129167
_cell_volume 499.636512
_symmetry_space_group_name_H-M "P -1"
_symmetry_group_IT_number 2
_symmetry_cell_setting 'triclinic'
loop_
_space_group_symop_operation_xyz
x,y,z
-x,-y,-z
loop_
_atom_site_type_symbol
_atom_site_label
_atom_site_fract_x
_atom_site_fract_y
_atom_site_fract_z
Si Si1 0.861659 0.203420 0.689220
Si Si2 0.786968 0.879732 0.822776
Si Si3 0.437979 0.487549 0.595019
Si Si4 0.567416 0.049562 0.835030
Si Si5 0.763737 0.689409 0.370785
Si Si6 0.262312 0.173895 0.876880
Si Si7 0.900271 0.367283 0.139379
O O1 0.807508 0.990406 0.577453
O O2 0.848388 0.031754 0.456704
O O3 0.715314 0.418878 0.616814
O O4 0.051943 0.252064 0.994785
O O5 0.649116 0.646319 0.493897
O O6 0.695417 0.077402 0.915404
O O7 0.843604 0.067360 0.912962
O O8 0.519854 0.228255 0.483015
O O9 0.568441 0.724775 0.908079
O O10 0.428527 0.274122 0.818716
O O11 0.672921 0.972664 0.025994
O O12 0.817478 0.526023 0.232845
O O13 0.899978 0.602812 0.578067
O O14 0.158799 0.453768 0.925293
#
# Coordination Sequence:
#
# PCOD9087346 Si02
#       7
#     2   2   2   2   2   2   2
#     4  10  19  36  63  86 112 154 206 229 277 348
#     4   9  22  38  58  85 123 158 179 238 306 350
#     4  10  21  36  59  88 119 154 187 243 289 350
#     4  10  22  36  62  87 119 150 194 239 299 329
#     4   9  18  36  61  82 114 161 193 226 288 360
#     4  11  21  36  65  91 108 150 206 247 264 342
#     4   9  20  37  59  84 119 151 199 229 288 350
#
# _framework density 28.020368999999999
#
# number of rings (size 3 to 8) (size 9 to 14) (size 15 to 20)
#    0.857    1.429    1.429    2.143    2.000    1.714 
#    0.000    0.714    3.143    0.000    0.000    0.000 
#    0.000    0.000    0.000    0.000    0.000    0.000 
#
# Total GULP energy -78259.712564 kJ/mol
# GULP energy per Si atom -5589.979469 kJ/mol
# Density = 2.795659 g / cm^3
# Si number density = 28.020369 Si / 1000 Ang^3
#
#
#
# Elastic Constant Matrix: (Units=GPa)
#
#
# Indices 1 2 3 4 5 6 
#
# 1 91.7238 35.7155 25.1697 -15.6655 1.6612 -5.3773
# 2 35.7155 131.3082 47.7059 -41.6442 -2.0325 -9.0187
# 3 25.1697 47.7059 77.8555 -21.1908 -10.7477 9.8286
# 4 -15.6655 -41.6442 -21.1908 58.3237 6.1348 -4.5359
# 5 1.6612 -2.0325 -10.7477 6.1348 23.2420 0.9154
# 6 -5.3773 -9.0187 9.8286 -4.5359 0.9154 56.5462
#
#
#
# Elastic Compliance Matrix: (Units=1/GPa)
#
#
# Indices 1 2 3 4 5 6 
#
# 1 0.012908 -0.001775 -0.003328 0.001444 -0.003065 0.001688
# 2 -0.001775 0.012823 -0.006328 0.007047 -0.003680 0.003601
# 3 -0.003328 -0.006328 0.019764 0.000454 0.008896 -0.004869
# 4 0.001444 0.007047 0.000454 0.023568 -0.005622 0.003164
# 5 -0.003065 -0.003680 0.008896 -0.005622 0.048665 -0.003663
# 6 0.001688 0.003601 -0.004869 0.003164 -0.003663 0.019579
#
#
# Mechanical properties :
#
#
# Convention : Reuss Voigt Hill
#
# Bulk Modulus (GPa) = 44.18550 57.56330 50.87440
# Shear Modulus (GPa) = 29.81285 40.44214 35.12750
#
# Velocity S-wave (km/s) = 3.26540 3.80322 3.54452
# Velocity P-wave (km/s) = 5.47909 6.31458 5.91161
#
# Compressibility (1/GPa) = 0.02263186
#
# Stress axis : x y z
#
# Youngs Moduli (GPa) = 77.47156 77.98610 50.59693
#
# Poissons Ratio (x) = 0.13844 0.16841
# Poissons Ratio (y) = 0.13753 0.32017
# Poissons Ratio (z) = 0.25786 0.49348
#
# Static dielectric constant tensor:
#      x y z
#    x 2.188230 -0.032800 -0.016130 
#    y -0.032800 2.183860 0.009190 
#    z -0.016130 0.009190 2.202060 
# 
# From -- ./inp_files/579205.got.cif
#   From: 2010.05.17/outbox.cif.g08.bks.cpg/sg2_290_cif.got.tgz:579205.got - 2010.06.03 11:33:40.
