data_PCOD9087170
_publ_section_title
;
Structure prediction by ZEFSAII (Michael W. Deem and Ramdas Pophale) SiO2 
 PCOD9087170
Probable space group: P -1
;
_chemical_formula_sum "Si O2"
_cell_formula_units_Z 16
_cell_length_a 25.979844
_cell_length_b 12.206116
_cell_length_c 12.395853
_cell_angle_alpha 144.358691
_cell_angle_beta 25.756017
_cell_angle_gamma 157.563598
_cell_volume 647.258917
_symmetry_space_group_name_H-M "P -1"
_symmetry_group_IT_number 2
_symmetry_cell_setting 'triclinic'
loop_
_space_group_symop_operation_xyz
x,y,z
-x,-y,-z
loop_
_atom_site_type_symbol
_atom_site_label
_atom_site_fract_x
_atom_site_fract_y
_atom_site_fract_z
Si Si1 0.814308 0.388476 0.277795
Si Si2 0.856750 0.015695 0.387312
Si Si3 0.779100 0.546670 0.848240
Si Si4 0.628849 0.132728 0.603871
Si Si5 0.006581 0.166249 0.532137
Si Si6 0.894487 0.648125 0.113917
Si Si7 0.718922 0.064118 0.890982
Si Si8 0.700082 0.839833 0.303827
O O1 0.639695 0.078165 0.403747
O O2 0.812187 0.526528 0.293160
O O3 0.842692 0.503542 0.441172
O O4 0.000000 0.500000 0.000000
O O5 0.850202 0.789793 0.254492
O O6 0.757754 0.024006 0.669505
O O7 0.768912 0.925823 0.365103
O O8 0.073383 0.328816 0.238889
O O9 0.699883 0.281011 0.715775
O O10 0.912718 0.797718 0.703843
O O11 0.655807 0.571209 0.140092
O O12 0.566078 0.845652 0.532029
O O13 0.488015 0.137043 0.859310
O O14 0.816970 0.040786 0.771558
O O15 0.000000 0.000000 0.500000
O O16 0.821346 0.382834 0.973210
O O17 0.113041 0.880613 0.889637
#
# Coordination Sequence:
#
# PCOD9087170 Si02
#       8
#     2   2   2   2   2   2   2   2
#     4  11  19  38  63  89 117 157 209 249 296 364
#     4  10  23  40  65  92 115 161 215 261 301 352
#     4   9  20  38  60  88 118 153 208 256 298 353
#     4  11  25  39  59  93 131 163 197 249 317 373
#     4  10  19  36  62  86 115 160 205 251 296 355
#     4  11  21  40  66  90 121 156 212 259 299 361
#     4  11  24  41  57  91 133 162 197 251 316 372
#     4  11  21  40  67  90 116 159 215 262 301 354
#
# _framework density 24.719628
#
# number of rings (size 3 to 8) (size 9 to 14) (size 15 to 20)
#    0.000    1.500    2.500    5.250    0.000    5.000 
#    0.000    6.875    0.000    0.000    0.000    0.000 
#    0.000    0.000    0.000    0.000    0.000    0.000 
#
# Total GULP energy -89133.986252 kJ/mol
# GULP energy per Si atom -5570.874141 kJ/mol
# Density = 2.466337 g / cm^3
# Si number density = 24.719628 Si / 1000 Ang^3
#
#
#
# Elastic Constant Matrix: (Units=GPa)
#
#
# Indices 1 2 3 4 5 6 
#
# 1 120.3452 10.3608 37.9810 -6.8638 -9.5729 -18.6468
# 2 10.3608 33.3593 22.2938 1.5041 -4.2094 7.2498
# 3 37.9810 22.2938 131.7381 8.4960 -7.0057 2.5316
# 4 -6.8638 1.5041 8.4960 19.4966 8.5153 -9.0621
# 5 -9.5729 -4.2094 -7.0057 8.5153 36.6234 7.3830
# 6 -18.6468 7.2498 2.5316 -9.0621 7.3830 22.9446
#
#
#
# Elastic Compliance Matrix: (Units=1/GPa)
#
#
# Indices 1 2 3 4 5 6 
#
# 1 0.017750 -0.011948 -0.006524 0.032114 -0.012639 0.035671
# 2 -0.011948 0.048471 -0.000233 -0.038875 0.020935 -0.047090
# 3 -0.006524 -0.000233 0.011433 -0.018339 0.008007 -0.016310
# 4 0.032114 -0.038875 -0.018339 0.156612 -0.060537 0.121739
# 5 -0.012639 0.020935 0.008007 -0.060537 0.053914 -0.059028
# 6 0.035671 -0.047090 -0.016310 0.121739 -0.059028 0.156326
#
#
# Mechanical properties :
#
#
# Convention : Reuss Voigt Hill
#
# Bulk Modulus (GPa) = 24.84778 47.41262 36.13020
# Shear Modulus (GPa) = 10.09425 30.13340 20.11383
#
# Velocity S-wave (km/s) = 2.02296 3.49522 2.85560
# Velocity P-wave (km/s) = 3.94083 5.95907 5.05176
#
# Compressibility (1/GPa) = 0.04024504
#
# Stress axis : x y z
#
# Youngs Moduli (GPa) = 56.33689 20.63079 87.46519
#
# Poissons Ratio (x) = 0.24649 0.57066
# Poissons Ratio (y) = 0.67310 0.02035
# Poissons Ratio (z) = 0.36756 0.00480
#
# Static dielectric constant tensor:
#      x y z
#    x 2.006920 0.089130 0.014570 
#    y 0.089130 2.175620 -0.022160 
#    z 0.014570 -0.022160 1.961630 
# 
# From -- ./inp_files/447036.got.cif
#   From: 2010.05.17/outbox.cif.g08.bks.cpg/sg2_224_cif.got.tgz:447036.got - 2010.06.03 11:33:40.
