data_PCOD9087134
_publ_section_title
;
Structure prediction by ZEFSAII (Michael W. Deem and Ramdas Pophale) SiO2 
 PCOD9087134
Probable space group: P -1
;
_chemical_formula_sum "Si O2"
_cell_formula_units_Z 14
_cell_length_a 6.913800
_cell_length_b 14.778241
_cell_length_c 7.062786
_cell_angle_alpha 120.964749
_cell_angle_beta 115.100596
_cell_angle_gamma 82.792411
_cell_volume 556.336450
_symmetry_space_group_name_H-M "P -1"
_symmetry_group_IT_number 2
_symmetry_cell_setting 'triclinic'
loop_
_space_group_symop_operation_xyz
x,y,z
-x,-y,-z
loop_
_atom_site_type_symbol
_atom_site_label
_atom_site_fract_x
_atom_site_fract_y
_atom_site_fract_z
Si Si1 0.107515 0.857225 0.948902
Si Si2 0.509883 0.258540 0.843862
Si Si3 0.174057 0.233138 0.988219
Si Si4 0.819792 0.183424 0.488193
Si Si5 0.588399 0.936650 0.643760
Si Si6 0.697747 0.413205 0.809948
Si Si7 0.082122 0.469522 0.292876
O O1 0.107395 0.813269 0.692106
O O2 0.735881 0.212115 0.935941
O O3 0.872853 0.841314 0.930558
O O4 0.218421 0.977571 0.120927
O O5 0.397246 0.256561 0.998271
O O6 0.377042 0.173981 0.559871
O O7 0.525883 0.370513 0.857912
O O8 0.014564 0.172508 0.700261
O O9 0.119347 0.346736 0.162695
O O10 0.613547 0.095594 0.335460
O O11 0.755557 0.297639 0.645194
O O12 0.500000 0.000000 0.500000
O O13 0.711851 0.470644 0.672303
O O14 0.878333 0.480645 0.084745
O O15 0.000000 0.500000 0.500000
#
# Coordination Sequence:
#
# PCOD9087134 Si02
#       7
#     2   2   2   2   2   2   2
#     4  11  20  39  59  83 118 154 191 231 280 338
#     4  10  21  39  59  84 120 150 187 236 283 337
#     4  11  22  39  58  86 116 150 189 238 287 329
#     4  10  19  37  62  82 113 154 189 231 286 336
#     4   9  17  37  61  81 113 158 186 230 287 329
#     4   9  19  36  58  81 114 150 183 233 289 333
#     4  10  19  36  62  83 108 149 192 233 283 340
#
# _framework density 25.164628
#
# number of rings (size 3 to 8) (size 9 to 14) (size 15 to 20)
#    0.000    2.000    5.714    1.286    0.000    1.143 
#    5.143    1.429    0.000    0.000    0.000    0.000 
#    0.000    0.000    0.000    0.000    0.000    0.000 
#
# Total GULP energy -78076.466383 kJ/mol
# GULP energy per Si atom -5576.890456 kJ/mol
# Density = 2.510735 g / cm^3
# Si number density = 25.164628 Si / 1000 Ang^3
#
#
#
# Elastic Constant Matrix: (Units=GPa)
#
#
# Indices 1 2 3 4 5 6 
#
# 1 88.3225 48.9997 28.1067 -11.8358 -17.6047 34.3332
# 2 48.9997 153.1362 29.9041 -19.3043 -10.8662 43.7988
# 3 28.1067 29.9041 127.8399 -26.2291 -19.0386 17.2235
# 4 -11.8358 -19.3043 -26.2291 29.0656 15.2168 -8.6472
# 5 -17.6047 -10.8662 -19.0386 15.2168 28.5009 -18.5053
# 6 34.3332 43.7988 17.2235 -8.6472 -18.5053 38.2615
#
#
#
# Elastic Compliance Matrix: (Units=1/GPa)
#
#
# Indices 1 2 3 4 5 6 
#
# 1 0.018053 -0.001527 -0.001606 0.000670 0.000471 -0.013350
# 2 -0.001527 0.011717 -0.000316 0.008041 -0.010973 -0.015391
# 3 -0.001606 -0.000316 0.010012 0.007310 0.001442 -0.000354
# 4 0.000670 0.008041 0.007310 0.059565 -0.033824 -0.015994
# 5 0.000471 -0.010973 0.001442 -0.033824 0.076844 0.041011
# 6 -0.013350 -0.015391 -0.000354 -0.015994 0.041011 0.072113
#
#
# Mechanical properties :
#
#
# Convention : Reuss Voigt Hill
#
# Bulk Modulus (GPa) = 30.40909 64.81329 47.61119
# Shear Modulus (GPa) = 18.78546 36.65148 27.71847
#
# Velocity S-wave (km/s) = 2.73518 3.82051 3.32246
# Velocity P-wave (km/s) = 4.69950 6.72855 5.80339
#
# Compressibility (1/GPa) = 0.03288490
#
# Stress axis : x y z
#
# Youngs Moduli (GPa) = 55.39144 85.34344 99.88347
#
# Poissons Ratio (x) = 0.13031 0.16039
# Poissons Ratio (y) = 0.08458 0.03156
# Poissons Ratio (z) = 0.08895 0.02697
#
# Static dielectric constant tensor:
#      x y z
#    x 2.171280 0.046550 0.022570 
#    y 0.046550 2.026980 -0.023160 
#    z 0.022570 -0.023160 1.955870 
# 
# From -- ./inp_files/36258.got.cif
#   From: 2010.05.17/outbox.cif.g08.bks.cpg/sg2_19_cif.got.tgz:36258.got - 2010.06.03 11:33:40.
