data_PCOD9087871
_publ_section_title
;
Structure prediction by ZEFSAII (Michael W. Deem and Ramdas Pophale) SiO2 
 PCOD9087871
Probable space group: P -1
;
_chemical_formula_sum "Si O2"
_cell_formula_units_Z 14
_cell_length_a 5.650433
_cell_length_b 10.507457
_cell_length_c 10.761015
_cell_angle_alpha 114.853661
_cell_angle_beta 116.096532
_cell_angle_gamma 91.499970
_cell_volume 502.860252
_symmetry_space_group_name_H-M "P -1"
_symmetry_group_IT_number 2
_symmetry_cell_setting 'triclinic'
loop_
_space_group_symop_operation_xyz
x,y,z
-x,-y,-z
loop_
_atom_site_type_symbol
_atom_site_label
_atom_site_fract_x
_atom_site_fract_y
_atom_site_fract_z
Si Si1 0.177404 0.973439 0.891048
Si Si2 0.499089 0.920602 0.337966
Si Si3 0.708286 0.194037 0.358871
Si Si4 0.882347 0.262176 0.017317
Si Si5 0.666029 0.691444 0.007850
Si Si6 0.174056 0.301850 0.680007
Si Si7 0.333680 0.521755 0.593867
O O1 0.089522 0.860364 0.709538
O O2 0.192829 0.133608 0.905183
O O3 0.936953 0.128874 0.058153
O O4 0.500000 0.000000 0.000000
O O5 0.274228 0.789249 0.170477
O O6 0.756901 0.853593 0.371044
O O7 0.500000 0.000000 0.500000
O O8 0.499698 0.047989 0.292782
O O9 0.577388 0.303813 0.301101
O O10 0.863132 0.268780 0.548115
O O11 0.659088 0.323912 0.065785
O O12 0.168584 0.368077 0.085693
O O13 0.752992 0.643360 0.142019
O O14 0.344494 0.409767 0.660022
O O15 0.500000 0.500000 0.500000
O O16 0.000000 0.500000 0.500000
#
# Coordination Sequence:
#
# PCOD9087871 Si02
#       7
#     2   2   2   2   2   2   2
#     4  10  19  37  55  87 122 158 198 243 294 356
#     4  11  20  31  58  92 118 149 197 252 300 350
#     4  11  20  36  61  88 120 161 199 243 302 360
#     4  10  21  36  54  85 122 156 187 247 296 349
#     4  10  20  36  57  82 117 156 194 242 302 339
#     4  10  21  37  58  88 124 150 200 250 307 345
#     4  10  23  42  58  86 123 162 195 244 301 362
#
# _framework density 27.840734999999999
#
# number of rings (size 3 to 8) (size 9 to 14) (size 15 to 20)
#    0.000    1.714    4.286    2.571    2.000    3.429 
#    0.000    0.000    0.000    8.571    0.000    0.000 
#    0.000    0.000    0.000    0.000    0.000    0.000 
#
# Total GULP energy -78158.426688 kJ/mol
# GULP energy per Si atom -5582.744763 kJ/mol
# Density = 2.777737 g / cm^3
# Si number density = 27.840735 Si / 1000 Ang^3
#
#
#
# Elastic Constant Matrix: (Units=GPa)
#
#
# Indices 1 2 3 4 5 6 
#
# 1 160.7729 47.6514 27.9315 -12.7751 -3.5836 26.2438
# 2 47.6514 140.6816 20.6223 -5.8458 -13.7099 23.3072
# 3 27.9315 20.6223 94.2236 -19.9459 0.7843 11.9815
# 4 -12.7751 -5.8458 -19.9459 46.3884 7.1503 -4.5912
# 5 -3.5836 -13.7099 0.7843 7.1503 40.6460 -11.5058
# 6 26.2438 23.3072 11.9815 -4.5912 -11.5058 43.4540
#
#
#
# Elastic Compliance Matrix: (Units=1/GPa)
#
#
# Indices 1 2 3 4 5 6 
#
# 1 0.007613 -0.001903 -0.001140 0.001201 -0.001133 -0.003436
# 2 -0.001903 0.008530 -0.001091 -0.000498 0.002074 -0.002628
# 3 -0.001140 -0.001091 0.012569 0.005076 -0.002241 -0.002249
# 4 0.001201 -0.000498 0.005076 0.024675 -0.004636 -0.000478
# 5 -0.001133 0.002074 -0.002241 -0.004636 0.028081 0.007135
# 6 -0.003436 -0.002628 -0.002249 -0.000478 0.007135 0.028956
#
#
# Mechanical properties :
#
#
# Convention : Reuss Voigt Hill
#
# Bulk Modulus (GPa) = 48.91432 65.34316 57.12874
# Shear Modulus (GPa) = 39.83883 46.06256 42.95069
#
# Velocity S-wave (km/s) = 3.78690 4.07197 3.93202
# Velocity P-wave (km/s) = 6.06039 6.75494 6.41707
#
# Compressibility (1/GPa) = 0.02044391
#
# Stress axis : x y z
#
# Youngs Moduli (GPa) = 131.35429 117.23880 79.56185
#
# Poissons Ratio (x) = 0.22308 0.09068
# Poissons Ratio (y) = 0.24994 0.08682
# Poissons Ratio (z) = 0.14970 0.12794
#
# Static dielectric constant tensor:
#      x y z
#    x 2.338490 -0.024180 -0.053680 
#    y -0.024180 2.174460 0.024390 
#    z -0.053680 0.024390 2.272600 
# 
# From -- ./inp_files/482253.got.cif
#   From: 2010.05.17/outbox.cif.g08.bks.cpg/sg2_242_cif.got.tgz:482253.got - 2010.06.03 11:33:40.
