data_PCOD9087593
_publ_section_title
;
Structure prediction by ZEFSAII (Michael W. Deem and Ramdas Pophale) SiO2 
 PCOD9087593
Probable space group: P -1
;
_chemical_formula_sum "Si O2"
_cell_formula_units_Z 14
_cell_length_a 21.132873
_cell_length_b 11.406962
_cell_length_c 9.355275
_cell_angle_alpha 127.665044
_cell_angle_beta 23.905765
_cell_angle_gamma 141.982030
_cell_volume 506.147220
_symmetry_space_group_name_H-M "P -1"
_symmetry_group_IT_number 2
_symmetry_cell_setting 'triclinic'
loop_
_space_group_symop_operation_xyz
x,y,z
-x,-y,-z
loop_
_atom_site_type_symbol
_atom_site_label
_atom_site_fract_x
_atom_site_fract_y
_atom_site_fract_z
Si Si1 0.242723 0.122239 0.515941
Si Si2 0.208716 0.924554 0.699398
Si Si3 0.805122 0.466842 0.805404
Si Si4 0.052939 0.132956 0.294377
Si Si5 0.547219 0.182811 0.385739
Si Si6 0.572361 0.588802 0.075064
Si Si7 0.982335 0.496611 0.866216
O O1 0.301974 0.023978 0.422847
O O2 0.421873 0.377010 0.328957
O O3 0.194491 0.043140 0.392203
O O4 0.000000 0.000000 0.000000
O O5 0.362380 0.951876 0.525481
O O6 0.987594 0.675330 0.952526
O O7 0.147094 0.036390 0.986980
O O8 0.849329 0.669744 0.858233
O O9 0.809720 0.417990 0.594957
O O10 0.000000 0.500000 0.500000
O O11 0.610777 0.304507 0.195063
O O12 0.162906 0.245121 0.304850
O O13 0.475848 0.270477 0.696756
O O14 0.766692 0.269159 0.074131
O O15 0.500000 0.500000 0.000000
O O16 0.000000 0.500000 0.000000
#
# Coordination Sequence:
#
# PCOD9087593 Si02
#       7
#     2   2   2   2   2   2   2
#     4  10  19  36  64  95 127 171 215 264 329 399
#     4  10  21  40  69  96 126 174 223 276 329 401
#     4  10  21  41  67  97 130 179 217 271 331 403
#     4  10  21  40  66  98 133 171 224 274 332 393
#     4  10  21  42  66  90 136 170 225 270 328 405
#     4  11  24  39  64 104 142 172 218 289 347 383
#     4  11  25  43  65  94 137 179 221 276 343 394
#
# _framework density 27.659936999999999
#
# number of rings (size 3 to 8) (size 9 to 14) (size 15 to 20)
#    0.000    1.714    0.000    6.000    2.000    5.714 
#    5.143    2.857    0.000    0.000    0.000    0.000 
#    0.000    0.000    0.000    0.000    0.000    0.000 
#
# Total GULP energy -78121.375194 kJ/mol
# GULP energy per Si atom -5580.098228 kJ/mol
# Density = 2.759698 g / cm^3
# Si number density = 27.659937 Si / 1000 Ang^3
#
#
#
# Elastic Constant Matrix: (Units=GPa)
#
#
# Indices 1 2 3 4 5 6 
#
# 1 156.1636 35.6601 50.4589 -3.9843 11.2079 54.2393
# 2 35.6601 103.8960 25.0316 -8.0482 5.9391 19.7110
# 3 50.4589 25.0316 65.7688 -6.9340 20.8470 4.7633
# 4 -3.9843 -8.0482 -6.9340 38.3221 10.1753 2.5484
# 5 11.2079 5.9391 20.8470 10.1753 46.3722 -7.3198
# 6 54.2393 19.7110 4.7633 2.5484 -7.3198 62.3322
#
#
#
# Elastic Compliance Matrix: (Units=1/GPa)
#
#
# Indices 1 2 3 4 5 6 
#
# 1 0.013179 -0.000215 -0.008824 0.000736 -0.001070 -0.010881
# 2 -0.000215 0.011376 -0.003410 0.002207 -0.000884 -0.003344
# 3 -0.008824 -0.003410 0.026521 0.005380 -0.009685 0.005373
# 4 0.000736 0.002207 0.005380 0.030612 -0.010260 -0.004206
# 5 -0.001070 -0.000884 -0.009685 -0.010260 0.029462 0.005830
# 6 -0.010881 -0.003344 0.005373 -0.004206 0.005830 0.027015
#
#
# Mechanical properties :
#
#
# Convention : Reuss Voigt Hill
#
# Bulk Modulus (GPa) = 38.20038 60.90328 49.55183
# Shear Modulus (GPa) = 29.10550 43.71715 36.41133
#
# Velocity S-wave (km/s) = 3.24738 3.97989 3.63215
# Velocity P-wave (km/s) = 5.28217 6.57159 5.96184
#
# Compressibility (1/GPa) = 0.02617775
#
# Stress axis : x y z
#
# Youngs Moduli (GPa) = 75.87996 87.90282 37.70607
#
# Poissons Ratio (x) = 0.01888 0.33274
# Poissons Ratio (y) = 0.01629 0.12857
# Poissons Ratio (z) = 0.66960 0.29973
#
# Static dielectric constant tensor:
#      x y z
#    x 2.338300 0.041930 -0.130950 
#    y 0.041930 2.160920 -0.076370 
#    z -0.130950 -0.076370 2.288680 
# 
# From -- ./inp_files/346262.got.cif
#   From: 2010.05.17/outbox.cif.g08.bks.cpg/sg2_174_cif.got.tgz:346262.got - 2010.06.03 11:33:40.
