data_PCOD9087764
_publ_section_title
;
Structure prediction by ZEFSAII (Michael W. Deem and Ramdas Pophale) SiO2 
 PCOD9087764
Probable space group: P -1
;
_chemical_formula_sum "Si O2"
_cell_formula_units_Z 12
_cell_length_a 13.558964
_cell_length_b 5.614211
_cell_length_c 16.707886
_cell_angle_alpha 70.551944
_cell_angle_beta 35.156550
_cell_angle_gamma 96.349187
_cell_volume 489.730849
_symmetry_space_group_name_H-M "P -1"
_symmetry_group_IT_number 2
_symmetry_cell_setting 'triclinic'
loop_
_space_group_symop_operation_xyz
x,y,z
-x,-y,-z
loop_
_atom_site_type_symbol
_atom_site_label
_atom_site_fract_x
_atom_site_fract_y
_atom_site_fract_z
Si Si1 0.355945 0.098600 0.106839
Si Si2 0.348851 0.742786 0.763027
Si Si3 0.716896 0.619417 0.007617
Si Si4 0.844819 0.091820 0.575455
Si Si5 0.915046 0.379784 0.324267
Si Si6 0.016965 0.762836 0.065002
O O1 0.192500 0.844041 0.317555
O O2 0.500000 0.500000 0.000000
O O3 0.248500 0.086424 0.096385
O O4 0.500000 0.000000 0.000000
O O5 0.260765 0.406016 0.910001
O O6 0.197815 0.617785 0.796146
O O7 0.633998 0.025085 0.532006
O O8 0.267656 0.886824 0.859733
O O9 0.431808 0.261511 0.225899
O O10 0.895601 0.615869 0.842851
O O11 0.934942 0.346589 0.410644
O O12 0.000000 0.000000 0.500000
O O13 0.957539 0.673916 0.208219
O O14 0.000000 0.000000 0.000000
#
# Coordination Sequence:
#
# PCOD9087764 Si02
#       6
#     2   2   2   2   2   2
#     4  10  21  41  67  93 137 180 224 279 338 401
#     4   9  20  39  62  88 126 168 217 270 335 403
#     4   9  19  37  61  92 129 172 218 275 333 395
#     4  10  19  36  67  93 133 173 225 272 335 399
#     4  10  19  37  66  91 129 174 219 273 334 408
#     4  10  21  39  63  90 126 164 216 280 336 396
#
# _framework density 24.503253999999998
#
# number of rings (size 3 to 8) (size 9 to 14) (size 15 to 20)
#    0.000    2.333    1.667    0.500    0.000    0.667 
#   15.000    3.333   22.000    0.000    0.000    0.000 
#    0.000    0.000    0.000    0.000    0.000    0.000 
#
# Total GULP energy -66898.126287 kJ/mol
# GULP energy per Si atom -5574.843857 kJ/mol
# Density = 2.444748 g / cm^3
# Si number density = 24.503254 Si / 1000 Ang^3
#
#
#
# Elastic Constant Matrix: (Units=GPa)
#
#
# Indices 1 2 3 4 5 6 
#
# 1 227.9435 49.3813 88.5008 0.6483 45.8031 0.0101
# 2 49.3813 69.1580 59.3863 1.1033 19.8498 -27.6426
# 3 88.5008 59.3863 187.7536 2.4016 20.8576 -19.7650
# 4 0.6483 1.1033 2.4016 41.4941 -14.2860 10.2204
# 5 45.8031 19.8498 20.8576 -14.2860 71.5518 -3.5964
# 6 0.0101 -27.6426 -19.7650 10.2204 -3.5964 60.0871
#
#
#
# Elastic Compliance Matrix: (Units=1/GPa)
#
#
# Indices 1 2 3 4 5 6 
#
# 1 0.006352 -0.002807 -0.001997 -0.000397 -0.002888 -0.002054
# 2 -0.002807 0.026970 -0.005483 -0.004629 -0.004452 0.011125
# 3 -0.001997 -0.005483 0.007970 -0.000168 0.000450 0.000155
# 4 -0.000397 -0.004629 -0.000168 0.028231 0.006894 -0.006574
# 5 -0.002888 -0.004452 0.000450 0.006894 0.018205 -0.001982
# 6 -0.002054 0.011125 0.000155 -0.006574 -0.001982 0.022812
#
#
# Mechanical properties :
#
#
# Convention : Reuss Voigt Hill
#
# Bulk Modulus (GPa) = 48.26292 97.71022 72.98657
# Shear Modulus (GPa) = 36.22688 53.79905 45.01296
#
# Velocity S-wave (km/s) = 3.84924 4.69079 4.29070
# Velocity P-wave (km/s) = 6.28449 8.32473 7.37549
#
# Compressibility (1/GPa) = 0.02071984
#
# Stress axis : x y z
#
# Youngs Moduli (GPa) = 157.43448 37.07778 125.47229
#
# Poissons Ratio (x) = 0.10407 0.25052
# Poissons Ratio (y) = 0.44189 0.68792
# Poissons Ratio (z) = 0.31433 0.20329
#
# Static dielectric constant tensor:
#      x y z
#    x 2.110880 0.277820 -0.023890 
#    y 0.277820 2.447130 -0.098120 
#    z -0.023890 -0.098120 1.901130 
# 
# From -- ./inp_files/29866.got.cif
#   From: 2010.05.17/outbox.cif.g08.bks.cpg/sg2_15_cif.got.tgz:29866.got - 2010.06.03 11:33:40.
