data_PCOD9087997
_publ_section_title
;
Structure prediction by ZEFSAII (Michael W. Deem and Ramdas Pophale) SiO2 
 PCOD9087997
Probable space group: P -1
;
_chemical_formula_sum "Si O2"
_cell_formula_units_Z 10
_cell_length_a 11.450399
_cell_length_b 10.693591
_cell_length_c 5.977603
_cell_angle_alpha 115.482960
_cell_angle_beta 76.521823
_cell_angle_gamma 143.697665
_cell_volume 382.231589
_symmetry_space_group_name_H-M "P -1"
_symmetry_group_IT_number 2
_symmetry_cell_setting 'triclinic'
loop_
_space_group_symop_operation_xyz
x,y,z
-x,-y,-z
loop_
_atom_site_type_symbol
_atom_site_label
_atom_site_fract_x
_atom_site_fract_y
_atom_site_fract_z
Si Si1 0.224080 0.718608 0.170583
Si Si2 0.645240 0.852682 0.562553
Si Si3 0.728295 0.508062 0.263985
Si Si4 0.993567 0.879175 0.099014
Si Si5 0.880328 0.193133 0.375960
O O1 0.198618 0.727359 0.456829
O O2 0.330496 0.960751 0.238516
O O3 0.332115 0.684505 0.000361
O O4 0.000000 0.500000 0.000000
O O5 0.435497 0.608677 0.566433
O O6 0.703481 0.923231 0.329862
O O7 0.820198 0.931521 0.671213
O O8 0.934490 0.667494 0.430627
O O9 0.790482 0.674850 0.173914
O O10 0.039028 0.775297 0.873985
O O11 0.000000 0.000000 0.000000
#
# Coordination Sequence:
#
# PCOD9087997 Si02
#       5
#     2   2   2   2   2
#     4   8  15  36  58  80 108 138 171 220 274 323
#     4   9  20  36  57  82 109 138 179 221 269 318
#     4  10  19  37  58  82 109 140 174 224 270 319
#     4  11  23  38  53  78 112 146 183 221 260 314
#     4   8  20  36  55  80 110 139 179 218 272 316
#
# _framework density 26.162151000000001
#
# number of rings (size 3 to 8) (size 9 to 14) (size 15 to 20)
#    1.200    1.600    2.000    0.600    0.000    6.400 
#    0.000    3.000    0.000    0.000    0.000    0.000 
#    0.000    0.000    0.000    0.000    0.000    0.000 
#
# Total GULP energy -55812.757119 kJ/mol
# GULP energy per Si atom -5581.275712 kJ/mol
# Density = 2.610261 g / cm^3
# Si number density = 26.162151 Si / 1000 Ang^3
#
#
#
# Elastic Constant Matrix: (Units=GPa)
#
#
# Indices 1 2 3 4 5 6 
#
# 1 47.1584 29.0526 4.0066 0.4719 4.8608 -11.8283
# 2 29.0526 141.0526 19.4682 -41.6429 -6.5584 7.8127
# 3 4.0066 19.4682 94.1997 -5.5336 -30.4649 -7.0494
# 4 0.4719 -41.6429 -5.5336 31.9669 -4.1297 -13.7236
# 5 4.8608 -6.5584 -30.4649 -4.1297 40.8087 -4.3050
# 6 -11.8283 7.8127 -7.0494 -13.7236 -4.3050 41.0554
#
#
#
# Elastic Compliance Matrix: (Units=1/GPa)
#
#
# Indices 1 2 3 4 5 6 
#
# 1 0.029960 -0.010400 -0.001923 -0.013086 -0.007459 0.005124
# 2 -0.010400 0.016252 0.001043 0.023634 0.007312 0.002757
# 3 -0.001923 0.001043 0.015939 0.008650 0.013838 0.006327
# 4 -0.013086 0.023634 0.008650 0.075444 0.021633 0.020705
# 5 -0.007459 0.007312 0.013838 0.021633 0.040172 0.010279
# 6 0.005124 0.002757 0.006327 0.020705 0.010279 0.034394
#
#
# Mechanical properties :
#
#
# Convention : Reuss Voigt Hill
#
# Bulk Modulus (GPa) = 25.25725 43.05171 34.15448
# Shear Modulus (GPa) = 20.16794 38.09177 29.12985
#
# Velocity S-wave (km/s) = 2.77949 3.81988 3.34044
# Velocity P-wave (km/s) = 4.46943 5.99556 5.28784
#
# Compressibility (1/GPa) = 0.03959260
#
# Stress axis : x y z
#
# Youngs Moduli (GPa) = 33.37745 61.52976 62.73927
#
# Poissons Ratio (x) = 0.63989 0.12062
# Poissons Ratio (y) = 0.34711 -0.06542
# Poissons Ratio (z) = 0.06417 -0.06416
#
# Static dielectric constant tensor:
#      x y z
#    x 2.097230 -0.065930 -0.077990 
#    y -0.065930 2.101640 -0.013090 
#    z -0.077990 -0.013090 2.096060 
# 
# From -- ./inp_files/18657.got.cif
#   From: 2010.05.17/outbox.cif.g08.bks.cpg/sg2_10_cif.got.tgz:18657.got - 2010.06.03 11:33:40.
