data_PCOD9087821
_publ_section_title
;
Structure prediction by ZEFSAII (Michael W. Deem and Ramdas Pophale) SiO2 
 PCOD9087821
Probable space group: P -1
;
_chemical_formula_sum "Si O2"
_cell_formula_units_Z 16
_cell_length_a 13.946248
_cell_length_b 8.355779
_cell_length_c 11.979102
_cell_angle_alpha 124.638856
_cell_angle_beta 36.870892
_cell_angle_gamma 110.039105
_cell_volume 671.138095
_symmetry_space_group_name_H-M "P -1"
_symmetry_group_IT_number 2
_symmetry_cell_setting 'triclinic'
loop_
_space_group_symop_operation_xyz
x,y,z
-x,-y,-z
loop_
_atom_site_type_symbol
_atom_site_label
_atom_site_fract_x
_atom_site_fract_y
_atom_site_fract_z
Si Si1 0.892178 0.460401 0.216676
Si Si2 0.621447 0.306426 0.559284
Si Si3 0.082314 0.589727 0.282645
Si Si4 0.533884 0.035820 0.151242
Si Si5 0.437396 0.687800 0.975535
Si Si6 0.905795 0.960609 0.183636
Si Si7 0.399683 0.344543 0.579240
Si Si8 0.097039 0.189664 0.249873
O O1 0.760946 0.387594 0.392470
O O2 0.981757 0.594623 0.263542
O O3 0.780197 0.558177 0.257873
O O4 0.028318 0.274502 0.972072
O O5 0.562467 0.469196 0.776731
O O6 0.716839 0.078467 0.400563
O O7 0.458179 0.317202 0.641461
O O8 0.253578 0.654355 0.132868
O O9 0.972327 0.722121 0.532105
O O10 0.109287 0.366425 0.221541
O O11 0.516822 0.204722 0.137539
O O12 0.459239 0.143027 0.374658
O O13 0.458259 0.850050 0.112349
O O14 0.725363 0.948852 0.955135
O O15 0.977833 0.062882 0.258985
O O16 0.000000 0.000000 0.000000
O O17 0.500000 0.500000 0.500000
#
# Coordination Sequence:
#
# PCOD9087821 Si02
#       8
#     2   2   2   2   2   2   2   2
#     4  10  19  39  66  93 126 170 219 267 319 382
#     4  10  19  39  66  93 126 170 219 267 319 382
#     4  11  25  42  63  94 134 173 215 270 327 381
#     4  11  23  41  68  92 129 175 218 263 325 390
#     4  11  25  42  63  94 134 173 215 270 327 381
#     4  10  19  36  70  95 121 169 222 261 322 386
#     4  10  19  36  70  95 121 169 222 261 322 386
#     4  11  23  41  68  92 129 175 218 263 325 390
#
# _framework density 23.8401
#
# number of rings (size 3 to 8) (size 9 to 14) (size 15 to 20)
#    0.000    1.500    5.000    3.000    3.500    1.000 
#    0.000    2.500    0.000    0.000    0.000    0.000 
#    0.000    0.000    0.000    0.000    0.000    0.000 
#
# Total GULP energy -89499.020331 kJ/mol
# GULP energy per Si atom -5593.688771 kJ/mol
# Density = 2.378584 g / cm^3
# Si number density = 23.840100 Si / 1000 Ang^3
#
#
#
# Elastic Constant Matrix: (Units=GPa)
#
#
# Indices 1 2 3 4 5 6 
#
# 1 125.6802 33.8810 45.2675 21.6074 -3.9733 14.1489
# 2 33.8810 90.3576 33.9669 -27.4235 7.0005 -1.5428
# 3 45.2675 33.9669 172.2334 21.4738 -3.7441 24.4648
# 4 21.6074 -27.4235 21.4738 5.9424 21.3635 -8.6861
# 5 -3.9733 7.0005 -3.7441 21.3635 35.9128 10.1512
# 6 14.1489 -1.5428 24.4648 -8.6861 10.1512 19.0382
#
#
#
# Elastic Compliance Matrix: (Units=1/GPa)
#
#
# Indices 1 2 3 4 5 6 
#
# 1 0.007568 0.000479 -0.003341 0.005609 -0.003885 0.003338
# 2 0.000479 0.007105 0.000985 -0.009063 0.006625 -0.008713
# 3 -0.003341 0.000985 0.005831 0.005595 -0.003073 -0.000738
# 4 0.005609 -0.009063 0.005595 -0.010385 0.016374 -0.025561
# 5 -0.003885 0.006625 -0.003073 0.016374 0.013974 0.007393
# 6 0.003338 -0.008713 -0.000738 -0.025561 0.007393 0.034683
#
#
# Mechanical properties :
#
#
# Convention : Reuss Voigt Hill
#
# Bulk Modulus (GPa) = 59.71170 68.27800 63.99485
# Shear Modulus (GPa) = 73.40631 30.52239 51.96435
#
# Velocity S-wave (km/s) = 5.55499 3.58200 4.67379
# Velocity P-wave (km/s) = 8.13911 6.76830 7.48515
#
# Compressibility (1/GPa) = 0.01674714
#
# Stress axis : x y z
#
# Youngs Moduli (GPa) = 132.13018 140.74994 171.50976
#
# Poissons Ratio (x) = -0.06735 0.57310
# Poissons Ratio (y) = -0.06323 -0.16888
# Poissons Ratio (z) = 0.44151 -0.13859
#
# Static dielectric constant tensor:
#      x y z
#    x 1.913270 -0.013920 0.005510 
#    y -0.013920 1.999010 0.021170 
#    z 0.005510 0.021170 1.846810 
# 
# From -- ./inp_files/532967.got.cif
#   From: 2010.05.17/outbox.cif.g08.bks.cpg/sg2_267_cif.got.tgz:532967.got - 2010.06.03 11:33:40.
