data_PCOD9087586
_publ_section_title
;
Structure prediction by ZEFSAII (Michael W. Deem and Ramdas Pophale) SiO2 
 PCOD9087586
Probable space group: P -1
;
_chemical_formula_sum "Si O2"
_cell_formula_units_Z 16
_cell_length_a 9.386950
_cell_length_b 13.352642
_cell_length_c 11.079386
_cell_angle_alpha 133.391668
_cell_angle_beta 63.441794
_cell_angle_gamma 85.788388
_cell_volume 731.729878
_symmetry_space_group_name_H-M "P -1"
_symmetry_group_IT_number 2
_symmetry_cell_setting 'triclinic'
loop_
_space_group_symop_operation_xyz
x,y,z
-x,-y,-z
loop_
_atom_site_type_symbol
_atom_site_label
_atom_site_fract_x
_atom_site_fract_y
_atom_site_fract_z
Si Si1 0.806973 0.272347 0.633531
Si Si2 0.433460 0.970142 0.819692
Si Si3 0.430971 0.623337 0.965157
Si Si4 0.835443 0.112312 0.254118
Si Si5 0.408621 0.252879 0.185443
Si Si6 0.114431 0.607563 0.938507
Si Si7 0.143697 0.262281 0.635662
Si Si8 0.723965 0.416046 0.386921
O O1 0.637859 0.459458 0.799147
O O2 0.881903 0.126189 0.385039
O O3 0.985143 0.271816 0.616517
O O4 0.696190 0.257365 0.775532
O O5 0.314231 0.936875 0.745450
O O6 0.473265 0.863622 0.839711
O O7 0.643015 0.894240 0.616837
O O8 0.332430 0.161077 0.062793
O O9 0.461698 0.721910 0.933443
O O10 0.302101 0.564996 0.908903
O O11 0.750986 0.296752 0.385046
O O12 0.000000 0.000000 0.000000
O O13 0.255983 0.439141 0.451427
O O14 0.133027 0.433892 0.770166
O O15 0.133912 0.670494 0.853533
O O16 0.925612 0.733483 0.197355
O O17 0.500000 0.500000 0.500000
#
# Coordination Sequence:
#
# PCOD9087586 Si02
#       8
#     2   2   2   2   2   2   2   2
#     4  10  22  37  64  89 127 164 205 255 316 374
#     4  11  24  43  63  90 129 162 207 272 313 365
#     4  10  19  41  62  91 122 165 211 254 307 380
#     4  12  26  43  65  93 129 165 207 263 322 375
#     4  11  22  38  70  91 118 168 216 256 314 368
#     4  10  19  36  64  95 117 165 215 255 303 369
#     4  10  21  37  61  94 127 158 206 261 311 368
#     4  12  19  39  70  91 119 167 219 253 301 383
#
# _framework density 21.865991000000001
#
# number of rings (size 3 to 8) (size 9 to 14) (size 15 to 20)
#    0.000    1.250    5.000    0.750    3.500    1.000 
#    4.500    3.750    0.000    0.000    0.000    0.000 
#    0.000    0.000    0.000    0.000    0.000    0.000 
#
# Total GULP energy -89395.779802 kJ/mol
# GULP energy per Si atom -5587.236238 kJ/mol
# Density = 2.181622 g / cm^3
# Si number density = 21.865991 Si / 1000 Ang^3
#
#
#
# Elastic Constant Matrix: (Units=GPa)
#
#
# Indices 1 2 3 4 5 6 
#
# 1 78.9766 19.3239 49.2862 -7.9859 22.5776 18.2672
# 2 19.3239 52.2285 32.0451 -25.3410 7.8860 15.8435
# 3 49.2862 32.0451 130.9799 -27.6925 25.8085 4.2859
# 4 -7.9859 -25.3410 -27.6925 46.5998 5.4914 4.9566
# 5 22.5776 7.8860 25.8085 5.4914 43.1212 0.5076
# 6 18.2672 15.8435 4.2859 4.9566 0.5076 16.3212
#
#
#
# Elastic Compliance Matrix: (Units=1/GPa)
#
#
# Indices 1 2 3 4 5 6 
#
# 1 0.042640 0.042381 -0.009618 0.038271 -0.028051 -0.097089
# 2 0.042381 0.114339 -0.010340 0.087966 -0.045984 -0.180996
# 3 -0.009618 -0.010340 0.013135 -0.001238 -0.000986 0.017760
# 4 0.038271 0.087966 -0.001238 0.097118 -0.045916 -0.155967
# 5 -0.028051 -0.045984 -0.000986 -0.045916 0.051681 0.088629
# 6 -0.097089 -0.180996 0.017760 -0.155967 0.088629 0.385580
#
#
# Mechanical properties :
#
#
# Convention : Reuss Voigt Hill
#
# Bulk Modulus (GPa) = 4.65201 51.49949 28.07575
# Shear Modulus (GPa) = 6.83713 31.97708 19.40710
#
# Velocity S-wave (km/s) = 1.77020 3.82830 2.98241
# Velocity P-wave (km/s) = 2.51203 6.56846 4.97267
#
# Compressibility (1/GPa) = 0.21496072
#
# Stress axis : x y z
#
# Youngs Moduli (GPa) = 23.45207 8.74591 76.13222
#
# Poissons Ratio (x) = -0.37066 0.73226
# Poissons Ratio (y) = -0.99392 0.78718
# Poissons Ratio (z) = 0.22557 0.09043
#
# Static dielectric constant tensor:
#      x y z
#    x 1.779910 -0.002830 -0.003940 
#    y -0.002830 1.739300 -0.014760 
#    z -0.003940 -0.014760 1.861410 
# 
# From -- ./inp_files/399769.got.cif
#   From: 2010.05.17/outbox.cif.g08.bks.cpg/sg2_200_cif.got.tgz:399769.got - 2010.06.03 11:33:40.
