data_PCOD9087009
_publ_section_title
;
Structure prediction by ZEFSAII (Michael W. Deem and Ramdas Pophale) SiO2 
 PCOD9087009
Probable space group: P -1
;
_chemical_formula_sum "Si O2"
_cell_formula_units_Z 16
_cell_length_a 12.105740
_cell_length_b 19.923762
_cell_length_c 15.141224
_cell_angle_alpha 146.388278
_cell_angle_beta 28.893378
_cell_angle_gamma 157.719551
_cell_volume 663.876461
_symmetry_space_group_name_H-M "P -1"
_symmetry_group_IT_number 2
_symmetry_cell_setting 'triclinic'
loop_
_space_group_symop_operation_xyz
x,y,z
-x,-y,-z
loop_
_atom_site_type_symbol
_atom_site_label
_atom_site_fract_x
_atom_site_fract_y
_atom_site_fract_z
Si Si1 0.298680 0.218950 0.042615
Si Si2 0.770834 0.694055 0.626121
Si Si3 0.882395 0.211791 0.970276
Si Si4 0.289891 0.577849 0.687961
Si Si5 0.186036 0.210455 0.920453
Si Si6 0.499663 0.078151 0.826668
Si Si7 0.569304 0.941537 0.472553
Si Si8 0.898786 0.822216 0.389901
O O1 0.245259 0.282870 0.234122
O O2 0.330870 0.295291 0.009567
O O3 0.588269 0.238157 0.891411
O O4 0.000000 0.000000 0.000000
O O5 0.427635 0.584890 0.694103
O O6 0.903556 0.610457 0.425834
O O7 0.034822 0.881643 0.596774
O O8 0.123227 0.244183 0.764355
O O9 0.847281 0.340745 0.118748
O O10 0.075134 0.265837 0.987465
O O11 0.500000 0.000000 0.000000
O O12 0.589701 0.701157 0.540202
O O13 0.809450 0.014095 0.992911
O O14 0.432893 0.202094 0.700907
O O15 0.393115 0.933467 0.671088
O O16 0.802953 0.139550 0.734232
O O17 0.500000 0.000000 0.500000
O O18 0.000000 0.000000 0.500000
#
# Coordination Sequence:
#
# PCOD9087009 Si02
#       8
#     2   2   2   2   2   2   2   2
#     4  10  19  36  61  88 120 161 206 256 312 361
#     4  11  22  43  64  92 137 160 202 267 323 379
#     4  12  22  39  64  87 126 170 213 258 309 370
#     4  11  25  43  62  94 133 170 201 260 326 375
#     4  11  21  37  58  94 125 155 209 269 306 355
#     4  11  19  32  58  89 125 153 203 260 315 355
#     4  12  20  35  63  95 122 159 209 257 312 372
#     4  12  22  37  63  93 121 167 219 256 299 380
#
# _framework density 24.10087
#
# number of rings (size 3 to 8) (size 9 to 14) (size 15 to 20)
#    0.000    0.750    7.500    3.000    0.000    0.000 
#    2.250    2.500    0.000    1.500    0.000    0.000 
#    0.000    0.000    0.000    0.000    0.000    0.000 
#
# Total GULP energy -89337.573182 kJ/mol
# GULP energy per Si atom -5583.598324 kJ/mol
# Density = 2.404601 g / cm^3
# Si number density = 24.100870 Si / 1000 Ang^3
#
#
#
# Elastic Constant Matrix: (Units=GPa)
#
#
# Indices 1 2 3 4 5 6 
#
# 1 137.1556 2.9040 30.1854 19.7564 -0.1224 -3.2222
# 2 2.9040 30.3844 18.7887 4.6732 6.2260 -3.5008
# 3 30.1854 18.7887 169.5096 18.5041 7.9325 -8.4103
# 4 19.7564 4.6732 18.5041 32.6057 -1.3854 -1.3211
# 5 -0.1224 6.2260 7.9325 -1.3854 50.5650 -1.4080
# 6 -3.2222 -3.5008 -8.4103 -1.3211 -1.4080 20.4717
#
#
#
# Elastic Compliance Matrix: (Units=1/GPa)
#
#
# Indices 1 2 3 4 5 6 
#
# 1 0.008153 0.000600 -0.001001 -0.004430 0.000001 0.000689
# 2 0.000600 0.036847 -0.003376 -0.003716 -0.003983 0.004495
# 3 -0.001001 -0.003376 0.006879 -0.002767 -0.000690 0.001865
# 4 -0.004430 -0.003716 -0.002767 0.035534 0.001853 -0.000049
# 5 0.000001 -0.003983 -0.000690 0.001853 0.020441 0.000561
# 6 0.000689 0.004495 0.001865 -0.000049 0.000561 0.050527
#
#
# Mechanical properties :
#
#
# Convention : Reuss Voigt Hill
#
# Bulk Modulus (GPa) = 22.56022 48.97844 35.76933
# Shear Modulus (GPa) = 27.66882 39.73993 33.70438
#
# Velocity S-wave (km/s) = 3.39195 4.06507 3.74367
# Velocity P-wave (km/s) = 4.97208 6.51149 5.79314
#
# Compressibility (1/GPa) = 0.04432580
#
# Stress axis : x y z
#
# Youngs Moduli (GPa) = 122.65704 27.13899 145.37727
#
# Poissons Ratio (x) = -0.01629 0.14546
# Poissons Ratio (y) = -0.07361 0.49080
# Poissons Ratio (z) = 0.12273 0.09162
#
# Static dielectric constant tensor:
#      x y z
#    x 2.065240 0.013820 -0.060420 
#    y 0.013820 2.125290 0.031600 
#    z -0.060420 0.031600 1.953680 
# 
# From -- ./inp_files/524089.got.cif
#   From: 2010.05.17/outbox.cif.g08.bks.cpg/sg2_263_cif.got.tgz:524089.got - 2010.06.03 11:33:40.
