data_PCOD9087091
_publ_section_title
;
Structure prediction by ZEFSAII (Michael W. Deem and Ramdas Pophale) SiO2 
 PCOD9087091
Probable space group: P -1
;
_chemical_formula_sum "Si O2"
_cell_formula_units_Z 16
_cell_length_a 15.271313
_cell_length_b 14.948493
_cell_length_c 12.609071
_cell_angle_alpha 30.255623
_cell_angle_beta 117.022100
_cell_angle_gamma 137.587599
_cell_volume 823.498571
_symmetry_space_group_name_H-M "P -1"
_symmetry_group_IT_number 2
_symmetry_cell_setting 'triclinic'
loop_
_space_group_symop_operation_xyz
x,y,z
-x,-y,-z
loop_
_atom_site_type_symbol
_atom_site_label
_atom_site_fract_x
_atom_site_fract_y
_atom_site_fract_z
Si Si1 0.808787 0.541088 0.405306
Si Si2 0.225599 0.385333 0.280401
Si Si3 0.974832 0.673349 0.142080
Si Si4 0.900912 0.184545 0.583557
Si Si5 0.526269 0.985672 0.151569
Si Si6 0.746470 0.875229 0.029040
Si Si7 0.565224 0.626142 0.523995
Si Si8 0.910663 0.908547 0.709783
O O1 0.873261 0.565456 0.302928
O O2 0.797268 0.738787 0.193446
O O3 0.934555 0.659551 0.441068
O O4 0.639448 0.235577 0.654577
O O5 0.285483 0.283444 0.466935
O O6 0.198778 0.318201 0.209997
O O7 0.349291 0.708190 0.044517
O O8 0.062242 0.195119 0.440819
O O9 0.923698 0.418409 0.322856
O O10 0.956921 0.814015 0.910902
O O11 0.148583 0.895773 0.054897
O O12 0.843848 0.973966 0.676980
O O13 0.790964 0.022820 0.791136
O O14 0.581610 0.858141 0.314774
O O15 0.500000 0.000000 0.000000
O O16 0.568011 0.631875 0.207236
O O17 0.500000 0.500000 0.500000
#
# Coordination Sequence:
#
# PCOD9087091 Si02
#       8
#     2   2   2   2   2   2   2   2
#     4  10  19  36  61  93 126 150 197 258 296 348
#     4  11  26  42  64  83 124 163 195 250 293 367
#     4  11  21  35  64  92 119 158 201 247 299 349
#     4  11  21  35  64  92 119 158 201 247 299 349
#     4  11  23  38  63  93 121 154 196 248 308 353
#     4  10  19  36  61  93 126 150 197 258 296 348
#     4  11  23  38  63  93 121 154 196 248 308 353
#     4  11  24  45  58  86 122 163 205 238 299 356
#
# _framework density 19.429300000000001
#
# number of rings (size 3 to 8) (size 9 to 14) (size 15 to 20)
#    0.000    1.250    3.750    3.750    3.500    4.000 
#    0.000    3.750    0.000    0.000    0.000    0.000 
#    0.000    0.000    0.000    0.000    0.000    0.000 
#
# Total GULP energy -89465.467025 kJ/mol
# GULP energy per Si atom -5591.591689 kJ/mol
# Density = 1.938508 g / cm^3
# Si number density = 19.429300 Si / 1000 Ang^3
#
#
#
# Elastic Constant Matrix: (Units=GPa)
#
#
# Indices 1 2 3 4 5 6 
#
# 1 36.4699 16.7630 13.6879 -6.7288 12.8199 -12.3255
# 2 16.7630 88.0376 29.2254 -10.1938 -2.1192 -32.6474
# 3 13.6879 29.2254 92.8960 -21.0908 13.0677 -20.1696
# 4 -6.7288 -10.1938 -21.0908 26.3790 -1.7251 -0.2751
# 5 12.8199 -2.1192 13.0677 -1.7251 20.9916 -6.5993
# 6 -12.3255 -32.6474 -20.1696 -0.2751 -6.5993 28.7279
#
#
#
# Elastic Compliance Matrix: (Units=1/GPa)
#
#
# Indices 1 2 3 4 5 6 
#
# 1 0.042025 -0.005321 0.002939 0.009494 -0.024583 0.008490
# 2 -0.005321 0.024949 -0.001013 0.008844 0.016302 0.029188
# 3 0.002939 -0.001013 0.017162 0.013653 -0.008186 0.010409
# 4 0.009494 0.008844 0.013653 0.054823 -0.001380 0.023918
# 5 -0.024583 0.016302 -0.008186 -0.001380 0.075424 0.019544
# 6 0.008490 0.029188 0.010409 0.023918 0.019544 0.083649
#
#
# Mechanical properties :
#
#
# Convention : Reuss Voigt Hill
#
# Bulk Modulus (GPa) = 12.92915 37.41737 25.17326
# Shear Modulus (GPa) = 15.12385 25.73485 20.42935
#
# Velocity S-wave (km/s) = 2.79302 3.64337 3.24616
# Velocity P-wave (km/s) = 4.13161 6.08267 5.19947
#
# Compressibility (1/GPa) = 0.07734462
#
# Stress axis : x y z
#
# Youngs Moduli (GPa) = 23.79523 40.08249 58.26979
#
# Poissons Ratio (x) = 0.21330 -0.17125
# Poissons Ratio (y) = 0.12663 0.05901
# Poissons Ratio (z) = -0.06993 0.04059
#
# Static dielectric constant tensor:
#      x y z
#    x 1.687820 -0.004470 -0.001040 
#    y -0.004470 1.646140 -0.009830 
#    z -0.001040 -0.009830 1.678460 
# 
# From -- ./inp_files/432279.got.cif
#   From: 2010.05.17/outbox.cif.g08.bks.cpg/sg2_217_cif.got.tgz:432279.got - 2010.06.03 11:33:40.
