data_PCOD9087980
_publ_section_title
;
Structure prediction by ZEFSAII (Michael W. Deem and Ramdas Pophale) SiO2 
 PCOD9087980
Probable space group: P -1
;
_chemical_formula_sum "Si O2"
_cell_formula_units_Z 14
_cell_length_a 7.347187
_cell_length_b 13.134015
_cell_length_c 16.848251
_cell_angle_alpha 157.367147
_cell_angle_beta 63.838566
_cell_angle_gamma 112.121108
_cell_volume 559.385028
_symmetry_space_group_name_H-M "P -1"
_symmetry_group_IT_number 2
_symmetry_cell_setting 'triclinic'
loop_
_space_group_symop_operation_xyz
x,y,z
-x,-y,-z
loop_
_atom_site_type_symbol
_atom_site_label
_atom_site_fract_x
_atom_site_fract_y
_atom_site_fract_z
Si Si1 0.139787 0.127928 0.660803
Si Si2 0.136363 0.373049 0.996371
Si Si3 0.792006 0.312519 0.253549
Si Si4 0.505084 0.141760 0.301445
Si Si5 0.550362 0.787358 0.462877
Si Si6 0.746881 0.193090 0.007500
Si Si7 0.841337 0.419515 0.691211
O O1 0.319206 0.062316 0.516413
O O2 0.977914 0.352678 0.818735
O O3 0.036909 0.860206 0.507892
O O4 0.238229 0.244808 0.805579
O O5 0.228589 0.438361 0.110617
O O6 0.966059 0.173884 0.909909
O O7 0.730058 0.180549 0.252498
O O8 0.634907 0.577732 0.472415
O O9 0.752318 0.124180 0.050116
O O10 0.014395 0.407791 0.263666
O O11 0.497277 0.063966 0.338600
O O12 0.405134 0.951474 0.121888
O O13 0.687969 0.508895 0.248551
O O14 0.346934 0.677306 0.389084
#
# Coordination Sequence:
#
# PCOD9087980 Si02
#       7
#     2   2   2   2   2   2   2
#     4  10  20  36  54  78 106 140 177 214 260 308
#     4   9  20  34  56  81 101 136 181 217 258 306
#     4   9  20  35  58  82  99 135 185 218 257 307
#     4  10  19  37  58  77 105 139 175 221 261 303
#     4  10  23  34  51  82 110 141 174 205 265 326
#     4   9  18  36  55  78 107 136 175 220 258 306
#     4  11  21  36  53  79 113 137 170 219 261 314
#
# _framework density 25.027484000000001
#
# number of rings (size 3 to 8) (size 9 to 14) (size 15 to 20)
#    0.000    2.286    0.000    3.000    0.000    5.714 
#    0.000    0.714    0.000    0.000    0.000    0.000 
#    0.000    0.000    0.000    0.000    0.000    0.000 
#
# Total GULP energy -78277.775405 kJ/mol
# GULP energy per Si atom -5591.269672 kJ/mol
# Density = 2.497052 g / cm^3
# Si number density = 25.027484 Si / 1000 Ang^3
#
#
#
# Elastic Constant Matrix: (Units=GPa)
#
#
# Indices 1 2 3 4 5 6 
#
# 1 49.7706 25.8465 21.5408 -1.0341 14.2503 14.9774
# 2 25.8465 132.0049 58.4650 -21.9340 7.8384 19.3959
# 3 21.5408 58.4650 118.2047 -29.0716 18.1577 6.9829
# 4 -1.0341 -21.9340 -29.0716 16.0769 2.5701 -0.6264
# 5 14.2503 7.8384 18.1577 2.5701 37.4210 7.9763
# 6 14.9774 19.3959 6.9829 -0.6264 7.9763 21.9493
#
#
#
# Elastic Compliance Matrix: (Units=1/GPa)
#
#
# Indices 1 2 3 4 5 6 
#
# 1 0.029157 -0.002938 -0.005180 -0.011408 -0.004103 -0.014486
# 2 -0.002938 0.012286 -0.002064 0.012468 0.000392 -0.007982
# 3 -0.005180 -0.002064 0.020878 0.036517 -0.011037 0.003769
# 4 -0.011408 0.012468 0.036517 0.148611 -0.025941 -0.001182
# 5 -0.004103 0.000392 -0.011037 -0.025941 0.037101 -0.008257
# 6 -0.014486 -0.007982 0.003769 -0.001182 -0.008257 0.064265
#
#
# Mechanical properties :
#
#
# Convention : Reuss Voigt Hill
#
# Bulk Modulus (GPa) = 23.83339 56.85389 40.34364
# Shear Modulus (GPa) = 14.42387 28.03129 21.22758
#
# Velocity S-wave (km/s) = 2.40327 3.35030 2.91550
# Velocity P-wave (km/s) = 4.15265 6.14263 5.24292
#
# Compressibility (1/GPa) = 0.04195793
#
# Stress axis : x y z
#
# Youngs Moduli (GPa) = 34.29722 81.39393 47.89662
#
# Poissons Ratio (x) = 0.23916 0.24809
# Poissons Ratio (y) = 0.10078 0.09884
# Poissons Ratio (z) = 0.17765 0.16796
#
# Static dielectric constant tensor:
#      x y z
#    x 2.039260 -0.072050 -0.064070 
#    y -0.072050 2.018910 0.006640 
#    z -0.064070 0.006640 1.974230 
# 
# From -- ./inp_files/89990.got.cif
#   From: 2010.05.17/outbox.cif.g08.bks.cpg/sg2_45_cif.got.tgz:89990.got - 2010.06.03 11:33:40.
