data_PCOD9087185
_publ_section_title
;
Structure prediction by ZEFSAII (Michael W. Deem and Ramdas Pophale) SiO2 
 PCOD9087185
Probable space group: P -1
;
_chemical_formula_sum "Si O2"
_cell_formula_units_Z 16
_cell_length_a 12.032686
_cell_length_b 11.584943
_cell_length_c 9.168326
_cell_angle_alpha 124.106642
_cell_angle_beta 98.912655
_cell_angle_gamma 50.367065
_cell_volume 772.692037
_symmetry_space_group_name_H-M "P -1"
_symmetry_group_IT_number 2
_symmetry_cell_setting 'triclinic'
loop_
_space_group_symop_operation_xyz
x,y,z
-x,-y,-z
loop_
_atom_site_type_symbol
_atom_site_label
_atom_site_fract_x
_atom_site_fract_y
_atom_site_fract_z
Si Si1 0.890420 0.369539 0.397358
Si Si2 0.647487 0.302074 0.820279
Si Si3 0.961582 0.730982 0.120264
Si Si4 0.124104 0.776954 0.409991
Si Si5 0.908794 0.177457 0.003648
Si Si6 0.798491 0.678843 0.228530
Si Si7 0.208727 0.244757 0.377662
Si Si8 0.476459 0.893696 0.303276
O O1 0.876019 0.271380 0.456437
O O2 0.831174 0.354046 0.222648
O O3 0.811958 0.583519 0.569878
O O4 0.066582 0.264770 0.326724
O O5 0.716306 0.307739 0.688518
O O6 0.607534 0.172812 0.702038
O O7 0.500000 0.500000 0.000000
O O8 0.784018 0.209838 0.899128
O O9 0.065077 0.691782 0.249225
O O10 0.807898 0.802091 0.208315
O O11 0.967452 0.852803 0.097053
O O12 0.049524 0.535581 0.916570
O O13 0.000000 0.000000 0.500000
O O14 0.000000 0.000000 0.000000
O O15 0.802280 0.724054 0.427424
O O16 0.651741 0.711504 0.178736
O O17 0.373809 0.036704 0.250864
O O18 0.500000 0.000000 0.500000
#
# Coordination Sequence:
#
# PCOD9087185 Si02
#       8
#     2   2   2   2   2   2   2   2
#     4  11  21  37  60  94 123 162 206 267 314 364
#     4  11  25  44  67  92 129 174 211 259 323 387
#     4  10  20  36  60  91 119 156 211 252 307 365
#     4  11  22  38  64  92 125 159 221 261 306 380
#     4  11  22  39  62  89 127 163 209 259 320 373
#     4  10  19  36  62  87 118 159 206 256 300 378
#     4  10  20  35  60  90 130 155 206 259 323 368
#     4  10  21  37  63  90 122 161 211 256 312 371
#
# _framework density 20.706824000000001
#
# number of rings (size 3 to 8) (size 9 to 14) (size 15 to 20)
#    0.000    1.500    2.500    4.500    3.500    0.000 
#    0.000    1.875    0.000    3.000    0.000    0.000 
#    0.000    0.000    0.000    0.000    0.000    0.000 
#
# Total GULP energy -89246.845483 kJ/mol
# GULP energy per Si atom -5577.927843 kJ/mol
# Density = 2.065969 g / cm^3
# Si number density = 20.706824 Si / 1000 Ang^3
#
#
#
# Elastic Constant Matrix: (Units=GPa)
#
#
# Indices 1 2 3 4 5 6 
#
# 1 135.9722 39.1526 22.6775 -16.0637 2.9511 18.6028
# 2 39.1526 82.3262 4.6802 -8.7254 -12.7507 16.4439
# 3 22.6775 4.6802 61.6652 -9.9669 4.0082 9.6438
# 4 -16.0637 -8.7254 -9.9669 30.8159 3.2860 -3.3741
# 5 2.9511 -12.7507 4.0082 3.2860 32.3329 -4.1539
# 6 18.6028 16.4439 9.6438 -3.3741 -4.1539 33.9876
#
#
#
# Elastic Compliance Matrix: (Units=1/GPa)
#
#
# Indices 1 2 3 4 5 6 
#
# 1 0.009697 -0.004042 -0.002112 0.003231 -0.002904 -0.002786
# 2 -0.004042 0.016073 0.000921 0.001581 0.005795 -0.004960
# 3 -0.002112 0.000921 0.018605 0.004995 -0.002826 -0.004418
# 4 0.003231 0.001581 0.004995 0.036546 -0.004111 -0.000825
# 5 -0.002904 0.005795 -0.002826 -0.004111 0.034686 0.003418
# 6 -0.002786 -0.004960 -0.004418 -0.000825 0.003418 0.034937
#
#
# Mechanical properties :
#
#
# Convention : Reuss Voigt Hill
#
# Bulk Modulus (GPa) = 29.49155 45.88713 37.68934
# Shear Modulus (GPa) = 29.01692 33.65749 31.33721
#
# Velocity S-wave (km/s) = 3.74748 4.03604 3.89443
# Velocity P-wave (km/s) = 5.74441 6.62782 6.20186
#
# Compressibility (1/GPa) = 0.03390802
#
# Stress axis : x y z
#
# Youngs Moduli (GPa) = 103.12836 62.21774 53.74764
#
# Poissons Ratio (x) = 0.25149 0.11354
# Poissons Ratio (y) = 0.41685 -0.04951
# Poissons Ratio (z) = 0.21785 -0.05731
#
# Static dielectric constant tensor:
#      x y z
#    x 1.794550 0.011760 -0.018070 
#    y 0.011760 1.802070 0.088070 
#    z -0.018070 0.088070 1.841050 
# 
# From -- ./inp_files/263099.got.cif
#   From: 2010.05.17/outbox.cif.g08.bks.cpg/sg2_132_cif.got.tgz:263099.got - 2010.06.03 11:33:40.
