data_PCOD9087416
_publ_section_title
;
Structure prediction by ZEFSAII (Michael W. Deem and Ramdas Pophale) SiO2 
 PCOD9087416
Probable space group: P -1
;
_chemical_formula_sum "Si O2"
_cell_formula_units_Z 14
_cell_length_a 11.190503
_cell_length_b 11.239431
_cell_length_c 13.974447
_cell_angle_alpha 30.742784
_cell_angle_beta 43.087587
_cell_angle_gamma 55.394125
_cell_volume 604.710928
_symmetry_space_group_name_H-M "P -1"
_symmetry_group_IT_number 2
_symmetry_cell_setting 'triclinic'
loop_
_space_group_symop_operation_xyz
x,y,z
-x,-y,-z
loop_
_atom_site_type_symbol
_atom_site_label
_atom_site_fract_x
_atom_site_fract_y
_atom_site_fract_z
Si Si1 0.650161 0.203259 0.314810
Si Si2 0.192091 0.615890 0.711340
Si Si3 0.370197 0.800658 0.301948
Si Si4 0.290110 0.874889 0.087171
Si Si5 0.910439 0.901714 0.344741
Si Si6 0.882400 0.838474 0.796200
Si Si7 0.574448 0.489751 0.857204
O O1 0.687447 0.213064 0.399846
O O2 0.586331 0.444602 0.157915
O O3 0.500000 0.000000 0.500000
O O4 0.825667 0.135402 0.210839
O O5 0.286767 0.612230 0.558027
O O6 0.009343 0.722134 0.731695
O O7 0.158932 0.368090 0.957230
O O8 0.321014 0.739433 0.262866
O O9 0.283877 0.035859 0.216604
O O10 0.579785 0.879143 0.139304
O O11 0.365976 0.752979 0.037791
O O12 0.081510 0.877301 0.199136
O O13 0.749832 0.682972 0.596001
O O14 0.989985 0.948350 0.372007
O O15 0.500000 0.500000 0.000000
#
# Coordination Sequence:
#
# PCOD9087416 Si02
#       7
#     2   2   2   2   2   2   2
#     4   9  20  38  61  89 123 158 209 262 302 372
#     4  10  19  36  63  91 128 166 210 261 319 367
#     4  10  21  38  64  88 131 171 203 256 323 376
#     4  10  22  40  62  97 130 162 212 258 312 386
#     4   9  20  42  61  85 132 158 200 273 311 360
#     4   9  19  36  60  97 124 162 215 264 302 383
#     4  11  23  40  69  90 118 170 216 259 318 375
#
# _framework density 23.151558999999999
#
# number of rings (size 3 to 8) (size 9 to 14) (size 15 to 20)
#    0.000    2.286    0.000    1.714    6.000    0.000 
#   15.429   12.143    0.000    0.000    0.000    0.000 
#    0.000    0.000    0.000    0.000    0.000    0.000 
#
# Total GULP energy -78078.660396 kJ/mol
# GULP energy per Si atom -5577.047171 kJ/mol
# Density = 2.309887 g / cm^3
# Si number density = 23.151559 Si / 1000 Ang^3
#
#
#
# Elastic Constant Matrix: (Units=GPa)
#
#
# Indices 1 2 3 4 5 6 
#
# 1 61.2065 33.7936 21.7031 13.0946 -13.3542 -18.3245
# 2 33.7936 127.2369 12.9065 25.4685 -2.1219 -23.8328
# 3 21.7031 12.9065 47.6008 22.6615 -0.1113 -4.8781
# 4 13.0946 25.4685 22.6615 41.4833 3.7331 -1.7124
# 5 -13.3542 -2.1219 -0.1113 3.7331 33.0035 9.0420
# 6 -18.3245 -23.8328 -4.8781 -1.7124 9.0420 39.6598
#
#
#
# Elastic Compliance Matrix: (Units=1/GPa)
#
#
# Indices 1 2 3 4 5 6 
#
# 1 0.026167 -0.004524 -0.009720 -0.000697 0.008652 0.006174
# 2 -0.004524 0.010969 0.002629 -0.006381 -0.001750 0.004948
# 3 -0.009720 0.002629 0.032452 -0.016052 -0.002075 0.000861
# 4 -0.000697 -0.006381 -0.016052 0.037220 -0.003965 -0.003620
# 5 0.008652 -0.001750 -0.002075 -0.003965 0.035667 -0.005612
# 6 0.006174 0.004948 0.000861 -0.003620 -0.005612 0.032270
#
#
# Mechanical properties :
#
#
# Convention : Reuss Voigt Hill
#
# Bulk Modulus (GPa) = 21.57030 41.42785 31.49907
# Shear Modulus (GPa) = 23.42724 34.00538 28.71631
#
# Velocity S-wave (km/s) = 3.18450 3.83667 3.52570
# Velocity P-wave (km/s) = 4.78107 6.12860 5.49629
#
# Compressibility (1/GPa) = 0.04636005
#
# Stress axis : x y z
#
# Youngs Moduli (GPa) = 38.21540 91.16502 30.81493
#
# Poissons Ratio (x) = 0.41242 0.29951
# Poissons Ratio (y) = 0.17288 -0.08102
# Poissons Ratio (z) = 0.37144 -0.23970
#
# Static dielectric constant tensor:
#      x y z
#    x 1.898530 -0.030600 -0.037480 
#    y -0.030600 1.924620 -0.015060 
#    z -0.037480 -0.015060 1.903740 
# 
# From -- ./inp_files/298320.got.cif
#   From: 2010.05.17/outbox.cif.g08.bks.cpg/sg2_150_cif.got.tgz:298320.got - 2010.06.03 11:33:40.
