data_PCOD9087828
_publ_section_title
;
Structure prediction by ZEFSAII (Michael W. Deem and Ramdas Pophale) SiO2 
 PCOD9087828
Probable space group: P -1
;
_chemical_formula_sum "Si O2"
_cell_formula_units_Z 14
_cell_length_a 14.351201
_cell_length_b 13.931846
_cell_length_c 17.086492
_cell_angle_alpha 137.566416
_cell_angle_beta 24.010427
_cell_angle_gamma 145.632141
_cell_volume 782.813824
_symmetry_space_group_name_H-M "P -1"
_symmetry_group_IT_number 2
_symmetry_cell_setting 'triclinic'
loop_
_space_group_symop_operation_xyz
x,y,z
-x,-y,-z
loop_
_atom_site_type_symbol
_atom_site_label
_atom_site_fract_x
_atom_site_fract_y
_atom_site_fract_z
Si Si1 0.111463 0.237592 0.848402
Si Si2 0.443122 0.484234 0.442529
Si Si3 0.188005 0.682392 0.750893
Si Si4 0.715865 0.027280 0.590167
Si Si5 0.508331 0.938301 0.074161
Si Si6 0.310416 0.145714 0.257776
Si Si7 0.462236 0.078881 0.499714
O O1 0.295533 0.371531 0.720632
O O2 0.282432 0.159306 0.699416
O O3 0.042915 0.322626 0.022816
O O4 0.823598 0.087347 0.941782
O O5 0.500000 0.500000 0.500000
O O6 0.201463 0.517760 0.635462
O O7 0.377190 0.307169 0.353315
O O8 0.250924 0.774195 0.673169
O O9 0.473716 0.826515 0.662214
O O10 0.638510 0.126213 0.768544
O O11 0.999182 0.055521 0.414250
O O12 0.694445 0.056979 0.532807
O O13 0.364170 0.023246 0.193539
O O14 0.511738 0.813767 0.933541
O O15 0.500000 0.000000 0.500000
#
# Coordination Sequence:
#
# PCOD9087828 Si02
#       7
#     2   2   2   2   2   2   2
#     4  10  19  37  52  74 112 134 179 222 248 320
#     4  11  22  33  50  76 109 147 180 206 260 309
#     4   8  19  35  53  75 107 137 173 218 260 306
#     4   9  18  35  52  76 107 131 177 221 254 313
#     4  10  20  34  51  77 105 145 177 211 260 305
#     4  11  21  31  52  76 109 146 172 212 257 313
#     4   9  18  33  59  84 101 131 174 228 277 302
#
# _framework density 17.884201000000001
#
# number of rings (size 3 to 8) (size 9 to 14) (size 15 to 20)
#    0.857    1.429    1.429    2.143    0.000    6.286 
#    0.000    0.000    0.000    3.429    0.000    6.000 
#    0.000    0.000    0.000    0.000    0.000    0.000 
#
# Total GULP energy -77955.992573 kJ/mol
# GULP energy per Si atom -5568.285184 kJ/mol
# Density = 1.784350 g / cm^3
# Si number density = 17.884201 Si / 1000 Ang^3
#
#
#
# Elastic Constant Matrix: (Units=GPa)
#
#
# Indices 1 2 3 4 5 6 
#
# 1 102.9288 41.1464 70.8269 13.4181 6.6292 -16.7503
# 2 41.1464 46.3913 35.9671 20.0074 10.4685 -0.2131
# 3 70.8269 35.9671 139.5207 20.1157 30.9925 -5.6088
# 4 13.4181 20.0074 20.1157 24.9356 16.8505 8.0952
# 5 6.6292 10.4685 30.9925 16.8505 27.8233 0.3246
# 6 -16.7503 -0.2131 -5.6088 8.0952 0.3246 23.9461
#
#
#
# Elastic Compliance Matrix: (Units=1/GPa)
#
#
# Indices 1 2 3 4 5 6 
#
# 1 0.027293 -0.012529 -0.012174 -0.016097 0.021273 0.021282
# 2 -0.012529 0.049779 -0.003189 -0.040241 0.012128 0.004372
# 3 -0.012174 -0.003189 0.016927 0.014011 -0.023135 -0.009003
# 4 -0.016097 -0.040241 0.014011 0.144228 -0.083326 -0.055965
# 5 0.021273 0.012128 -0.023135 -0.083326 0.102119 0.036354
# 6 0.021282 0.004372 -0.009003 -0.055965 0.036354 0.073004
#
#
# Mechanical properties :
#
#
# Convention : Reuss Voigt Hill
#
# Bulk Modulus (GPa) = 26.16795 64.96908 45.56851
# Shear Modulus (GPa) = 10.37620 24.73437 17.55528
#
# Velocity S-wave (km/s) = 2.41132 3.72294 3.13646
# Velocity P-wave (km/s) = 4.73458 7.40857 6.21704
#
# Compressibility (1/GPa) = 0.03821469
#
# Stress axis : x y z
#
# Youngs Moduli (GPa) = 36.63938 20.08887 59.07811
#
# Poissons Ratio (x) = 0.25169 0.71924
# Poissons Ratio (y) = 0.45905 0.18838
# Poissons Ratio (z) = 0.44606 0.06406
#
# Static dielectric constant tensor:
#      x y z
#    x 1.607710 0.025660 0.043630 
#    y 0.025660 1.636170 0.002420 
#    z 0.043630 0.002420 1.667830 
# 
# From -- ./inp_files/519098.got.cif
#   From: 2010.05.17/outbox.cif.g08.bks.cpg/sg2_260_cif.got.tgz:519098.got - 2010.06.03 11:33:40.
