data_PCOD9087273
_publ_section_title
;
Structure prediction by ZEFSAII (Michael W. Deem and Ramdas Pophale) SiO2 
 PCOD9087273
Probable space group: P -1
;
_chemical_formula_sum "Si O2"
_cell_formula_units_Z 14
_cell_length_a 11.244688
_cell_length_b 9.770712
_cell_length_c 14.364318
_cell_angle_alpha 150.643513
_cell_angle_beta 49.822614
_cell_angle_gamma 112.354201
_cell_volume 516.688251
_symmetry_space_group_name_H-M "P -1"
_symmetry_group_IT_number 2
_symmetry_cell_setting 'triclinic'
loop_
_space_group_symop_operation_xyz
x,y,z
-x,-y,-z
loop_
_atom_site_type_symbol
_atom_site_label
_atom_site_fract_x
_atom_site_fract_y
_atom_site_fract_z
Si Si1 0.320654 0.478467 0.223293
Si Si2 0.375978 0.185031 0.350947
Si Si3 0.874578 0.224359 0.087735
Si Si4 0.846735 0.522372 0.879215
Si Si5 0.872927 0.461416 0.469308
Si Si6 0.546768 0.059895 0.634297
Si Si7 0.163912 0.572481 0.973215
O O1 0.252961 0.599401 0.432398
O O2 0.440643 0.632724 0.222607
O O3 0.174353 0.581429 0.275526
O O4 0.431235 0.092828 0.942912
O O5 0.245578 0.251994 0.369449
O O6 0.309668 0.553273 0.633761
O O7 0.354552 0.045463 0.377627
O O8 0.842238 0.222457 0.991473
O O9 0.994852 0.397556 0.141745
O O10 0.992933 0.861079 0.841395
O O11 0.655701 0.840711 0.181053
O O12 0.852740 0.316243 0.845302
O O13 0.000000 0.500000 0.500000
O O14 0.656000 0.763206 0.335171
O O15 0.000000 0.500000 0.000000
#
# Coordination Sequence:
#
# PCOD9087273 Si02
#       7
#     2   2   2   2   2   2   2
#     4  11  23  41  64  95 128 160 202 257 309 362
#     4  10  22  43  65  90 126 164 206 252 306 368
#     4  10  22  41  63  89 124 165 208 252 301 370
#     4  10  19  36  62  92 124 161 200 249 308 366
#     4  12  26  44  63  89 124 166 209 257 310 363
#     4  10  21  39  64  95 126 159 204 256 306 362
#     4   9  18  34  57  90 125 159 201 247 302 363
#
# _framework density 27.095642999999999
#
# number of rings (size 3 to 8) (size 9 to 14) (size 15 to 20)
#    0.000    1.714    0.000    5.571    0.000    2.286 
#    0.000   23.571    0.000    0.000    0.000    0.000 
#    0.000    0.000    0.000    0.000    0.000    0.000 
#
# Total GULP energy -78289.160271 kJ/mol
# GULP energy per Si atom -5592.082876 kJ/mol
# Density = 2.703397 g / cm^3
# Si number density = 27.095643 Si / 1000 Ang^3
#
#
#
# Elastic Constant Matrix: (Units=GPa)
#
#
# Indices 1 2 3 4 5 6 
#
# 1 110.1156 35.1283 21.0595 -3.0899 -3.1733 -29.9207
# 2 35.1283 103.1120 25.3372 -14.0009 -0.9153 -42.9154
# 3 21.0595 25.3372 127.8756 2.1961 -17.8776 -6.5608
# 4 -3.0899 -14.0009 2.1961 37.6312 -12.2546 2.5591
# 5 -3.1733 -0.9153 -17.8776 -12.2546 50.3678 -6.6076
# 6 -29.9207 -42.9154 -6.5608 2.5591 -6.6076 51.0706
#
#
#
# Elastic Compliance Matrix: (Units=1/GPa)
#
#
# Indices 1 2 3 4 5 6 
#
# 1 0.011239 -0.001111 -0.001193 0.000568 0.001140 0.005617
# 2 -0.001111 0.017142 -0.002243 0.006403 0.002775 0.013504
# 3 -0.001193 -0.002243 0.008799 -0.000477 0.002750 -0.001074
# 4 0.000568 0.006403 -0.000477 0.031381 0.008294 0.005153
# 5 0.001140 0.002775 0.002750 0.008294 0.023759 0.006011
# 6 0.005617 0.013504 -0.001074 0.005153 0.006011 0.034601
#
#
# Mechanical properties :
#
#
# Convention : Reuss Voigt Hill
#
# Bulk Modulus (GPa) = 35.60430 56.01703 45.81067
# Shear Modulus (GPa) = 34.39372 45.11914 39.75643
#
# Velocity S-wave (km/s) = 3.56665 4.08509 3.83464
# Velocity P-wave (km/s) = 5.48909 6.55510 6.04564
#
# Compressibility (1/GPa) = 0.02808649
#
# Stress axis : x y z
#
# Youngs Moduli (GPa) = 88.97698 58.33565 113.65498
#
# Poissons Ratio (x) = 0.06479 0.13560
# Poissons Ratio (y) = 0.09882 0.25491
# Poissons Ratio (z) = 0.10616 0.13084
#
# Static dielectric constant tensor:
#      x y z
#    x 2.171430 -0.055590 0.022310 
#    y -0.055590 2.205600 -0.159030 
#    z 0.022310 -0.159030 2.269790 
# 
# From -- ./inp_files/518397.got.cif
#   From: 2010.05.17/outbox.cif.g08.bks.cpg/sg2_260_cif.got.tgz:518397.got - 2010.06.03 11:33:40.
