data_PCOD9087642
_publ_section_title
;
Structure prediction by ZEFSAII (Michael W. Deem and Ramdas Pophale) SiO2 
 PCOD9087642
Probable space group: P -1
;
_chemical_formula_sum "Si O2"
_cell_formula_units_Z 16
_cell_length_a 14.522105
_cell_length_b 9.718090
_cell_length_c 11.208587
_cell_angle_alpha 105.161786
_cell_angle_beta 31.704972
_cell_angle_gamma 112.419105
_cell_volume 762.022004
_symmetry_space_group_name_H-M "P -1"
_symmetry_group_IT_number 2
_symmetry_cell_setting 'triclinic'
loop_
_space_group_symop_operation_xyz
x,y,z
-x,-y,-z
loop_
_atom_site_type_symbol
_atom_site_label
_atom_site_fract_x
_atom_site_fract_y
_atom_site_fract_z
Si Si1 0.258040 0.057476 0.869890
Si Si2 0.436972 0.414553 0.426597
Si Si3 0.397412 0.641306 0.076389
Si Si4 0.197934 0.245506 0.461985
Si Si5 0.533423 0.888518 0.598227
Si Si6 0.958604 0.324871 0.539051
Si Si7 0.433611 0.355566 0.875776
Si Si8 0.892408 0.054314 0.376201
O O1 0.356622 0.114782 0.647802
O O2 0.325077 0.189347 0.922764
O O3 0.350189 0.931605 0.780017
O O4 0.038665 0.027016 0.112658
O O5 0.500000 0.500000 0.500000
O O6 0.235648 0.330379 0.569122
O O7 0.511425 0.271630 0.323676
O O8 0.509667 0.548792 0.283691
O O9 0.257532 0.718839 0.196941
O O10 0.407379 0.651771 0.210601
O O11 0.600533 0.712394 0.813370
O O12 0.338667 0.462711 0.073802
O O13 0.070543 0.296841 0.522370
O O14 0.121599 0.070030 0.534502
O O15 0.688385 0.011480 0.532969
O O16 0.959986 0.216902 0.400768
O O17 0.000000 0.500000 0.500000
#
# Coordination Sequence:
#
# PCOD9087642 Si02
#       8
#     2   2   2   2   2   2   2   2
#     4  11  21  39  61  87 123 160 211 246 305 364
#     4  10  19  39  63  90 121 157 203 251 305 359
#     4  10  21  38  61  94 124 159 211 247 310 362
#     4  10  24  40  61  90 125 166 201 253 306 365
#     4  10  23  39  63  90 118 166 206 248 306 369
#     4  12  23  39  63  94 123 160 207 254 307 367
#     4  10  19  36  65  88 121 164 197 257 301 364
#     4  11  24  40  61  88 127 161 199 261 305 358
#
# _framework density 20.996770000000001
#
# number of rings (size 3 to 8) (size 9 to 14) (size 15 to 20)
#    0.000    1.500    1.250    5.250    0.000    3.500 
#    0.000    0.000    0.000    6.750    0.000    0.000 
#    0.000    0.000    0.000    0.000    0.000    0.000 
#
# Total GULP energy -89110.537452 kJ/mol
# GULP energy per Si atom -5569.408591 kJ/mol
# Density = 2.094898 g / cm^3
# Si number density = 20.996770 Si / 1000 Ang^3
#
#
#
# Elastic Constant Matrix: (Units=GPa)
#
#
# Indices 1 2 3 4 5 6 
#
# 1 125.5410 23.5086 26.6386 11.6424 0.5875 8.5239
# 2 23.5086 82.8953 22.2154 10.4776 6.6599 7.0310
# 3 26.6386 22.2154 80.7169 12.4282 -15.5780 -7.1473
# 4 11.6424 10.4776 12.4282 17.2522 -6.3583 4.5267
# 5 0.5875 6.6599 -15.5780 -6.3583 32.0321 4.2690
# 6 8.5239 7.0310 -7.1473 4.5267 4.2690 34.7450
#
#
#
# Elastic Compliance Matrix: (Units=1/GPa)
#
#
# Indices 1 2 3 4 5 6 
#
# 1 0.009225 -0.001132 -0.002651 -0.003770 -0.001721 -0.001877
# 2 -0.001132 0.015045 -0.004018 -0.007294 -0.006260 -0.001874
# 3 -0.002651 -0.004018 0.017269 -0.006855 0.007253 0.005018
# 4 -0.003770 -0.007294 -0.006855 0.078429 0.015300 -0.011107
# 5 -0.001721 -0.006260 0.007253 0.015300 0.039606 -0.003679
# 6 -0.001877 -0.001874 0.005018 -0.011107 -0.003679 0.032552
#
#
# Mechanical properties :
#
#
# Convention : Reuss Voigt Hill
#
# Bulk Modulus (GPa) = 38.55380 48.20871 43.38126
# Shear Modulus (GPa) = 23.10811 31.25857 27.18334
#
# Velocity S-wave (km/s) = 3.32106 3.86260 3.60202
# Velocity P-wave (km/s) = 5.75392 6.55002 6.16483
#
# Compressibility (1/GPa) = 0.02593778
#
# Stress axis : x y z
#
# Youngs Moduli (GPa) = 108.40015 66.46731 57.90605
#
# Poissons Ratio (x) = 0.07522 0.15350
# Poissons Ratio (y) = 0.12268 0.23268
# Poissons Ratio (z) = 0.28736 0.26708
#
# Static dielectric constant tensor:
#      x y z
#    x 1.787860 0.039410 -0.012930 
#    y 0.039410 1.756490 -0.029300 
#    z -0.012930 -0.029300 1.865460 
# 
# From -- ./inp_files/447744.got.cif
#   From: 2010.05.17/outbox.cif.g08.bks.cpg/sg2_224_cif.got.tgz:447744.got - 2010.06.03 11:33:40.
