data_PCOD9087813
_publ_section_title
;
Structure prediction by ZEFSAII (Michael W. Deem and Ramdas Pophale) SiO2 
 PCOD9087813
Probable space group: P -1
;
_chemical_formula_sum "Si O2"
_cell_formula_units_Z 14
_cell_length_a 11.770486
_cell_length_b 7.542410
_cell_length_c 10.469100
_cell_angle_alpha 45.037463
_cell_angle_beta 98.279628
_cell_angle_gamma 115.470165
_cell_volume 574.819344
_symmetry_space_group_name_H-M "P -1"
_symmetry_group_IT_number 2
_symmetry_cell_setting 'triclinic'
loop_
_space_group_symop_operation_xyz
x,y,z
-x,-y,-z
loop_
_atom_site_type_symbol
_atom_site_label
_atom_site_fract_x
_atom_site_fract_y
_atom_site_fract_z
Si Si1 0.138028 0.239025 0.451668
Si Si2 0.281662 0.706077 0.660414
Si Si3 0.075031 0.416997 0.946827
Si Si4 0.581831 0.475005 0.698509
Si Si5 0.461744 0.847562 0.406934
Si Si6 0.827672 0.872677 0.196696
Si Si7 0.735905 0.325493 0.953113
O O1 0.275205 0.246621 0.431021
O O2 0.144698 0.236442 0.607550
O O3 0.173969 0.533144 0.231611
O O4 0.000000 0.000000 0.500000
O O5 0.145134 0.650499 0.730210
O O6 0.342760 0.856017 0.457960
O O7 0.236515 0.376044 0.788354
O O8 0.404306 0.868156 0.692502
O O9 0.196144 0.452658 0.034765
O O10 0.000000 0.500000 0.000000
O O11 0.967214 0.109524 0.050646
O O12 0.565592 0.274541 0.676961
O O13 0.599348 0.314577 0.904090
O O14 0.259105 0.966072 0.874101
O O15 0.484410 0.603334 0.607586
#
# Coordination Sequence:
#
# PCOD9087813 Si02
#       7
#     2   2   2   2   2   2   2
#     4  10  19  36  69  97 130 165 218 271 320 386
#     4  11  23  39  62  96 132 177 215 268 341 379
#     4  10  22  37  64  93 128 170 214 272 327 390
#     4   9  20  40  66  93 122 169 233 263 310 385
#     4  10  22  41  67  91 131 181 220 269 317 394
#     4  11  20  40  65  97 135 168 210 276 338 381
#     4   9  21  36  64  97 124 164 226 262 317 394
#
# _framework density 24.355475999999999
#
# number of rings (size 3 to 8) (size 9 to 14) (size 15 to 20)
#    0.857    1.143    2.857    0.429    4.000    0.000 
#    0.000    8.571    0.000   16.286    0.000    0.000 
#    0.000    0.000    0.000    0.000    0.000    0.000 
#
# Total GULP energy -77954.768412 kJ/mol
# GULP energy per Si atom -5568.197744 kJ/mol
# Density = 2.430004 g / cm^3
# Si number density = 24.355476 Si / 1000 Ang^3
#
#
#
# Elastic Constant Matrix: (Units=GPa)
#
#
# Indices 1 2 3 4 5 6 
#
# 1 52.1830 28.9177 31.3711 14.4433 -7.4687 11.2548
# 2 28.9177 130.0789 33.4420 -13.5935 8.7555 7.7872
# 3 31.3711 33.4420 118.7825 -24.1051 -21.2275 2.5198
# 4 14.4433 -13.5935 -24.1051 42.3682 10.6650 -5.0813
# 5 -7.4687 8.7555 -21.2275 10.6650 50.0026 7.5775
# 6 11.2548 7.7872 2.5198 -5.0813 7.5775 25.0337
#
#
#
# Elastic Compliance Matrix: (Units=1/GPa)
#
#
# Indices 1 2 3 4 5 6 
#
# 1 0.056020 -0.011756 -0.015848 -0.040250 0.017337 -0.033352
# 2 -0.011756 0.011286 0.000750 0.010385 -0.006504 0.005776
# 3 -0.015848 0.000750 0.015241 0.015525 -0.000659 0.008708
# 4 -0.040250 0.010385 0.015525 0.057724 -0.018177 0.030522
# 5 0.017337 -0.006504 -0.000659 -0.018177 0.030130 -0.018515
# 6 -0.033352 0.005776 0.008708 0.030522 -0.018515 0.064067
#
#
# Mechanical properties :
#
#
# Convention : Reuss Voigt Hill
#
# Bulk Modulus (GPa) = 34.67439 54.27843 44.47641
# Shear Modulus (GPa) = 16.79040 37.30181 27.04610
#
# Velocity S-wave (km/s) = 2.62847 3.91776 3.33599
# Velocity P-wave (km/s) = 4.84557 6.54213 5.75669
#
# Compressibility (1/GPa) = 0.02883973
#
# Stress axis : x y z
#
# Youngs Moduli (GPa) = 17.85063 88.60912 65.61249
#
# Poissons Ratio (x) = 1.04169 1.03981
# Poissons Ratio (y) = 0.20985 -0.04922
# Poissons Ratio (z) = 0.28289 -0.06647
#
# Static dielectric constant tensor:
#      x y z
#    x 2.078460 0.005250 -0.033430 
#    y 0.005250 2.005880 -0.033240 
#    z -0.033430 -0.033240 2.028000 
# 
# From -- ./inp_files/444354.got.cif
#   From: 2010.05.17/outbox.cif.g08.bks.cpg/sg2_223_cif.got.tgz:444354.got - 2010.06.03 11:33:40.
