data_PCOD9087881
_publ_section_title
;
Structure prediction by ZEFSAII (Michael W. Deem and Ramdas Pophale) SiO2 
 PCOD9087881
Probable space group: P -1
;
_chemical_formula_sum "Si O2"
_cell_formula_units_Z 16
_cell_length_a 7.400371
_cell_length_b 14.565583
_cell_length_c 9.895539
_cell_angle_alpha 80.794572
_cell_angle_beta 53.264602
_cell_angle_gamma 65.914302
_cell_volume 775.218697
_symmetry_space_group_name_H-M "P -1"
_symmetry_group_IT_number 2
_symmetry_cell_setting 'triclinic'
loop_
_space_group_symop_operation_xyz
x,y,z
-x,-y,-z
loop_
_atom_site_type_symbol
_atom_site_label
_atom_site_fract_x
_atom_site_fract_y
_atom_site_fract_z
Si Si1 0.723012 0.226100 0.639040
Si Si2 0.619250 0.432515 0.753262
Si Si3 0.279216 0.814232 0.661315
Si Si4 0.960573 0.654260 0.218797
Si Si5 0.142941 0.631344 0.857715
Si Si6 0.230998 0.168745 0.528666
Si Si7 0.006005 0.975128 0.343930
Si Si8 0.217401 0.517115 0.593824
O O1 0.576571 0.334471 0.743459
O O2 0.653603 0.211915 0.521600
O O3 0.008673 0.215579 0.509228
O O4 0.753878 0.130498 0.744485
O O5 0.761107 0.404733 0.836947
O O6 0.374776 0.532430 0.828667
O O7 0.811027 0.446000 0.555762
O O8 0.224663 0.723020 0.768495
O O9 0.510389 0.828151 0.622438
O O10 0.046716 0.922459 0.737163
O O11 0.864942 0.761067 0.312842
O O12 0.818941 0.585767 0.347147
O O13 0.956584 0.662077 0.057985
O O14 0.065458 0.595210 0.759802
O O15 0.215712 0.060316 0.581890
O O16 0.000000 0.000000 0.500000
O O17 0.500000 0.500000 0.500000
#
# Coordination Sequence:
#
# PCOD9087881 Si02
#       8
#     2   2   2   2   2   2   2   2
#     4   8  18  32  54  85 108 139 191 240 275 320
#     4  10  19  37  56  77 111 149 192 230 274 338
#     4  11  18  35  59  84 112 146 191 241 278 339
#     4  11  22  37  53  84 120 149 183 233 286 346
#     4  11  23  34  54  86 119 148 185 228 294 340
#     4   9  19  33  59  83 107 147 197 230 286 328
#     4   8  17  34  57  87 107 140 192 250 279 320
#     4  10  20  35  56  78 108 148 192 227 268 334
#
# _framework density 20.639337000000001
#
# number of rings (size 3 to 8) (size 9 to 14) (size 15 to 20)
#    0.750    1.500    1.250    3.000    1.750    1.000 
#    0.000    0.625    0.000    0.000    0.000    3.500 
#    0.000    0.000    0.000    0.000    0.000    0.000 
#
# Total GULP energy -89090.992911 kJ/mol
# GULP energy per Si atom -5568.187057 kJ/mol
# Density = 2.059236 g / cm^3
# Si number density = 20.639337 Si / 1000 Ang^3
#
#
#
# Elastic Constant Matrix: (Units=GPa)
#
#
# Indices 1 2 3 4 5 6 
#
# 1 71.1652 16.8912 -0.8639 -0.0014 4.9933 8.2507
# 2 16.8912 149.1701 11.1115 -14.7583 -4.0115 8.3481
# 3 -0.8639 11.1115 40.6606 12.2882 14.4080 9.5801
# 4 -0.0014 -14.7583 12.2882 11.3591 4.2963 10.8750
# 5 4.9933 -4.0115 14.4080 4.2963 12.5978 0.8612
# 6 8.2507 8.3481 9.5801 10.8750 0.8612 33.8782
#
#
#
# Elastic Compliance Matrix: (Units=1/GPa)
#
#
# Indices 1 2 3 4 5 6 
#
# 1 0.016555 -0.003119 0.009148 -0.003624 -0.016490 -0.004267
# 2 -0.003119 0.014286 -0.020042 0.047195 0.013472 -0.012585
# 3 0.009148 -0.020042 0.083132 -0.102335 -0.071133 0.013860
# 4 -0.003624 0.047195 -0.102335 0.337767 0.024523 -0.090856
# 5 -0.016490 0.013472 -0.071133 0.024523 0.162595 0.008806
# 6 -0.004267 -0.012585 0.013860 -0.090856 0.008806 0.058680
#
#
# Mechanical properties :
#
#
# Convention : Reuss Voigt Hill
#
# Bulk Modulus (GPa) = 11.63499 35.03040 23.33270
# Shear Modulus (GPa) = 6.85223 27.15748 17.00486
#
# Velocity S-wave (km/s) = 1.82406 3.63135 2.87349
# Velocity P-wave (km/s) = 3.17581 5.88147 4.72639
#
# Compressibility (1/GPa) = 0.08594763
#
# Stress axis : x y z
#
# Youngs Moduli (GPa) = 60.40510 69.99993 12.02900
#
# Poissons Ratio (x) = 0.21834 -0.11004
# Poissons Ratio (y) = 0.18842 0.24108
# Poissons Ratio (z) = -0.55259 1.40291
#
# Static dielectric constant tensor:
#      x y z
#    x 1.777940 -0.033960 0.007720 
#    y -0.033960 1.807970 0.009560 
#    z 0.007720 0.009560 1.729180 
# 
# From -- ./inp_files/200693.got.cif
#   From: 2010.05.17/outbox.cif.g08.bks.cpg/sg2_101_cif.got.tgz:200693.got - 2010.06.03 11:33:40.
