data_PCOD9087468
_publ_section_title
;
Structure prediction by ZEFSAII (Michael W. Deem and Ramdas Pophale) SiO2 
 PCOD9087468
Probable space group: P -1
;
_chemical_formula_sum "Si O2"
_cell_formula_units_Z 16
_cell_length_a 7.053817
_cell_length_b 20.550042
_cell_length_c 7.545322
_cell_angle_alpha 133.899784
_cell_angle_beta 121.876689
_cell_angle_gamma 66.341813
_cell_volume 668.141508
_symmetry_space_group_name_H-M "P -1"
_symmetry_group_IT_number 2
_symmetry_cell_setting 'triclinic'
loop_
_space_group_symop_operation_xyz
x,y,z
-x,-y,-z
loop_
_atom_site_type_symbol
_atom_site_label
_atom_site_fract_x
_atom_site_fract_y
_atom_site_fract_z
Si Si1 0.534580 0.785894 0.815222
Si Si2 0.352496 0.365657 0.873746
Si Si3 0.215009 0.727547 0.252644
Si Si4 0.594427 0.369406 0.327877
Si Si5 0.646930 0.981101 0.211588
Si Si6 0.200725 0.544150 0.074271
Si Si7 0.961672 0.727879 0.668231
Si Si8 0.886751 0.119662 0.781727
O O1 0.315521 0.773383 0.562758
O O2 0.518246 0.723587 0.858529
O O3 0.745788 0.747444 0.725056
O O4 0.559857 0.889244 0.073103
O O5 0.566570 0.301927 0.810867
O O6 0.143225 0.303956 0.628004
O O7 0.421136 0.410343 0.177090
O O8 0.314492 0.449920 0.878130
O O9 0.127025 0.628354 0.069883
O O10 0.084857 0.805673 0.221589
O O11 0.636188 0.412307 0.620347
O O12 0.845820 0.349543 0.337818
O O13 0.902122 0.951460 0.228407
O O14 0.673951 0.065316 0.515526
O O15 0.500000 0.000000 0.000000
O O16 0.000000 0.500000 0.000000
O O17 0.094684 0.818822 0.918744
#
# Coordination Sequence:
#
# PCOD9087468 Si02
#       8
#     2   2   2   2   2   2   2   2
#     4   9  21  38  64  95 123 166 210 255 317 373
#     4  11  22  41  63  86 125 173 211 262 308 370
#     4  10  20  38  64  88 124 167 208 254 313 379
#     4  11  22  42  64  90 129 165 212 263 314 371
#     4  10  19  36  63  96 127 155 208 259 308 380
#     4  11  23  39  60  93 126 160 215 266 311 364
#     4  10  21  40  61  89 125 167 211 254 310 373
#     4  10  20  36  64  93 121 166 206 253 315 373
#
# _framework density 23.947025
#
# number of rings (size 3 to 8) (size 9 to 14) (size 15 to 20)
#    0.000    1.750    3.750    0.750    0.000    2.000 
#    0.000    4.375    0.000    3.750    0.000    0.000 
#    0.000    0.000    0.000    0.000    0.000    0.000 
#
# Total GULP energy -89112.299447 kJ/mol
# GULP energy per Si atom -5569.518715 kJ/mol
# Density = 2.389252 g / cm^3
# Si number density = 23.947025 Si / 1000 Ang^3
#
#
#
# Elastic Constant Matrix: (Units=GPa)
#
#
# Indices 1 2 3 4 5 6 
#
# 1 43.8373 23.4028 8.6306 -7.1024 2.7990 -5.0254
# 2 23.4028 115.6180 33.2369 2.0631 12.8611 -5.6500
# 3 8.6306 33.2369 144.6038 -4.5281 18.6016 -2.3766
# 4 -7.1024 2.0631 -4.5281 39.4208 -2.8378 11.4583
# 5 2.7990 12.8611 18.6016 -2.8378 30.7049 5.4796
# 6 -5.0254 -5.6500 -2.3766 11.4583 5.4796 30.2005
#
#
#
# Elastic Compliance Matrix: (Units=1/GPa)
#
#
# Indices 1 2 3 4 5 6 
#
# 1 0.026630 -0.005339 -0.000198 0.004572 0.000053 0.001672
# 2 -0.005339 0.010828 -0.001730 -0.002794 -0.003748 0.002741
# 3 -0.000198 -0.001730 0.007886 0.000412 -0.004150 0.000861
# 4 0.004572 -0.002794 0.000412 0.030336 0.005491 -0.012236
# 5 0.000053 -0.003748 -0.004150 0.005491 0.038970 -0.010173
# 6 0.001672 0.002741 0.000861 -0.012236 -0.010173 0.040459
#
#
# Mechanical properties :
#
#
# Convention : Reuss Voigt Hill
#
# Bulk Modulus (GPa) = 32.45884 48.28883 40.37384
# Shear Modulus (GPa) = 27.79087 35.98448 31.88767
#
# Velocity S-wave (km/s) = 3.41033 3.88063 3.65306
# Velocity P-wave (km/s) = 5.39361 6.34726 5.88977
#
# Compressibility (1/GPa) = 0.03080825
#
# Stress axis : x y z
#
# Youngs Moduli (GPa) = 37.55148 92.35271 126.80813
#
# Poissons Ratio (x) = 0.49308 0.02516
# Poissons Ratio (y) = 0.20049 0.21944
# Poissons Ratio (z) = 0.00745 0.15981
#
# Static dielectric constant tensor:
#      x y z
#    x 2.030670 -0.034110 -0.020980 
#    y -0.034110 1.948570 0.008900 
#    z -0.020980 0.008900 1.979670 
# 
# From -- ./inp_files/213153.got.cif
#   From: 2010.05.17/outbox.cif.g08.bks.cpg/sg2_107_cif.got.tgz:213153.got - 2010.06.03 11:33:40.
