data_PCOD9087012
_publ_section_title
;
Structure prediction by ZEFSAII (Michael W. Deem and Ramdas Pophale) SiO2 
 PCOD9087012
Probable space group: P -1
;
_chemical_formula_sum "Si O2"
_cell_formula_units_Z 16
_cell_length_a 7.310284
_cell_length_b 12.586269
_cell_length_c 8.801920
_cell_angle_alpha 93.394227
_cell_angle_beta 129.134889
_cell_angle_gamma 80.140970
_cell_volume 617.632706
_symmetry_space_group_name_H-M "P -1"
_symmetry_group_IT_number 2
_symmetry_cell_setting 'triclinic'
loop_
_space_group_symop_operation_xyz
x,y,z
-x,-y,-z
loop_
_atom_site_type_symbol
_atom_site_label
_atom_site_fract_x
_atom_site_fract_y
_atom_site_fract_z
Si Si1 0.053452 0.110527 0.102978
Si Si2 0.749510 0.342118 0.952536
Si Si3 0.780528 0.584507 0.752976
Si Si4 0.999411 0.417050 0.633917
Si Si5 0.287683 0.282771 0.569146
Si Si6 0.528565 0.658191 0.920676
Si Si7 0.704256 0.951599 0.482884
Si Si8 0.475131 0.907261 0.853804
O O1 0.077146 0.091075 0.294662
O O2 0.291252 0.121119 0.134758
O O3 0.865763 0.217408 0.984520
O O4 0.000000 0.000000 0.000000
O O5 0.496774 0.348863 0.735239
O O6 0.676554 0.378693 0.089172
O O7 0.963491 0.405633 0.034246
O O8 0.753115 0.683471 0.624409
O O9 0.574468 0.610014 0.772770
O O10 0.800147 0.477662 0.649663
O O11 0.044376 0.309247 0.544826
O O12 0.000000 0.500000 0.500000
O O13 0.226689 0.383345 0.862489
O O14 0.374616 0.156642 0.630418
O O15 0.463206 0.788598 0.900303
O O16 0.500000 0.000000 0.500000
O O17 0.720718 0.036161 0.366052
O O18 0.500000 0.000000 0.000000
#
# Coordination Sequence:
#
# PCOD9087012 Si02
#       8
#     2   2   2   2   2   2   2   2
#     4  11  21  38  62  92 126 175 214 251 323 387
#     4  11  22  40  66  90 132 173 206 264 326 373
#     4  11  21  43  65  95 126 167 221 264 319 375
#     4   9  21  39  68  90 125 173 208 266 330 376
#     4  10  20  39  63  95 129 168 215 260 318 381
#     4  11  22  39  63  96 127 163 217 270 310 378
#     4  10  19  36  61  88 131 170 205 264 313 380
#     4  11  21  37  60  92 131 165 212 270 309 375
#
# _framework density 25.905366999999998
#
# number of rings (size 3 to 8) (size 9 to 14) (size 15 to 20)
#    0.000    1.500    2.500    4.875    0.000    2.000 
#    0.000    7.500    0.000    8.250    0.000    0.000 
#    0.000    0.000    0.000    0.000    0.000    0.000 
#
# Total GULP energy -89368.707408 kJ/mol
# GULP energy per Si atom -5585.544213 kJ/mol
# Density = 2.584640 g / cm^3
# Si number density = 25.905367 Si / 1000 Ang^3
#
#
#
# Elastic Constant Matrix: (Units=GPa)
#
#
# Indices 1 2 3 4 5 6 
#
# 1 120.8750 42.2364 25.2544 3.6886 -26.2672 -23.9391
# 2 42.2364 164.8745 29.2381 -2.9450 -10.8742 -17.8252
# 3 25.2544 29.2381 116.0938 -1.4003 -16.0579 2.4185
# 4 3.6886 -2.9450 -1.4003 43.7895 -3.3701 -7.2909
# 5 -26.2672 -10.8742 -16.0579 -3.3701 41.1527 7.9645
# 6 -23.9391 -17.8252 2.4185 -7.2909 7.9645 52.5132
#
#
#
# Elastic Compliance Matrix: (Units=1/GPa)
#
#
# Indices 1 2 3 4 5 6 
#
# 1 0.011084 -0.001866 -0.001276 -0.000078 0.005371 0.003653
# 2 -0.001866 0.006983 -0.001400 0.000858 -0.000156 0.001727
# 3 -0.001276 -0.001400 0.009701 0.000233 0.002993 -0.001925
# 4 -0.000078 0.000858 0.000233 0.023575 0.001563 0.003281
# 5 0.005371 -0.000156 0.002993 0.001563 0.029366 -0.001979
# 6 0.003653 0.001727 -0.001925 0.003281 -0.001979 0.022139
#
#
# Mechanical properties :
#
#
# Convention : Reuss Voigt Hill
#
# Bulk Modulus (GPa) = 53.51629 66.14456 59.83043
# Shear Modulus (GPa) = 42.31611 47.83203 45.07407
#
# Velocity S-wave (km/s) = 4.04603 4.30165 4.17580
# Velocity P-wave (km/s) = 6.52153 7.08949 6.81143
#
# Compressibility (1/GPa) = 0.01868590
#
# Stress axis : x y z
#
# Youngs Moduli (GPa) = 90.21696 143.20151 103.08553
#
# Poissons Ratio (x) = 0.26715 0.13149
# Poissons Ratio (y) = 0.16830 0.14433
# Poissons Ratio (z) = 0.11508 0.20049
#
# Static dielectric constant tensor:
#      x y z
#    x 2.072600 0.021770 -0.009590 
#    y 0.021770 2.130380 -0.028980 
#    z -0.009590 -0.028980 2.147250 
# 
# From -- ./inp_files/208006.got.cif
#   From: 2010.05.17/outbox.cif.g08.bks.cpg/sg2_105_cif.got.tgz:208006.got - 2010.06.03 11:33:40.
