data_PCOD9087972
_publ_section_title
;
Structure prediction by ZEFSAII (Michael W. Deem and Ramdas Pophale) SiO2 
 PCOD9087972
Probable space group: P -1
;
_chemical_formula_sum "Si O2"
_cell_formula_units_Z 16
_cell_length_a 14.398751
_cell_length_b 5.177490
_cell_length_c 11.730928
_cell_angle_alpha 69.739258
_cell_angle_beta 51.467378
_cell_angle_gamma 69.521435
_cell_volume 630.967883
_symmetry_space_group_name_H-M "P -1"
_symmetry_group_IT_number 2
_symmetry_cell_setting 'triclinic'
loop_
_space_group_symop_operation_xyz
x,y,z
-x,-y,-z
loop_
_atom_site_type_symbol
_atom_site_label
_atom_site_fract_x
_atom_site_fract_y
_atom_site_fract_z
Si Si1 0.381132 0.889033 0.472441
Si Si2 0.210529 0.402564 0.516816
Si Si3 0.211333 0.731839 0.261810
Si Si4 0.282143 0.885328 0.955780
Si Si5 0.538307 0.374839 0.314117
Si Si6 0.932010 0.675060 0.699967
Si Si7 0.809812 0.637908 0.204223
Si Si8 0.931341 0.319244 0.957980
O O1 0.457705 0.670039 0.362186
O O2 0.382933 0.733644 0.616730
O O3 0.251139 0.071332 0.511257
O O4 0.455150 0.142563 0.393827
O O5 0.270354 0.584588 0.352896
O O6 0.237890 0.434094 0.625640
O O7 0.068280 0.523419 0.592534
O O8 0.155729 0.485687 0.280466
O O9 0.108306 0.995080 0.333799
O O10 0.294164 0.856162 0.086565
O O11 0.374595 0.643396 0.858115
O O12 0.284075 0.163388 0.835968
O O13 0.146911 0.837921 0.039481
O O14 0.918558 0.613495 0.854347
O O15 0.925631 0.783405 0.126733
O O16 0.872304 0.385318 0.115816
#
# Coordination Sequence:
#
# PCOD9087972 Si02
#       8
#     2   2   2   2   2   2   2   2
#     4  10  23  42  60  91 119 153 210 263 303 362
#     4  11  23  41  63  92 126 168 204 256 310 358
#     4  11  24  41  62  94 130 165 205 243 302 385
#     4  11  21  38  63  86 123 167 199 252 317 360
#     4  10  23  40  64  87 119 157 207 260 313 354
#     4  10  22  41  62  91 131 169 203 241 302 379
#     4  10  19  37  57  91 123 157 208 248 308 366
#     4   9  20  34  58  92 123 158 205 255 294 375
#
# _framework density 25.357868
#
# number of rings (size 3 to 8) (size 9 to 14) (size 15 to 20)
#    0.000    1.750    2.500    1.125    1.750    3.000 
#    2.250    1.250    0.000    0.000    0.000    0.000 
#    0.000    0.000    0.000    0.000    0.000    0.000 
#
# Total GULP energy -89479.527922 kJ/mol
# GULP energy per Si atom -5592.470495 kJ/mol
# Density = 2.530015 g / cm^3
# Si number density = 25.357868 Si / 1000 Ang^3
#
#
#
# Elastic Constant Matrix: (Units=GPa)
#
#
# Indices 1 2 3 4 5 6 
#
# 1 59.1160 22.1656 41.1196 3.8292 5.0965 -1.0923
# 2 22.1656 187.0272 74.7673 25.5052 21.3388 -25.4782
# 3 41.1196 74.7673 169.6496 1.1674 37.5231 -31.3343
# 4 3.8292 25.5052 1.1674 39.5943 -10.8589 6.9128
# 5 5.0965 21.3388 37.5231 -10.8589 36.1463 -8.3129
# 6 -1.0923 -25.4782 -31.3343 6.9128 -8.3129 38.9157
#
#
#
# Elastic Compliance Matrix: (Units=1/GPa)
#
#
# Indices 1 2 3 4 5 6 
#
# 1 0.021259 -0.001081 -0.006226 0.000495 0.003212 -0.004526
# 2 -0.001081 0.008111 -0.001541 -0.006972 -0.004119 0.004397
# 3 -0.006226 -0.001541 0.011313 -0.002377 -0.009203 0.006382
# 4 0.000495 -0.006972 -0.002377 0.035553 0.014991 -0.009578
# 5 0.003212 -0.004119 -0.009203 0.014991 0.042892 -0.003517
# 6 -0.004526 0.004397 0.006382 -0.009578 -0.003517 0.034537
#
#
# Mechanical properties :
#
#
# Convention : Reuss Voigt Hill
#
# Bulk Modulus (GPa) = 43.50360 76.87753 60.19057
# Shear Modulus (GPa) = 27.92892 41.44729 34.68810
#
# Velocity S-wave (km/s) = 3.32232 4.04727 3.70258
# Velocity P-wave (km/s) = 5.64891 7.22658 6.48589
#
# Compressibility (1/GPa) = 0.02298660
#
# Stress axis : x y z
#
# Youngs Moduli (GPa) = 47.03796 123.29024 88.39006
#
# Poissons Ratio (x) = 0.13329 0.55033
# Poissons Ratio (y) = 0.05085 0.13624
# Poissons Ratio (z) = 0.29287 0.19004
#
# Static dielectric constant tensor:
#      x y z
#    x 2.025500 0.024790 -0.042480 
#    y 0.024790 2.082840 -0.075330 
#    z -0.042480 -0.075330 2.071920 
# 
# From -- ./inp_files/459072.got.cif
#   From: 2010.05.17/outbox.cif.g08.bks.cpg/sg2_230_cif.got.tgz:459072.got - 2010.06.03 11:33:40.
