data_PCOD9087852
_publ_section_title
;
Structure prediction by ZEFSAII (Michael W. Deem and Ramdas Pophale) SiO2 
 PCOD9087852
Probable space group: P -1
;
_chemical_formula_sum "Si O2"
_cell_formula_units_Z 16
_cell_length_a 12.527323
_cell_length_b 9.597837
_cell_length_c 19.912503
_cell_angle_alpha 120.606156
_cell_angle_beta 31.239362
_cell_angle_gamma 96.806253
_cell_volume 752.850335
_symmetry_space_group_name_H-M "P -1"
_symmetry_group_IT_number 2
_symmetry_cell_setting 'triclinic'
loop_
_space_group_symop_operation_xyz
x,y,z
-x,-y,-z
loop_
_atom_site_type_symbol
_atom_site_label
_atom_site_fract_x
_atom_site_fract_y
_atom_site_fract_z
Si Si1 0.350744 0.030214 0.221892
Si Si2 0.798754 0.251492 0.753784
Si Si3 0.314845 0.985349 0.855727
Si Si4 0.318794 0.523287 0.665687
Si Si5 0.779877 0.712379 0.428772
Si Si6 0.614883 0.489575 0.624043
Si Si7 0.750893 0.429679 0.681622
Si Si8 0.796973 0.715890 0.799274
O O1 0.220050 0.924514 0.260766
O O2 0.548577 0.939596 0.158973
O O3 0.557600 0.946090 0.026972
O O4 0.077301 0.295777 0.449187
O O5 0.795024 0.280102 0.682181
O O6 0.066390 0.198401 0.630993
O O7 0.500000 0.500000 0.000000
O O8 0.029022 0.793628 0.900156
O O9 0.466489 0.896194 0.679471
O O10 0.436813 0.756339 0.771115
O O11 0.500000 0.500000 0.500000
O O12 0.243643 0.382860 0.648384
O O13 0.496446 0.434265 0.617587
O O14 0.997659 0.489457 0.305913
O O15 0.586219 0.465639 0.712342
O O16 0.959773 0.320950 0.380996
O O17 0.641150 0.655589 0.829558
#
# Coordination Sequence:
#
# PCOD9087852 Si02
#       8
#     2   2   2   2   2   2   2   2
#     4  12  20  36  65  89 113 156 198 239 297 340
#     4  11  20  39  63  87 116 152 199 250 285 342
#     4  11  21  36  59  91 113 153 198 236 292 340
#     4  12  21  39  59  84 118 157 202 233 280 350
#     4  10  20  35  57  87 114 146 202 240 282 330
#     4  11  23  39  57  86 131 154 183 245 291 360
#     4  11  23  38  54  90 127 150 189 237 306 351
#     4  10  19  37  54  91 118 151 186 238 294 347
#
# _framework density 21.252562999999999
#
# number of rings (size 3 to 8) (size 9 to 14) (size 15 to 20)
#    0.000    1.000   10.000    1.125    0.000    0.500 
#    2.250    0.000    0.000    3.750    0.000    0.000 
#    0.000    0.000    0.000    0.000    0.000    0.000 
#
# Total GULP energy -89335.869807 kJ/mol
# GULP energy per Si atom -5583.491863 kJ/mol
# Density = 2.120419 g / cm^3
# Si number density = 21.252563 Si / 1000 Ang^3
#
#
#
# Elastic Constant Matrix: (Units=GPa)
#
#
# Indices 1 2 3 4 5 6 
#
# 1 140.4183 27.5216 18.0692 -13.5735 28.3025 14.0757
# 2 27.5216 66.8936 11.4631 1.3309 2.9292 14.5323
# 3 18.0692 11.4631 137.0324 4.0170 3.1486 -6.2567
# 4 -13.5735 1.3309 4.0170 18.9431 2.1890 1.3741
# 5 28.3025 2.9292 3.1486 2.1890 36.9222 2.7818
# 6 14.0757 14.5323 -6.2567 1.3741 2.7818 22.5729
#
#
#
# Elastic Compliance Matrix: (Units=1/GPa)
#
#
# Indices 1 2 3 4 5 6 
#
# 1 0.011014 -0.003037 -0.001518 0.009740 -0.008281 -0.004906
# 2 -0.003037 0.018774 -0.001628 -0.002596 0.001939 -0.010725
# 3 -0.001518 -0.001628 0.007908 -0.003017 0.000472 0.004312
# 4 0.009740 -0.002596 -0.003017 0.062325 -0.010111 -0.007787
# 5 -0.008281 0.001939 0.000472 -0.010111 0.033799 0.000496
# 6 -0.004906 -0.010725 0.004312 -0.007787 0.000496 0.055873
#
#
# Mechanical properties :
#
#
# Convention : Reuss Voigt Hill
#
# Bulk Modulus (GPa) = 39.47623 50.93910 45.20766
# Shear Modulus (GPa) = 23.75253 34.84033 29.29643
#
# Velocity S-wave (km/s) = 3.34673 4.05328 3.71683
# Velocity P-wave (km/s) = 5.79217 6.77686 6.30377
#
# Compressibility (1/GPa) = 0.02533170
#
# Stress axis : x y z
#
# Youngs Moduli (GPa) = 90.78982 53.26419 126.44862
#
# Poissons Ratio (x) = 0.16176 0.19190
# Poissons Ratio (y) = 0.27572 0.20589
# Poissons Ratio (z) = 0.13778 0.08673
#
# Static dielectric constant tensor:
#      x y z
#    x 1.830630 -0.008910 0.015120 
#    y -0.008910 1.801910 -0.004020 
#    z 0.015120 -0.004020 1.810070 
# 
# From -- ./inp_files/568810.got.cif
#   From: 2010.05.17/outbox.cif.g08.bks.cpg/sg2_285_cif.got.tgz:568810.got - 2010.06.03 11:33:40.
