data_PCOD9087874
_publ_section_title
;
Structure prediction by ZEFSAII (Michael W. Deem and Ramdas Pophale) SiO2 
 PCOD9087874
Probable space group: P -1
;
_chemical_formula_sum "Si O2"
_cell_formula_units_Z 16
_cell_length_a 14.902427
_cell_length_b 8.393552
_cell_length_c 10.826752
_cell_angle_alpha 47.295778
_cell_angle_beta 139.385744
_cell_angle_gamma 115.624859
_cell_volume 638.161339
_symmetry_space_group_name_H-M "P -1"
_symmetry_group_IT_number 2
_symmetry_cell_setting 'triclinic'
loop_
_space_group_symop_operation_xyz
x,y,z
-x,-y,-z
loop_
_atom_site_type_symbol
_atom_site_label
_atom_site_fract_x
_atom_site_fract_y
_atom_site_fract_z
Si Si1 0.118851 0.316528 0.037805
Si Si2 0.436989 0.770088 0.140426
Si Si3 0.162626 0.732057 0.003961
Si Si4 0.895640 0.026925 0.574186
Si Si5 0.837314 0.328402 0.673385
Si Si6 0.288020 0.212285 0.667187
Si Si7 0.385291 0.692948 0.841225
Si Si8 0.366693 0.004068 0.441347
O O1 0.096702 0.561843 0.938463
O O2 0.117054 0.136833 0.238806
O O3 0.277861 0.246226 0.201070
O O4 0.001244 0.275237 0.838743
O O5 0.324502 0.703284 0.150720
O O6 0.603403 0.717503 0.357511
O O7 0.414643 0.686658 0.021306
O O8 0.385123 0.032630 0.944093
O O9 0.154491 0.661707 0.174111
O O10 0.063829 0.973512 0.757843
O O11 0.822590 0.916541 0.444144
O O12 0.790172 0.258376 0.368490
O O13 0.775920 0.572814 0.438712
O O14 0.734513 0.161802 0.624694
O O15 0.406449 0.908677 0.669640
O O16 0.500000 0.500000 0.000000
O O17 0.500000 0.000000 0.500000
#
# Coordination Sequence:
#
# PCOD9087874 Si02
#       8
#     2   2   2   2   2   2   2   2
#     4  10  20  39  63  93 129 161 203 258 319 368
#     4  10  24  36  60  91 128 164 206 257 309 363
#     4  11  21  38  68 100 123 155 213 264 305 368
#     4   9  18  38  62  90 124 161 205 256 308 365
#     4  11  21  40  66  90 125 163 206 256 323 359
#     4  10  19  37  55  88 123 162 198 249 315 360
#     4  10  22  41  59  83 129 171 203 242 317 370
#     4  11  26  41  64  92 123 167 216 258 300 375
#
# _framework density 25.072030000000002
#
# number of rings (size 3 to 8) (size 9 to 14) (size 15 to 20)
#    0.000    1.750    2.500    1.875    3.500    6.500 
#    0.000    0.000    0.000    2.250    0.000    0.000 
#    0.000    0.000    0.000    0.000    0.000    0.000 
#
# Total GULP energy -89223.728839 kJ/mol
# GULP energy per Si atom -5576.483052 kJ/mol
# Density = 2.501497 g / cm^3
# Si number density = 25.072030 Si / 1000 Ang^3
#
#
#
# Elastic Constant Matrix: (Units=GPa)
#
#
# Indices 1 2 3 4 5 6 
#
# 1 81.5999 -1.5277 10.9811 -5.4070 21.7783 -4.0752
# 2 -1.5277 67.1717 23.3464 -14.8584 5.0045 -13.6357
# 3 10.9811 23.3464 121.3801 -24.9078 26.8944 -20.2714
# 4 -5.4070 -14.8584 -24.9078 36.3044 -9.0544 9.9987
# 5 21.7783 5.0045 26.8944 -9.0544 25.7311 -11.2544
# 6 -4.0752 -13.6357 -20.2714 9.9987 -11.2544 25.9628
#
#
#
# Elastic Compliance Matrix: (Units=1/GPa)
#
#
# Indices 1 2 3 4 5 6 
#
# 1 0.016481 0.000456 0.001763 0.000509 -0.017212 -0.003455
# 2 0.000456 0.017917 -0.001949 0.004784 0.003116 0.007468
# 3 0.001763 -0.001949 0.012254 0.004428 -0.011414 0.002167
# 4 0.000509 0.004784 0.004428 0.035181 0.003838 -0.005835
# 5 -0.017212 0.003116 -0.011414 0.003838 0.075390 0.021225
# 6 -0.003455 0.007468 0.002167 -0.005835 0.021225 0.055037
#
#
# Mechanical properties :
#
#
# Convention : Reuss Voigt Hill
#
# Bulk Modulus (GPa) = 21.19044 37.30569 29.24806
# Shear Modulus (GPa) = 21.98273 33.42312 27.70293
#
# Velocity S-wave (km/s) = 2.96426 3.65510 3.32766
# Velocity P-wave (km/s) = 4.49288 5.72055 5.14348
#
# Compressibility (1/GPa) = 0.04719109
#
# Stress axis : x y z
#
# Youngs Moduli (GPa) = 60.67495 55.81256 81.60790
#
# Poissons Ratio (x) = -0.02545 -0.14384
# Poissons Ratio (y) = -0.02766 0.15905
# Poissons Ratio (z) = -0.10694 0.10878
#
# Static dielectric constant tensor:
#      x y z
#    x 2.126650 0.008560 0.097200 
#    y 0.008560 2.043080 0.037700 
#    z 0.097200 0.037700 2.069010 
# 
# From -- ./inp_files/282700.got.cif
#   From: 2010.05.17/outbox.cif.g08.bks.cpg/sg2_142_cif.got.tgz:282700.got - 2010.06.03 11:33:40.
