data_PCOD9087986
_publ_section_title
;
Structure prediction by ZEFSAII (Michael W. Deem and Ramdas Pophale) SiO2 
 PCOD9087986
Probable space group: P -1
;
_chemical_formula_sum "Si O2"
_cell_formula_units_Z 16
_cell_length_a 18.785693
_cell_length_b 11.345591
_cell_length_c 9.186393
_cell_angle_alpha 35.177189
_cell_angle_beta 129.631798
_cell_angle_gamma 141.066095
_cell_volume 708.839621
_symmetry_space_group_name_H-M "P -1"
_symmetry_group_IT_number 2
_symmetry_cell_setting 'triclinic'
loop_
_space_group_symop_operation_xyz
x,y,z
-x,-y,-z
loop_
_atom_site_type_symbol
_atom_site_label
_atom_site_fract_x
_atom_site_fract_y
_atom_site_fract_z
Si Si1 0.821817 0.941323 0.548526
Si Si2 0.247916 0.726781 0.399288
Si Si3 0.648547 0.968349 0.489136
Si Si4 0.950581 0.842356 0.239410
Si Si5 0.289823 0.629899 0.054829
Si Si6 0.124523 0.578051 0.107268
Si Si7 0.608106 0.379782 0.497905
Si Si8 0.834874 0.857398 0.323956
O O1 0.722246 0.920739 0.528621
O O2 0.786190 0.656484 0.806914
O O3 0.839204 0.979628 0.358069
O O4 0.943384 0.144903 0.569580
O O5 0.159059 0.443497 0.631504
O O6 0.181767 0.744156 0.159715
O O7 0.352605 0.747256 0.434312
O O8 0.290699 0.920281 0.390127
O O9 0.520939 0.727753 0.582647
O O10 0.644998 0.180651 0.183294
O O11 0.915225 0.978505 0.167788
O O12 0.000000 0.000000 0.000000
O O13 0.203712 0.681580 0.964133
O O14 0.368801 0.659220 0.264045
O O15 0.130052 0.337360 0.391394
O O16 0.000000 0.500000 0.000000
O O17 0.702336 0.674016 0.295918
#
# Coordination Sequence:
#
# PCOD9087986 Si02
#       8
#     2   2   2   2   2   2   2   2
#     4  10  22  37  54  90 119 152 197 234 302 349
#     4   9  21  36  57  88 115 154 200 237 297 358
#     4  12  21  35  64  86 119 157 194 247 292 350
#     4  10  19  37  58  79 120 157 190 245 297 344
#     4   9  21  37  56  88 117 150 200 242 286 348
#     4   8  16  35  58  76 112 153 187 238 290 338
#     4   8  18  39  60  83 114 158 197 241 296 341
#     4   8  19  37  58  84 115 153 199 239 290 355
#
# _framework density 22.572102999999998
#
# number of rings (size 3 to 8) (size 9 to 14) (size 15 to 20)
#    0.000    3.500    0.000    1.875    3.500    2.500 
#    4.500    1.250    0.000   10.500    0.000    0.000 
#    0.000    0.000    0.000    0.000    0.000    0.000 
#
# Total GULP energy -89301.758841 kJ/mol
# GULP energy per Si atom -5581.359928 kJ/mol
# Density = 2.252073 g / cm^3
# Si number density = 22.572103 Si / 1000 Ang^3
#
#
#
# Elastic Constant Matrix: (Units=GPa)
#
#
# Indices 1 2 3 4 5 6 
#
# 1 130.6106 74.7773 21.8822 13.5105 -20.6359 17.8142
# 2 74.7773 126.2270 24.1281 14.4430 -9.7956 22.6330
# 3 21.8822 24.1281 61.0254 10.0900 -32.4731 -3.0053
# 4 13.5105 14.4430 10.0900 26.9830 -5.9675 -4.1616
# 5 -20.6359 -9.7956 -32.4731 -5.9675 31.7923 -3.2507
# 6 17.8142 22.6330 -3.0053 -4.1616 -3.2507 32.8515
#
#
#
# Elastic Compliance Matrix: (Units=1/GPa)
#
#
# Indices 1 2 3 4 5 6 
#
# 1 0.013040 -0.007203 0.003308 -0.002075 0.009115 -0.001167
# 2 -0.007203 0.015257 -0.008876 -0.005067 -0.010926 -0.009140
# 3 0.003308 -0.008876 0.043335 -0.001285 0.044717 0.012548
# 4 -0.002075 -0.005067 -0.001285 0.044060 0.005132 0.010587
# 5 0.009115 -0.010926 0.044717 0.005132 0.082223 0.015462
# 6 -0.001167 -0.009140 0.012548 0.010587 0.015462 0.041389
#
#
# Mechanical properties :
#
#
# Convention : Reuss Voigt Hill
#
# Bulk Modulus (GPa) = 21.69668 62.15981 41.92824
# Shear Modulus (GPa) = 17.84380 31.46372 24.65376
#
# Velocity S-wave (km/s) = 2.81468 3.73757 3.30846
# Velocity P-wave (km/s) = 4.49402 6.79883 5.76283
#
# Compressibility (1/GPa) = 0.04609000
#
# Stress axis : x y z
#
# Youngs Moduli (GPa) = 76.68697 65.54457 23.07582
#
# Poissons Ratio (x) = 0.47214 -0.07633
# Poissons Ratio (y) = 0.55240 0.20481
# Poissons Ratio (z) = -0.25367 0.58175
#
# Static dielectric constant tensor:
#      x y z
#    x 1.853580 -0.056280 0.083870 
#    y -0.056280 1.854820 -0.051060 
#    z 0.083870 -0.051060 2.030840 
# 
# From -- ./inp_files/345081.got.cif
#   From: 2010.05.17/outbox.cif.g08.bks.cpg/sg2_173_cif.got.tgz:345081.got - 2010.06.03 11:33:40.
