data_PCOD9087224
_publ_section_title
;
Structure prediction by ZEFSAII (Michael W. Deem and Ramdas Pophale) SiO2 
 PCOD9087224
Probable space group: P -1
;
_chemical_formula_sum "Si O2"
_cell_formula_units_Z 16
_cell_length_a 20.045752
_cell_length_b 5.334526
_cell_length_c 10.250176
_cell_angle_alpha 56.344385
_cell_angle_beta 56.319300
_cell_angle_gamma 78.322893
_cell_volume 750.459685
_symmetry_space_group_name_H-M "P -1"
_symmetry_group_IT_number 2
_symmetry_cell_setting 'triclinic'
loop_
_space_group_symop_operation_xyz
x,y,z
-x,-y,-z
loop_
_atom_site_type_symbol
_atom_site_label
_atom_site_fract_x
_atom_site_fract_y
_atom_site_fract_z
Si Si1 0.090160 0.445340 0.958249
Si Si2 0.677709 0.585401 0.602815
Si Si3 0.602101 0.881594 0.835990
Si Si4 0.569237 0.798473 0.450104
Si Si5 0.142061 0.141247 0.731504
Si Si6 0.541078 0.835124 0.193152
Si Si7 0.906181 0.893198 0.674067
Si Si8 0.911100 0.538447 0.533031
O O1 0.121489 0.243631 0.868594
O O2 0.140650 0.782874 0.819268
O O3 0.092659 0.282412 0.141389
O O4 0.000000 0.500000 0.000000
O O5 0.648012 0.230163 0.703272
O O6 0.639315 0.804518 0.478514
O O7 0.773152 0.672010 0.459595
O O8 0.647137 0.678161 0.750502
O O9 0.513566 0.907454 0.860826
O O10 0.586326 0.761364 0.034567
O O11 0.595438 0.887892 0.248135
O O12 0.524780 0.451873 0.611912
O O13 0.500000 0.000000 0.500000
O O14 0.078852 0.249614 0.665875
O O15 0.868694 0.690929 0.652530
O O16 0.868663 0.201259 0.641657
O O17 0.000000 0.000000 0.500000
O O18 0.000000 0.500000 0.500000
#
# Coordination Sequence:
#
# PCOD9087224 Si02
#       8
#     2   2   2   2   2   2   2   2
#     4  12  23  41  68  95 119 160 216 260 308 381
#     4  11  24  41  60  87 131 165 199 254 319 371
#     4  10  21  38  62  90 122 162 211 253 303 361
#     4  10  19  36  62  89 123 166 210 253 307 354
#     4  12  25  42  64  93 129 165 205 261 325 374
#     4   9  20  34  61  94 117 159 218 263 287 357
#     4  10  20  36  60  89 117 146 193 257 303 353
#     4  10  19  37  60  84 114 153 197 244 297 362
#
# _framework density 21.320264999999999
#
# number of rings (size 3 to 8) (size 9 to 14) (size 15 to 20)
#    0.000    1.500    1.250    5.625    1.750    1.500 
#    0.000    3.750    0.000    0.000    0.000    0.000 
#    0.000    0.000    0.000    0.000    0.000    0.000 
#
# Total GULP energy -89362.916893 kJ/mol
# GULP energy per Si atom -5585.182306 kJ/mol
# Density = 2.127174 g / cm^3
# Si number density = 21.320265 Si / 1000 Ang^3
#
#
#
# Elastic Constant Matrix: (Units=GPa)
#
#
# Indices 1 2 3 4 5 6 
#
# 1 39.0639 12.4100 33.7561 2.1502 13.4811 5.5364
# 2 12.4100 100.3093 12.7450 11.0064 20.8121 19.8333
# 3 33.7561 12.7450 104.1787 11.4537 38.0934 12.6100
# 4 2.1502 11.0064 11.4537 36.9859 0.5330 9.6929
# 5 13.4811 20.8121 38.0934 0.5330 45.6608 1.4779
# 6 5.5364 19.8333 12.6100 9.6929 1.4779 21.6276
#
#
#
# Elastic Compliance Matrix: (Units=1/GPa)
#
#
# Indices 1 2 3 4 5 6 
#
# 1 0.036691 -0.003322 -0.011930 0.002711 0.000623 -0.000647
# 2 -0.003322 0.014552 0.004377 -0.001791 -0.008841 -0.013639
# 3 -0.011930 0.004377 0.019948 -0.004009 -0.014751 -0.009786
# 4 0.002711 -0.001791 -0.004009 0.031505 0.003351 -0.011063
# 5 0.000623 -0.008841 -0.014751 0.003351 0.037610 0.012476
# 6 -0.000647 -0.013639 -0.009786 -0.011063 0.012476 0.068721
#
#
# Mechanical properties :
#
#
# Convention : Reuss Voigt Hill
#
# Bulk Modulus (GPa) = 20.22672 40.15269 30.18970
# Shear Modulus (GPa) = 20.22187 33.16425 26.69306
#
# Velocity S-wave (km/s) = 3.08308 3.94830 3.54221
# Velocity P-wave (km/s) = 4.70973 6.29757 5.56062
#
# Compressibility (1/GPa) = 0.04943956
#
# Stress axis : x y z
#
# Youngs Moduli (GPa) = 27.25487 68.72112 50.13021
#
# Poissons Ratio (x) = 0.22831 0.59804
# Poissons Ratio (y) = 0.09055 -0.21940
# Poissons Ratio (z) = 0.32514 -0.30077
#
# Static dielectric constant tensor:
#      x y z
#    x 1.836030 0.001210 0.023300 
#    y 0.001210 1.759020 0.003910 
#    z 0.023300 0.003910 1.753140 
# 
# From -- ./inp_files/122835.got.cif
#   From: 2010.05.17/outbox.cif.g08.bks.cpg/sg2_62_cif.got.tgz:122835.got - 2010.06.03 11:33:40.
