data_PCOD9087443
_publ_section_title
;
Structure prediction by ZEFSAII (Michael W. Deem and Ramdas Pophale) SiO2 
 PCOD9087443
Probable space group: P -1
;
_chemical_formula_sum "Si O2"
_cell_formula_units_Z 16
_cell_length_a 10.769830
_cell_length_b 11.722631
_cell_length_c 8.967182
_cell_angle_alpha 75.866670
_cell_angle_beta 75.033300
_cell_angle_gamma 43.481712
_cell_volume 749.854327
_symmetry_space_group_name_H-M "P -1"
_symmetry_group_IT_number 2
_symmetry_cell_setting 'triclinic'
loop_
_space_group_symop_operation_xyz
x,y,z
-x,-y,-z
loop_
_atom_site_type_symbol
_atom_site_label
_atom_site_fract_x
_atom_site_fract_y
_atom_site_fract_z
Si Si1 0.413754 0.343426 0.858434
Si Si2 0.715392 0.154829 0.602961
Si Si3 0.083166 0.971573 0.714868
Si Si4 0.181385 0.176595 0.332783
Si Si5 0.925490 0.282581 0.134434
Si Si6 0.114304 0.351597 0.893034
Si Si7 0.169317 0.172471 0.689637
Si Si8 0.496740 0.090673 0.113383
O O1 0.542614 0.309988 0.699713
O O2 0.266798 0.533107 0.899643
O O3 0.292473 0.315461 0.837907
O O4 0.519268 0.207616 0.002689
O O5 0.749612 0.146934 0.418326
O O6 0.718201 0.012048 0.672973
O O7 0.895665 0.091369 0.642006
O O8 0.081502 0.851435 0.843121
O O9 0.091778 0.090766 0.753891
O O10 0.181586 0.188815 0.505479
O O11 0.296147 0.205236 0.210774
O O12 0.984012 0.280839 0.286605
O O13 0.090682 0.236228 0.008226
O O14 0.060008 0.350422 0.743622
O O15 0.000000 0.500000 0.000000
O O16 0.361239 0.039481 0.761506
O O17 0.500000 0.000000 0.000000
#
# Coordination Sequence:
#
# PCOD9087443 Si02
#       8
#     2   2   2   2   2   2   2   2
#     4  11  21  36  65  89 117 165 210 240 306 370
#     4   9  18  37  62  90 121 165 207 248 297 366
#     4   9  21  38  60  90 124 162 207 250 298 356
#     4  10  19  36  63  93 125 154 210 259 299 356
#     4  10  21  40  64  86 128 169 195 247 306 377
#     4  10  21  39  62  87 121 159 199 250 315 368
#     4  11  22  37  63  93 118 159 213 259 298 354
#     4  12  20  35  63  92 120 161 207 255 306 359
#
# _framework density 21.337478000000001
#
# number of rings (size 3 to 8) (size 9 to 14) (size 15 to 20)
#    0.000    1.750    3.750    1.125    1.750    2.000 
#    0.000    3.125   13.750    0.000    0.000    0.000 
#    0.000    0.000    0.000    0.000    0.000    0.000 
#
# Total GULP energy -89102.358009 kJ/mol
# GULP energy per Si atom -5568.897376 kJ/mol
# Density = 2.128891 g / cm^3
# Si number density = 21.337478 Si / 1000 Ang^3
#
#
#
# Elastic Constant Matrix: (Units=GPa)
#
#
# Indices 1 2 3 4 5 6 
#
# 1 65.5347 10.1023 26.5345 15.2907 -7.7017 10.1905
# 2 10.1023 48.6849 12.0230 7.8299 4.6815 2.7688
# 3 26.5345 12.0230 79.1365 7.2981 2.2214 -1.1543
# 4 15.2907 7.8299 7.2981 25.8058 3.5020 -1.9305
# 5 -7.7017 4.6815 2.2214 3.5020 42.6319 1.2484
# 6 10.1905 2.7688 -1.1543 -1.9305 1.2484 32.1292
#
#
#
# Elastic Compliance Matrix: (Units=1/GPa)
#
#
# Indices 1 2 3 4 5 6 
#
# 1 0.023197 -0.001169 -0.006699 -0.012944 0.005981 -0.008508
# 2 -0.001169 0.022564 -0.002517 -0.005304 -0.002066 -0.001903
# 3 -0.006699 -0.002517 0.015280 0.000894 -0.001892 0.003018
# 4 -0.012944 -0.005304 0.000894 0.049183 -0.006071 0.007786
# 5 0.005981 -0.002066 -0.001892 -0.006071 0.025453 -0.003141
# 6 -0.008508 -0.001903 0.003018 0.007786 -0.003141 0.034685
#
#
# Mechanical properties :
#
#
# Convention : Reuss Voigt Hill
#
# Bulk Modulus (GPa) = 24.83084 32.29731 28.56407
# Shear Modulus (GPa) = 24.44323 29.75982 27.10152
#
# Velocity S-wave (km/s) = 3.38827 3.73865 3.56776
# Velocity P-wave (km/s) = 5.19323 5.81429 5.51251
#
# Compressibility (1/GPa) = 0.04027250
#
# Stress axis : x y z
#
# Youngs Moduli (GPa) = 43.10822 44.31789 65.44698
#
# Poissons Ratio (x) = 0.05179 0.43842
# Poissons Ratio (y) = 0.05038 0.16472
# Poissons Ratio (z) = 0.28877 0.11154
#
# Static dielectric constant tensor:
#      x y z
#    x 1.765380 -0.036830 0.000640 
#    y -0.036830 1.905130 -0.017460 
#    z 0.000640 -0.017460 1.845970 
# 
# From -- ./inp_files/252907.got.cif
#   From: 2010.05.17/outbox.cif.g08.bks.cpg/sg2_127_cif.got.tgz:252907.got - 2010.06.03 11:33:40.
