data_PCOD9087486
_publ_section_title
;
Structure prediction by ZEFSAII (Michael W. Deem and Ramdas Pophale) SiO2 
 PCOD9087486
Probable space group: P -1
;
_chemical_formula_sum "Si O2"
_cell_formula_units_Z 16
_cell_length_a 11.070138
_cell_length_b 9.776847
_cell_length_c 11.014922
_cell_angle_alpha 71.343384
_cell_angle_beta 58.320269
_cell_angle_gamma 115.177672
_cell_volume 650.716039
_symmetry_space_group_name_H-M "P -1"
_symmetry_group_IT_number 2
_symmetry_cell_setting 'triclinic'
loop_
_space_group_symop_operation_xyz
x,y,z
-x,-y,-z
loop_
_atom_site_type_symbol
_atom_site_label
_atom_site_fract_x
_atom_site_fract_y
_atom_site_fract_z
Si Si1 0.973905 0.416301 0.903806
Si Si2 0.758014 0.755407 0.698387
Si Si3 0.804676 0.962968 0.116650
Si Si4 0.814799 0.461073 0.758189
Si Si5 0.217731 0.083210 0.593064
Si Si6 0.765690 0.902605 0.889376
Si Si7 0.665660 0.135701 0.482371
Si Si8 0.273577 0.822998 0.300639
O O1 0.205102 0.620057 0.669736
O O2 0.821154 0.399056 0.906108
O O3 0.000000 0.500000 0.000000
O O4 0.898847 0.195789 0.002517
O O5 0.771454 0.595592 0.732821
O O6 0.659740 0.747101 0.629568
O O7 0.662446 0.735677 0.881718
O O8 0.000000 0.000000 0.500000
O O9 0.690444 0.854514 0.336995
O O10 0.686763 0.846404 0.085238
O O11 0.000000 0.000000 0.000000
O O12 0.672493 0.258315 0.802464
O O13 0.050652 0.619878 0.538042
O O14 0.189441 0.897707 0.612418
O O15 0.999032 0.006081 0.744412
O O16 0.769215 0.064747 0.784795
O O17 0.587011 0.062133 0.683548
O O18 0.500000 0.000000 0.500000
#
# Coordination Sequence:
#
# PCOD9087486 Si02
#       8
#     2   2   2   2   2   2   2   2
#     4  11  20  34  56  84 117 147 189 241 291 338
#     4  10  16  27  49  75 113 140 177 234 290 329
#     4  10  21  30  52  87 122 142 176 244 307 336
#     4  10  19  28  51  85 113 130 186 254 289 310
#     4  10  18  32  51  81 113 143 189 229 290 333
#     4  10  16  30  51  84 110 138 184 245 288 323
#     4  11  23  36  55  83 121 160 192 229 288 359
#     4  10  17  30  51  80 110 138 190 242 280 323
#
# _framework density 24.588296
#
# number of rings (size 3 to 8) (size 9 to 14) (size 15 to 20)
#    0.000    1.750    6.250    2.250    1.750    0.000 
#    0.000    0.000    0.000    9.750    0.000    6.125 
#    0.000    0.000    0.000    0.000    0.000    0.000 
#
# Total GULP energy -89378.755312 kJ/mol
# GULP energy per Si atom -5586.172207 kJ/mol
# Density = 2.453233 g / cm^3
# Si number density = 24.588296 Si / 1000 Ang^3
#
#
#
# Elastic Constant Matrix: (Units=GPa)
#
#
# Indices 1 2 3 4 5 6 
#
# 1 102.3185 63.7065 63.2594 -2.7819 35.4769 3.2106
# 2 63.7065 183.1630 66.6259 35.3544 45.6048 -11.6055
# 3 63.2594 66.6259 94.2811 32.2842 37.6265 18.1699
# 4 -2.7819 35.3544 32.2842 52.9412 21.9862 24.3144
# 5 35.4769 45.6048 37.6265 21.9862 57.5187 3.0530
# 6 3.2106 -11.6055 18.1699 24.3144 3.0530 44.2707
#
#
#
# Elastic Compliance Matrix: (Units=1/GPa)
#
#
# Indices 1 2 3 4 5 6 
#
# 1 0.029998 -0.006994 -0.017927 0.026451 -0.010787 -0.010435
# 2 -0.006994 0.011321 -0.001315 -0.012134 0.000270 0.010660
# 3 -0.017927 -0.001315 0.030221 -0.017189 -0.000997 -0.001939
# 4 0.026451 -0.012134 -0.017189 0.059257 -0.016538 -0.029449
# 5 -0.010787 0.000270 -0.000997 -0.016538 0.030360 0.008251
# 6 -0.010435 0.010660 -0.001939 -0.029449 0.008251 0.042540
#
#
# Mechanical properties :
#
#
# Convention : Reuss Voigt Hill
#
# Bulk Modulus (GPa) = 52.43983 85.21623 68.82803
# Shear Modulus (GPa) = 19.04576 43.35752 31.20164
#
# Velocity S-wave (km/s) = 2.78616 4.20377 3.56612
# Velocity P-wave (km/s) = 5.63238 7.63510 6.70889
#
# Compressibility (1/GPa) = 0.01906947
#
# Stress axis : x y z
#
# Youngs Moduli (GPa) = 33.33513 88.33452 33.08903
#
# Poissons Ratio (x) = 0.61779 0.59319
# Poissons Ratio (y) = 0.23314 0.04350
# Poissons Ratio (z) = 0.59760 0.11613
#
# Static dielectric constant tensor:
#      x y z
#    x 2.110250 0.048500 0.024060 
#    y 0.048500 1.973280 0.040250 
#    z 0.024060 0.040250 2.029420 
# 
# From -- ./inp_files/416870.got.cif
#   From: 2010.05.17/outbox.cif.g08.bks.cpg/sg2_209_cif.got.tgz:416870.got - 2010.06.03 11:33:40.
