data_PCOD9087377
_publ_section_title
;
Structure prediction by ZEFSAII (Michael W. Deem and Ramdas Pophale) SiO2 
 PCOD9087377
Probable space group: P -1
;
_chemical_formula_sum "Si O2"
_cell_formula_units_Z 16
_cell_length_a 26.628433
_cell_length_b 9.836522
_cell_length_c 5.220547
_cell_angle_alpha 92.996154
_cell_angle_beta 65.824182
_cell_angle_gamma 134.061895
_cell_volume 838.142525
_symmetry_space_group_name_H-M "P -1"
_symmetry_group_IT_number 2
_symmetry_cell_setting 'triclinic'
loop_
_space_group_symop_operation_xyz
x,y,z
-x,-y,-z
loop_
_atom_site_type_symbol
_atom_site_label
_atom_site_fract_x
_atom_site_fract_y
_atom_site_fract_z
Si Si1 0.183220 0.077517 0.811281
Si Si2 0.979553 0.373118 0.779208
Si Si3 0.417992 0.727087 0.882048
Si Si4 0.902950 0.797093 0.127224
Si Si5 0.476493 0.131636 0.824328
Si Si6 0.445524 0.370843 0.850292
Si Si7 0.065019 0.243818 0.444349
Si Si8 0.289003 0.276476 0.114761
O O1 0.139555 0.144591 0.878010
O O2 0.223405 0.124839 0.456352
O O3 0.249877 0.200193 0.908462
O O4 0.114365 0.843873 0.012726
O O5 0.000000 0.500000 0.500000
O O6 0.026047 0.312631 0.634751
O O7 0.000000 0.500000 0.000000
O O8 0.455442 0.752641 0.531824
O O9 0.422275 0.897348 0.899918
O O10 0.477818 0.784861 0.989555
O O11 0.330339 0.499987 0.086047
O O12 0.874167 0.698375 0.457657
O O13 0.895998 0.671120 0.909342
O O14 0.000000 0.000000 0.000000
O O15 0.426507 0.176421 0.886795
O O16 0.500000 0.500000 0.500000
O O17 0.500000 0.500000 0.000000
O O18 0.364713 0.312619 0.994380
O O19 0.000000 0.000000 0.500000
#
# Coordination Sequence:
#
# PCOD9087377 Si02
#       8
#     2   2   2   2   2   2   2   2
#     4  12  25  41  64  96 129 166 204 285 332 377
#     4  12  25  41  67  97 127 167 219 268 328 398
#     4  10  20  36  61  95 115 161 200 266 315 360
#     4  10  19  36  67  89 115 152 220 256 307 374
#     4  10  19  36  63  88 124 152 216 264 292 356
#     4  12  21  38  64  93 122 176 223 252 294 392
#     4  10  19  36  67  91 113 150 212 264 296 371
#     4  12  24  38  63  95 133 161 216 263 340 378
#
# _framework density 19.089832000000001
#
# number of rings (size 3 to 8) (size 9 to 14) (size 15 to 20)
#    0.000    1.000    5.000    3.750    3.500    0.000 
#    0.000    0.000   16.500    0.000    0.000    0.000 
#    0.000    0.000    0.000    0.000    0.000    0.000 
#
# Total GULP energy -89266.151607 kJ/mol
# GULP energy per Si atom -5579.134475 kJ/mol
# Density = 1.904638 g / cm^3
# Si number density = 19.089832 Si / 1000 Ang^3
#
#
#
# Elastic Constant Matrix: (Units=GPa)
#
#
# Indices 1 2 3 4 5 6 
#
# 1 120.4658 36.9144 32.6801 14.2293 9.3121 -10.2982
# 2 36.9144 83.7381 14.7791 2.3669 4.8624 -17.6233
# 3 32.6801 14.7791 97.4226 13.4771 23.1315 -4.9009
# 4 14.2293 2.3669 13.4771 34.9303 1.8771 5.5268
# 5 9.3121 4.8624 23.1315 1.8771 40.8468 4.6322
# 6 -10.2982 -17.6233 -4.9009 5.5268 4.6322 29.3575
#
#
#
# Elastic Compliance Matrix: (Units=1/GPa)
#
#
# Indices 1 2 3 4 5 6 
#
# 1 0.010705 -0.003780 -0.002258 -0.003491 -0.000765 0.001887
# 2 -0.003780 0.015523 -0.000135 -0.000689 -0.001829 0.008388
# 3 -0.002258 -0.000135 0.013569 -0.004448 -0.007333 0.003386
# 4 -0.003491 -0.000689 -0.004448 0.033092 0.002905 -0.009069
# 5 -0.000765 -0.001829 -0.007333 0.002905 0.029782 -0.007837
# 6 0.001887 0.008388 0.003386 -0.009069 -0.007837 0.043269
#
#
# Mechanical properties :
#
#
# Convention : Reuss Voigt Hill
#
# Bulk Modulus (GPa) = 36.42914 52.26375 44.34644
# Shear Modulus (GPa) = 29.86180 35.51044 32.68612
#
# Velocity S-wave (km/s) = 3.95939 4.31765 4.14240
# Velocity P-wave (km/s) = 6.32667 7.23142 6.79412
#
# Compressibility (1/GPa) = 0.02745056
#
# Stress axis : x y z
#
# Youngs Moduli (GPa) = 93.41576 64.41885 73.69568
#
# Poissons Ratio (x) = 0.24352 0.16640
# Poissons Ratio (y) = 0.35314 0.00997
# Poissons Ratio (z) = 0.21092 0.00872
#
# Static dielectric constant tensor:
#      x y z
#    x 1.667950 -0.028510 0.027260 
#    y -0.028510 1.684320 -0.028310 
#    z 0.027260 -0.028310 1.802810 
# 
# From -- ./inp_files/126297.got.cif
#   From: 2010.05.17/outbox.cif.g08.bks.cpg/sg2_64_cif.got.tgz:126297.got - 2010.06.03 11:33:40.
