data_PCOD9087625
_publ_section_title
;
Structure prediction by ZEFSAII (Michael W. Deem and Ramdas Pophale) SiO2 
 PCOD9087625
Probable space group: P -1
;
_chemical_formula_sum "Si O2"
_cell_formula_units_Z 14
_cell_length_a 8.686292
_cell_length_b 15.116926
_cell_length_c 9.391904
_cell_angle_alpha 39.781363
_cell_angle_beta 73.806926
_cell_angle_gamma 50.666326
_cell_volume 553.701358
_symmetry_space_group_name_H-M "P -1"
_symmetry_group_IT_number 2
_symmetry_cell_setting 'triclinic'
loop_
_space_group_symop_operation_xyz
x,y,z
-x,-y,-z
loop_
_atom_site_type_symbol
_atom_site_label
_atom_site_fract_x
_atom_site_fract_y
_atom_site_fract_z
Si Si1 0.151847 0.623588 0.088297
Si Si2 0.834294 0.895668 0.069821
Si Si3 0.536096 0.141722 0.308328
Si Si4 0.021167 0.155359 0.600158
Si Si5 0.646911 0.699735 0.338164
Si Si6 0.234966 0.803569 0.630213
Si Si7 0.862826 0.545016 0.165732
O O1 0.295830 0.452181 0.375442
O O2 0.981992 0.811956 0.994990
O O3 0.004963 0.600195 0.069204
O O4 0.274182 0.651539 0.914079
O O5 0.768442 0.772154 0.260104
O O6 0.970254 0.866297 0.206643
O O7 0.606477 0.110669 0.848070
O O8 0.591577 0.179349 0.398486
O O9 0.500000 0.000000 0.500000
O O10 0.328369 0.330651 0.053448
O O11 0.751594 0.034919 0.286888
O O12 0.814858 0.217475 0.489888
O O13 0.011232 0.325901 0.367462
O O14 0.747123 0.599598 0.282878
O O15 0.000000 0.000000 0.500000
#
# Coordination Sequence:
#
# PCOD9087625 Si02
#       7
#     2   2   2   2   2   2   2
#     4  11  21  40  68 102 137 173 219 272 328 388
#     4  10  19  37  69 102 137 177 221 267 319 389
#     4  11  25  45  66  91 128 176 224 275 333 397
#     4  11  21  42  68  99 136 173 217 267 330 390
#     4  10  19  36  65 105 138 173 226 269 314 386
#     4  10  25  46  64  94 139 173 217 281 335 392
#     4  11  20  37  70 100 132 174 221 266 320 392
#
# _framework density 25.284388
#
# number of rings (size 3 to 8) (size 9 to 14) (size 15 to 20)
#    0.000    1.429    4.286    2.571    0.000    2.857 
#    0.000    6.429    0.000    0.000    0.000    0.000 
#    0.000    0.000    0.000    0.000    0.000    0.000 
#
# Total GULP energy -78553.923718 kJ/mol
# GULP energy per Si atom -5610.994551 kJ/mol
# Density = 2.522684 g / cm^3
# Si number density = 25.284388 Si / 1000 Ang^3
#
#
#
# Elastic Constant Matrix: (Units=GPa)
#
#
# Indices 1 2 3 4 5 6 
#
# 1 137.9055 48.6432 56.8857 31.4303 17.5421 27.9464
# 2 48.6432 119.9481 31.8908 -3.0404 18.5925 4.7444
# 3 56.8857 31.8908 126.8983 -0.9593 18.3509 1.6823
# 4 31.4303 -3.0404 -0.9593 26.9269 4.2613 19.0690
# 5 17.5421 18.5925 18.3509 4.2613 49.6561 5.0996
# 6 27.9464 4.7444 1.6823 19.0690 5.0996 43.6699
#
#
#
# Elastic Compliance Matrix: (Units=1/GPa)
#
#
# Indices 1 2 3 4 5 6 
#
# 1 0.016189 -0.005424 -0.006063 -0.018811 0.000306 -0.001359
# 2 -0.005424 0.011248 0.000121 0.009035 -0.002977 -0.001353
# 3 -0.006063 0.000121 0.011005 0.007594 -0.002667 0.000438
# 4 -0.018811 0.009035 0.007594 0.076803 -0.003842 -0.022324
# 5 0.000306 -0.002977 -0.002667 -0.003842 0.022535 -0.000723
# 6 -0.001359 -0.001353 0.000438 -0.022324 -0.000723 0.033732
#
#
# Mechanical properties :
#
#
# Convention : Reuss Voigt Hill
#
# Bulk Modulus (GPa) = 63.64606 73.28792 68.46699
# Shear Modulus (GPa) = 25.06530 40.53940 32.80235
#
# Velocity S-wave (km/s) = 3.15196 4.00851 3.60576
# Velocity P-wave (km/s) = 6.20268 7.10441 6.66880
#
# Compressibility (1/GPa) = 0.01571189
#
# Stress axis : x y z
#
# Youngs Moduli (GPa) = 61.77033 88.90310 90.86880
#
# Poissons Ratio (x) = 0.48220 0.55090
# Poissons Ratio (y) = 0.33503 -0.01102
# Poissons Ratio (z) = 0.37449 -0.01079
#
# Static dielectric constant tensor:
#      x y z
#    x 1.969500 -0.002080 -0.026850 
#    y -0.002080 1.983600 0.004450 
#    z -0.026850 0.004450 1.980830 
# 
# From -- ./inp_files/205107.got.cif
#   From: 2010.05.17/outbox.cif.g08.bks.cpg/sg2_103_cif.got.tgz:205107.got - 2010.06.03 11:33:40.
