data_PCOD9087699
_publ_section_title
;
Structure prediction by ZEFSAII (Michael W. Deem and Ramdas Pophale) SiO2 
 PCOD9087699
Probable space group: P -1
;
_chemical_formula_sum "Si O2"
_cell_formula_units_Z 16
_cell_length_a 8.014979
_cell_length_b 10.724175
_cell_length_c 13.843132
_cell_angle_alpha 134.763978
_cell_angle_beta 54.638186
_cell_angle_gamma 123.917256
_cell_volume 665.302104
_symmetry_space_group_name_H-M "P -1"
_symmetry_group_IT_number 2
_symmetry_cell_setting 'triclinic'
loop_
_space_group_symop_operation_xyz
x,y,z
-x,-y,-z
loop_
_atom_site_type_symbol
_atom_site_label
_atom_site_fract_x
_atom_site_fract_y
_atom_site_fract_z
Si Si1 0.047920 0.433224 0.799249
Si Si2 0.760425 0.244642 0.433619
Si Si3 0.221536 0.834989 0.975904
Si Si4 0.439340 0.687507 0.133845
Si Si5 0.219702 0.989310 0.872646
Si Si6 0.351323 0.240911 0.205321
Si Si7 0.862998 0.612944 0.479387
Si Si8 0.538751 0.634191 0.285242
O O1 0.801882 0.323041 0.821108
O O2 0.045552 0.644121 0.936741
O O3 0.132669 0.408992 0.648946
O O4 0.223472 0.384054 0.784297
O O5 0.834962 0.417198 0.431616
O O6 0.525409 0.240863 0.542761
O O7 0.912665 0.270918 0.489591
O O8 0.787878 0.082001 0.270947
O O9 0.429282 0.790942 0.923048
O O10 0.283954 0.855422 0.853060
O O11 0.206189 0.032506 0.125396
O O12 0.604228 0.825078 0.087173
O O13 0.490864 0.719123 0.247323
O O14 0.500000 0.500000 0.000000
O O15 0.000000 0.000000 0.000000
O O16 0.307712 0.299079 0.361151
O O17 0.366338 0.433756 0.249132
#
# Coordination Sequence:
#
# PCOD9087699 Si02
#       8
#     2   2   2   2   2   2   2   2
#     4  11  23  43  73 102 136 181 227 282 343 411
#     4  10  21  38  70  98 139 175 227 286 329 410
#     4  10  20  38  64 100 138 169 240 277 340 391
#     4  12  27  46  70  98 141 179 225 284 345 415
#     4  12  25  42  69  98 132 182 230 282 344 401
#     4   9  20  35  65 102 139 183 222 291 324 411
#     4  10  19  36  66 102 135 176 230 273 346 395
#     4  10  23  44  68 102 142 181 229 273 353 407
#
# _framework density 24.049226000000001
#
# number of rings (size 3 to 8) (size 9 to 14) (size 15 to 20)
#    0.000    1.500    2.500    2.250    1.750    2.500 
#    0.000    4.375    0.000    0.000    0.000    0.000 
#    0.000    0.000    0.000    0.000    0.000    0.000 
#
# Total GULP energy -89177.543400 kJ/mol
# GULP energy per Si atom -5573.596462 kJ/mol
# Density = 2.399449 g / cm^3
# Si number density = 24.049226 Si / 1000 Ang^3
#
#
#
# Elastic Constant Matrix: (Units=GPa)
#
#
# Indices 1 2 3 4 5 6 
#
# 1 97.2261 46.1341 37.4833 -6.0206 -9.8415 19.4371
# 2 46.1341 101.3527 44.7783 -12.7625 -11.6769 24.9884
# 3 37.4833 44.7783 120.4966 -2.8083 6.8825 17.4188
# 4 -6.0206 -12.7625 -2.8083 29.8597 2.6645 1.4526
# 5 -9.8415 -11.6769 6.8825 2.6645 36.0151 -4.1635
# 6 19.4371 24.9884 17.4188 1.4526 -4.1635 19.2586
#
#
#
# Elastic Compliance Matrix: (Units=1/GPa)
#
#
# Indices 1 2 3 4 5 6 
#
# 1 0.014647 -0.003157 -0.002291 0.001579 0.002349 -0.008224
# 2 -0.003157 0.018415 -0.003325 0.007495 0.003156 -0.017583
# 3 -0.002291 -0.003325 0.011116 -0.000242 -0.004312 -0.004341
# 4 0.001579 0.007495 -0.000242 0.037822 -0.001542 -0.014286
# 5 0.002349 0.003156 -0.004312 -0.001542 0.030857 0.004222
# 6 -0.008224 -0.017583 -0.004341 -0.014286 0.004222 0.088957
#
#
# Mechanical properties :
#
#
# Convention : Reuss Voigt Hill
#
# Bulk Modulus (GPa) = 37.55166 63.98521 50.76843
# Shear Modulus (GPa) = 21.90703 29.73867 25.82285
#
# Velocity S-wave (km/s) = 3.02143 3.52031 3.28037
# Velocity P-wave (km/s) = 5.27451 6.57169 5.95851
#
# Compressibility (1/GPa) = 0.02662998
#
# Stress axis : x y z
#
# Youngs Moduli (GPa) = 68.27527 54.30269 89.96407
#
# Poissons Ratio (x) = 0.17146 0.20613
# Poissons Ratio (y) = 0.21558 0.29913
# Poissons Ratio (z) = 0.15644 0.18055
#
# Static dielectric constant tensor:
#      x y z
#    x 2.537090 0.115640 0.170340 
#    y 0.115640 1.981600 0.032490 
#    z 0.170340 0.032490 2.032090 
# 
# From -- ./inp_files/500947.got.cif
#   From: 2010.05.17/outbox.cif.g08.bks.cpg/sg2_251_cif.got.tgz:500947.got - 2010.06.03 11:33:40.
