data_PCOD9087259
_publ_section_title
;
Structure prediction by ZEFSAII (Michael W. Deem and Ramdas Pophale) SiO2 
 PCOD9087259
Probable space group: P -1
;
_chemical_formula_sum "Si O2"
_cell_formula_units_Z 14
_cell_length_a 10.770298
_cell_length_b 10.710196
_cell_length_c 9.877857
_cell_angle_alpha 61.795198
_cell_angle_beta 106.525728
_cell_angle_gamma 140.138230
_cell_volume 637.370595
_symmetry_space_group_name_H-M "P -1"
_symmetry_group_IT_number 2
_symmetry_cell_setting 'triclinic'
loop_
_space_group_symop_operation_xyz
x,y,z
-x,-y,-z
loop_
_atom_site_type_symbol
_atom_site_label
_atom_site_fract_x
_atom_site_fract_y
_atom_site_fract_z
Si Si1 0.007539 0.668899 0.074829
Si Si2 0.968980 0.639243 0.392860
Si Si3 0.243983 0.586880 0.128974
Si Si4 0.696084 0.867497 0.757938
Si Si5 0.411375 0.531928 0.636833
Si Si6 0.325660 0.152206 0.915684
Si Si7 0.822566 0.775585 0.628313
O O1 0.155364 0.656126 0.127609
O O2 0.945037 0.644644 0.221327
O O3 0.834462 0.488636 0.011077
O O4 0.136045 0.907249 0.942378
O O5 0.770514 0.537360 0.449252
O O6 0.000000 0.500000 0.500000
O O7 0.161032 0.886861 0.363539
O O8 0.477332 0.765091 0.113458
O O9 0.161779 0.378945 0.281854
O O10 0.493952 0.698706 0.699234
O O11 0.796582 0.808819 0.758105
O O12 0.670540 0.839943 0.923744
O O13 0.333989 0.318547 0.778440
O O14 0.616462 0.662431 0.558880
O O15 0.000000 0.000000 0.500000
#
# Coordination Sequence:
#
# PCOD9087259 Si02
#       7
#     2   2   2   2   2   2   2
#     4  10  23  36  59  89 120 157 193 241 296 351
#     4  11  24  39  59  89 122 157 201 242 293 356
#     4  10  21  39  61  85 123 157 189 244 297 350
#     4   9  21  36  62  87 117 150 197 250 289 345
#     4   9  21  36  62  86 115 155 195 245 296 342
#     4  10  19  36  62  92 113 147 202 247 290 347
#     4   9  21  39  61  87 117 157 198 241 293 353
#
# _framework density 21.965243999999998
#
# number of rings (size 3 to 8) (size 9 to 14) (size 15 to 20)
#    0.857    1.429    0.000    1.714    6.000    1.714 
#    0.000    7.857    0.000    0.000    0.000    0.000 
#    0.000    0.000    0.000    0.000    0.000    0.000 
#
# Total GULP energy -78191.466815 kJ/mol
# GULP energy per Si atom -5585.104773 kJ/mol
# Density = 2.191525 g / cm^3
# Si number density = 21.965244 Si / 1000 Ang^3
#
#
#
# Elastic Constant Matrix: (Units=GPa)
#
#
# Indices 1 2 3 4 5 6 
#
# 1 94.1723 31.9112 32.6281 -13.2426 18.8617 18.6060
# 2 31.9112 80.0639 21.5301 -23.7287 9.3846 0.2616
# 3 32.6281 21.5301 54.1334 -24.2794 5.1406 13.9000
# 4 -13.2426 -23.7287 -24.2794 34.4638 -8.2981 -7.1865
# 5 18.8617 9.3846 5.1406 -8.2981 29.8156 4.3983
# 6 18.6060 0.2616 13.9000 -7.1865 4.3983 31.7648
#
#
#
# Elastic Compliance Matrix: (Units=1/GPa)
#
#
# Indices 1 2 3 4 5 6 
#
# 1 0.017799 -0.005674 -0.009011 -0.006963 -0.008857 -0.006785
# 2 -0.005674 0.018148 -0.000171 0.011464 0.000241 0.005809
# 3 -0.009011 -0.000171 0.034225 0.020878 0.006531 -0.005878
# 4 -0.006963 0.011464 0.020878 0.052705 0.011093 0.005236
# 5 -0.008857 0.000241 0.006531 0.011093 0.041155 -0.000861
# 6 -0.006785 0.005809 -0.005878 0.005236 -0.000861 0.039284
#
#
# Mechanical properties :
#
#
# Convention : Reuss Voigt Hill
#
# Bulk Modulus (GPa) = 24.71575 44.50092 34.60833
# Shear Modulus (GPa) = 20.28276 28.69551 24.48913
#
# Velocity S-wave (km/s) = 3.04205 3.61834 3.34264
# Velocity P-wave (km/s) = 4.85957 6.14493 5.53966
#
# Compressibility (1/GPa) = 0.04046003
#
# Stress axis : x y z
#
# Youngs Moduli (GPa) = 56.18260 55.10282 29.21820
#
# Poissons Ratio (x) = 0.31267 0.26329
# Poissons Ratio (y) = 0.31880 0.00498
# Poissons Ratio (z) = 0.50627 0.00940
#
# Static dielectric constant tensor:
#      x y z
#    x 1.797240 -0.006890 -0.040930 
#    y -0.006890 1.841020 0.039540 
#    z -0.040930 0.039540 1.783520 
# 
# From -- ./inp_files/423050.got.cif
#   From: 2010.05.17/outbox.cif.g08.bks.cpg/sg2_212_cif.got.tgz:423050.got - 2010.06.03 11:33:40.
