data_PCOD9087994
_publ_section_title
;
Structure prediction by ZEFSAII (Michael W. Deem and Ramdas Pophale) SiO2 
 PCOD9087994
Probable space group: P -1
;
_chemical_formula_sum "Si O2"
_cell_formula_units_Z 16
_cell_length_a 8.530413
_cell_length_b 8.199490
_cell_length_c 10.027744
_cell_angle_alpha 120.448232
_cell_angle_beta 79.875540
_cell_angle_gamma 101.733256
_cell_volume 589.823732
_symmetry_space_group_name_H-M "P -1"
_symmetry_group_IT_number 2
_symmetry_cell_setting 'triclinic'
loop_
_space_group_symop_operation_xyz
x,y,z
-x,-y,-z
loop_
_atom_site_type_symbol
_atom_site_label
_atom_site_fract_x
_atom_site_fract_y
_atom_site_fract_z
Si Si1 0.772951 0.330238 0.186421
Si Si2 0.108271 0.324227 0.382126
Si Si3 0.278095 0.347365 0.085628
Si Si4 0.893139 0.919052 0.234071
Si Si5 0.422272 0.854284 0.066155
Si Si6 0.055631 0.591869 0.169097
Si Si7 0.391033 0.364754 0.564604
Si Si8 0.406148 0.918642 0.646973
O O1 0.951821 0.437268 0.217316
O O2 0.665575 0.502247 0.257444
O O3 0.697617 0.208089 0.272807
O O4 0.748691 0.209842 0.004067
O O5 0.231790 0.337171 0.243742
O O6 0.226201 0.303209 0.481876
O O7 0.000000 0.500000 0.500000
O O8 0.995973 0.125034 0.291222
O O9 0.238611 0.559170 0.143598
O O10 0.164808 0.193376 0.942795
O O11 0.454250 0.300200 0.012501
O O12 0.992666 0.792575 0.260345
O O13 0.724079 0.957928 0.338588
O O14 0.446545 0.965909 0.246226
O O15 0.500000 0.000000 0.000000
O O16 0.000000 0.500000 0.000000
O O17 0.500000 0.500000 0.500000
O O18 0.512739 0.216287 0.519191
#
# Coordination Sequence:
#
# PCOD9087994 Si02
#       8
#     2   2   2   2   2   2   2   2
#     4  10  19  37  58  81 114 151 185 231 286 337
#     4  12  22  35  60  88 112 147 190 238 292 340
#     4  10  20  38  59  84 114 149 188 237 288 334
#     4  10  22  38  56  82 115 150 192 236 278 338
#     4   9  18  32  58  87 109 140 188 237 281 330
#     4  10  22  38  56  81 117 157 193 232 278 336
#     4  10  20  35  57  86 113 140 181 234 287 339
#     4   9  18  35  58  85 112 142 186 241 284 330
#
# _framework density 27.126750999999999
#
# number of rings (size 3 to 8) (size 9 to 14) (size 15 to 20)
#    0.000    2.000    0.000    5.625    0.000    7.000 
#    0.000   10.000    0.000    0.000    0.000    0.000 
#    0.000    0.000    0.000    0.000    0.000    0.000 
#
# Total GULP energy -89401.885859 kJ/mol
# GULP energy per Si atom -5587.617866 kJ/mol
# Density = 2.706501 g / cm^3
# Si number density = 27.126751 Si / 1000 Ang^3
#
#
#
# Elastic Constant Matrix: (Units=GPa)
#
#
# Indices 1 2 3 4 5 6 
#
# 1 110.3164 33.2838 27.4562 17.7283 -7.6420 -19.3181
# 2 33.2838 98.6313 16.6344 16.3845 -15.5269 -11.1839
# 3 27.4562 16.6344 69.1161 4.8444 -0.2931 3.6125
# 4 17.7283 16.3845 4.8444 38.1342 -6.2964 -19.1696
# 5 -7.6420 -15.5269 -0.2931 -6.2964 52.0964 7.4234
# 6 -19.3181 -11.1839 3.6125 -19.1696 7.4234 53.4161
#
#
#
# Elastic Compliance Matrix: (Units=1/GPa)
#
#
# Indices 1 2 3 4 5 6 
#
# 1 0.011770 -0.002516 -0.004078 -0.002242 0.000231 0.003169
# 2 -0.002516 0.012304 -0.001726 -0.003329 0.002859 0.000191
# 3 -0.004078 -0.001726 0.016765 -0.001283 -0.000698 -0.003333
# 4 -0.002242 -0.003329 -0.001283 0.034491 0.001305 0.010776
# 5 0.000231 0.002859 -0.000698 0.001305 0.020470 -0.001647
# 6 0.003169 0.000191 -0.003333 0.010776 -0.001647 0.024228
#
#
# Mechanical properties :
#
#
# Convention : Reuss Voigt Hill
#
# Bulk Modulus (GPa) = 41.32415 48.09030 44.70723
# Shear Modulus (GPa) = 34.54625 42.10861 38.32743
#
# Velocity S-wave (km/s) = 3.57250 3.94419 3.76294
# Velocity P-wave (km/s) = 5.68189 6.20553 5.94947
#
# Compressibility (1/GPa) = 0.02419892
#
# Stress axis : x y z
#
# Youngs Moduli (GPa) = 84.96167 81.27645 59.64849
#
# Poissons Ratio (x) = 0.20450 0.24322
# Poissons Ratio (y) = 0.21377 0.10296
# Poissons Ratio (z) = 0.34644 0.14029
#
# Static dielectric constant tensor:
#      x y z
#    x 2.172650 0.024920 0.000680 
#    y 0.024920 2.337330 -0.007120 
#    z 0.000680 -0.007120 2.079440 
# 
# From -- ./inp_files/383247.got.cif
#   From: 2010.05.17/outbox.cif.g08.bks.cpg/sg2_192_cif.got.tgz:383247.got - 2010.06.03 11:33:40.
