data_PCOD9087237
_publ_section_title
;
Structure prediction by ZEFSAII (Michael W. Deem and Ramdas Pophale) SiO2 
 PCOD9087237
Probable space group: P -1
;
_chemical_formula_sum "Si O2"
_cell_formula_units_Z 16
_cell_length_a 20.829464
_cell_length_b 5.099247
_cell_length_c 12.204263
_cell_angle_alpha 96.712655
_cell_angle_beta 147.019976
_cell_angle_gamma 100.091868
_cell_volume 604.654141
_symmetry_space_group_name_H-M "P -1"
_symmetry_group_IT_number 2
_symmetry_cell_setting 'triclinic'
loop_
_space_group_symop_operation_xyz
x,y,z
-x,-y,-z
loop_
_atom_site_type_symbol
_atom_site_label
_atom_site_fract_x
_atom_site_fract_y
_atom_site_fract_z
Si Si1 0.452173 0.489792 0.235946
Si Si2 0.223332 0.316689 0.660352
Si Si3 0.061952 0.645239 0.374459
Si Si4 0.906960 0.634874 0.329605
Si Si5 0.324392 0.880648 0.469199
Si Si6 0.617270 0.348196 0.650689
Si Si7 0.562150 0.292877 0.183870
Si Si8 0.929829 0.153889 0.845405
O O1 0.552822 0.465092 0.469630
O O2 0.340337 0.449666 0.167108
O O3 0.460733 0.319403 0.129199
O O4 0.523874 0.836989 0.313927
O O5 0.114696 0.403689 0.450826
O O6 0.351033 0.439883 0.767212
O O7 0.226848 0.465412 0.792911
O O8 0.176205 0.968225 0.606550
O O9 0.915022 0.546212 0.212487
O O10 0.061437 0.796638 0.267242
O O11 0.000000 0.500000 0.500000
O O12 0.000000 0.000000 0.500000
O O13 0.279778 0.692238 0.283261
O O14 0.327388 0.715510 0.575810
O O15 0.227742 0.018308 0.355707
O O16 0.500000 0.000000 0.500000
O O17 0.500000 0.000000 0.000000
O O18 0.000000 0.500000 0.000000
O O19 0.000000 0.000000 0.000000
#
# Coordination Sequence:
#
# PCOD9087237 Si02
#       8
#     2   2   2   2   2   2   2   2
#     4   9  18  35  63  89 123 166 214 263 328 387
#     4  10  19  36  62  90 120 167 210 257 320 384
#     4  10  19  38  62  86 122 163 209 265 321 378
#     4   8  16  30  58  86 108 154 207 247 304 374
#     4  10  21  39  63  90 129 170 213 271 327 386
#     4   8  16  33  63  91 114 165 215 263 323 386
#     4  11  23  36  60  94 133 170 214 265 328 401
#     4  12  26  39  63  97 132 168 218 268 331 394
#
# _framework density 26.461404999999999
#
# number of rings (size 3 to 8) (size 9 to 14) (size 15 to 20)
#    0.000    2.250    1.250    1.500    3.500    0.500 
#    0.000    0.000   16.500    3.000    0.000    0.000 
#    0.000    0.000    0.000    0.000    0.000    0.000 
#
# Total GULP energy -89096.786656 kJ/mol
# GULP energy per Si atom -5568.549166 kJ/mol
# Density = 2.640118 g / cm^3
# Si number density = 26.461405 Si / 1000 Ang^3
#
#
#
# Elastic Constant Matrix: (Units=GPa)
#
#
# Indices 1 2 3 4 5 6 
#
# 1 222.8173 13.6978 52.3460 -13.4081 -33.1873 -9.8237
# 2 13.6978 124.6673 8.2534 -2.3129 -5.4456 -9.1676
# 3 52.3460 8.2534 61.7231 -9.9566 -14.9942 -9.2034
# 4 -13.4081 -2.3129 -9.9566 30.0462 -0.4681 -5.5100
# 5 -33.1873 -5.4456 -14.9942 -0.4681 49.7796 -0.5881
# 6 -9.8237 -9.1676 -9.2034 -5.5100 -0.5881 45.7077
#
#
#
# Elastic Compliance Matrix: (Units=1/GPa)
#
#
# Indices 1 2 3 4 5 6 
#
# 1 0.005978 -0.000194 -0.004036 0.001477 0.002770 0.000647
# 2 -0.000194 0.008232 -0.000416 0.000717 0.000672 0.001621
# 3 -0.004036 -0.000416 0.022374 0.006449 0.004115 0.004385
# 4 0.001477 0.000717 0.006449 0.037343 0.003431 0.006306
# 5 0.002770 0.000672 0.004115 0.003431 0.023308 0.002272
# 6 0.000647 0.001621 0.004385 0.006306 0.002272 0.024014
#
#
# Mechanical properties :
#
#
# Convention : Reuss Voigt Hill
#
# Bulk Modulus (GPa) = 36.64043 61.97801 49.30922
# Shear Modulus (GPa) = 35.80670 47.43408 41.62039
#
# Velocity S-wave (km/s) = 3.68253 4.23848 3.97025
# Velocity P-wave (km/s) = 5.65316 6.88664 6.30016
#
# Compressibility (1/GPa) = 0.02729226
#
# Stress axis : x y z
#
# Youngs Moduli (GPa) = 167.27629 121.47698 44.69486
#
# Poissons Ratio (x) = 0.02352 0.18040
# Poissons Ratio (y) = 0.03239 0.01859
# Poissons Ratio (z) = 0.67519 0.05052
#
# Static dielectric constant tensor:
#      x y z
#    x 1.699020 0.165250 0.541160 
#    y 0.165250 2.048810 -0.145680 
#    z 0.541160 -0.145680 1.791890 
# 
# From -- ./inp_files/468151.got.cif
#   From: 2010.05.17/outbox.cif.g08.bks.cpg/sg2_235_cif.got.tgz:468151.got - 2010.06.03 11:33:40.
