data_PCOD9087529
_publ_section_title
;
Structure prediction by ZEFSAII (Michael W. Deem and Ramdas Pophale) SiO2 
 PCOD9087529
Probable space group: P -1
;
_chemical_formula_sum "Si O2"
_cell_formula_units_Z 16
_cell_length_a 28.530254
_cell_length_b 22.799977
_cell_length_c 8.623490
_cell_angle_alpha 46.514906
_cell_angle_beta 133.484546
_cell_angle_gamma 169.113376
_cell_volume 765.539617
_symmetry_space_group_name_H-M "P -1"
_symmetry_group_IT_number 2
_symmetry_cell_setting 'triclinic'
loop_
_space_group_symop_operation_xyz
x,y,z
-x,-y,-z
loop_
_atom_site_type_symbol
_atom_site_label
_atom_site_fract_x
_atom_site_fract_y
_atom_site_fract_z
Si Si1 0.632685 0.243389 0.905684
Si Si2 0.876645 0.628515 0.006498
Si Si3 0.410421 0.628713 0.950641
Si Si4 0.290341 0.314639 0.393936
Si Si5 0.917638 0.287670 0.064354
Si Si6 0.673620 0.919470 0.715456
Si Si7 0.745086 0.622211 0.499866
Si Si8 0.879446 0.296694 0.310427
O O1 0.711797 0.355915 0.057610
O O2 0.890771 0.550825 0.841911
O O3 0.417325 0.045606 0.736935
O O4 0.500000 0.000000 0.000000
O O5 0.801631 0.566627 0.119119
O O6 0.803707 0.614253 0.752921
O O7 0.167472 0.959731 0.062609
O O8 0.335397 0.445987 0.146169
O O9 0.643820 0.930538 0.044836
O O10 0.503568 0.753126 0.762925
O O11 0.500000 0.500000 0.500000
O O12 0.301670 0.362436 0.510319
O O13 0.998540 0.938056 0.402459
O O14 0.944359 0.340488 0.209611
O O15 0.984997 0.452818 0.825848
O O16 0.496320 0.677419 0.612975
O O17 0.894197 0.246037 0.565025
#
# Coordination Sequence:
#
# PCOD9087529 Si02
#       8
#     2   2   2   2   2   2   2   2
#     4  10  19  36  64  89 121 169 213 256 306 358
#     4  11  22  43  62  93 133 164 210 262 307 371
#     4  11  23  39  61  92 129 163 205 262 312 371
#     4  10  22  42  70  94 120 165 209 255 319 377
#     4  10  20  38  65  86 125 171 205 256 316 359
#     4  12  24  40  65  96 127 167 207 257 313 370
#     4  10  23  44  66  92 128 162 207 260 311 375
#     4  10  21  38  61  93 123 165 216 254 301 374
#
# _framework density 20.900292
#
# number of rings (size 3 to 8) (size 9 to 14) (size 15 to 20)
#    0.000    1.500    3.750    1.500    0.000    3.000 
#    0.000    9.375    0.000    0.000    0.000    0.000 
#    0.000    0.000    0.000    0.000    0.000    0.000 
#
# Total GULP energy -89223.466623 kJ/mol
# GULP energy per Si atom -5576.466664 kJ/mol
# Density = 2.085272 g / cm^3
# Si number density = 20.900292 Si / 1000 Ang^3
#
#
#
# Elastic Constant Matrix: (Units=GPa)
#
#
# Indices 1 2 3 4 5 6 
#
# 1 102.1634 15.0168 19.5213 0.7068 3.6662 16.9222
# 2 15.0168 77.4345 22.9564 -3.8185 11.7696 1.2880
# 3 19.5213 22.9564 51.7727 -8.2527 -5.7149 -7.2029
# 4 0.7068 -3.8185 -8.2527 40.1038 6.2227 -2.5494
# 5 3.6662 11.7696 -5.7149 6.2227 18.4187 -1.4967
# 6 16.9222 1.2880 -7.2029 -2.5494 -1.4967 32.3671
#
#
#
# Elastic Compliance Matrix: (Units=1/GPa)
#
#
# Indices 1 2 3 4 5 6 
#
# 1 0.012659 0.000480 -0.006964 -0.001342 -0.005228 -0.008535
# 2 0.000480 0.018512 -0.010413 0.001862 -0.016102 -0.003903
# 3 -0.006964 -0.010413 0.030699 0.003517 0.017350 0.011967
# 4 -0.001342 0.001862 0.003517 0.027433 -0.008842 0.003162
# 5 -0.005228 -0.016102 0.017350 -0.008842 0.074805 0.009998
# 6 -0.008535 -0.003903 0.011967 0.003162 0.009998 0.038888
#
#
# Mechanical properties :
#
#
# Convention : Reuss Voigt Hill
#
# Bulk Modulus (GPa) = 35.61837 38.48442 37.05140
# Shear Modulus (GPa) = 20.31281 29.76965 25.04123
#
# Velocity S-wave (km/s) = 3.12090 3.77817 3.46515
# Velocity P-wave (km/s) = 5.48322 6.12259 5.81170
#
# Compressibility (1/GPa) = 0.02807540
#
# Stress axis : x y z
#
# Youngs Moduli (GPa) = 78.99513 54.01809 32.57418
#
# Poissons Ratio (x) = -0.02593 0.22686
# Poissons Ratio (y) = -0.03793 0.33920
# Poissons Ratio (z) = 0.55016 0.56250
#
# Static dielectric constant tensor:
#      x y z
#    x 1.800600 0.003770 0.035150 
#    y 0.003770 1.754780 -0.022410 
#    z 0.035150 -0.022410 1.811390 
# 
# From -- ./inp_files/359027.got.cif
#   From: 2010.05.17/outbox.cif.g08.bks.cpg/sg2_180_cif.got.tgz:359027.got - 2010.06.03 11:33:40.
