data_PCOD9087649
_publ_section_title
;
Structure prediction by ZEFSAII (Michael W. Deem and Ramdas Pophale) SiO2 
 PCOD9087649
Probable space group: P -1
;
_chemical_formula_sum "Si O2"
_cell_formula_units_Z 16
_cell_length_a 11.481957
_cell_length_b 14.181606
_cell_length_c 8.383197
_cell_angle_alpha 108.818250
_cell_angle_beta 115.843356
_cell_angle_gamma 29.048148
_cell_volume 591.137656
_symmetry_space_group_name_H-M "P -1"
_symmetry_group_IT_number 2
_symmetry_cell_setting 'triclinic'
loop_
_space_group_symop_operation_xyz
x,y,z
-x,-y,-z
loop_
_atom_site_type_symbol
_atom_site_label
_atom_site_fract_x
_atom_site_fract_y
_atom_site_fract_z
Si Si1 0.985566 0.697609 0.342623
Si Si2 0.410546 0.916521 0.875305
Si Si3 0.359475 0.556929 0.284538
Si Si4 0.601296 0.171307 0.669069
Si Si5 0.726107 0.425182 0.232466
Si Si6 0.206283 0.360554 0.286877
Si Si7 0.031508 0.006397 0.707125
Si Si8 0.209223 0.132872 0.195432
O O1 0.194151 0.573849 0.256513
O O2 0.097632 0.665729 0.557176
O O3 0.965581 0.592057 0.291097
O O4 0.748739 0.922180 0.272987
O O5 0.306181 0.873599 0.821477
O O6 0.696804 0.720933 0.879169
O O7 0.334100 0.032229 0.043948
O O8 0.500000 0.500000 0.500000
O O9 0.562926 0.437464 0.199307
O O10 0.150734 0.779669 0.253305
O O11 0.458108 0.356150 0.775936
O O12 0.435112 0.267953 0.462752
O O13 0.892009 0.013024 0.725197
O O14 0.621145 0.050801 0.694106
O O15 0.917908 0.288703 0.125728
O O16 0.187024 0.263619 0.294818
O O17 0.000000 0.000000 0.500000
#
# Coordination Sequence:
#
# PCOD9087649 Si02
#       8
#     2   2   2   2   2   2   2   2
#     4   9  20  38  64  89 109 155 210 250 289 341
#     4  11  24  40  60  92 122 154 201 249 305 358
#     4   8  16  31  57  91 109 138 193 252 294 334
#     4  10  22  40  64  91 116 155 206 250 293 348
#     4   9  20  38  60  87 120 152 201 249 296 353
#     4  11  23  41  63  86 115 166 215 240 281 353
#     4  10  19  36  65  89 111 148 202 250 294 350
#     4  12  26  38  57  89 130 166 188 241 311 357
#
# _framework density 27.066454
#
# number of rings (size 3 to 8) (size 9 to 14) (size 15 to 20)
#    0.000    2.000    1.250    2.250    3.500    5.000 
#    0.000    5.625    0.000    0.000    0.000    0.000 
#    0.000    0.000    0.000    0.000    0.000    0.000 
#
# Total GULP energy -89541.362689 kJ/mol
# GULP energy per Si atom -5596.335168 kJ/mol
# Density = 2.700485 g / cm^3
# Si number density = 27.066454 Si / 1000 Ang^3
#
#
#
# Elastic Constant Matrix: (Units=GPa)
#
#
# Indices 1 2 3 4 5 6 
#
# 1 111.6823 34.7236 18.2713 6.3616 5.1024 17.9712
# 2 34.7236 113.4419 27.7054 20.8390 -7.8687 5.7811
# 3 18.2713 27.7054 63.2829 17.4158 7.5913 5.2869
# 4 6.3616 20.8390 17.4158 34.0401 -6.9196 -1.4750
# 5 5.1024 -7.8687 7.5913 -6.9196 27.9432 8.3701
# 6 17.9712 5.7811 5.2869 -1.4750 8.3701 60.4313
#
#
#
# Elastic Compliance Matrix: (Units=1/GPa)
#
#
# Indices 1 2 3 4 5 6 
#
# 1 0.010553 -0.002883 -0.001407 0.000082 -0.001582 -0.002518
# 2 -0.002883 0.011604 -0.003588 -0.003948 0.003966 -0.000585
# 3 -0.001407 -0.003588 0.021816 -0.010591 -0.009266 -0.000122
# 4 0.000082 -0.003948 -0.010591 0.039531 0.011337 0.000674
# 5 -0.001582 0.003966 -0.009266 0.011337 0.043990 -0.004914
# 6 -0.002518 -0.000585 -0.000122 0.000674 -0.004914 0.018060
#
#
# Mechanical properties :
#
#
# Convention : Reuss Voigt Hill
#
# Bulk Modulus (GPa) = 35.44071 49.97863 42.70967
# Shear Modulus (GPa) = 29.28826 38.33003 33.80915
#
# Velocity S-wave (km/s) = 3.29308 3.76725 3.53812
# Velocity P-wave (km/s) = 5.25181 6.11786 5.70130
#
# Compressibility (1/GPa) = 0.02821614
#
# Stress axis : x y z
#
# Youngs Moduli (GPa) = 94.75588 86.17640 45.83865
#
# Poissons Ratio (x) = 0.24845 0.06450
# Poissons Ratio (y) = 0.27319 0.16448
# Poissons Ratio (z) = 0.13334 0.30922
#
# Static dielectric constant tensor:
#      x y z
#    x 2.226880 -0.019220 0.030870 
#    y -0.019220 2.106430 -0.026290 
#    z 0.030870 -0.026290 2.146880 
# 
# From -- ./inp_files/273813.got.cif
#   From: 2010.05.17/outbox.cif.g08.bks.cpg/sg2_137_cif.got.tgz:273813.got - 2010.06.03 11:33:40.
