data_PCOD9087826
_publ_section_title
;
Structure prediction by ZEFSAII (Michael W. Deem and Ramdas Pophale) SiO2 
 PCOD9087826
Probable space group: P -1
;
_chemical_formula_sum "Si O2"
_cell_formula_units_Z 16
_cell_length_a 15.709074
_cell_length_b 24.581533
_cell_length_c 16.207833
_cell_angle_alpha 28.165325
_cell_angle_beta 26.458126
_cell_angle_gamma 19.322344
_cell_volume 893.534332
_symmetry_space_group_name_H-M "P -1"
_symmetry_group_IT_number 2
_symmetry_cell_setting 'triclinic'
loop_
_space_group_symop_operation_xyz
x,y,z
-x,-y,-z
loop_
_atom_site_type_symbol
_atom_site_label
_atom_site_fract_x
_atom_site_fract_y
_atom_site_fract_z
Si Si1 0.318437 0.565378 0.793097
Si Si2 0.063944 0.742510 0.032359
Si Si3 0.681915 0.711069 0.333893
Si Si4 0.832269 0.611199 0.914360
Si Si5 0.369020 0.490472 0.248967
Si Si6 0.361214 0.411581 0.632291
Si Si7 0.437956 0.864256 0.047020
Si Si8 0.282871 0.073195 0.166118
O O1 0.533001 0.478402 0.798992
O O2 0.458609 0.565021 0.592983
O O3 0.040701 0.762815 0.793720
O O4 0.237193 0.472176 0.965422
O O5 0.136420 0.655117 0.174929
O O6 0.901593 0.715316 0.157499
O O7 0.355429 0.644680 0.866486
O O8 0.863234 0.941817 0.947059
O O9 0.715993 0.594973 0.525752
O O10 0.703858 0.644953 0.312778
O O11 0.373878 0.907509 0.340874
O O12 0.061757 0.581096 0.703904
O O13 0.552327 0.791640 0.952969
O O14 0.000000 0.500000 0.000000
O O15 0.529435 0.263746 0.753097
O O16 0.645308 0.865376 0.908408
O O17 0.500000 0.000000 0.000000
#
# Coordination Sequence:
#
# PCOD9087826 Si02
#       8
#     2   2   2   2   2   2   2   2
#     4  11  21  33  55  79 106 138 174 219 259 318
#     4  10  21  37  53  76 109 140 176 214 256 316
#     4  10  20  33  56  78 106 137 171 217 263 318
#     4  10  19  37  50  76 109 138 174 211 271 306
#     4  10  22  35  54  79 105 142 175 212 262 311
#     4  10  20  32  54  82 104 138 170 216 272 310
#     4  10  20  34  55  76 106 140 173 216 260 313
#     4  11  18  32  53  82 108 135 166 213 271 314
#
# _framework density 17.906419
#
# number of rings (size 3 to 8) (size 9 to 14) (size 15 to 20)
#    0.000    1.750    3.750    2.625    1.750    3.000 
#    0.000    0.625    0.000    3.000    0.000    0.000 
#    0.000    0.000    0.000    0.000    0.000    0.000 
#
# Total GULP energy -89245.927289 kJ/mol
# GULP energy per Si atom -5577.870456 kJ/mol
# Density = 1.786566 g / cm^3
# Si number density = 17.906419 Si / 1000 Ang^3
#
#
#
# Elastic Constant Matrix: (Units=GPa)
#
#
# Indices 1 2 3 4 5 6 
#
# 1 28.7734 10.6698 4.4287 -3.1014 7.5435 -6.3406
# 2 10.6698 62.5121 27.0406 4.6103 10.9108 0.2372
# 3 4.4287 27.0406 76.3026 9.8338 21.2483 2.6903
# 4 -3.1014 4.6103 9.8338 23.4062 -3.6385 6.5233
# 5 7.5435 10.9108 21.2483 -3.6385 22.5872 -1.2981
# 6 -6.3406 0.2372 2.6903 6.5233 -1.2981 26.9973
#
#
#
# Elastic Compliance Matrix: (Units=1/GPa)
#
#
# Indices 1 2 3 4 5 6 
#
# 1 0.042130 -0.006306 0.003015 0.001067 -0.013185 0.008758
# 2 -0.006306 0.020208 -0.005637 -0.002727 -0.002825 -0.000574
# 3 0.003015 -0.005637 0.022183 -0.011128 -0.020932 0.000229
# 4 0.001067 -0.002727 -0.011128 0.054110 0.019528 -0.010752
# 5 -0.013185 -0.002825 -0.020932 0.019528 0.072751 -0.002206
# 6 0.008758 -0.000574 0.000229 -0.010752 -0.002206 0.041572
#
#
# Mechanical properties :
#
#
# Convention : Reuss Voigt Hill
#
# Bulk Modulus (GPa) = 15.00023 27.98513 21.49268
# Shear Modulus (GPa) = 17.06299 22.96140 20.01219
#
# Velocity S-wave (km/s) = 3.09025 3.58481 3.34668
# Velocity P-wave (km/s) = 4.59653 5.72686 5.19254
#
# Compressibility (1/GPa) = 0.06666564
#
# Stress axis : x y z
#
# Youngs Moduli (GPa) = 23.73584 49.48554 45.07858
#
# Poissons Ratio (x) = 0.31204 -0.13590
# Poissons Ratio (y) = 0.14967 0.25411
# Poissons Ratio (z) = -0.07156 0.27896
#
# Static dielectric constant tensor:
#      x y z
#    x 1.620230 0.009190 0.010190 
#    y 0.009190 1.631520 0.013290 
#    z 0.010190 0.013290 1.634090 
# 
# From -- ./inp_files/421393.got.cif
#   From: 2010.05.17/outbox.cif.g08.bks.cpg/sg2_211_cif.got.tgz:421393.got - 2010.06.03 11:33:40.
