data_PCOD9087820
_publ_section_title
;
Structure prediction by ZEFSAII (Michael W. Deem and Ramdas Pophale) SiO2 
 PCOD9087820
Probable space group: P -1
;
_chemical_formula_sum "Si O2"
_cell_formula_units_Z 16
_cell_length_a 18.465266
_cell_length_b 5.388269
_cell_length_c 9.162031
_cell_angle_alpha 85.663532
_cell_angle_beta 74.629350
_cell_angle_gamma 120.822659
_cell_volume 729.808186
_symmetry_space_group_name_H-M "P -1"
_symmetry_group_IT_number 2
_symmetry_cell_setting 'triclinic'
loop_
_space_group_symop_operation_xyz
x,y,z
-x,-y,-z
loop_
_atom_site_type_symbol
_atom_site_label
_atom_site_fract_x
_atom_site_fract_y
_atom_site_fract_z
Si Si1 0.036525 0.211913 0.610048
Si Si2 0.293476 0.447124 0.360011
Si Si3 0.607592 0.250276 0.405605
Si Si4 0.944152 0.077217 0.134485
Si Si5 0.577783 0.708012 0.329845
Si Si6 0.523380 0.303576 0.901127
Si Si7 0.810368 0.227373 0.646438
Si Si8 0.097545 0.744336 0.123150
O O1 0.097027 0.541305 0.498183
O O2 0.951089 0.143394 0.752082
O O3 0.092560 0.147543 0.699613
O O4 0.000000 0.000000 0.500000
O O5 0.342270 0.567996 0.484219
O O6 0.372181 0.524268 0.201437
O O7 0.248641 0.631518 0.345267
O O8 0.228196 0.091944 0.392233
O O9 0.616255 0.504532 0.283388
O O10 0.500000 0.000000 0.500000
O O11 0.641576 0.040580 0.346665
O O12 0.017884 0.401550 0.146838
O O13 0.878443 0.099836 0.055693
O O14 0.000000 0.000000 0.000000
O O15 0.500000 0.500000 0.500000
O O16 0.531898 0.752735 0.214897
O O17 0.500000 0.500000 0.000000
O O18 0.500000 0.000000 0.000000
O O19 0.827257 0.224225 0.811098
#
# Coordination Sequence:
#
# PCOD9087820 Si02
#       8
#     2   2   2   2   2   2   2   2
#     4  11  21  39  68 104 131 179 244 279 314 402
#     4  12  26  43  65 106 134 177 217 287 369 396
#     4  10  19  37  70  91 120 163 225 265 311 413
#     4   9  20  37  68  93 127 173 249 265 316 384
#     4  10  19  36  70  94 119 158 216 276 309 380
#     4  12  25  42  71  99 128 167 229 284 332 417
#     4  12  26  39  69  98 149 171 219 293 352 388
#     4  10  21  40  66  98 132 188 230 266 329 408
#
# _framework density 21.923566999999998
#
# number of rings (size 3 to 8) (size 9 to 14) (size 15 to 20)
#    0.000    1.250    3.750    3.375    7.000    0.000 
#    0.000    0.000   11.000    1.500    0.000    0.000 
#    0.000    0.000    0.000    0.000    0.000    0.000 
#
# Total GULP energy -89316.744296 kJ/mol
# GULP energy per Si atom -5582.296519 kJ/mol
# Density = 2.187367 g / cm^3
# Si number density = 21.923567 Si / 1000 Ang^3
#
#
#
# Elastic Constant Matrix: (Units=GPa)
#
#
# Indices 1 2 3 4 5 6 
#
# 1 92.2471 37.0907 32.8878 2.3024 31.9409 -16.6138
# 2 37.0907 162.8017 59.0983 12.3210 25.9760 -19.3530
# 3 32.8878 59.0983 114.0758 6.2147 40.2934 -3.6614
# 4 2.3024 12.3210 6.2147 34.5886 -9.4638 2.1215
# 5 31.9409 25.9760 40.2934 -9.4638 47.3012 1.4551
# 6 -16.6138 -19.3530 -3.6614 2.1215 1.4551 39.9056
#
#
#
# Elastic Compliance Matrix: (Units=1/GPa)
#
#
# Indices 1 2 3 4 5 6 
#
# 1 0.016741 -0.000757 0.000469 -0.004793 -0.012473 0.007355
# 2 -0.000757 0.008496 -0.003063 -0.003293 -0.002321 0.003784
# 3 0.000469 -0.003063 0.014876 -0.005038 -0.012339 0.000792
# 4 -0.004793 -0.003293 -0.005038 0.036311 0.016804 -0.006598
# 5 -0.012473 -0.002321 -0.012339 0.016804 0.045019 -0.009986
# 6 0.007355 0.003784 0.000792 -0.006598 -0.009986 0.030744
#
#
# Mechanical properties :
#
#
# Convention : Reuss Voigt Hill
#
# Bulk Modulus (GPa) = 29.93012 69.69755 49.81384
# Shear Modulus (GPa) = 29.40750 40.36226 34.88488
#
# Velocity S-wave (km/s) = 3.66644 4.29539 3.99332
# Velocity P-wave (km/s) = 5.62186 7.51403 6.63574
#
# Compressibility (1/GPa) = 0.03341116
#
# Stress axis : x y z
#
# Youngs Moduli (GPa) = 59.73367 117.70311 67.22359
#
# Poissons Ratio (x) = 0.08909 -0.03151
# Poissons Ratio (y) = 0.04521 0.20588
# Poissons Ratio (z) = -0.02800 0.36048
#
# Static dielectric constant tensor:
#      x y z
#    x 1.811730 -0.089450 0.037390 
#    y -0.089450 1.854510 0.037020 
#    z 0.037390 0.037020 1.843040 
# 
# From -- ./inp_files/339718.got.cif
#   From: 2010.05.17/outbox.cif.g08.bks.cpg/sg2_170_cif.got.tgz:339718.got - 2010.06.03 11:33:40.
