data_PCOD9087580
_publ_section_title
;
Structure prediction by ZEFSAII (Michael W. Deem and Ramdas Pophale) SiO2 
 PCOD9087580
Probable space group: P -1
;
_chemical_formula_sum "Si O2"
_cell_formula_units_Z 16
_cell_length_a 8.957698
_cell_length_b 9.476426
_cell_length_c 12.116012
_cell_angle_alpha 56.072190
_cell_angle_beta 127.513866
_cell_angle_gamma 106.607000
_cell_volume 674.618649
_symmetry_space_group_name_H-M "P -1"
_symmetry_group_IT_number 2
_symmetry_cell_setting 'triclinic'
loop_
_space_group_symop_operation_xyz
x,y,z
-x,-y,-z
loop_
_atom_site_type_symbol
_atom_site_label
_atom_site_fract_x
_atom_site_fract_y
_atom_site_fract_z
Si Si1 0.230406 0.845408 0.656635
Si Si2 0.779440 0.581084 0.375629
Si Si3 0.851312 0.510957 0.207023
Si Si4 0.655875 0.744786 0.862134
Si Si5 0.704534 0.977335 0.161920
Si Si6 0.226961 0.692773 0.345195
Si Si7 0.794880 0.037849 0.942992
Si Si8 0.729894 0.990296 0.613364
O O1 0.097788 0.690702 0.672066
O O2 0.431889 0.757005 0.743071
O O3 0.183350 0.986479 0.478902
O O4 0.266402 0.919728 0.759706
O O5 0.718799 0.563994 0.229068
O O6 0.757919 0.780339 0.301141
O O7 0.683443 0.467864 0.473381
O O8 0.000000 0.500000 0.500000
O O9 0.030858 0.622580 0.247548
O O10 0.742438 0.564401 0.023393
O O11 0.686449 0.882312 0.913883
O O12 0.763253 0.816331 0.773960
O O13 0.500000 0.000000 0.000000
O O14 0.823642 0.036825 0.086404
O O15 0.302149 0.787241 0.230116
O O16 0.215883 0.847159 0.361632
O O17 0.000000 0.000000 0.000000
O O18 0.500000 0.000000 0.500000
#
# Coordination Sequence:
#
# PCOD9087580 Si02
#       8
#     2   2   2   2   2   2   2   2
#     4  11  22  38  60  97 138 161 212 292 343 374
#     4  10  20  39  65  92 130 176 225 260 323 415
#     4  11  19  36  63  98 122 173 227 269 318 402
#     4  10  19  36  64  93 126 173 230 262 322 405
#     4  12  24  43  67 102 136 172 220 289 346 384
#     4  10  20  36  63  88 124 171 233 260 312 400
#     4  11  19  38  68  93 121 177 230 259 319 413
#     4   9  20  35  58  92 129 171 219 268 330 404
#
# _framework density 23.717101
#
# number of rings (size 3 to 8) (size 9 to 14) (size 15 to 20)
#    0.000    1.500    5.000    1.125    0.000    0.000 
#    0.000    5.000    0.000    0.000    0.000    0.000 
#    0.000    0.000    0.000    0.000    0.000    0.000 
#
# Total GULP energy -89291.452489 kJ/mol
# GULP energy per Si atom -5580.715781 kJ/mol
# Density = 2.366312 g / cm^3
# Si number density = 23.717101 Si / 1000 Ang^3
#
#
#
# Elastic Constant Matrix: (Units=GPa)
#
#
# Indices 1 2 3 4 5 6 
#
# 1 57.7611 31.3840 35.3392 -3.7518 -16.3712 5.5888
# 2 31.3840 111.6362 27.3857 0.1407 -16.1773 11.6893
# 3 35.3392 27.3857 147.3569 -21.4316 -47.4865 1.5569
# 4 -3.7518 0.1407 -21.4316 39.9053 8.7819 -6.5358
# 5 -16.3712 -16.1773 -47.4865 8.7819 60.6643 8.5267
# 6 5.5888 11.6893 1.5569 -6.5358 8.5267 19.5084
#
#
#
# Elastic Compliance Matrix: (Units=1/GPa)
#
#
# Indices 1 2 3 4 5 6 
#
# 1 0.023543 -0.004641 -0.003979 -0.001452 0.002975 -0.005433
# 2 -0.004641 0.011612 -0.000366 -0.002619 0.003034 -0.007803
# 3 -0.003979 -0.000366 0.010503 0.003597 0.006698 -0.001202
# 4 -0.001452 -0.002619 0.003597 0.030130 -0.004575 0.013792
# 5 0.002975 0.003034 0.006698 -0.004575 0.026282 -0.016225
# 6 -0.005433 -0.007803 -0.001202 0.013792 -0.016225 0.069300
#
#
# Mechanical properties :
#
#
# Convention : Reuss Voigt Hill
#
# Bulk Modulus (GPa) = 36.11763 56.10799 46.11281
# Shear Modulus (GPa) = 25.18020 38.85862 32.01941
#
# Velocity S-wave (km/s) = 3.26189 4.05213 3.67830
# Velocity P-wave (km/s) = 5.42662 6.75290 6.12576
#
# Compressibility (1/GPa) = 0.02768731
#
# Stress axis : x y z
#
# Youngs Moduli (GPa) = 42.47536 86.11782 95.21276
#
# Poissons Ratio (x) = 0.39965 0.37880
# Poissons Ratio (y) = 0.19712 0.03485
# Poissons Ratio (z) = 0.16899 0.03152
#
# Static dielectric constant tensor:
#      x y z
#    x 2.049130 0.027770 0.023780 
#    y 0.027770 1.859190 0.003580 
#    z 0.023780 0.003580 2.061050 
# 
# From -- ./inp_files/381455.got.cif
#   From: 2010.05.17/outbox.cif.g08.bks.cpg/sg2_191_cif.got.tgz:381455.got - 2010.06.03 11:33:40.
