data_PCOD9087788
_publ_section_title
;
Structure prediction by ZEFSAII (Michael W. Deem and Ramdas Pophale) SiO2 
 PCOD9087788
Probable space group: P -1
;
_chemical_formula_sum "Si O2"
_cell_formula_units_Z 16
_cell_length_a 19.295977
_cell_length_b 22.886441
_cell_length_c 5.607016
_cell_angle_alpha 110.534511
_cell_angle_beta 71.466546
_cell_angle_gamma 163.672363
_cell_volume 650.230003
_symmetry_space_group_name_H-M "P -1"
_symmetry_group_IT_number 2
_symmetry_cell_setting 'triclinic'
loop_
_space_group_symop_operation_xyz
x,y,z
-x,-y,-z
loop_
_atom_site_type_symbol
_atom_site_label
_atom_site_fract_x
_atom_site_fract_y
_atom_site_fract_z
Si Si1 0.400412 0.465735 0.363587
Si Si2 0.557850 0.296733 0.337914
Si Si3 0.264047 0.232085 0.943150
Si Si4 0.828204 0.392648 0.230443
Si Si5 0.994740 0.240449 0.501390
Si Si6 0.515201 0.313983 0.917762
Si Si7 0.891930 0.195705 0.042959
Si Si8 0.274616 0.807197 0.649615
O O1 0.500000 0.500000 0.500000
O O2 0.640932 0.697615 0.330707
O O3 0.180014 0.333417 0.459230
O O4 0.288961 0.325929 0.095545
O O5 0.648594 0.299984 0.203326
O O6 0.816767 0.547092 0.413715
O O7 0.438657 0.217905 0.613865
O O8 0.423844 0.211266 0.121428
O O9 0.444529 0.329472 0.012284
O O10 0.000000 0.000000 0.000000
O O11 0.685550 0.220271 0.268517
O O12 0.018770 0.581972 0.472456
O O13 0.000000 0.500000 0.000000
O O14 0.850529 0.128009 0.246650
O O15 0.842182 0.120474 0.740617
O O16 0.811481 0.552293 0.930804
O O17 0.766760 0.161071 0.130595
O O18 0.500000 0.000000 0.500000
#
# Coordination Sequence:
#
# PCOD9087788 Si02
#       8
#     2   2   2   2   2   2   2   2
#     4  11  23  42  71  98 134 185 229 283 348 418
#     4  10  19  36  68  91 128 181 228 271 340 408
#     4  11  25  43  69 103 141 178 232 291 352 412
#     4  11  23  42  71  98 134 185 229 283 348 418
#     4  10  19  36  68  91 128 181 228 271 340 408
#     4  10  19  39  66  92 131 184 220 276 342 409
#     4  10  19  39  66  92 131 184 220 276 342 409
#     4  11  25  43  69 103 141 178 232 291 352 412
#
# _framework density 24.606676
#
# number of rings (size 3 to 8) (size 9 to 14) (size 15 to 20)
#    0.000    1.500    5.000    3.000    3.500    1.000 
#    0.000    1.250    0.000    0.000    0.000    0.000 
#    0.000    0.000    0.000    0.000    0.000    0.000 
#
# Total GULP energy -89429.006517 kJ/mol
# GULP energy per Si atom -5589.312907 kJ/mol
# Density = 2.455067 g / cm^3
# Si number density = 24.606676 Si / 1000 Ang^3
#
#
#
# Elastic Constant Matrix: (Units=GPa)
#
#
# Indices 1 2 3 4 5 6 
#
# 1 197.9179 26.9914 60.1856 -26.4732 -10.9029 -11.6435
# 2 26.9914 93.3079 26.6398 -17.2336 -8.8505 -6.4959
# 3 60.1856 26.6398 150.3353 -25.7058 9.1942 -4.5899
# 4 -26.4732 -17.2336 -25.7058 33.1492 0.3658 3.0396
# 5 -10.9029 -8.8505 9.1942 0.3658 58.5004 -15.3915
# 6 -11.6435 -6.4959 -4.5899 3.0396 -15.3915 18.5277
#
#
#
# Elastic Compliance Matrix: (Units=1/GPa)
#
#
# Indices 1 2 3 4 5 6 
#
# 1 0.006612 -0.000066 -0.002127 0.003049 0.003013 0.005608
# 2 -0.000066 0.012869 -0.001458 0.004868 0.003845 0.006505
# 3 -0.002127 -0.001458 0.008615 0.004501 -0.002711 -0.002704
# 4 0.003049 0.004868 0.004501 0.038780 -0.000093 -0.001701
# 5 0.003013 0.003845 -0.002711 -0.000093 0.024754 0.023149
# 6 0.005608 0.006505 -0.002704 -0.001701 0.023149 0.078618
#
#
# Mechanical properties :
#
#
# Convention : Reuss Voigt Hill
#
# Bulk Modulus (GPa) = 48.09188 74.35498 61.22343
# Shear Modulus (GPa) = 27.10282 43.88508 35.49395
#
# Velocity S-wave (km/s) = 3.32240 4.22769 3.80208
# Velocity P-wave (km/s) = 5.85700 7.35623 6.64901
#
# Compressibility (1/GPa) = 0.02079353
#
# Stress axis : x y z
#
# Youngs Moduli (GPa) = 151.23521 77.70447 116.08110
#
# Poissons Ratio (x) = 0.00513 0.24692
# Poissons Ratio (y) = 0.00999 0.16927
# Poissons Ratio (z) = 0.32169 0.11331
#
# Static dielectric constant tensor:
#      x y z
#    x 1.683790 0.038420 0.082650 
#    y 0.038420 1.980000 -0.020440 
#    z 0.082650 -0.020440 2.136750 
# 
# From -- ./inp_files/112465.got.cif
#   From: 2010.05.17/outbox.cif.g08.bks.cpg/sg2_57_cif.got.tgz:112465.got - 2010.06.03 11:33:40.
