data_PCOD9087448
_publ_section_title
;
Structure prediction by ZEFSAII (Michael W. Deem and Ramdas Pophale) SiO2 
 PCOD9087448
Probable space group: P -1
;
_chemical_formula_sum "Si O2"
_cell_formula_units_Z 15
_cell_length_a 16.194012
_cell_length_b 14.131554
_cell_length_c 7.225095
_cell_angle_alpha 139.939021
_cell_angle_beta 138.041098
_cell_angle_gamma 33.547909
_cell_volume 561.491913
_symmetry_space_group_name_H-M "P -1"
_symmetry_group_IT_number 2
_symmetry_cell_setting 'triclinic'
loop_
_space_group_symop_operation_xyz
x,y,z
-x,-y,-z
loop_
_atom_site_type_symbol
_atom_site_label
_atom_site_fract_x
_atom_site_fract_y
_atom_site_fract_z
Si Si1 0.628462 0.751784 0.174504
Si Si2 0.652641 0.183254 0.643173
Si Si3 0.000000 0.000000 0.500000
Si Si4 0.984143 0.246265 0.625012
Si Si5 0.123667 0.203751 0.404770
Si Si6 0.795618 0.336623 0.910885
Si Si7 0.294403 0.046578 0.989804
Si Si8 0.681009 0.664884 0.718393
O O1 0.779565 0.741035 0.458224
O O2 0.671211 0.552727 0.980883
O O3 0.632773 0.776991 0.998030
O O4 0.448456 0.910309 0.166756
O O5 0.725725 0.286938 0.880481
O O6 0.468122 0.317003 0.573048
O O7 0.751794 0.019270 0.709933
O O8 0.671856 0.078908 0.323754
O O9 0.842225 0.204789 0.614760
O O10 0.963973 0.086537 0.348311
O O11 0.074411 0.255581 0.618308
O O12 0.109861 0.138225 0.850443
O O13 0.831057 0.455818 0.698788
O O14 0.955132 0.297779 0.180240
O O15 0.289541 0.223464 0.204477
#
# Coordination Sequence:
#
# PCOD9087448 Si02
#       8
#     2   2   1   2   2   2   2   2
#     4  11  21  38  65  96 122 168 209 258 304 370
#     4  10  20  37  63  89 122 169 205 251 310 366
#     4  12  24  40  58 104 120 160 210 270 306 354
#     4  11  23  37  65  95 122 165 210 257 312 357
#     4  11  22  43  65  89 128 173 206 245 318 381
#     4  12  25  40  65  93 132 165 206 257 314 375
#     4  10  19  36  63  94 122 161 215 256 303 369
#     4  11  19  36  65  95 124 159 219 259 294 371
#
# _framework density 26.714542999999999
#
# number of rings (size 3 to 8) (size 9 to 14) (size 15 to 20)
#    0.000    1.067    8.000    2.000    0.000    3.200 
#    0.000    0.667    2.933    1.600    0.000    0.000 
#    0.000    0.000    0.000    0.000    0.000    0.000 
#
# Total GULP energy -83616.286105 kJ/mol
# GULP energy per Si atom -5574.419074 kJ/mol
# Density = 2.665374 g / cm^3
# Si number density = 26.714543 Si / 1000 Ang^3
#
#
#
# Elastic Constant Matrix: (Units=GPa)
#
#
# Indices 1 2 3 4 5 6 
#
# 1 91.3943 28.5346 12.4988 12.5185 -0.4371 -2.6486
# 2 28.5346 176.9029 42.3538 4.7346 27.8448 -13.7521
# 3 12.4988 42.3538 51.9825 -10.8300 9.2464 -10.8234
# 4 12.5185 4.7346 -10.8300 40.6744 6.4963 22.0006
# 5 -0.4371 27.8448 9.2464 6.4963 14.4515 -0.5338
# 6 -2.6486 -13.7521 -10.8234 22.0006 -0.5338 45.0157
#
#
#
# Elastic Compliance Matrix: (Units=1/GPa)
#
#
# Indices 1 2 3 4 5 6 
#
# 1 0.013777 -0.002579 -0.004599 -0.009053 0.012527 0.003490
# 2 -0.002579 0.009697 -0.003979 0.000436 -0.016359 0.001447
# 3 -0.004599 -0.003979 0.029057 0.012836 -0.016870 -0.000973
# 4 -0.009053 0.000436 0.012836 0.046842 -0.031143 -0.020576
# 5 0.012527 -0.016359 -0.016870 -0.031143 0.126200 0.008400
# 6 0.003490 0.001447 -0.000973 -0.020576 0.008400 0.032784
#
#
# Mechanical properties :
#
#
# Convention : Reuss Voigt Hill
#
# Bulk Modulus (GPa) = 33.09336 54.11711 43.60523
# Shear Modulus (GPa) = 17.19732 35.82116 26.50924
#
# Velocity S-wave (km/s) = 2.53996 3.66578 3.15352
# Velocity P-wave (km/s) = 4.58438 6.18214 5.44221
#
# Compressibility (1/GPa) = 0.03021754
#
# Stress axis : x y z
#
# Youngs Moduli (GPa) = 72.58545 103.12157 34.41477
#
# Poissons Ratio (x) = 0.26600 0.15826
# Poissons Ratio (y) = 0.18723 0.13693
# Poissons Ratio (z) = 0.33379 0.41031
#
# Static dielectric constant tensor:
#      x y z
#    x 2.105300 -0.061390 -0.247480 
#    y -0.061390 2.007870 -0.152330 
#    z -0.247480 -0.152330 1.747420 
# 
# From -- ./inp_files/335821.got.cif
#   From: 2010.05.17/outbox.cif.g08.bks.cpg/sg2_168_cif.got.tgz:335821.got - 2010.06.03 11:33:40.
