data_PCOD9087439
_publ_section_title
;
Structure prediction by ZEFSAII (Michael W. Deem and Ramdas Pophale) SiO2 
 PCOD9087439
Probable space group: P -1
;
_chemical_formula_sum "Si O2"
_cell_formula_units_Z 12
_cell_length_a 7.537745
_cell_length_b 10.104580
_cell_length_c 12.463596
_cell_angle_alpha 99.357871
_cell_angle_beta 84.055628
_cell_angle_gamma 150.567899
_cell_volume 458.850202
_symmetry_space_group_name_H-M "P -1"
_symmetry_group_IT_number 2
_symmetry_cell_setting 'triclinic'
loop_
_space_group_symop_operation_xyz
x,y,z
-x,-y,-z
loop_
_atom_site_type_symbol
_atom_site_label
_atom_site_fract_x
_atom_site_fract_y
_atom_site_fract_z
Si Si1 0.630791 0.117273 0.686037
Si Si2 0.665690 0.975641 0.094054
Si Si3 0.166588 0.480648 0.381703
Si Si4 0.280358 0.113091 0.418467
Si Si5 0.361040 0.348024 0.237454
Si Si6 0.757936 0.550982 0.036009
O O1 0.528859 0.059482 0.810268
O O2 0.313339 0.483884 0.837818
O O3 0.226666 0.843307 0.622414
O O4 0.826510 0.381289 0.673013
O O5 0.991972 0.114730 0.158492
O O6 0.862409 0.175139 0.008756
O O7 0.395164 0.688291 0.029003
O O8 0.397999 0.520807 0.307470
O O9 0.350422 0.636285 0.502816
O O10 0.187988 0.899961 0.367828
O O11 0.686944 0.784432 0.679647
O O12 0.000000 0.000000 0.500000
O O13 0.500000 0.500000 0.000000
#
# Coordination Sequence:
#
# PCOD9087439 Si02
#       6
#     2   2   2   2   2   2
#     4  11  24  45  68  93 131 177 217 259 321 398
#     4  10  20  38  63  91 123 170 214 252 313 392
#     4  11  24  45  67  93 131 180 217 255 320 397
#     4  12  26  43  66 100 133 168 217 278 327 372
#     4  10  22  39  64  98 129 163 214 273 316 368
#     4  10  19  36  63  93 123 164 212 259 311 381
#
# _framework density 26.152325000000001
#
# number of rings (size 3 to 8) (size 9 to 14) (size 15 to 20)
#    0.000    1.333    0.000    8.500    0.000    5.333 
#    0.000    1.667    0.000    0.000    0.000    1.167 
#    0.000    0.000    0.000    0.000    0.000    0.000 
#
# Total GULP energy -67404.006335 kJ/mol
# GULP energy per Si atom -5617.000528 kJ/mol
# Density = 2.609280 g / cm^3
# Si number density = 26.152325 Si / 1000 Ang^3
#
#
#
# Elastic Constant Matrix: (Units=GPa)
#
#
# Indices 1 2 3 4 5 6 
#
# 1 132.3859 39.5685 48.8059 -11.0312 -34.3401 -6.2629
# 2 39.5685 126.2791 32.8217 -11.4985 -6.5233 -22.2815
# 3 48.8059 32.8217 164.6347 -29.2968 -8.2088 -10.9667
# 4 -11.0312 -11.4985 -29.2968 56.4865 2.9042 -7.1453
# 5 -34.3401 -6.5233 -8.2088 2.9042 45.7861 4.2707
# 6 -6.2629 -22.2815 -10.9667 -7.1453 4.2707 53.4374
#
#
#
# Elastic Compliance Matrix: (Units=1/GPa)
#
#
# Indices 1 2 3 4 5 6 
#
# 1 0.011198 -0.002642 -0.002501 -0.000161 0.007671 -0.000937
# 2 -0.002642 0.009699 -0.000650 0.001678 -0.001189 0.003921
# 3 -0.002501 -0.000650 0.007639 0.003589 -0.000972 0.001561
# 4 -0.000161 0.001678 0.003589 0.020457 -0.000930 0.004227
# 5 0.007671 -0.001189 -0.000972 -0.000930 0.027507 -0.002119
# 6 -0.000937 0.003921 0.001561 0.004227 -0.002119 0.021293
#
#
# Mechanical properties :
#
#
# Convention : Reuss Voigt Hill
#
# Bulk Modulus (GPa) = 59.00090 73.96577 66.48333
# Shear Modulus (GPa) = 43.46673 51.28224 47.37448
#
# Velocity S-wave (km/s) = 4.08126 4.43302 4.26077
# Velocity P-wave (km/s) = 6.69465 7.38554 7.04857
#
# Compressibility (1/GPa) = 0.01694889
#
# Stress axis : x y z
#
# Youngs Moduli (GPa) = 89.30409 103.10348 130.90226
#
# Poissons Ratio (x) = 0.27244 0.32745
# Poissons Ratio (y) = 0.23598 0.08505
# Poissons Ratio (z) = 0.22339 0.06699
#
# Static dielectric constant tensor:
#      x y z
#    x 1.714020 0.116720 0.019480 
#    y 0.116720 1.962730 0.029510 
#    z 0.019480 0.029510 2.029800 
# 
# From -- ./inp_files/110064.got.cif
#   From: 2010.05.17/outbox.cif.g08.bks.cpg/sg2_56_cif.got.tgz:110064.got - 2010.06.03 11:33:40.
