data_PCOD9087962
_publ_section_title
;
Structure prediction by ZEFSAII (Michael W. Deem and Ramdas Pophale) SiO2 
 PCOD9087962
Probable space group: P -1
;
_chemical_formula_sum "Si O2"
_cell_formula_units_Z 16
_cell_length_a 9.342019
_cell_length_b 13.062492
_cell_length_c 9.702163
_cell_angle_alpha 134.164987
_cell_angle_beta 99.304375
_cell_angle_gamma 52.817136
_cell_volume 602.931430
_symmetry_space_group_name_H-M "P -1"
_symmetry_group_IT_number 2
_symmetry_cell_setting 'triclinic'
loop_
_space_group_symop_operation_xyz
x,y,z
-x,-y,-z
loop_
_atom_site_type_symbol
_atom_site_label
_atom_site_fract_x
_atom_site_fract_y
_atom_site_fract_z
Si Si1 0.960720 0.703829 0.180981
Si Si2 0.190559 0.642505 0.523316
Si Si3 0.806626 0.042914 0.259777
Si Si4 0.407059 0.450797 0.114761
Si Si5 0.425823 0.127327 0.775687
Si Si6 0.728918 0.828990 0.914922
Si Si7 0.823615 0.688605 0.508178
Si Si8 0.366230 0.453689 0.669027
O O1 0.723729 0.850495 0.332056
O O2 0.172833 0.617433 0.192505
O O3 0.921405 0.867334 0.223700
O O4 0.000000 0.500000 0.000000
O O5 0.122466 0.848391 0.664779
O O6 0.381610 0.467380 0.293835
O O7 0.263408 0.585823 0.639086
O O8 0.009121 0.660795 0.475578
O O9 0.573098 0.229977 0.446615
O O10 0.811587 0.933129 0.027417
O O11 0.558995 0.479334 0.148291
O O12 0.481011 0.252773 0.876543
O O13 0.620037 0.910691 0.649065
O O14 0.277671 0.227337 0.984276
O O15 0.819794 0.676918 0.663541
O O16 0.500000 0.000000 0.000000
O O17 0.796562 0.551178 0.307834
#
# Coordination Sequence:
#
# PCOD9087962 Si02
#       8
#     2   2   2   2   2   2   2   2
#     4   9  18  37  66  89 103 145 212 248 267 334
#     4  11  25  34  54  90 129 148 185 238 298 346
#     4  10  19  37  57  89 112 147 199 246 275 341
#     4  10  21  36  63  84 112 148 200 242 286 330
#     4   9  18  36  62  84 108 150 203 238 275 342
#     4   9  16  29  59  79 105 151 192 222 282 330
#     4  11  21  37  56  84 123 157 188 232 292 350
#     4  11  21  36  56  84 122 154 189 231 286 352
#
# _framework density 26.537012000000001
#
# number of rings (size 3 to 8) (size 9 to 14) (size 15 to 20)
#    0.000    2.000    3.750    2.625    5.250    2.500 
#    0.000    0.625    0.000    1.500    0.000    0.000 
#    0.000    0.000    0.000    0.000    0.000    0.000 
#
# Total GULP energy -89272.679409 kJ/mol
# GULP energy per Si atom -5579.542463 kJ/mol
# Density = 2.647661 g / cm^3
# Si number density = 26.537012 Si / 1000 Ang^3
#
#
#
# Elastic Constant Matrix: (Units=GPa)
#
#
# Indices 1 2 3 4 5 6 
#
# 1 190.4251 65.8865 52.5883 3.6801 56.8349 -23.4946
# 2 65.8865 129.7882 49.9467 26.1110 24.2229 3.5790
# 3 52.5883 49.9467 100.6871 14.8369 33.9952 -0.2902
# 4 3.6801 26.1110 14.8369 38.1994 -1.0748 6.0560
# 5 56.8349 24.2229 33.9952 -1.0748 62.8331 -10.8613
# 6 -23.4946 3.5790 -0.2902 6.0560 -10.8613 41.6808
#
#
#
# Elastic Compliance Matrix: (Units=1/GPa)
#
#
# Indices 1 2 3 4 5 6 
#
# 1 0.008763 -0.003293 -0.001323 0.001191 -0.005288 0.003662
# 2 -0.003293 0.012005 -0.003171 -0.006336 -0.000404 -0.002094
# 3 -0.001323 -0.003171 0.014642 -0.003333 -0.005801 -0.001399
# 4 0.001191 -0.006336 -0.003333 0.032199 0.003264 -0.002636
# 5 -0.005288 -0.000404 -0.005801 0.003264 0.024556 0.002938
# 6 0.003662 -0.002094 -0.001399 -0.002636 0.002938 0.027375
#
#
# Mechanical properties :
#
#
# Convention : Reuss Voigt Hill
#
# Bulk Modulus (GPa) = 50.41550 84.19371 67.30461
# Shear Modulus (GPa) = 35.27918 45.37461 40.32689
#
# Velocity S-wave (km/s) = 3.65009 4.13953 3.90249
# Velocity P-wave (km/s) = 6.06660 7.39212 6.76192
#
# Compressibility (1/GPa) = 0.01983517
#
# Stress axis : x y z
#
# Youngs Moduli (GPa) = 114.11214 83.29963 68.29826
#
# Poissons Ratio (x) = 0.27433 0.09036
# Poissons Ratio (y) = 0.37580 0.21658
# Poissons Ratio (z) = 0.15097 0.26415
#
# Static dielectric constant tensor:
#      x y z
#    x 2.117030 0.020020 -0.002830 
#    y 0.020020 2.265640 -0.133390 
#    z -0.002830 -0.133390 2.187830 
# 
# From -- ./inp_files/504472.got.cif
#   From: 2010.05.17/outbox.cif.g08.bks.cpg/sg2_253_cif.got.tgz:504472.got - 2010.06.03 11:33:40.
