data_PCOD9087021
_publ_section_title
;
Structure prediction by ZEFSAII (Michael W. Deem and Ramdas Pophale) SiO2 
 PCOD9087021
Probable space group: P -1
;
_chemical_formula_sum "Si O2"
_cell_formula_units_Z 12
_cell_length_a 4.959618
_cell_length_b 15.447676
_cell_length_c 7.603199
_cell_angle_alpha 112.423333
_cell_angle_beta 81.863789
_cell_angle_gamma 64.117241
_cell_volume 450.001231
_symmetry_space_group_name_H-M "P -1"
_symmetry_group_IT_number 2
_symmetry_cell_setting 'triclinic'
loop_
_space_group_symop_operation_xyz
x,y,z
-x,-y,-z
loop_
_atom_site_type_symbol
_atom_site_label
_atom_site_fract_x
_atom_site_fract_y
_atom_site_fract_z
Si Si1 0.913825 0.020353 0.731227
Si Si2 0.600665 0.889149 0.665063
Si Si3 0.196890 0.339965 0.363625
Si Si4 0.295401 0.421039 0.784717
Si Si5 0.674256 0.389001 0.180555
Si Si6 0.337189 0.224074 0.796510
O O1 0.590726 0.140334 0.850969
O O2 0.833036 0.930129 0.727458
O O3 0.232450 0.993434 0.781437
O O4 0.000000 0.000000 0.500000
O O5 0.653396 0.786868 0.693455
O O6 0.670604 0.844886 0.422472
O O7 0.189579 0.402398 0.589875
O O8 0.852998 0.383466 0.341683
O O9 0.414579 0.358002 0.220665
O O10 0.459418 0.301275 0.767377
O O11 0.466380 0.489144 0.793725
O O12 0.000000 0.500000 0.000000
O O13 0.979236 0.300347 0.966152
#
# Coordination Sequence:
#
# PCOD9087021 Si02
#       6
#     2   2   2   2   2   2
#     4  10  19  36  61  89 115 151 198 247 287 335
#     4  10  21  38  61  87 116 155 199 241 287 343
#     4  11  23  41  61  87 122 156 190 238 296 350
#     4   9  20  41  64  89 116 153 199 242 287 346
#     4  11  23  40  60  88 121 156 191 239 296 349
#     4   9  20  38  61  88 117 153 199 243 287 345
#
# _framework density 26.666591
#
# number of rings (size 3 to 8) (size 9 to 14) (size 15 to 20)
#    0.000    2.000    0.000    4.000    0.000    4.000 
#    0.000   28.333    0.000    0.000    0.000    0.000 
#    0.000    0.000    0.000    0.000    0.000    0.000 
#
# Total GULP energy -67344.090810 kJ/mol
# GULP energy per Si atom -5612.007567 kJ/mol
# Density = 2.660590 g / cm^3
# Si number density = 26.666591 Si / 1000 Ang^3
#
#
#
# Elastic Constant Matrix: (Units=GPa)
#
#
# Indices 1 2 3 4 5 6 
#
# 1 103.0886 30.1607 22.4904 -7.5005 -10.8796 13.4004
# 2 30.1607 140.7014 19.3003 8.7290 -8.8687 17.2841
# 3 22.4904 19.3003 132.9832 -8.0336 5.1710 0.4180
# 4 -7.5005 8.7290 -8.0336 30.1002 -3.8458 -4.1512
# 5 -10.8796 -8.8687 5.1710 -3.8458 34.2148 -11.9567
# 6 13.4004 17.2841 0.4180 -4.1512 -11.9567 36.1422
#
#
#
# Elastic Compliance Matrix: (Units=1/GPa)
#
#
# Indices 1 2 3 4 5 6 
#
# 1 0.011423 -0.002005 -0.001564 0.003138 0.003040 -0.001892
# 2 -0.002005 0.008369 -0.001089 -0.003725 -0.000007 -0.003676
# 3 -0.001564 -0.001089 0.008120 0.001999 -0.001526 0.000731
# 4 0.003138 -0.003725 0.001999 0.037399 0.006380 0.007001
# 5 0.003040 -0.000007 -0.001526 0.006380 0.035063 0.011226
# 6 -0.001892 -0.003676 0.000731 0.007001 0.011226 0.034638
#
#
# Mechanical properties :
#
#
# Convention : Reuss Voigt Hill
#
# Bulk Modulus (GPa) = 53.77049 57.85290 55.81169
# Shear Modulus (GPa) = 33.21705 40.41290 36.81497
#
# Velocity S-wave (km/s) = 3.53320 3.89715 3.71963
# Velocity P-wave (km/s) = 6.07062 6.48015 6.27872
#
# Compressibility (1/GPa) = 0.01859756
#
# Stress axis : x y z
#
# Youngs Moduli (GPa) = 87.54084 119.49447 123.15225
#
# Poissons Ratio (x) = 0.23956 0.19257
# Poissons Ratio (y) = 0.17550 0.13408
# Poissons Ratio (z) = 0.13689 0.13009
#
# Static dielectric constant tensor:
#      x y z
#    x 2.018340 -0.024930 0.011080 
#    y -0.024930 2.066230 0.011460 
#    z 0.011080 0.011460 2.128300 
# 
# From -- ./inp_files/134546.got.cif
#   From: 2010.05.17/outbox.cif.g08.bks.cpg/sg2_68_cif.got.tgz:134546.got - 2010.06.03 11:33:40.
