data_PCOD9087184
_publ_section_title
;
Structure prediction by ZEFSAII (Michael W. Deem and Ramdas Pophale) SiO2 
 PCOD9087184
Probable space group: P -1
;
_chemical_formula_sum "Si O2"
_cell_formula_units_Z 15
_cell_length_a 19.245581
_cell_length_b 6.521525
_cell_length_c 24.102287
_cell_angle_alpha 54.626374
_cell_angle_beta 17.305277
_cell_angle_gamma 46.216869
_cell_volume 600.808572
_symmetry_space_group_name_H-M "P -1"
_symmetry_group_IT_number 2
_symmetry_cell_setting 'triclinic'
loop_
_space_group_symop_operation_xyz
x,y,z
-x,-y,-z
loop_
_atom_site_type_symbol
_atom_site_label
_atom_site_fract_x
_atom_site_fract_y
_atom_site_fract_z
Si Si1 0.121593 0.879954 0.864549
Si Si2 0.565994 0.769925 0.853119
Si Si3 0.957902 0.338790 0.270289
Si Si4 0.238242 0.851878 0.394830
Si Si5 0.478883 0.782981 0.336674
Si Si6 0.799715 0.721704 0.792000
Si Si7 0.426753 0.709443 0.849366
Si Si8 0.500000 0.000000 0.500000
O O1 0.232540 0.534743 0.815768
O O2 0.404472 0.868929 0.642651
O O3 0.000000 0.000000 0.000000
O O4 0.899225 0.106919 0.951234
O O5 0.784888 0.841234 0.649598
O O6 0.720991 0.590271 0.820329
O O7 0.480332 0.662429 0.881674
O O8 0.266333 0.086978 0.048628
O O9 0.792751 0.176521 0.432817
O O10 0.022281 0.451796 0.261264
O O11 0.748614 0.640272 0.347089
O O12 0.453760 0.709000 0.303966
O O13 0.389936 0.619930 0.265714
O O14 0.968085 0.859035 0.618162
O O15 0.480669 0.082153 0.283107
O O16 0.500000 0.000000 0.000000
#
# Coordination Sequence:
#
# PCOD9087184 Si02
#       8
#     2   2   2   2   2   2   2   1
#     4  11  21  40  62  90 127 169 211 258 316 375
#     4  10  21  38  61  89 126 159 206 260 303 374
#     4   9  19  39  60  90 123 162 208 254 313 369
#     4  10  19  36  62  87 117 160 203 254 310 366
#     4   9  20  38  58  87 123 165 208 252 309 374
#     4   9  19  38  63  86 120 167 203 251 314 366
#     4  11  22  36  60  93 124 160 210 255 312 377
#     4  10  22  38  68  94 118 164 216 254 310 382
#
# _framework density 24.966356000000001
#
# number of rings (size 3 to 8) (size 9 to 14) (size 15 to 20)
#    0.000    2.133    1.333    1.600    1.867    0.533 
#    2.400    5.333    0.000   16.000    0.000    0.000 
#    0.000    0.000    0.000    0.000    0.000    0.000 
#
# Total GULP energy -83506.875300 kJ/mol
# GULP energy per Si atom -5567.125020 kJ/mol
# Density = 2.490953 g / cm^3
# Si number density = 24.966356 Si / 1000 Ang^3
#
#
#
# Elastic Constant Matrix: (Units=GPa)
#
#
# Indices 1 2 3 4 5 6 
#
# 1 74.6032 4.6614 8.1929 1.0947 2.8443 14.1948
# 2 4.6614 66.9070 9.8878 -0.3591 5.3327 -1.6393
# 3 8.1929 9.8878 93.7444 -6.1273 3.5892 10.6688
# 4 1.0947 -0.3591 -6.1273 31.5672 -9.9986 -2.1869
# 5 2.8443 5.3327 3.5892 -9.9986 27.0138 0.5953
# 6 14.1948 -1.6393 10.6688 -2.1869 0.5953 25.0966
#
#
#
# Elastic Compliance Matrix: (Units=1/GPa)
#
#
# Indices 1 2 3 4 5 6 
#
# 1 0.015252 -0.001100 -0.000274 -0.001772 -0.001817 -0.008694
# 2 -0.001100 0.015586 -0.001761 -0.000954 -0.003132 0.002380
# 3 -0.000274 -0.001761 0.011544 0.001779 -0.000395 -0.004703
# 4 -0.001772 -0.000954 0.001779 0.036599 0.013618 0.003050
# 5 -0.001817 -0.003132 -0.000395 0.013618 0.042895 0.001160
# 6 -0.008694 0.002380 -0.004703 0.003050 0.001160 0.047156
#
#
# Mechanical properties :
#
#
# Convention : Reuss Voigt Hill
#
# Bulk Modulus (GPa) = 27.69136 31.19320 29.44228
# Shear Modulus (GPa) = 26.68956 30.90302 28.79629
#
# Velocity S-wave (km/s) = 3.27314 3.52204 3.39986
# Velocity P-wave (km/s) = 5.03985 5.39081 5.21828
#
# Compressibility (1/GPa) = 0.03611234
#
# Stress axis : x y z
#
# Youngs Moduli (GPa) = 65.56313 64.16073 86.62770
#
# Poissons Ratio (x) = 0.07057 0.02373
# Poissons Ratio (y) = 0.07211 0.15256
# Poissons Ratio (z) = 0.01796 0.11299
#
# Static dielectric constant tensor:
#      x y z
#    x 2.027440 -0.015920 -0.056100 
#    y -0.015920 2.036410 -0.064220 
#    z -0.056100 -0.064220 2.043430 
# 
# From -- ./inp_files/104880.got.cif
#   From: 2010.05.17/outbox.cif.g08.bks.cpg/sg2_53_cif.got.tgz:104880.got - 2010.06.03 11:33:40.
