data_PCOD9087334
_publ_section_title
;
Structure prediction by ZEFSAII (Michael W. Deem and Ramdas Pophale) SiO2 
 PCOD9087334
Probable space group: P -1
;
_chemical_formula_sum "Si O2"
_cell_formula_units_Z 16
_cell_length_a 9.728083
_cell_length_b 10.888099
_cell_length_c 10.569778
_cell_angle_alpha 121.328033
_cell_angle_beta 127.366002
_cell_angle_gamma 71.713870
_cell_volume 760.063184
_symmetry_space_group_name_H-M "P -1"
_symmetry_group_IT_number 2
_symmetry_cell_setting 'triclinic'
loop_
_space_group_symop_operation_xyz
x,y,z
-x,-y,-z
loop_
_atom_site_type_symbol
_atom_site_label
_atom_site_fract_x
_atom_site_fract_y
_atom_site_fract_z
Si Si1 0.735612 0.054496 0.419945
Si Si2 0.173945 0.664342 0.012666
Si Si3 0.025105 0.860137 0.612044
Si Si4 0.703114 0.382165 0.672292
Si Si5 0.932951 0.847373 0.843294
Si Si6 0.958203 0.463500 0.638155
Si Si7 0.672808 0.658503 0.487547
Si Si8 0.496343 0.871483 0.322176
O O1 0.805382 0.077419 0.329768
O O2 0.707142 0.211378 0.549233
O O3 0.571679 0.951337 0.285480
O O4 0.876972 0.970050 0.540442
O O5 0.997084 0.749691 0.942060
O O6 0.135303 0.544622 0.820022
O O7 0.210969 0.595875 0.131189
O O8 0.318628 0.789214 0.147816
O O9 0.019659 0.835136 0.745298
O O10 0.004109 0.700914 0.458524
O O11 0.822572 0.458861 0.677823
O O12 0.499320 0.415676 0.592220
O O13 0.739471 0.793191 0.681751
O O14 0.000000 0.000000 0.000000
O O15 0.837416 0.551254 0.517917
O O16 0.613769 0.740553 0.371566
O O17 0.500000 0.000000 0.500000
#
# Coordination Sequence:
#
# PCOD9087334 Si02
#       8
#     2   2   2   2   2   2   2   2
#     4  10  19  36  63  85 113 157 201 239 286 345
#     4  10  21  32  58  89 114 154 193 243 284 343
#     4  10  22  38  59  85 119 160 191 240 302 352
#     4  10  19  37  63  87 117 152 203 244 285 341
#     4  11  21  36  59  88 113 148 201 252 288 344
#     4  10  22  38  56  87 126 156 190 238 297 358
#     4  10  20  33  61  89 112 158 193 242 286 349
#     4  11  18  36  62  90 118 151 204 246 281 338
#
# _framework density 21.050882000000001
#
# number of rings (size 3 to 8) (size 9 to 14) (size 15 to 20)
#    0.000    1.750    3.750    2.250    0.000    2.000 
#    0.000    1.250    2.750    0.000    0.000    0.000 
#    0.000    0.000    0.000    0.000    0.000    0.000 
#
# Total GULP energy -89073.731421 kJ/mol
# GULP energy per Si atom -5567.108214 kJ/mol
# Density = 2.100297 g / cm^3
# Si number density = 21.050882 Si / 1000 Ang^3
#
#
#
# Elastic Constant Matrix: (Units=GPa)
#
#
# Indices 1 2 3 4 5 6 
#
# 1 74.4619 2.4260 25.6041 1.3384 12.0456 18.0347
# 2 2.4260 77.6804 16.9936 0.9385 9.0335 0.5405
# 3 25.6041 16.9936 99.5503 -0.2936 18.5557 1.7141
# 4 1.3384 0.9385 -0.2936 38.4142 2.1599 7.7048
# 5 12.0456 9.0335 18.5557 2.1599 24.3535 5.8215
# 6 18.0347 0.5405 1.7141 7.7048 5.8215 35.0695
#
#
#
# Elastic Compliance Matrix: (Units=1/GPa)
#
#
# Indices 1 2 3 4 5 6 
#
# 1 0.017338 0.000791 -0.003665 0.001255 -0.004197 -0.008328
# 2 0.000791 0.013721 -0.001774 -0.000182 -0.004161 0.000199
# 3 -0.003665 -0.001774 0.012708 0.000198 -0.007839 0.002549
# 4 0.001255 -0.000182 0.000198 0.027368 -0.001601 -0.006399
# 5 -0.004197 -0.004161 -0.007839 -0.001601 0.052159 -0.005701
# 6 -0.008328 0.000199 0.002549 -0.006399 -0.005701 0.035022
#
#
# Mechanical properties :
#
#
# Convention : Reuss Voigt Hill
#
# Bulk Modulus (GPa) = 29.00945 37.97110 33.49028
# Shear Modulus (GPa) = 27.91705 33.34536 30.63121
#
# Velocity S-wave (km/s) = 3.64561 3.98431 3.81872
# Velocity P-wave (km/s) = 5.61527 6.26444 5.94872
#
# Compressibility (1/GPa) = 0.03447153
#
# Stress axis : x y z
#
# Youngs Moduli (GPa) = 57.67844 72.87917 78.68777
#
# Poissons Ratio (x) = -0.05766 0.28838
# Poissons Ratio (y) = -0.04563 0.13961
# Poissons Ratio (z) = 0.21138 0.12930
#
# Static dielectric constant tensor:
#      x y z
#    x 1.881760 -0.139180 -0.072210 
#    y -0.139180 2.190550 0.261120 
#    z -0.072210 0.261120 1.895570 
# 
# From -- ./inp_files/419538.got.cif
#   From: 2010.05.17/outbox.cif.g08.bks.cpg/sg2_210_cif.got.tgz:419538.got - 2010.06.03 11:33:40.
