data_PCOD9087665
_publ_section_title
;
Structure prediction by ZEFSAII (Michael W. Deem and Ramdas Pophale) SiO2 
 PCOD9087665
Probable space group: P -1
;
_chemical_formula_sum "Si O2"
_cell_formula_units_Z 14
_cell_length_a 9.008847
_cell_length_b 15.103113
_cell_length_c 15.047482
_cell_angle_alpha 154.027965
_cell_angle_beta 67.580360
_cell_angle_gamma 95.254086
_cell_volume 649.824792
_symmetry_space_group_name_H-M "P -1"
_symmetry_group_IT_number 2
_symmetry_cell_setting 'triclinic'
loop_
_space_group_symop_operation_xyz
x,y,z
-x,-y,-z
loop_
_atom_site_type_symbol
_atom_site_label
_atom_site_fract_x
_atom_site_fract_y
_atom_site_fract_z
Si Si1 0.054542 0.186479 0.182994
Si Si2 0.649485 0.205463 0.665828
Si Si3 0.481496 0.021173 0.652684
Si Si4 0.151602 0.606971 0.304282
Si Si5 0.731747 0.892915 0.752068
Si Si6 0.647422 0.524084 0.666037
Si Si7 0.442230 0.864310 0.707971
O O1 0.179097 0.104668 0.172511
O O2 0.834681 0.454117 0.497273
O O3 0.215345 0.130801 0.021520
O O4 0.000000 0.000000 0.000000
O O5 0.659395 0.031097 0.584578
O O6 0.835175 0.194823 0.576146
O O7 0.556268 0.139803 0.548798
O O8 0.500000 0.500000 0.000000
O O9 0.518084 0.906214 0.637996
O O10 0.277768 0.323743 0.975139
O O11 0.268047 0.556717 0.325894
O O12 0.921518 0.734635 0.498782
O O13 0.603718 0.785445 0.677582
O O14 0.554397 0.185766 0.028967
O O15 0.586830 0.348924 0.490221
#
# Coordination Sequence:
#
# PCOD9087665 Si02
#       7
#     2   2   2   2   2   2   2
#     4   9  22  41  59  89 123 166 208 243 300 357
#     4   9  19  36  66  92 117 158 202 245 308 367
#     4  10  19  36  65  91 118 159 203 250 302 359
#     4  10  20  39  61  90 123 161 200 244 304 361
#     4  11  23  39  60  93 124 161 207 245 300 357
#     4  10  21  40  62  85 126 164 201 250 297 355
#     4  11  21  38  60  91 123 159 208 253 297 356
#
# _framework density 21.544269
#
# number of rings (size 3 to 8) (size 9 to 14) (size 15 to 20)
#    0.000    2.000    2.857    0.429    0.000    4.000 
#    2.571    0.714    0.000    5.143    0.000    0.000 
#    0.000    0.000    0.000    0.000    0.000    0.000 
#
# Total GULP energy -78128.939770 kJ/mol
# GULP energy per Si atom -5580.638555 kJ/mol
# Density = 2.149523 g / cm^3
# Si number density = 21.544269 Si / 1000 Ang^3
#
#
#
# Elastic Constant Matrix: (Units=GPa)
#
#
# Indices 1 2 3 4 5 6 
#
# 1 137.1983 36.0567 60.3917 -0.0602 14.0551 8.2633
# 2 36.0567 75.0836 11.8015 -17.5195 -13.4004 2.6318
# 3 60.3917 11.8015 105.3201 -2.6768 8.0365 0.9650
# 4 -0.0602 -17.5195 -2.6768 23.9917 -1.9567 1.4770
# 5 14.0551 -13.4004 8.0365 -1.9567 42.0319 -0.3841
# 6 8.2633 2.6318 0.9650 1.4770 -0.3841 24.3742
#
#
#
# Elastic Compliance Matrix: (Units=1/GPa)
#
#
# Indices 1 2 3 4 5 6 
#
# 1 0.012787 -0.007637 -0.006168 -0.006528 -0.005862 -0.002963
# 2 -0.007637 0.022741 0.001499 0.017648 0.010331 -0.000832
# 3 -0.006168 0.001499 0.012899 0.002456 0.000200 0.001273
# 4 -0.006528 0.017648 0.002456 0.055820 0.009911 -0.003016
# 5 -0.005862 0.010331 0.000200 0.009911 0.029475 0.000728
# 6 -0.002963 -0.000832 0.001273 -0.003016 0.000728 0.042265
#
#
# Mechanical properties :
#
#
# Convention : Reuss Voigt Hill
#
# Bulk Modulus (GPa) = 41.98992 59.34465 50.66729
# Shear Modulus (GPa) = 23.97643 32.03637 28.00640
#
# Velocity S-wave (km/s) = 3.33962 3.86035 3.60939
# Velocity P-wave (km/s) = 5.86542 6.89021 6.39836
#
# Compressibility (1/GPa) = 0.02381524
#
# Stress axis : x y z
#
# Youngs Moduli (GPa) = 78.20578 43.97304 77.52453
#
# Poissons Ratio (x) = 0.33581 0.47816
# Poissons Ratio (y) = 0.59723 -0.11618
# Poissons Ratio (z) = 0.48236 -0.06590
#
# Static dielectric constant tensor:
#      x y z
#    x 1.781570 0.028220 0.034260 
#    y 0.028220 1.824960 -0.028660 
#    z 0.034260 -0.028660 1.803350 
# 
# From -- ./inp_files/116711.got.cif
#   From: 2010.05.17/outbox.cif.g08.bks.cpg/sg2_59_cif.got.tgz:116711.got - 2010.06.03 11:33:40.
