data_PCOD9087115
_publ_section_title
;
Structure prediction by ZEFSAII (Michael W. Deem and Ramdas Pophale) SiO2 
 PCOD9087115
Probable space group: P -1
;
_chemical_formula_sum "Si O2"
_cell_formula_units_Z 14
_cell_length_a 18.748940
_cell_length_b 13.431170
_cell_length_c 10.070369
_cell_angle_alpha 157.335284
_cell_angle_beta 133.508040
_cell_angle_gamma 36.206294
_cell_volume 559.394801
_symmetry_space_group_name_H-M "P -1"
_symmetry_group_IT_number 2
_symmetry_cell_setting 'triclinic'
loop_
_space_group_symop_operation_xyz
x,y,z
-x,-y,-z
loop_
_atom_site_type_symbol
_atom_site_label
_atom_site_fract_x
_atom_site_fract_y
_atom_site_fract_z
Si Si1 0.597477 0.016352 0.566246
Si Si2 0.761500 0.303589 0.891899
Si Si3 0.067186 0.373332 0.240009
Si Si4 0.486527 0.612166 0.338961
Si Si5 0.145344 0.825204 0.863615
Si Si6 0.886375 0.298485 0.804145
Si Si7 0.278474 0.647245 0.550497
O O1 0.560916 0.094407 0.462140
O O2 0.500000 0.000000 0.500000
O O3 0.726933 0.663698 0.307944
O O4 0.581235 0.303306 0.981072
O O5 0.792585 0.173661 0.920786
O O6 0.636632 0.356562 0.750577
O O7 0.862350 0.154255 0.722373
O O8 0.077774 0.664308 0.614538
O O9 0.939467 0.490464 0.149241
O O10 0.071844 0.181781 0.141071
O O11 0.190876 0.048260 0.924284
O O12 0.574382 0.542620 0.487725
O O13 0.238909 0.599046 0.584836
O O14 0.767146 0.468967 0.766613
O O15 0.000000 0.000000 0.500000
#
# Coordination Sequence:
#
# PCOD9087115 Si02
#       7
#     2   2   2   2   2   2   2
#     4   9  18  33  59  93 131 163 207 273 328 393
#     4  11  23  37  65  99 133 172 224 276 334 402
#     4   9  22  42  67  98 129 174 224 280 333 392
#     4  10  19  36  61  98 134 169 214 270 338 402
#     4  10  21  39  70  99 130 168 224 279 340 392
#     4  10  23  48  62  91 133 181 227 280 333 393
#     4   9  20  39  65  94 133 179 216 266 336 405
#
# _framework density 25.027048000000001
#
# number of rings (size 3 to 8) (size 9 to 14) (size 15 to 20)
#    0.857    1.429    0.000    3.429    2.000    3.429 
#    2.571    0.714    0.000    0.000    0.000    0.000 
#    0.000    0.000    0.000    0.000    0.000    0.000 
#
# Total GULP energy -78172.747348 kJ/mol
# GULP energy per Si atom -5583.767668 kJ/mol
# Density = 2.497008 g / cm^3
# Si number density = 25.027048 Si / 1000 Ang^3
#
#
#
# Elastic Constant Matrix: (Units=GPa)
#
#
# Indices 1 2 3 4 5 6 
#
# 1 137.0228 26.8640 42.0934 -9.8758 14.3606 -0.4287
# 2 26.8640 131.0742 50.1936 -44.6037 20.3746 -10.6962
# 3 42.0934 50.1936 75.0972 0.9661 24.9206 1.6462
# 4 -9.8758 -44.6037 0.9661 39.2731 -10.6781 11.4065
# 5 14.3606 20.3746 24.9206 -10.6781 38.7518 -8.3472
# 6 -0.4287 -10.6962 1.6462 11.4065 -8.3472 30.5128
#
#
#
# Elastic Compliance Matrix: (Units=1/GPa)
#
#
# Indices 1 2 3 4 5 6 
#
# 1 0.009460 0.003139 -0.008085 0.006741 0.001825 -0.000351
# 2 0.003139 0.024607 -0.021411 0.031442 0.008412 0.000373
# 3 -0.008085 -0.021411 0.039518 -0.031944 -0.020711 -0.003476
# 4 0.006741 0.031442 -0.031944 0.071399 0.019343 -0.008559
# 5 0.001825 0.008412 -0.020711 0.019343 0.041101 0.008105
# 6 -0.000351 0.000373 -0.003476 -0.008559 0.008105 0.038503
#
#
# Mechanical properties :
#
#
# Convention : Reuss Voigt Hill
#
# Bulk Modulus (GPa) = 47.91150 64.61070 56.26110
# Shear Modulus (GPa) = 17.58958 36.64375 27.11667
#
# Velocity S-wave (km/s) = 2.65396 3.83059 3.29522
# Velocity P-wave (km/s) = 5.34572 6.74070 6.08333
#
# Compressibility (1/GPa) = 0.02087182
#
# Stress axis : x y z
#
# Youngs Moduli (GPa) = 105.71002 40.63813 25.30474
#
# Poissons Ratio (x) = -0.12755 0.20459
# Poissons Ratio (y) = -0.33179 0.54179
# Poissons Ratio (z) = 0.85466 0.87009
#
# Static dielectric constant tensor:
#      x y z
#    x 1.960580 -0.033580 -0.019820 
#    y -0.033580 2.133120 -0.050150 
#    z -0.019820 -0.050150 2.064310 
# 
# From -- ./inp_files/334013.got.cif
#   From: 2010.05.17/outbox.cif.g08.bks.cpg/sg2_168_cif.got.tgz:334013.got - 2010.06.03 11:33:40.
