data_PCOD9087844
_publ_section_title
;
Structure prediction by ZEFSAII (Michael W. Deem and Ramdas Pophale) SiO2 
 PCOD9087844
Probable space group: P -1
;
_chemical_formula_sum "Si O2"
_cell_formula_units_Z 16
_cell_length_a 8.307695
_cell_length_b 5.765577
_cell_length_c 17.441115
_cell_angle_alpha 90.874370
_cell_angle_beta 113.454426
_cell_angle_gamma 114.079516
_cell_volume 683.770466
_symmetry_space_group_name_H-M "P -1"
_symmetry_group_IT_number 2
_symmetry_cell_setting 'triclinic'
loop_
_space_group_symop_operation_xyz
x,y,z
-x,-y,-z
loop_
_atom_site_type_symbol
_atom_site_label
_atom_site_fract_x
_atom_site_fract_y
_atom_site_fract_z
Si Si1 0.599411 0.415821 0.405764
Si Si2 0.551974 0.073543 0.099438
Si Si3 0.228583 0.184963 0.043072
Si Si4 0.182238 0.535586 0.155383
Si Si5 0.233335 0.435905 0.403162
Si Si6 0.509974 0.155103 0.662196
Si Si7 0.839822 0.640846 0.120023
Si Si8 0.064873 0.909216 0.768731
O O1 0.386038 0.321744 0.407040
O O2 0.757155 0.520590 0.504608
O O3 0.609785 0.667563 0.361791
O O4 0.594898 0.157804 0.365718
O O5 0.345607 0.031663 0.094375
O O6 0.678586 0.383474 0.124384
O O7 0.703705 0.999175 0.171800
O O8 0.500000 0.000000 0.000000
O O9 0.266708 0.433843 0.102106
O O10 0.264881 0.258623 0.961100
O O11 0.000000 0.000000 0.000000
O O12 0.354400 0.754759 0.237076
O O13 0.998613 0.589336 0.101905
O O14 0.070255 0.293750 0.192719
O O15 0.338501 0.713534 0.380257
O O16 0.024569 0.241020 0.326959
O O17 0.954340 0.834419 0.211370
#
# Coordination Sequence:
#
# PCOD9087844 Si02
#       8
#     2   2   2   2   2   2   2   2
#     4   9  16  28  48  76 114 146 177 235 290 342
#     4  11  23  39  56  78 111 152 191 232 288 342
#     4  12  22  38  57  81 109 145 197 236 284 342
#     4  10  21  33  53  83 107 147 189 239 278 343
#     4   8  17  26  49  77 110 140 188 225 286 339
#     4   9  17  29  47  74 115 144 178 229 295 332
#     4  11  21  38  58  74 114 151 186 233 294 335
#     4  10  19  37  54  81 111 148 183 234 285 343
#
# _framework density 23.399667999999998
#
# number of rings (size 3 to 8) (size 9 to 14) (size 15 to 20)
#    0.750    1.250    2.500    2.625    0.000    0.000 
#    0.000    0.000    0.000    0.000    0.000    1.750 
#    0.000    0.000    0.000    0.000    0.000    0.000 
#
# Total GULP energy -89201.771725 kJ/mol
# GULP energy per Si atom -5575.110733 kJ/mol
# Density = 2.334641 g / cm^3
# Si number density = 23.399668 Si / 1000 Ang^3
#
#
#
# Elastic Constant Matrix: (Units=GPa)
#
#
# Indices 1 2 3 4 5 6 
#
# 1 62.0795 4.5747 25.6639 5.6964 13.4987 -15.1346
# 2 4.5747 86.0204 35.0110 18.5939 -3.9794 -15.3788
# 3 25.6639 35.0110 140.4940 13.5933 19.6457 -23.0200
# 4 5.6964 18.5939 13.5933 35.7596 -1.5157 -2.8625
# 5 13.4987 -3.9794 19.6457 -1.5157 12.2254 0.5872
# 6 -15.1346 -15.3788 -23.0200 -2.8625 0.5872 31.8668
#
#
#
# Elastic Compliance Matrix: (Units=1/GPa)
#
#
# Indices 1 2 3 4 5 6 
#
# 1 0.026976 -0.000601 0.003408 -0.005630 -0.036883 0.015157
# 2 -0.000601 0.015854 -0.004410 -0.005685 0.012040 0.003448
# 3 0.003408 -0.004410 0.013326 -0.003739 -0.027523 0.009288
# 4 -0.005630 -0.005685 -0.003739 0.033434 0.014778 -0.005388
# 5 -0.036883 0.012040 -0.027523 0.014778 0.174109 -0.033469
# 6 0.015157 0.003448 0.009288 -0.005388 -0.033469 0.047086
#
#
# Mechanical properties :
#
#
# Convention : Reuss Voigt Hill
#
# Bulk Modulus (GPa) = 18.88552 46.56590 32.72571
# Shear Modulus (GPa) = 15.07658 30.85998 22.96828
#
# Velocity S-wave (km/s) = 2.54107 3.63550 3.13639
# Velocity P-wave (km/s) = 4.08629 6.12910 5.20882
#
# Compressibility (1/GPa) = 0.05295061
#
# Stress axis : x y z
#
# Youngs Moduli (GPa) = 37.07042 63.07480 75.03920
#
# Poissons Ratio (x) = 0.03792 -0.25573
# Poissons Ratio (y) = 0.02228 0.33090
# Poissons Ratio (z) = -0.12633 0.27814
#
# Static dielectric constant tensor:
#      x y z
#    x 1.933600 0.085230 -0.065270 
#    y 0.085230 1.593400 0.178120 
#    z -0.065270 0.178120 1.772790 
# 
# From -- ./inp_files/585388.got.cif
#   From: 2010.05.17/outbox.cif.g08.bks.cpg/sg2_293_cif.got.tgz:585388.got - 2010.06.03 11:33:40.
