data_PCOD9087859
_publ_section_title
;
Structure prediction by ZEFSAII (Michael W. Deem and Ramdas Pophale) SiO2 
 PCOD9087859
Probable space group: P -1
;
_chemical_formula_sum "Si O2"
_cell_formula_units_Z 16
_cell_length_a 9.734644
_cell_length_b 16.665729
_cell_length_c 19.316853
_cell_angle_alpha 41.561613
_cell_angle_beta 32.340973
_cell_angle_gamma 66.816844
_cell_volume 823.634050
_symmetry_space_group_name_H-M "P -1"
_symmetry_group_IT_number 2
_symmetry_cell_setting 'triclinic'
loop_
_space_group_symop_operation_xyz
x,y,z
-x,-y,-z
loop_
_atom_site_type_symbol
_atom_site_label
_atom_site_fract_x
_atom_site_fract_y
_atom_site_fract_z
Si Si1 0.921722 0.576794 0.424391
Si Si2 0.305990 0.759131 0.612507
Si Si3 0.113826 0.827429 0.774981
Si Si4 0.587826 0.885072 0.261095
Si Si5 0.781006 0.481138 0.391848
Si Si6 0.050348 0.986537 0.209366
Si Si7 0.432401 0.969564 0.947957
Si Si8 0.862113 0.556615 0.159339
O O1 0.951452 0.532727 0.361843
O O2 0.529858 0.510014 0.636935
O O3 0.000000 0.500000 0.500000
O O4 0.181797 0.774399 0.190563
O O5 0.460203 0.860554 0.409911
O O6 0.142790 0.579589 0.780135
O O7 0.648014 0.842145 0.459094
O O8 0.115259 0.136860 0.119504
O O9 0.500000 0.000000 0.500000
O O10 0.056635 0.763055 0.762897
O O11 0.090567 0.712193 0.913355
O O12 0.402965 0.704736 0.427658
O O13 0.499904 0.973641 0.195765
O O14 0.000000 0.000000 0.000000
O O15 0.500000 0.500000 0.500000
O O16 0.986343 0.583676 0.168496
O O17 0.248078 0.024827 0.028610
O O18 0.212278 0.941215 0.221300
#
# Coordination Sequence:
#
# PCOD9087859 Si02
#       8
#     2   2   2   2   2   2   2   2
#     4  11  22  34  54  85 118 151 182 230 290 346
#     4  10  20  38  57  85 112 151 194 230 282 335
#     4  10  22  35  58  83 109 151 196 235 275 337
#     4  11  20  34  58  84 116 149 184 237 283 336
#     4   9  21  32  51  80 114 146 183 226 283 334
#     4  10  21  36  54  85 115 145 191 229 286 332
#     4  11  22  35  57  86 119 148 183 234 296 334
#     4  10  19  37  55  80 114 146 188 236 280 334
#
# _framework density 19.426100999999999
#
# number of rings (size 3 to 8) (size 9 to 14) (size 15 to 20)
#    0.000    1.750    2.500    2.625    7.000    2.000 
#    0.000    0.625    0.000    3.000    0.000   12.250 
#    0.000    0.000    0.000    0.000    0.000    0.000 
#
# Total GULP energy -89165.387314 kJ/mol
# GULP energy per Si atom -5572.836707 kJ/mol
# Density = 1.938189 g / cm^3
# Si number density = 19.426101 Si / 1000 Ang^3
#
#
#
# Elastic Constant Matrix: (Units=GPa)
#
#
# Indices 1 2 3 4 5 6 
#
# 1 108.6698 32.2737 39.5894 1.4335 26.3873 16.7604
# 2 32.2737 115.6163 30.0715 9.0964 24.5758 26.0591
# 3 39.5894 30.0715 88.2879 -7.2630 36.9124 8.8105
# 4 1.4335 9.0964 -7.2630 6.5140 -2.0190 8.3823
# 5 26.3873 24.5758 36.9124 -2.0190 32.9450 2.0892
# 6 16.7604 26.0591 8.8105 8.3823 2.0892 27.5183
#
#
#
# Elastic Compliance Matrix: (Units=1/GPa)
#
#
# Indices 1 2 3 4 5 6 
#
# 1 0.012796 -0.000027 -0.001344 0.003101 -0.008047 -0.007672
# 2 -0.000027 0.013735 -0.000994 -0.012832 -0.009386 -0.008050
# 3 -0.001344 -0.000994 0.031195 0.058598 -0.028024 -0.023950
# 4 0.003101 -0.012832 0.058598 0.388262 -0.026862 -0.124727
# 5 -0.008047 -0.009386 -0.028024 -0.026862 0.071937 0.025483
# 6 -0.007672 -0.008050 -0.023950 -0.124727 0.025483 0.092362
#
#
# Mechanical properties :
#
#
# Convention : Reuss Voigt Hill
#
# Bulk Modulus (GPa) = 18.86935 57.38257 38.12596
# Shear Modulus (GPa) = 7.90288 27.43808 17.67048
#
# Velocity S-wave (km/s) = 2.01916 3.76231 3.01927
# Velocity P-wave (km/s) = 3.89493 6.96250 5.64123
#
# Compressibility (1/GPa) = 0.05299599
#
# Stress axis : x y z
#
# Youngs Moduli (GPa) = 78.14995 72.80901 32.05668
#
# Poissons Ratio (x) = 0.00195 0.04308
# Poissons Ratio (y) = 0.00210 0.03186
# Poissons Ratio (z) = 0.10502 0.07237
#
# Static dielectric constant tensor:
#      x y z
#    x 1.722320 0.007310 -0.018810 
#    y 0.007310 1.635500 -0.143680 
#    z -0.018810 -0.143680 1.417590 
# 
# From -- ./inp_files/561911.got.cif
#   From: 2010.05.17/outbox.cif.g08.bks.cpg/sg2_281_cif.got.tgz:561911.got - 2010.06.03 11:33:40.
