data_PCOD9087090
_publ_section_title
;
Structure prediction by ZEFSAII (Michael W. Deem and Ramdas Pophale) SiO2 
 PCOD9087090
Probable space group: P -1
;
_chemical_formula_sum "Si O2"
_cell_formula_units_Z 16
_cell_length_a 9.394084
_cell_length_b 7.689455
_cell_length_c 13.879992
_cell_angle_alpha 75.802367
_cell_angle_beta 134.851431
_cell_angle_gamma 80.102060
_cell_volume 596.053869
_symmetry_space_group_name_H-M "P -1"
_symmetry_group_IT_number 2
_symmetry_cell_setting 'triclinic'
loop_
_space_group_symop_operation_xyz
x,y,z
-x,-y,-z
loop_
_atom_site_type_symbol
_atom_site_label
_atom_site_fract_x
_atom_site_fract_y
_atom_site_fract_z
Si Si1 0.432456 0.241722 0.946205
Si Si2 0.367153 0.355838 0.254474
Si Si3 0.997104 0.361754 0.822267
Si Si4 0.209441 0.748952 0.002838
Si Si5 0.602313 0.910082 0.457804
Si Si6 0.975310 0.357562 0.411728
Si Si7 0.806562 0.378110 0.516207
Si Si8 0.760280 0.115678 0.804865
O O1 0.672214 0.241465 0.041454
O O2 0.261027 0.304990 0.947731
O O3 0.256539 0.438771 0.765744
O O4 0.500000 0.000000 0.000000
O O5 0.165493 0.423501 0.229464
O O6 0.282086 0.520540 0.105138
O O7 0.484144 0.119792 0.308287
O O8 0.566095 0.383259 0.399393
O O9 0.924089 0.330480 0.683484
O O10 0.919058 0.221971 0.861810
O O11 0.308661 0.843550 0.120753
O O12 0.934816 0.900373 0.863745
O O13 0.470739 0.787078 0.381256
O O14 0.500000 0.000000 0.500000
O O15 0.875354 0.792499 0.584374
O O16 0.160763 0.427467 0.522518
O O17 0.932851 0.247209 0.497073
#
# Coordination Sequence:
#
# PCOD9087090 Si02
#       8
#     2   2   2   2   2   2   2   2
#     4  11  20  37  64  95 122 153 207 275 324 360
#     4  11  22  39  61  91 132 173 204 255 319 384
#     4  10  20  34  65  94 121 164 212 266 316 367
#     4  10  21  41  66  95 123 162 218 274 306 370
#     4  12  25  41  62  92 135 176 208 252 316 393
#     4  10  22  37  63  94 124 161 212 271 313 368
#     4  10  19  36  61  93 124 157 214 270 312 357
#     4  10  22  40  65  93 126 164 219 263 313 367
#
# _framework density 26.843211
#
# number of rings (size 3 to 8) (size 9 to 14) (size 15 to 20)
#    0.000    1.500    2.500    4.125    3.500    1.000 
#    0.000    0.000    0.000    3.000    0.000    0.000 
#    0.000    0.000    0.000    0.000    0.000    0.000 
#
# Total GULP energy -89111.314650 kJ/mol
# GULP energy per Si atom -5569.457166 kJ/mol
# Density = 2.678211 g / cm^3
# Si number density = 26.843211 Si / 1000 Ang^3
#
#
#
# Elastic Constant Matrix: (Units=GPa)
#
#
# Indices 1 2 3 4 5 6 
#
# 1 169.4741 28.0339 37.4930 -12.7976 31.7064 -14.5012
# 2 28.0339 64.1506 23.3728 -7.0630 6.8741 -14.3905
# 3 37.4930 23.3728 82.7395 -13.7460 27.0993 -16.3526
# 4 -12.7976 -7.0630 -13.7460 50.6933 -2.7044 -2.7544
# 5 31.7064 6.8741 27.0993 -2.7044 38.0591 -11.1056
# 6 -14.5012 -14.3905 -16.3526 -2.7544 -11.1056 27.4657
#
#
#
# Elastic Compliance Matrix: (Units=1/GPa)
#
#
# Indices 1 2 3 4 5 6 
#
# 1 0.007522 -0.002228 -0.000868 0.001102 -0.005066 0.000349
# 2 -0.002228 0.019650 -0.003725 0.001820 0.003578 0.008530
# 3 -0.000868 -0.003725 0.018451 0.003998 -0.010021 0.004925
# 4 0.001102 0.001820 0.003998 0.021606 -0.000888 0.005723
# 5 -0.005066 0.003578 -0.010021 -0.000888 0.039592 0.009153
# 6 0.000349 0.008530 0.004925 0.005723 0.009153 0.048270
#
#
# Mechanical properties :
#
#
# Convention : Reuss Voigt Hill
#
# Bulk Modulus (GPa) = 31.26812 54.90708 43.08760
# Shear Modulus (GPa) = 27.87172 38.40792 33.13982
#
# Velocity S-wave (km/s) = 3.22579 3.78673 3.51746
# Velocity P-wave (km/s) = 5.05450 6.29430 5.70816
#
# Compressibility (1/GPa) = 0.03198145
#
# Stress axis : x y z
#
# Youngs Moduli (GPa) = 132.94202 50.89140 54.19683
#
# Poissons Ratio (x) = 0.11341 0.04703
# Poissons Ratio (y) = 0.29626 0.20186
# Poissons Ratio (z) = 0.11536 0.18955
#
# Static dielectric constant tensor:
#      x y z
#    x 2.248980 -0.137650 -0.006910 
#    y -0.137650 2.410780 -0.194990 
#    z -0.006910 -0.194990 2.203260 
# 
# From -- ./inp_files/557134.got.cif
#   From: 2010.05.17/outbox.cif.g08.bks.cpg/sg2_279_cif.got.tgz:557134.got - 2010.06.03 11:33:40.
