data_PCOD9087661
_publ_section_title
;
Structure prediction by ZEFSAII (Michael W. Deem and Ramdas Pophale) SiO2 
 PCOD9087661
Probable space group: P -1
;
_chemical_formula_sum "Si O2"
_cell_formula_units_Z 16
_cell_length_a 8.356719
_cell_length_b 4.965177
_cell_length_c 16.349186
_cell_angle_alpha 105.224580
_cell_angle_beta 89.468619
_cell_angle_gamma 95.087755
_cell_volume 651.913671
_symmetry_space_group_name_H-M "P -1"
_symmetry_group_IT_number 2
_symmetry_cell_setting 'triclinic'
loop_
_space_group_symop_operation_xyz
x,y,z
-x,-y,-z
loop_
_atom_site_type_symbol
_atom_site_label
_atom_site_fract_x
_atom_site_fract_y
_atom_site_fract_z
Si Si1 0.170708 0.902788 0.964535
Si Si2 0.955696 0.693511 0.440247
Si Si3 0.648977 0.731836 0.518676
Si Si4 0.466197 0.766594 0.219042
Si Si5 0.318614 0.207881 0.138601
Si Si6 0.981851 0.492261 0.185326
Si Si7 0.723401 0.346109 0.624027
Si Si8 0.810104 0.990191 0.208517
O O1 0.232194 0.042307 0.890408
O O2 0.114598 0.592484 0.906667
O O3 0.286658 0.998055 0.045366
O O4 0.000000 0.000000 0.000000
O O5 0.085849 0.671254 0.367168
O O6 0.000000 0.500000 0.500000
O O7 0.763816 0.663953 0.436746
O O8 0.000000 0.000000 0.500000
O O9 0.500000 0.500000 0.500000
O O10 0.718107 0.635521 0.598150
O O11 0.652108 0.068045 0.551379
O O12 0.449326 0.473645 0.145288
O O13 0.376903 0.674091 0.295490
O O14 0.648461 0.883467 0.245766
O O15 0.377513 0.010032 0.194047
O O16 0.152485 0.360033 0.167317
O O17 0.960117 0.817210 0.216093
O O18 0.873082 0.314788 0.238596
#
# Coordination Sequence:
#
# PCOD9087661 Si02
#       8
#     2   2   2   2   2   2   2   2
#     4   8  20  36  62  80 108 146 209 253 301 320
#     4   8  16  32  57  82 109 144 175 219 268 322
#     4  10  19  36  65  91 108 139 197 239 266 320
#     4  12  25  38  55  87 125 160 183 234 302 356
#     4  11  23  37  60  83 113 151 209 242 283 357
#     4   9  20  39  60  80 106 150 198 257 296 333
#     4  10  21  39  56  81 125 155 174 222 297 350
#     4  10  21  38  58  82 115 153 195 244 313 335
#
# _framework density 24.543127999999999
#
# number of rings (size 3 to 8) (size 9 to 14) (size 15 to 20)
#    0.750    1.500    0.000    2.625    1.750    2.000 
#    0.000    3.750    0.000    0.000    0.000    0.000 
#    0.000    0.000    0.000    0.000    0.000    0.000 
#
# Total GULP energy -89155.885595 kJ/mol
# GULP energy per Si atom -5572.242850 kJ/mol
# Density = 2.448727 g / cm^3
# Si number density = 24.543128 Si / 1000 Ang^3
#
#
#
# Elastic Constant Matrix: (Units=GPa)
#
#
# Indices 1 2 3 4 5 6 
#
# 1 50.6690 7.8414 11.3494 1.9412 -4.0550 23.6468
# 2 7.8414 109.1236 -3.2362 -6.1351 3.5237 -8.1169
# 3 11.3494 -3.2362 43.4227 -9.8305 -8.1902 0.4563
# 4 1.9412 -6.1351 -9.8305 25.0772 10.6658 6.9225
# 5 -4.0550 3.5237 -8.1902 10.6658 28.0899 -10.0281
# 6 23.6468 -8.1169 0.4563 6.9225 -10.0281 50.0278
#
#
#
# Elastic Compliance Matrix: (Units=1/GPa)
#
#
# Indices 1 2 3 4 5 6 
#
# 1 0.028674 -0.003367 -0.008361 -0.001295 -0.002506 -0.014347
# 2 -0.003367 0.009895 0.002088 0.003535 -0.001616 0.002365
# 3 -0.008361 0.002088 0.028297 0.009304 0.004555 0.003658
# 4 -0.001295 0.003535 0.009304 0.058005 -0.024143 -0.011765
# 5 -0.002506 -0.001616 0.004555 -0.024143 0.051100 0.014465
# 6 -0.014347 0.002365 0.003658 -0.011765 0.014465 0.031648
#
#
# Mechanical properties :
#
#
# Convention : Reuss Voigt Hill
#
# Bulk Modulus (GPa) = 21.01447 26.12494 23.56971
# Shear Modulus (GPa) = 20.59629 33.12301 26.85965
#
# Velocity S-wave (km/s) = 2.90002 3.67765 3.31174
# Velocity P-wave (km/s) = 4.44908 5.35734 4.92420
#
# Compressibility (1/GPa) = 0.04758626
#
# Stress axis : x y z
#
# Youngs Moduli (GPa) = 34.87419 101.06475 35.33902
#
# Poissons Ratio (x) = 0.34033 0.29546
# Poissons Ratio (y) = 0.11744 -0.07379
# Poissons Ratio (z) = 0.29157 -0.21103
#
# Static dielectric constant tensor:
#      x y z
#    x 2.081230 0.005950 0.041130 
#    y 0.005950 1.902780 0.045080 
#    z 0.041130 0.045080 2.059270 
# 
# From -- ./inp_files/552119.got.cif
#   From: 2010.05.17/outbox.cif.g08.bks.cpg/sg2_277_cif.got.tgz:552119.got - 2010.06.03 11:33:40.
