data_PCOD9087399
_publ_section_title
;
Structure prediction by ZEFSAII (Michael W. Deem and Ramdas Pophale) SiO2 
 PCOD9087399
Probable space group: P -1
;
_chemical_formula_sum "Si O2"
_cell_formula_units_Z 14
_cell_length_a 9.297787
_cell_length_b 6.968817
_cell_length_c 9.683684
_cell_angle_alpha 82.205580
_cell_angle_beta 64.204306
_cell_angle_gamma 106.173274
_cell_volume 518.084191
_symmetry_space_group_name_H-M "P -1"
_symmetry_group_IT_number 2
_symmetry_cell_setting 'triclinic'
loop_
_space_group_symop_operation_xyz
x,y,z
-x,-y,-z
loop_
_atom_site_type_symbol
_atom_site_label
_atom_site_fract_x
_atom_site_fract_y
_atom_site_fract_z
Si Si1 0.391614 0.311127 0.667290
Si Si2 0.637731 0.395771 0.795794
Si Si3 0.995068 0.707003 0.626980
Si Si4 0.029689 0.237309 0.928350
Si Si5 0.751323 0.170550 0.272320
Si Si6 0.879856 0.061194 0.727321
Si Si7 0.513918 0.781047 0.832633
O O1 0.500000 0.500000 0.500000
O O2 0.515373 0.272968 0.734896
O O3 0.235113 0.352849 0.808169
O O4 0.298288 0.080350 0.660039
O O5 0.842088 0.487914 0.684806
O O6 0.588782 0.602647 0.789352
O O7 0.594739 0.296387 0.974617
O O8 0.924854 0.851275 0.740666
O O9 0.170402 0.718295 0.626863
O O10 0.026686 0.820516 0.457743
O O11 0.941862 0.204382 0.819782
O O12 0.000000 0.000000 0.000000
O O13 0.910392 0.282473 0.088398
O O14 0.411094 0.812042 0.740544
O O15 0.677632 0.982934 0.789646
#
# Coordination Sequence:
#
# PCOD9087399 Si02
#       7
#     2   2   2   2   2   2   2
#     4  11  23  40  65  96 129 163 208 265 317 373
#     4  10  23  41  64  93 127 165 209 261 322 367
#     4  10  21  38  63  91 124 171 208 253 314 384
#     4  10  19  36  63  90 123 167 209 254 312 375
#     4  11  24  41  67  95 125 167 217 259 310 375
#     4  10  19  37  62  88 124 170 208 244 315 386
#     4  10  23  40  66  91 128 163 216 261 308 375
#
# _framework density 27.022634
#
# number of rings (size 3 to 8) (size 9 to 14) (size 15 to 20)
#    0.000    1.714    2.857    2.571    8.000    3.429 
#    0.000    0.000    0.000    3.429    0.000    0.000 
#    0.000    0.000    0.000    0.000    0.000    0.000 
#
# Total GULP energy -78434.923446 kJ/mol
# GULP energy per Si atom -5602.494532 kJ/mol
# Density = 2.696113 g / cm^3
# Si number density = 27.022634 Si / 1000 Ang^3
#
#
#
# Elastic Constant Matrix: (Units=GPa)
#
#
# Indices 1 2 3 4 5 6 
#
# 1 173.9947 45.9552 43.4149 -2.7232 41.9686 20.1518
# 2 45.9552 108.5934 21.9961 -12.2313 15.7073 29.7705
# 3 43.4149 21.9961 110.5938 -16.6256 9.3672 16.0716
# 4 -2.7232 -12.2313 -16.6256 49.2338 17.6257 -3.7234
# 5 41.9686 15.7073 9.3672 17.6257 62.7766 5.1121
# 6 20.1518 29.7705 16.0716 -3.7234 5.1121 63.8968
#
#
#
# Elastic Compliance Matrix: (Units=1/GPa)
#
#
# Indices 1 2 3 4 5 6 
#
# 1 0.008044 -0.002013 -0.002131 0.000878 -0.004751 -0.000632
# 2 -0.002013 0.012036 -0.000278 0.003214 -0.002157 -0.004543
# 3 -0.002131 -0.000278 0.010814 0.003711 -0.001030 -0.001620
# 4 0.000878 0.003214 0.003711 0.025633 -0.009102 -0.000486
# 5 -0.004751 -0.002157 -0.001030 -0.009102 0.022318 0.000446
# 6 -0.000632 -0.004543 -0.001620 -0.000486 0.000446 0.018310
#
#
# Mechanical properties :
#
#
# Convention : Reuss Voigt Hill
#
# Bulk Modulus (GPa) = 45.34983 68.43494 56.89238
# Shear Modulus (GPa) = 44.11151 53.96915 49.04033
#
# Velocity S-wave (km/s) = 4.04467 4.47383 4.26465
# Velocity P-wave (km/s) = 6.21539 7.21574 6.73417
#
# Compressibility (1/GPa) = 0.02205080
#
# Stress axis : x y z
#
# Youngs Moduli (GPa) = 124.32313 83.08251 92.46934
#
# Poissons Ratio (x) = 0.16725 0.19705
# Poissons Ratio (y) = 0.25026 0.02568
# Poissons Ratio (z) = 0.26493 0.02307
#
# Static dielectric constant tensor:
#      x y z
#    x 2.242950 -0.073530 0.051670 
#    y -0.073530 2.181560 0.044960 
#    z 0.051670 0.044960 2.181410 
# 
# From -- ./inp_files/300736.got.cif
#   From: 2010.05.17/outbox.cif.g08.bks.cpg/sg2_151_cif.got.tgz:300736.got - 2010.06.03 11:33:40.
