data_PCOD9087044
_publ_section_title
;
Structure prediction by ZEFSAII (Michael W. Deem and Ramdas Pophale) SiO2 
 PCOD9087044
Probable space group: P -1
;
_chemical_formula_sum "Si O2"
_cell_formula_units_Z 16
_cell_length_a 17.249906
_cell_length_b 17.396499
_cell_length_c 17.220520
_cell_angle_alpha 149.828900
_cell_angle_beta 30.409054
_cell_angle_gamma 162.564490
_cell_volume 753.518515
_symmetry_space_group_name_H-M "P -1"
_symmetry_group_IT_number 2
_symmetry_cell_setting 'triclinic'
loop_
_space_group_symop_operation_xyz
x,y,z
-x,-y,-z
loop_
_atom_site_type_symbol
_atom_site_label
_atom_site_fract_x
_atom_site_fract_y
_atom_site_fract_z
Si Si1 0.460271 0.023147 0.315092
Si Si2 0.654394 0.836767 0.949323
Si Si3 0.753317 0.407649 0.682270
Si Si4 0.928665 0.532816 0.257851
Si Si5 0.802311 0.696800 0.390139
Si Si6 0.877032 0.652760 0.110284
Si Si7 0.704501 0.144156 0.355794
Si Si8 0.757431 0.735435 0.927714
O O1 0.524865 0.102127 0.418656
O O2 0.649747 0.281205 0.323647
O O3 0.158364 0.777074 0.332115
O O4 0.570490 0.940030 0.136866
O O5 0.399832 0.562251 0.884709
O O6 0.722836 0.793789 0.927911
O O7 0.902188 0.063065 0.875014
O O8 0.750620 0.257812 0.498804
O O9 0.809742 0.598718 0.746854
O O10 0.985295 0.609207 0.723508
O O11 0.459974 0.146861 0.745543
O O12 0.888985 0.624598 0.305546
O O13 0.023686 0.443895 0.065904
O O14 0.500000 0.500000 0.500000
O O15 0.831110 0.667151 0.250366
O O16 0.000000 0.000000 0.500000
O O17 0.500000 0.500000 0.000000
O O18 0.000000 0.000000 0.000000
#
# Coordination Sequence:
#
# PCOD9087044 Si02
#       8
#     2   2   2   2   2   2   2   2
#     4  10  19  36  61  90 117 153 204 257 294 355
#     4  10  21  37  61  93 121 161 208 252 312 356
#     4  10  21  36  55  82 117 160 206 244 305 368
#     4  10  22  40  65  93 119 158 216 240 304 380
#     4  12  25  44  66  95 129 162 201 256 323 376
#     4  10  22  43  66  89 125 168 206 260 300 379
#     4  10  20  37  58  82 117 158 203 253 301 353
#     4  12  23  37  59  90 125 163 208 257 308 361
#
# _framework density 21.233718
#
# number of rings (size 3 to 8) (size 9 to 14) (size 15 to 20)
#    0.000    1.500    0.000    5.625    0.000    2.000 
#    6.750    5.000    0.000    0.000    0.000    0.000 
#    0.000    0.000    0.000    0.000    0.000    0.000 
#
# Total GULP energy -89328.183672 kJ/mol
# GULP energy per Si atom -5583.011480 kJ/mol
# Density = 2.118539 g / cm^3
# Si number density = 21.233718 Si / 1000 Ang^3
#
#
#
# Elastic Constant Matrix: (Units=GPa)
#
#
# Indices 1 2 3 4 5 6 
#
# 1 146.3528 41.2160 30.9249 -0.8690 -7.2724 -9.5571
# 2 41.2160 153.3516 26.9828 4.8339 -8.4547 6.9280
# 3 30.9249 26.9828 40.4408 0.0319 0.4580 -1.7382
# 4 -0.8690 4.8339 0.0319 21.6763 -4.3698 1.3922
# 5 -7.2724 -8.4547 0.4580 -4.3698 24.5426 4.6011
# 6 -9.5571 6.9280 -1.7382 1.3922 4.6011 39.8553
#
#
#
# Elastic Compliance Matrix: (Units=1/GPa)
#
#
# Indices 1 2 3 4 5 6 
#
# 1 0.008624 -0.001319 -0.005662 0.000945 0.002041 0.001782
# 2 -0.001319 0.007928 -0.004402 -0.001148 0.002621 -0.002149
# 3 -0.005662 -0.004402 0.032095 -0.000195 -0.004068 0.001284
# 4 0.000945 -0.001148 -0.000195 0.048376 0.008934 -0.002303
# 5 0.002041 0.002621 -0.004068 0.008934 0.044978 -0.005648
# 6 0.001782 -0.002149 0.001284 -0.002303 -0.005648 0.026680
#
#
# Mechanical properties :
#
#
# Convention : Reuss Voigt Hill
#
# Bulk Modulus (GPa) = 38.63775 59.82138 49.22956
# Shear Modulus (GPa) = 24.99060 33.28294 29.13677
#
# Velocity S-wave (km/s) = 3.43436 3.96341 3.70833
# Velocity P-wave (km/s) = 5.82772 7.01276 6.44752
#
# Compressibility (1/GPa) = 0.02588143
#
# Stress axis : x y z
#
# Youngs Moduli (GPa) = 115.95394 126.13756 31.15719
#
# Poissons Ratio (x) = 0.16643 0.17640
# Poissons Ratio (y) = 0.15300 0.13715
# Poissons Ratio (z) = 0.65650 0.55523
#
# Static dielectric constant tensor:
#      x y z
#    x 1.762270 0.031240 -0.037820 
#    y 0.031240 1.846440 -0.090880 
#    z -0.037820 -0.090880 1.918570 
# 
# From -- ./inp_files/371506.got.cif
#   From: 2010.05.17/outbox.cif.g08.bks.cpg/sg2_186_cif.got.tgz:371506.got - 2010.06.03 11:33:40.
