data_PCOD9087827
_publ_section_title
;
Structure prediction by ZEFSAII (Michael W. Deem and Ramdas Pophale) SiO2 
 PCOD9087827
Probable space group: P -1
;
_chemical_formula_sum "Si O2"
_cell_formula_units_Z 14
_cell_length_a 5.562337
_cell_length_b 9.183555
_cell_length_c 19.345179
_cell_angle_alpha 142.140110
_cell_angle_beta 81.881214
_cell_angle_gamma 83.390029
_cell_volume 557.083169
_symmetry_space_group_name_H-M "P -1"
_symmetry_group_IT_number 2
_symmetry_cell_setting 'triclinic'
loop_
_space_group_symop_operation_xyz
x,y,z
-x,-y,-z
loop_
_atom_site_type_symbol
_atom_site_label
_atom_site_fract_x
_atom_site_fract_y
_atom_site_fract_z
Si Si1 0.918172 0.147144 0.764142
Si Si2 0.990854 0.614805 0.966873
Si Si3 0.225143 0.973625 0.562315
Si Si4 0.121592 0.250503 0.304654
Si Si5 0.514541 0.626907 0.924948
Si Si6 0.363223 0.299451 0.449345
Si Si7 0.795042 0.441452 0.698937
O O1 0.997020 0.979429 0.628828
O O2 0.991232 0.971289 0.762418
O O3 0.067033 0.343318 0.821422
O O4 0.623772 0.351400 0.856871
O O5 0.205306 0.734008 0.986422
O O6 0.695636 0.761262 0.004834
O O7 0.000000 0.500000 0.000000
O O8 0.472669 0.900049 0.574778
O O9 0.285133 0.747389 0.419067
O O10 0.090012 0.249696 0.635857
O O11 0.331163 0.183533 0.333435
O O12 0.210037 0.314208 0.252250
O O13 0.905027 0.516563 0.437120
O O14 0.615798 0.546745 0.812914
O O15 0.500000 0.500000 0.500000
#
# Coordination Sequence:
#
# PCOD9087827 Si02
#       7
#     2   2   2   2   2   2   2
#     4   9  21  34  57  88 117 159 212 251 285 367
#     4  10  21  42  67  90 111 153 208 265 308 360
#     4  10  19  37  50  82 127 171 204 239 294 346
#     4  11  21  34  53  87 122 163 215 244 301 350
#     4   9  22  38  62  92 117 153 201 253 306 374
#     4  11  20  33  53  77 120 177 215 246 273 349
#     4  10  21  36  55  89 129 163 198 247 306 364
#
# _framework density 25.130898999999999
#
# number of rings (size 3 to 8) (size 9 to 14) (size 15 to 20)
#    0.857    1.143    2.857    1.286    2.000    1.714 
#    0.000    0.000    0.000    1.714    0.000    0.000 
#    0.000    0.000    0.000    0.000    0.000    0.000 
#
# Total GULP energy -78066.177978 kJ/mol
# GULP energy per Si atom -5576.155570 kJ/mol
# Density = 2.507370 g / cm^3
# Si number density = 25.130899 Si / 1000 Ang^3
#
#
#
# Elastic Constant Matrix: (Units=GPa)
#
#
# Indices 1 2 3 4 5 6 
#
# 1 126.1254 27.9301 17.5707 -14.0988 -2.5670 -15.1620
# 2 27.9301 122.7287 19.6551 -18.2545 -6.5367 -12.5237
# 3 17.5707 19.6551 67.8964 -25.1977 -1.5756 -1.6752
# 4 -14.0988 -18.2545 -25.1977 40.6099 -0.3562 -0.5285
# 5 -2.5670 -6.5367 -1.5756 -0.3562 13.2431 -9.3427
# 6 -15.1620 -12.5237 -1.6752 -0.5285 -9.3427 34.1227
#
#
#
# Elastic Compliance Matrix: (Units=1/GPa)
#
#
# Indices 1 2 3 4 5 6 
#
# 1 0.009231 -0.000799 -0.001063 0.002297 0.004964 0.005151
# 2 -0.000799 0.010123 -0.000948 0.003839 0.008938 0.005820
# 3 -0.001063 -0.000948 0.019599 0.011403 0.002713 0.001062
# 4 0.002297 0.003839 0.011403 0.034378 0.008807 0.005933
# 5 0.004964 0.008938 0.002713 0.008807 0.105976 0.034772
# 6 0.005151 0.005820 0.001062 0.005933 0.034772 0.043395
#
#
# Mechanical properties :
#
#
# Convention : Reuss Voigt Hill
#
# Bulk Modulus (GPa) = 30.00044 49.67358 39.83701
# Shear Modulus (GPa) = 20.88284 34.36811 27.62547
#
# Velocity S-wave (km/s) = 2.88577 3.70207 3.31911
# Velocity P-wave (km/s) = 4.80283 6.17111 5.52946
#
# Compressibility (1/GPa) = 0.03333285
#
# Stress axis : x y z
#
# Youngs Moduli (GPa) = 108.33597 98.78824 51.02311
#
# Poissons Ratio (x) = 0.07891 0.05423
# Poissons Ratio (y) = 0.08654 0.04837
# Poissons Ratio (z) = 0.11515 0.09365
#
# Static dielectric constant tensor:
#      x y z
#    x 2.192760 0.037400 0.101030 
#    y 0.037400 1.999140 -0.005130 
#    z 0.101030 -0.005130 2.041210 
# 
# From -- ./inp_files/546705.got.cif
#   From: 2010.05.17/outbox.cif.g08.bks.cpg/sg2_274_cif.got.tgz:546705.got - 2010.06.03 11:33:40.
