data_PCOD9087864
_publ_section_title
;
Structure prediction by ZEFSAII (Michael W. Deem and Ramdas Pophale) SiO2 
 PCOD9087864
Probable space group: P -1
;
_chemical_formula_sum "Si O2"
_cell_formula_units_Z 16
_cell_length_a 11.185964
_cell_length_b 16.447650
_cell_length_c 9.199386
_cell_angle_alpha 57.642358
_cell_angle_beta 40.245611
_cell_angle_gamma 79.642370
_cell_volume 838.660498
_symmetry_space_group_name_H-M "P -1"
_symmetry_group_IT_number 2
_symmetry_cell_setting 'triclinic'
loop_
_space_group_symop_operation_xyz
x,y,z
-x,-y,-z
loop_
_atom_site_type_symbol
_atom_site_label
_atom_site_fract_x
_atom_site_fract_y
_atom_site_fract_z
Si Si1 0.702173 0.193899 0.428373
Si Si2 0.062216 0.395490 0.374523
Si Si3 0.350379 0.747746 0.261017
Si Si4 0.787576 0.364272 0.935738
Si Si5 0.143822 0.957532 0.492224
Si Si6 0.070035 0.066867 0.725557
Si Si7 0.353664 0.968221 0.994452
Si Si8 0.607733 0.698367 0.837582
O O1 0.638599 0.239247 0.587919
O O2 0.890157 0.163388 0.327523
O O3 0.520464 0.078358 0.672284
O O4 0.745682 0.272704 0.179441
O O5 0.130464 0.520822 0.175769
O O6 0.256109 0.367541 0.211188
O O7 0.880506 0.329397 0.495821
O O8 0.954776 0.365771 0.661439
O O9 0.394301 0.863624 0.044737
O O10 0.509036 0.711063 0.070572
O O11 0.583487 0.347269 0.051175
O O12 0.162549 0.010584 0.579955
O O13 0.314762 0.986579 0.182025
O O14 0.000000 0.000000 0.500000
O O15 0.235845 0.186272 0.474270
O O16 0.863939 0.063899 0.849520
O O17 0.000000 0.000000 0.000000
#
# Coordination Sequence:
#
# PCOD9087864 Si02
#       8
#     2   2   2   2   2   2   2   2
#     4  11  21  38  60  89 125 150 203 241 291 352
#     4  10  22  44  63  84 119 156 206 239 303 351
#     4  10  21  39  63  88 113 161 193 244 295 355
#     4  10  24  41  63  88 115 161 196 252 296 347
#     4   9  20  35  55  80 122 162 186 230 294 358
#     4  11  21  31  54  91 119 150 199 240 284 354
#     4  10  19  37  55  83 123 157 187 235 299 351
#     4  11  21  39  62  83 120 158 199 240 304 349
#
# _framework density 19.078040000000001
#
# number of rings (size 3 to 8) (size 9 to 14) (size 15 to 20)
#    0.000    1.750    1.250    4.125    1.750    0.500 
#    0.000    3.750    0.000    0.000    0.000    0.000 
#    0.000    0.000    0.000    0.000    0.000    0.000 
#
# Total GULP energy -89190.568100 kJ/mol
# GULP energy per Si atom -5574.410506 kJ/mol
# Density = 1.903462 g / cm^3
# Si number density = 19.078040 Si / 1000 Ang^3
#
#
#
# Elastic Constant Matrix: (Units=GPa)
#
#
# Indices 1 2 3 4 5 6 
#
# 1 45.3833 22.9378 27.8705 7.6550 -19.9156 -7.6472
# 2 22.9378 91.6818 33.5755 6.9173 -19.5670 -9.7885
# 3 27.8705 33.5755 77.2602 -7.2982 -6.1157 -11.7149
# 4 7.6550 6.9173 -7.2982 35.3729 -5.3923 -14.7270
# 5 -19.9156 -19.5670 -6.1157 -5.3923 26.1469 0.5399
# 6 -7.6472 -9.7885 -11.7149 -14.7270 0.5399 32.1121
#
#
#
# Elastic Compliance Matrix: (Units=1/GPa)
#
#
# Indices 1 2 3 4 5 6 
#
# 1 0.045711 0.001449 -0.015199 -0.007964 0.030670 0.001615
# 2 0.001449 0.015518 -0.006438 -0.002458 0.010674 0.001419
# 3 -0.015199 -0.006438 0.022800 0.011242 -0.008909 0.008041
# 4 -0.007964 -0.002458 0.011242 0.041807 0.002921 0.020580
# 5 0.030670 0.010674 -0.008909 0.002921 0.067958 0.007504
# 6 0.001615 0.001419 0.008041 0.020580 0.007504 0.044204
#
#
# Mechanical properties :
#
#
# Convention : Reuss Voigt Hill
#
# Bulk Modulus (GPa) = 22.90862 42.56587 32.73725
# Shear Modulus (GPa) = 17.06928 27.38913 22.22920
#
# Velocity S-wave (km/s) = 2.99441 3.79309 3.41717
# Velocity P-wave (km/s) = 4.89788 6.44541 5.72418
#
# Compressibility (1/GPa) = 0.04365168
#
# Stress axis : x y z
#
# Youngs Moduli (GPa) = 21.87681 64.44231 43.85985
#
# Poissons Ratio (x) = -0.09336 0.66661
# Poissons Ratio (y) = -0.03169 0.28238
# Poissons Ratio (z) = 0.33250 0.41490
#
# Static dielectric constant tensor:
#      x y z
#    x 1.698820 0.009530 -0.080110 
#    y 0.009530 1.672180 0.025130 
#    z -0.080110 0.025130 1.654640 
# 
# From -- ./inp_files/261036.got.cif
#   From: 2010.05.17/outbox.cif.g08.bks.cpg/sg2_131_cif.got.tgz:261036.got - 2010.06.03 11:33:40.
