data_PCOD9087393
_publ_section_title
;
Structure prediction by ZEFSAII (Michael W. Deem and Ramdas Pophale) SiO2 
 PCOD9087393
Probable space group: P -1
;
_chemical_formula_sum "Si O2"
_cell_formula_units_Z 14
_cell_length_a 10.349097
_cell_length_b 12.009610
_cell_length_c 10.949107
_cell_angle_alpha 51.392359
_cell_angle_beta 54.786024
_cell_angle_gamma 95.818920
_cell_volume 600.785320
_symmetry_space_group_name_H-M "P -1"
_symmetry_group_IT_number 2
_symmetry_cell_setting 'triclinic'
loop_
_space_group_symop_operation_xyz
x,y,z
-x,-y,-z
loop_
_atom_site_type_symbol
_atom_site_label
_atom_site_fract_x
_atom_site_fract_y
_atom_site_fract_z
Si Si1 0.028909 0.910246 0.158854
Si Si2 0.407613 0.760001 0.597889
Si Si3 0.223785 0.195636 0.402143
Si Si4 0.156277 0.857382 0.737373
Si Si5 0.024185 0.397498 0.750484
Si Si6 0.754799 0.496090 0.910439
Si Si7 0.510188 0.675558 0.347943
O O1 0.808306 0.775436 0.458286
O O2 0.068534 0.779008 0.173500
O O3 0.245792 0.111161 0.977378
O O4 0.000000 0.000000 0.000000
O O5 0.251434 0.797065 0.639108
O O6 0.485362 0.739167 0.447093
O O7 0.625192 0.952901 0.426879
O O8 0.265027 0.562081 0.897900
O O9 0.141278 0.281099 0.318075
O O10 0.094472 0.961008 0.630863
O O11 0.487246 0.335369 0.126821
O O12 0.991992 0.684800 0.048212
O O13 0.293316 0.583399 0.450756
O O14 0.885981 0.454347 0.797744
O O15 0.500000 0.500000 0.500000
#
# Coordination Sequence:
#
# PCOD9087393 Si02
#       7
#     2   2   2   2   2   2   2
#     4  12  21  39  63  92 124 159 202 254 301 361
#     4   9  18  34  59  89 120 152 201 252 295 354
#     4  10  19  36  63  90 118 163 207 245 304 364
#     4   9  16  33  61  87 117 154 198 252 296 346
#     4  11  22  38  62  94 123 157 204 254 302 358
#     4   9  21  37  60  91 120 159 210 248 299 363
#     4  12  23  35  63  98 123 158 202 252 310 356
#
# _framework density 23.302834000000001
#
# number of rings (size 3 to 8) (size 9 to 14) (size 15 to 20)
#    0.000    1.714    4.286    1.714    0.000    2.857 
#    0.000    0.714    0.000    7.714    0.000    0.000 
#    0.000    0.000    0.000    0.000    0.000    0.000 
#
# Total GULP energy -78219.898034 kJ/mol
# GULP energy per Si atom -5587.135574 kJ/mol
# Density = 2.324980 g / cm^3
# Si number density = 23.302834 Si / 1000 Ang^3
#
#
#
# Elastic Constant Matrix: (Units=GPa)
#
#
# Indices 1 2 3 4 5 6 
#
# 1 72.4108 50.5455 43.4038 -12.8504 -4.5494 -39.7232
# 2 50.5455 123.2517 20.5796 5.3159 -3.5615 -42.6235
# 3 43.4038 20.5796 70.7034 -6.7249 -16.5950 -15.8498
# 4 -12.8504 5.3159 -6.7249 28.7493 -6.1164 -3.5233
# 5 -4.5494 -3.5615 -16.5950 -6.1164 41.8799 -7.2723
# 6 -39.7232 -42.6235 -15.8498 -3.5233 -7.2723 49.0837
#
#
#
# Elastic Compliance Matrix: (Units=1/GPa)
#
#
# Indices 1 2 3 4 5 6 
#
# 1 0.056221 -0.008761 -0.019732 0.028011 0.007654 0.034665
# 2 -0.008761 0.013311 0.002507 -0.004874 0.001353 0.005129
# 3 -0.019732 0.002507 0.026028 -0.002191 0.007288 -0.004464
# 4 0.028011 -0.004874 -0.002191 0.053492 0.013669 0.023593
# 5 0.007654 0.001353 0.007288 0.013669 0.032401 0.015504
# 6 0.034665 0.005129 -0.004464 0.023593 0.015504 0.055430
#
#
# Mechanical properties :
#
#
# Convention : Reuss Voigt Hill
#
# Bulk Modulus (GPa) = 22.94112 55.04709 38.99410
# Shear Modulus (GPa) = 16.48084 34.06506 25.27295
#
# Velocity S-wave (km/s) = 2.66230 3.82755 3.29681
# Velocity P-wave (km/s) = 4.39506 6.57323 5.59124
#
# Compressibility (1/GPa) = 0.04358985
#
# Stress axis : x y z
#
# Youngs Moduli (GPa) = 17.78700 75.12828 38.41961
#
# Poissons Ratio (x) = 0.65817 0.75809
# Poissons Ratio (y) = 0.15582 -0.09633
# Poissons Ratio (z) = 0.35097 -0.18837
#
# Static dielectric constant tensor:
#      x y z
#    x 1.927360 0.013300 -0.037860 
#    y 0.013300 1.866290 -0.053060 
#    z -0.037860 -0.053060 1.952820 
# 
# From -- ./inp_files/425255.got.cif
#   From: 2010.05.17/outbox.cif.g08.bks.cpg/sg2_213_cif.got.tgz:425255.got - 2010.06.03 11:33:40.
