data_PCOD9087952
_publ_section_title
;
Structure prediction by ZEFSAII (Michael W. Deem and Ramdas Pophale) SiO2 
 PCOD9087952
Probable space group: P -1
;
_chemical_formula_sum "Si O2"
_cell_formula_units_Z 16
_cell_length_a 7.954717
_cell_length_b 17.579572
_cell_length_c 7.471898
_cell_angle_alpha 86.902581
_cell_angle_beta 112.002977
_cell_angle_gamma 126.942727
_cell_volume 753.344391
_symmetry_space_group_name_H-M "P -1"
_symmetry_group_IT_number 2
_symmetry_cell_setting 'triclinic'
loop_
_space_group_symop_operation_xyz
x,y,z
-x,-y,-z
loop_
_atom_site_type_symbol
_atom_site_label
_atom_site_fract_x
_atom_site_fract_y
_atom_site_fract_z
Si Si1 0.917505 0.344625 0.303138
Si Si2 0.840342 0.966600 0.707245
Si Si3 0.643811 0.479042 0.437535
Si Si4 0.491713 0.641979 0.940466
Si Si5 0.912640 0.848214 0.989353
Si Si6 0.786262 0.489008 0.837735
Si Si7 0.248799 0.853126 0.853555
Si Si8 0.336041 0.041203 0.733806
O O1 0.708993 0.348946 0.190091
O O2 0.830429 0.236532 0.290682
O O3 0.102471 0.418757 0.519315
O O4 0.084333 0.399218 0.186705
O O5 0.668838 0.934158 0.477077
O O6 0.779046 0.881444 0.826978
O O7 0.893030 0.057084 0.827694
O O8 0.094580 0.009220 0.724875
O O9 0.500000 0.500000 0.500000
O O10 0.510183 0.413090 0.224709
O O11 0.704995 0.433078 0.621055
O O12 0.416780 0.573350 0.091946
O O13 0.731075 0.750680 0.041022
O O14 0.039802 0.829304 0.896774
O O15 0.000000 0.500000 0.000000
O O16 0.332323 0.948538 0.763332
O O17 0.450818 0.877873 0.065897
#
# Coordination Sequence:
#
# PCOD9087952 Si02
#       8
#     2   2   2   2   2   2   2   2
#     4   9  20  38  57  83 115 154 195 235 281 355
#     4   9  19  40  55  84 111 150 195 228 291 348
#     4  10  21  38  59  86 117 149 192 249 283 338
#     4  11  20  40  62  83 116 163 191 235 296 336
#     4  10  21  35  58  82 118 148 190 243 284 350
#     4   8  20  38  59  82 113 157 193 238 275 352
#     4  10  19  37  57  87 118 145 189 241 295 327
#     4   9  19  36  63  80 111 154 186 238 285 353
#
# _framework density 21.238627999999999
#
# number of rings (size 3 to 8) (size 9 to 14) (size 15 to 20)
#    0.750    1.750    0.000    1.875    0.000    2.000 
#   13.500    0.000    0.000    0.000    0.000    0.000 
#    0.000    0.000    0.000    0.000    0.000    0.000 
#
# Total GULP energy -89128.239775 kJ/mol
# GULP energy per Si atom -5570.514986 kJ/mol
# Density = 2.119029 g / cm^3
# Si number density = 21.238628 Si / 1000 Ang^3
#
#
#
# Elastic Constant Matrix: (Units=GPa)
#
#
# Indices 1 2 3 4 5 6 
#
# 1 53.4814 13.1529 -7.2971 7.0362 0.9683 -1.8149
# 2 13.1529 60.0228 2.5420 2.3723 -8.3839 6.5355
# 3 -7.2971 2.5420 59.4164 -4.5887 -0.0327 2.6013
# 4 7.0362 2.3723 -4.5887 16.2433 4.9810 -6.4839
# 5 0.9683 -8.3839 -0.0327 4.9810 31.5273 1.7356
# 6 -1.8149 6.5355 2.6013 -6.4839 1.7356 27.0456
#
#
#
# Elastic Compliance Matrix: (Units=1/GPa)
#
#
# Indices 1 2 3 4 5 6 
#
# 1 0.021136 -0.004598 0.002194 -0.007404 -0.000732 0.000590
# 2 -0.004598 0.019652 -0.001575 -0.006091 0.006702 -0.006796
# 3 0.002194 -0.001575 0.017521 0.004605 -0.001197 0.000023
# 4 -0.007404 -0.006091 0.004605 0.079845 -0.015139 0.020646
# 5 -0.000732 0.006702 -0.001197 -0.015139 0.036328 -0.007514
# 6 0.000590 -0.006796 0.000023 0.020646 -0.007514 0.044086
#
#
# Mechanical properties :
#
#
# Convention : Reuss Voigt Hill
#
# Bulk Modulus (GPa) = 19.86048 21.07957 20.47002
# Shear Modulus (GPa) = 20.55004 25.93142 23.24073
#
# Velocity S-wave (km/s) = 3.11397 3.49801 3.31156
# Velocity P-wave (km/s) = 4.72234 5.12459 4.92757
#
# Compressibility (1/GPa) = 0.05035125
#
# Stress axis : x y z
#
# Youngs Moduli (GPa) = 47.31310 50.88666 57.07361
#
# Poissons Ratio (x) = 0.23400 -0.12524
# Poissons Ratio (y) = 0.21757 0.08987
# Poissons Ratio (z) = -0.10383 0.08013
#
# Static dielectric constant tensor:
#      x y z
#    x 1.822000 0.003240 0.027860 
#    y 0.003240 1.754940 -0.026750 
#    z 0.027860 -0.026750 1.819850 
# 
# From -- ./inp_files/212681.got.cif
#   From: 2010.05.17/outbox.cif.g08.bks.cpg/sg2_107_cif.got.tgz:212681.got - 2010.06.03 11:33:40.
