data_PCOD9087133
_publ_section_title
;
Structure prediction by ZEFSAII (Michael W. Deem and Ramdas Pophale) SiO2 
 PCOD9087133
Probable space group: P -1
;
_chemical_formula_sum "Si O2"
_cell_formula_units_Z 14
_cell_length_a 5.297177
_cell_length_b 9.282351
_cell_length_c 20.949498
_cell_angle_alpha 150.307518
_cell_angle_beta 82.075498
_cell_angle_gamma 99.747613
_cell_volume 502.794771
_symmetry_space_group_name_H-M "P -1"
_symmetry_group_IT_number 2
_symmetry_cell_setting 'triclinic'
loop_
_space_group_symop_operation_xyz
x,y,z
-x,-y,-z
loop_
_atom_site_type_symbol
_atom_site_label
_atom_site_fract_x
_atom_site_fract_y
_atom_site_fract_z
Si Si1 0.328847 0.423594 0.413322
Si Si2 0.959907 0.056630 0.354855
Si Si3 0.216474 0.916441 0.010840
Si Si4 0.952933 0.265634 0.652804
Si Si5 0.137572 0.276285 0.952892
Si Si6 0.486004 0.356731 0.639546
Si Si7 0.430163 0.354817 0.850417
O O1 0.500000 0.500000 0.500000
O O2 0.103675 0.638993 0.495738
O O3 0.493286 0.493171 0.371728
O O4 0.158053 0.118275 0.314022
O O5 0.099687 0.881948 0.334905
O O6 0.675786 0.913385 0.293975
O O7 0.266597 0.594144 0.913473
O O8 0.056435 0.976579 0.106745
O O9 0.500000 0.000000 0.000000
O O10 0.000000 0.000000 0.000000
O O11 0.229801 0.437730 0.711533
O O12 0.728615 0.447648 0.709723
O O13 0.000000 0.000000 0.500000
O O14 0.348629 0.208060 0.866300
O O15 0.301769 0.458438 0.072388
O O16 0.000000 0.500000 0.000000
O O17 0.500000 0.000000 0.500000
#
# Coordination Sequence:
#
# PCOD9087133 Si02
#       7
#     2   2   2   2   2   2   2
#     4  11  23  38  62  92 134 183 228 284 325 390
#     4  11  24  39  64  96 131 178 236 278 329 396
#     4  11  21  41  74 103 133 171 219 278 351 412
#     4  10  19  38  61  84 117 168 218 264 330 381
#     4   9  20  41  71  95 137 181 217 274 355 415
#     4  10  19  36  62  82 116 171 220 262 336 379
#     4  10  22  43  67 102 135 182 227 280 342 421
#
# _framework density 27.844366000000001
#
# number of rings (size 3 to 8) (size 9 to 14) (size 15 to 20)
#    0.000    1.714    4.286    1.714    2.000    2.286 
#    0.000    2.857    0.000    0.000    0.000    0.000 
#    0.000    0.000    0.000    0.000    0.000    0.000 
#
# Total GULP energy -78072.833336 kJ/mol
# GULP energy per Si atom -5576.630953 kJ/mol
# Density = 2.778099 g / cm^3
# Si number density = 27.844366 Si / 1000 Ang^3
#
#
#
# Elastic Constant Matrix: (Units=GPa)
#
#
# Indices 1 2 3 4 5 6 
#
# 1 221.4613 81.8584 16.5500 4.4181 28.9966 -5.5739
# 2 81.8584 261.4090 30.1602 -4.8333 10.9972 14.7418
# 3 16.5500 30.1602 47.3721 6.1422 14.8239 -4.8179
# 4 4.4181 -4.8333 6.1422 33.2773 -1.2145 5.8785
# 5 28.9966 10.9972 14.8239 -1.2145 33.1013 -6.1364
# 6 -5.5739 14.7418 -4.8179 5.8785 -6.1364 65.2794
#
#
#
# Elastic Compliance Matrix: (Units=1/GPa)
#
#
# Indices 1 2 3 4 5 6 
#
# 1 0.005779 -0.001771 0.000866 -0.001472 -0.004797 0.000639
# 2 -0.001771 0.004822 -0.003213 0.001842 0.001171 -0.001533
# 3 0.000866 -0.003213 0.027653 -0.006528 -0.011886 0.002311
# 4 -0.001472 0.001842 -0.006528 0.032498 0.004133 -0.003561
# 5 -0.004797 0.001171 -0.011886 0.004133 0.039836 0.001821
# 6 0.000639 -0.001533 0.002311 -0.003561 0.001821 0.016382
#
#
# Mechanical properties :
#
#
# Convention : Reuss Voigt Hill
#
# Bulk Modulus (GPa) = 33.31317 87.48661 60.39989
# Shear Modulus (GPa) = 34.43251 53.10986 43.77118
#
# Velocity S-wave (km/s) = 3.52036 4.37210 3.96914
# Velocity P-wave (km/s) = 5.33984 7.54818 6.53793
#
# Compressibility (1/GPa) = 0.03001815
#
# Stress axis : x y z
#
# Youngs Moduli (GPa) = 173.04283 207.38952 36.16223
#
# Poissons Ratio (x) = 0.36727 -0.03130
# Poissons Ratio (y) = 0.30645 0.11617
# Poissons Ratio (z) = -0.14978 0.66624
#
# Static dielectric constant tensor:
#      x y z
#    x 2.745560 0.465590 0.225400 
#    y 0.465590 2.447720 0.184200 
#    z 0.225400 0.184200 2.510650 
# 
# From -- ./inp_files/322474.got.cif
#   From: 2010.05.17/outbox.cif.g08.bks.cpg/sg2_162_cif.got.tgz:322474.got - 2010.06.03 11:33:40.
