data_PCOD9087749
_publ_section_title
;
Structure prediction by ZEFSAII (Michael W. Deem and Ramdas Pophale) SiO2 
 PCOD9087749
Probable space group: P -1
;
_chemical_formula_sum "Si O2"
_cell_formula_units_Z 16
_cell_length_a 8.729309
_cell_length_b 14.887934
_cell_length_c 8.635625
_cell_angle_alpha 62.088398
_cell_angle_beta 131.511021
_cell_angle_gamma 87.748717
_cell_volume 630.588099
_symmetry_space_group_name_H-M "P -1"
_symmetry_group_IT_number 2
_symmetry_cell_setting 'triclinic'
loop_
_space_group_symop_operation_xyz
x,y,z
-x,-y,-z
loop_
_atom_site_type_symbol
_atom_site_label
_atom_site_fract_x
_atom_site_fract_y
_atom_site_fract_z
Si Si1 0.177873 0.034880 0.668597
Si Si2 0.187992 0.790170 0.496724
Si Si3 0.317734 0.588300 0.002742
Si Si4 0.897438 0.578657 0.600532
Si Si5 0.971414 0.219008 0.113212
Si Si6 0.561709 0.173822 0.799807
Si Si7 0.867021 0.388069 0.564662
Si Si8 0.464226 0.125462 0.430722
O O1 0.138047 0.134965 0.437185
O O2 0.063435 0.099977 0.700986
O O3 0.000000 0.000000 0.500000
O O4 0.421262 0.913111 0.978207
O O5 0.268517 0.691396 0.764917
O O6 0.148621 0.730118 0.368043
O O7 0.377838 0.832117 0.586337
O O8 0.136698 0.544362 0.882041
O O9 0.231077 0.654541 0.055046
O O10 0.592033 0.487620 0.252590
O O11 0.663163 0.691722 0.429090
O O12 0.888359 0.461270 0.661312
O O13 0.943296 0.621516 0.429571
O O14 0.176521 0.216393 0.148831
O O15 0.814766 0.167693 0.984859
O O16 0.546263 0.127295 0.659619
O O17 0.500000 0.000000 0.500000
#
# Coordination Sequence:
#
# PCOD9087749 Si02
#       8
#     2   2   2   2   2   2   2   2
#     4   9  20  39  66  93 124 164 220 275 323 375
#     4  10  22  41  63  94 131 169 216 271 320 391
#     4  10  19  42  70  95 129 162 216 280 328 376
#     4  10  19  36  67 102 122 164 212 265 333 392
#     4  10  21  41  67  96 126 170 218 275 323 392
#     4  11  22  41  68  92 135 173 214 275 331 381
#     4  10  21  40  67  99 133 160 215 279 331 378
#     4  12  26  44  62  91 137 180 223 263 325 396
#
# _framework density 25.373138999999998
#
# number of rings (size 3 to 8) (size 9 to 14) (size 15 to 20)
#    0.000    1.750    2.500    3.000    0.000    2.500 
#    0.000    8.750    0.000    0.000    0.000    0.000 
#    0.000    0.000    0.000    0.000    0.000    0.000 
#
# Total GULP energy -89419.964988 kJ/mol
# GULP energy per Si atom -5588.747812 kJ/mol
# Density = 2.531539 g / cm^3
# Si number density = 25.373139 Si / 1000 Ang^3
#
#
#
# Elastic Constant Matrix: (Units=GPa)
#
#
# Indices 1 2 3 4 5 6 
#
# 1 105.2791 46.1482 38.1953 3.0347 19.6148 19.8644
# 2 46.1482 210.3950 50.0616 8.4746 12.1394 14.5450
# 3 38.1953 50.0616 82.8024 3.7688 17.7963 -0.5994
# 4 3.0347 8.4746 3.7688 39.4270 6.3510 15.2155
# 5 19.6148 12.1394 17.7963 6.3510 30.2886 2.0993
# 6 19.8644 14.5450 -0.5994 15.2155 2.0993 35.6804
#
#
#
# Elastic Compliance Matrix: (Units=1/GPa)
#
#
# Indices 1 2 3 4 5 6 
#
# 1 0.014576 -0.001207 -0.004890 0.004133 -0.006319 -0.009096
# 2 -0.001207 0.005851 -0.003069 -0.000297 0.000417 -0.001663
# 3 -0.004890 -0.003069 0.017583 -0.001760 -0.005937 0.005369
# 4 0.004133 -0.000297 -0.001760 0.032478 -0.007250 -0.015633
# 5 -0.006319 0.000417 -0.005937 -0.007250 0.041680 0.003887
# 6 -0.009096 -0.001663 0.005369 -0.015633 0.003887 0.040296
#
#
# Mechanical properties :
#
#
# Convention : Reuss Voigt Hill
#
# Bulk Modulus (GPa) = 50.81632 74.14296 62.47964
# Shear Modulus (GPa) = 28.19215 38.68395 33.43805
#
# Velocity S-wave (km/s) = 3.33694 3.90885 3.63416
# Velocity P-wave (km/s) = 5.90914 7.04675 6.50287
#
# Compressibility (1/GPa) = 0.01967872
#
# Stress axis : x y z
#
# Youngs Moduli (GPa) = 68.60628 170.92064 56.87286
#
# Poissons Ratio (x) = 0.20624 0.27811
# Poissons Ratio (y) = 0.08278 0.17453
# Poissons Ratio (z) = 0.33548 0.52453
#
# Static dielectric constant tensor:
#      x y z
#    x 2.115450 -0.016100 -0.121730 
#    y -0.016100 2.024490 0.039070 
#    z -0.121730 0.039070 2.029970 
# 
# From -- ./inp_files/206543.got.cif
#   From: 2010.05.17/outbox.cif.g08.bks.cpg/sg2_104_cif.got.tgz:206543.got - 2010.06.03 11:33:40.
