data_PCOD9087020
_publ_section_title
;
Structure prediction by ZEFSAII (Michael W. Deem and Ramdas Pophale) SiO2 
 PCOD9087020
Probable space group: P -1
;
_chemical_formula_sum "Si O2"
_cell_formula_units_Z 16
_cell_length_a 21.351503
_cell_length_b 9.537953
_cell_length_c 19.822308
_cell_angle_alpha 144.173177
_cell_angle_beta 152.278234
_cell_angle_gamma 27.562528
_cell_volume 862.523167
_symmetry_space_group_name_H-M "P -1"
_symmetry_group_IT_number 2
_symmetry_cell_setting 'triclinic'
loop_
_space_group_symop_operation_xyz
x,y,z
-x,-y,-z
loop_
_atom_site_type_symbol
_atom_site_label
_atom_site_fract_x
_atom_site_fract_y
_atom_site_fract_z
Si Si1 0.796087 0.953275 0.843792
Si Si2 0.740419 0.074584 0.685584
Si Si3 0.369041 0.645702 0.566304
Si Si4 0.122531 0.347788 0.622396
Si Si5 0.948866 0.278426 0.753046
Si Si6 0.908842 0.180942 0.415345
Si Si7 0.064532 0.896777 0.844350
Si Si8 0.394790 0.322805 0.605091
O O1 0.918081 0.589264 0.828787
O O2 0.809050 0.037108 0.812659
O O3 0.598281 0.088774 0.716545
O O4 0.839648 0.097712 0.998463
O O5 0.565028 0.415941 0.641113
O O6 0.883414 0.993381 0.736981
O O7 0.683124 0.858005 0.545469
O O8 0.237358 0.645377 0.393865
O O9 0.362029 0.512119 0.579423
O O10 0.288527 0.998876 0.632940
O O11 0.000000 0.500000 0.500000
O O12 0.000486 0.332335 0.549143
O O13 0.159771 0.566815 0.772387
O O14 0.035744 0.123655 0.846655
O O15 0.047284 0.038055 0.691257
O O16 0.708934 0.435223 0.339439
O O17 0.000000 0.000000 0.500000
#
# Coordination Sequence:
#
# PCOD9087020 Si02
#       8
#     2   2   2   2   2   2   2   2
#     4  11  23  42  59  85 120 158 193 236 295 350
#     4  11  21  39  63  88 113 152 206 243 277 339
#     4  10  19  36  61  89 115 145 200 244 283 330
#     4  11  21  37  58  86 121 150 187 242 293 341
#     4  11  21  39  59  86 123 152 188 243 293 348
#     4  11  19  35  64  90 107 148 208 236 276 340
#     4  12  25  38  58  89 124 155 185 241 303 346
#     4  11  19  37  66  90 109 152 205 246 273 340
#
# _framework density 18.550225999999999
#
# number of rings (size 3 to 8) (size 9 to 14) (size 15 to 20)
#    0.000    1.000    8.750    1.500    0.000    0.500 
#    2.250    4.375    0.000    0.000    0.000    0.000 
#    0.000    0.000    0.000    0.000    0.000    0.000 
#
# Total GULP energy -89300.216985 kJ/mol
# GULP energy per Si atom -5581.263562 kJ/mol
# Density = 1.850801 g / cm^3
# Si number density = 18.550226 Si / 1000 Ang^3
#
#
#
# Elastic Constant Matrix: (Units=GPa)
#
#
# Indices 1 2 3 4 5 6 
#
# 1 54.6544 17.5411 5.7921 -12.0140 -12.7197 3.0616
# 2 17.5411 109.6394 17.5086 4.0967 -12.3688 -6.1232
# 3 5.7921 17.5086 65.6952 9.1919 -19.3642 -2.6292
# 4 -12.0140 4.0967 9.1919 20.2935 -3.6331 -4.5733
# 5 -12.7197 -12.3688 -19.3642 -3.6331 20.1447 -2.0984
# 6 3.0616 -6.1232 -2.6292 -4.5733 -2.0984 24.1320
#
#
#
# Elastic Compliance Matrix: (Units=1/GPa)
#
#
# Indices 1 2 3 4 5 6 
#
# 1 0.028788 -0.003114 0.001914 0.021142 0.022094 0.001694
# 2 -0.003114 0.010400 -0.001123 -0.002233 0.003225 0.002769
# 3 0.001914 -0.001123 0.022446 -0.004259 0.021639 0.002992
# 4 0.021142 -0.002233 -0.004259 0.070693 0.021840 0.011583
# 5 0.022094 0.003225 0.021639 0.021840 0.091612 0.012478
# 6 0.001694 0.002769 0.002992 0.011583 0.012478 0.045533
#
#
# Mechanical properties :
#
#
# Convention : Reuss Voigt Hill
#
# Bulk Modulus (GPa) = 17.54763 34.63029 26.08896
# Shear Modulus (GPa) = 17.05814 25.52384 21.29099
#
# Velocity S-wave (km/s) = 3.03572 3.71338 3.39152
# Velocity P-wave (km/s) = 4.66557 6.09053 5.42504
#
# Compressibility (1/GPa) = 0.05698775
#
# Stress axis : x y z
#
# Youngs Moduli (GPa) = 34.73685 96.15031 44.55045
#
# Poissons Ratio (x) = 0.29944 -0.08527
# Poissons Ratio (y) = 0.10818 0.05004
# Poissons Ratio (z) = -0.06649 0.10801
#
# Static dielectric constant tensor:
#      x y z
#    x 1.632330 -0.018190 -0.007940 
#    y -0.018190 1.664840 0.014690 
#    z -0.007940 0.014690 1.622180 
# 
# From -- ./inp_files/189172.got.cif
#   From: 2010.05.17/outbox.cif.g08.bks.cpg/sg2_95_cif.got.tgz:189172.got - 2010.06.03 11:33:40.
