data_PCOD9087507
_publ_section_title
;
Structure prediction by ZEFSAII (Michael W. Deem and Ramdas Pophale) SiO2 
 PCOD9087507
Probable space group: P -1
;
_chemical_formula_sum "Si O2"
_cell_formula_units_Z 16
_cell_length_a 11.386381
_cell_length_b 9.494270
_cell_length_c 16.328462
_cell_angle_alpha 57.274898
_cell_angle_beta 51.732617
_cell_angle_gamma 99.700060
_cell_volume 755.028516
_symmetry_space_group_name_H-M "P -1"
_symmetry_group_IT_number 2
_symmetry_cell_setting 'triclinic'
loop_
_space_group_symop_operation_xyz
x,y,z
-x,-y,-z
loop_
_atom_site_type_symbol
_atom_site_label
_atom_site_fract_x
_atom_site_fract_y
_atom_site_fract_z
Si Si1 0.940832 0.636603 0.381935
Si Si2 0.728002 0.103235 0.703353
Si Si3 0.867953 0.304026 0.286617
Si Si4 0.568996 0.694710 0.312678
Si Si5 0.277564 0.493698 0.786931
Si Si6 0.735895 0.141017 0.983520
Si Si7 0.548562 0.868984 0.686872
Si Si8 0.787115 0.100718 0.210523
O O1 0.849646 0.369607 0.524967
O O2 0.707234 0.540438 0.500203
O O3 0.913876 0.182111 0.658736
O O4 0.108332 0.776964 0.186996
O O5 0.620919 0.904775 0.737760
O O6 0.511115 0.984408 0.887756
O O7 0.695382 0.310952 0.336754
O O8 0.861957 0.186019 0.245265
O O9 0.107480 0.593424 0.117347
O O10 0.770582 0.123096 0.462318
O O11 0.684720 0.626290 0.251793
O O12 0.641302 0.817057 0.333272
O O13 0.667553 0.924408 0.137315
O O14 0.444890 0.634217 0.749184
O O15 0.023143 0.289386 0.998510
O O16 0.360626 0.860357 0.763236
#
# Coordination Sequence:
#
# PCOD9087507 Si02
#       8
#     2   2   2   2   2   2   2   2
#     4  10  21  37  59  88 116 142 190 244 285 335
#     4  10  19  36  64  87 110 147 187 243 294 321
#     4  11  21  35  59  87 115 150 194 236 275 335
#     4  11  23  39  56  85 122 155 186 230 284 345
#     4  11  22  36  57  82 118 161 186 225 288 339
#     4  11  19  37  60  88 118 143 192 235 285 340
#     4  11  20  39  57  88 112 148 198 239 275 339
#     4  11  19  35  55  81 115 151 189 230 275 330
#
# _framework density 21.191251000000001
#
# number of rings (size 3 to 8) (size 9 to 14) (size 15 to 20)
#    0.000    1.250    5.000    4.500    0.000    0.000 
#    4.500    3.750    0.000    0.750    0.000    0.000 
#    0.000    0.000    0.000    0.000    0.000    0.000 
#
# Total GULP energy -89427.294578 kJ/mol
# GULP energy per Si atom -5589.205911 kJ/mol
# Density = 2.114302 g / cm^3
# Si number density = 21.191251 Si / 1000 Ang^3
#
#
#
# Elastic Constant Matrix: (Units=GPa)
#
#
# Indices 1 2 3 4 5 6 
#
# 1 40.3426 30.5542 27.6429 -2.8354 -3.3251 17.6104
# 2 30.5542 121.2522 15.5145 10.5523 -8.3613 15.4510
# 3 27.6429 15.5145 125.3796 16.9068 -5.0102 7.8466
# 4 -2.8354 10.5523 16.9068 32.4409 12.5913 -5.5890
# 5 -3.3251 -8.3613 -5.0102 12.5913 10.0578 -0.3728
# 6 17.6104 15.4510 7.8466 -5.5890 -0.3728 32.8422
#
#
#
# Elastic Compliance Matrix: (Units=1/GPa)
#
#
# Indices 1 2 3 4 5 6 
#
# 1 0.049362 -0.014787 -0.014211 0.030980 -0.042256 -0.011324
# 2 -0.014787 0.020186 0.009543 -0.040597 0.067099 -0.009995
# 3 -0.014211 0.009543 0.017815 -0.037769 0.059137 -0.006882
# 4 0.030980 -0.040597 -0.037769 0.172821 -0.257265 0.038001
# 5 -0.042256 0.067099 0.059137 -0.257265 0.490490 -0.061251
# 6 -0.011324 -0.009995 -0.006882 0.038001 -0.061251 0.048639
#
#
# Mechanical properties :
#
#
# Convention : Reuss Voigt Hill
#
# Bulk Modulus (GPa) = 20.63824 48.26640 34.45232
# Shear Modulus (GPa) = 5.85225 29.28571 17.56898
#
# Velocity S-wave (km/s) = 1.66362 3.72152 2.88248
# Velocity P-wave (km/s) = 3.66747 6.42591 5.23176
#
# Compressibility (1/GPa) = 0.04845375
#
# Stress axis : x y z
#
# Youngs Moduli (GPa) = 20.25851 49.53909 56.13326
#
# Poissons Ratio (x) = 0.73255 0.79769
# Poissons Ratio (y) = 0.29957 -0.53570
# Poissons Ratio (z) = 0.28788 -0.47277
#
# Static dielectric constant tensor:
#      x y z
#    x 1.760820 0.024210 0.018410 
#    y 0.024210 1.787530 -0.024710 
#    z 0.018410 -0.024710 1.805960 
# 
# From -- ./inp_files/515349.got.cif
#   From: 2010.05.17/outbox.cif.g08.bks.cpg/sg2_258_cif.got.tgz:515349.got - 2010.06.03 11:33:40.
