data_PCOD9087088
_publ_section_title
;
Structure prediction by ZEFSAII (Michael W. Deem and Ramdas Pophale) SiO2 
 PCOD9087088
Probable space group: P -1
;
_chemical_formula_sum "Si O2"
_cell_formula_units_Z 14
_cell_length_a 9.158079
_cell_length_b 9.094550
_cell_length_c 9.461231
_cell_angle_alpha 80.536656
_cell_angle_beta 61.196007
_cell_angle_gamma 81.075684
_cell_volume 678.485276
_symmetry_space_group_name_H-M "P -1"
_symmetry_group_IT_number 2
_symmetry_cell_setting 'triclinic'
loop_
_space_group_symop_operation_xyz
x,y,z
-x,-y,-z
loop_
_atom_site_type_symbol
_atom_site_label
_atom_site_fract_x
_atom_site_fract_y
_atom_site_fract_z
Si Si1 0.406876 0.106432 0.908213
Si Si2 0.802517 0.221192 0.323730
Si Si3 0.577115 0.360532 0.897590
Si Si4 0.893914 0.874687 0.351976
Si Si5 0.886404 0.366019 0.539468
Si Si6 0.462602 0.162313 0.557917
Si Si7 0.827121 0.143207 0.003384
O O1 0.417785 0.270544 0.941677
O O2 0.493054 0.132215 0.713780
O O3 0.249779 0.017853 0.949815
O O4 0.500000 0.000000 0.000000
O O5 0.872083 0.335432 0.383378
O O6 0.602081 0.259068 0.416712
O O7 0.849806 0.205414 0.140052
O O8 0.846601 0.049063 0.384961
O O9 0.706371 0.387659 0.702945
O O10 0.500000 0.500000 0.000000
O O11 0.694017 0.256261 0.965376
O O12 0.727038 0.793927 0.406194
O O13 0.010345 0.783519 0.424396
O O14 0.003721 0.870158 0.160435
O O15 0.000000 0.500000 0.500000
O O16 0.500000 0.000000 0.500000
#
# Coordination Sequence:
#
# PCOD9087088 Si02
#       7
#     2   2   2   2   2   2   2
#     4  10  19  36  64  90 121 153 200 249 299 354
#     4  11  21  40  65  92 121 156 200 256 301 356
#     4  10  23  43  60  87 126 167 203 241 297 369
#     4  10  22  40  63  91 127 152 198 252 307 359
#     4  11  25  45  58  88 125 165 202 249 300 359
#     4  10  19  36  61  93 122 148 197 251 302 351
#     4  10  21  39  64  95 121 153 203 252 304 356
#
# _framework density 20.6342
#
# number of rings (size 3 to 8) (size 9 to 14) (size 15 to 20)
#    0.000    1.714    4.286    0.857    0.000    2.286 
#    5.143    2.857    0.000    0.000    0.000    0.000 
#    0.000    0.000    0.000    0.000    0.000    0.000 
#
# Total GULP energy -77971.016482 kJ/mol
# GULP energy per Si atom -5569.358320 kJ/mol
# Density = 2.058724 g / cm^3
# Si number density = 20.634200 Si / 1000 Ang^3
#
#
#
# Elastic Constant Matrix: (Units=GPa)
#
#
# Indices 1 2 3 4 5 6 
#
# 1 82.6238 33.4531 51.7876 24.2256 -3.1838 22.8959
# 2 33.4531 91.3041 28.2629 27.9203 -1.0681 33.5906
# 3 51.7876 28.2629 80.4971 22.9387 4.7590 23.3250
# 4 24.2256 27.9203 22.9387 24.6271 7.3328 7.3690
# 5 -3.1838 -1.0681 4.7590 7.3328 40.7600 10.6019
# 6 22.8959 33.5906 23.3250 7.3690 10.6019 39.1125
#
#
#
# Elastic Compliance Matrix: (Units=1/GPa)
#
#
# Indices 1 2 3 4 5 6 
#
# 1 0.026391 0.004701 -0.009337 -0.021942 0.010508 -0.012632
# 2 0.004701 0.030604 0.005009 -0.039953 0.015216 -0.028619
# 3 -0.009337 0.005009 0.024459 -0.016721 0.002395 -0.010921
# 4 -0.021942 -0.039953 -0.016721 0.120048 -0.033762 0.043662
# 5 0.010508 0.015216 0.002395 -0.033762 0.037938 -0.024570
# 6 -0.012632 -0.028619 -0.010921 0.043662 -0.024570 0.062487
#
#
# Mechanical properties :
#
#
# Convention : Reuss Voigt Hill
#
# Bulk Modulus (GPa) = 12.16566 53.49246 32.82906
# Shear Modulus (GPa) = 15.21687 30.29469 22.75578
#
# Velocity S-wave (km/s) = 2.71857 3.83584 3.32447
# Velocity P-wave (km/s) = 3.97024 6.75268 5.53902
#
# Compressibility (1/GPa) = 0.08219859
#
# Stress axis : x y z
#
# Youngs Moduli (GPa) = 37.89140 32.67550 40.88460
#
# Poissons Ratio (x) = -0.15360 0.38176
# Poissons Ratio (y) = -0.17812 -0.20479
# Poissons Ratio (z) = 0.35381 -0.16367
#
# Static dielectric constant tensor:
#      x y z
#    x 1.751720 0.021360 -0.015810 
#    y 0.021360 1.748080 -0.035390 
#    z -0.015810 -0.035390 1.743800 
# 
# From -- ./inp_files/156698.got.cif
#   From: 2010.05.17/outbox.cif.g08.bks.cpg/sg2_79_cif.got.tgz:156698.got - 2010.06.03 11:33:40.
