data_PCOD9087725
_publ_section_title
;
Structure prediction by ZEFSAII (Michael W. Deem and Ramdas Pophale) SiO2 
 PCOD9087725
Probable space group: P -1
;
_chemical_formula_sum "Si O2"
_cell_formula_units_Z 16
_cell_length_a 13.504352
_cell_length_b 16.077342
_cell_length_c 7.221791
_cell_angle_alpha 127.907985
_cell_angle_beta 141.325176
_cell_angle_gamma 37.125127
_cell_volume 591.238121
_symmetry_space_group_name_H-M "P -1"
_symmetry_group_IT_number 2
_symmetry_cell_setting 'triclinic'
loop_
_space_group_symop_operation_xyz
x,y,z
-x,-y,-z
loop_
_atom_site_type_symbol
_atom_site_label
_atom_site_fract_x
_atom_site_fract_y
_atom_site_fract_z
Si Si1 0.416485 0.890331 0.579883
Si Si2 0.405933 0.590944 0.254487
Si Si3 0.150488 0.111436 0.915465
Si Si4 0.165607 0.495908 0.348775
Si Si5 0.261227 0.288418 0.480959
Si Si6 0.228379 0.678542 0.536646
Si Si7 0.630389 0.857607 0.185834
Si Si8 0.911035 0.121732 0.896089
O O1 0.508367 0.813987 0.413778
O O2 0.273627 0.868739 0.445582
O O3 0.299121 0.051251 0.594732
O O4 0.616876 0.820100 0.908190
O O5 0.601721 0.588506 0.515291
O O6 0.302279 0.627119 0.357146
O O7 0.536629 0.426921 0.178295
O O8 0.220317 0.715640 0.027605
O O9 0.965422 0.162945 0.571651
O O10 0.089169 0.074549 0.955341
O O11 0.148095 0.235759 0.148857
O O12 0.385108 0.981750 0.037178
O O13 0.174377 0.436014 0.479359
O O14 0.107216 0.641863 0.429525
O O15 0.000000 0.500000 0.000000
O O16 0.274588 0.255980 0.673014
O O17 0.000000 0.000000 0.000000
#
# Coordination Sequence:
#
# PCOD9087725 Si02
#       8
#     2   2   2   2   2   2   2   2
#     4  10  20  37  52  75 108 144 171 213 272 312
#     4   8  16  28  43  72 105 130 171 212 251 313
#     4  10  19  29  48  76 105 135 171 220 256 311
#     4  10  16  27  51  79  98 135 177 213 258 309
#     4  11  18  34  55  79 107 134 178 220 260 314
#     4   8  15  28  43  70 103 132 169 208 256 307
#     4  10  22  34  53  79 105 140 176 217 267 309
#     4  11  19  30  52  79 104 138 175 214 265 312
#
# _framework density 27.061854
#
# number of rings (size 3 to 8) (size 9 to 14) (size 15 to 20)
#    0.750    1.500    2.500    3.000    0.000    0.500 
#    0.000    0.000    0.000    0.750    0.000    4.375 
#    0.000    0.000    0.000    0.000    0.000    0.000 
#
# Total GULP energy -89109.587387 kJ/mol
# GULP energy per Si atom -5569.349212 kJ/mol
# Density = 2.700026 g / cm^3
# Si number density = 27.061854 Si / 1000 Ang^3
#
#
#
# Elastic Constant Matrix: (Units=GPa)
#
#
# Indices 1 2 3 4 5 6 
#
# 1 164.7371 43.0938 31.0578 -0.4206 1.4021 36.8026
# 2 43.0938 90.1923 36.3473 -45.8665 -19.6616 10.7653
# 3 31.0578 36.3473 83.6363 -17.3223 -5.1904 8.5045
# 4 -0.4206 -45.8665 -17.3223 50.5022 8.6640 1.8470
# 5 1.4021 -19.6616 -5.1904 8.6640 45.6749 -22.2767
# 6 36.8026 10.7653 8.5045 1.8470 -22.2767 51.8429
#
#
#
# Elastic Compliance Matrix: (Units=1/GPa)
#
#
# Indices 1 2 3 4 5 6 
#
# 1 0.010242 -0.008070 -0.001178 -0.006210 -0.006668 -0.008046
# 2 -0.008070 0.031521 -0.005279 0.024863 0.010238 0.003563
# 3 -0.001178 -0.005279 0.014826 0.000513 -0.001141 -0.001008
# 4 -0.006210 0.024863 0.000513 0.042163 0.002293 -0.001356
# 5 -0.006668 0.010238 -0.001141 0.002293 0.034493 0.017535
# 6 -0.008046 0.003563 -0.001008 -0.001356 0.017535 0.032009
#
#
# Mechanical properties :
#
#
# Convention : Reuss Voigt Hill
#
# Bulk Modulus (GPa) = 36.31777 62.17371 49.24574
# Shear Modulus (GPa) = 24.57153 44.80846 34.68999
#
# Velocity S-wave (km/s) = 3.01653 4.07354 3.58422
# Velocity P-wave (km/s) = 5.05787 6.71934 5.94691
#
# Compressibility (1/GPa) = 0.02753473
#
# Stress axis : x y z
#
# Youngs Moduli (GPa) = 97.64026 31.72440 67.44735
#
# Poissons Ratio (x) = 0.25602 0.07945
# Poissons Ratio (y) = 0.78796 0.35609
# Poissons Ratio (z) = 0.11501 0.16749
#
# Static dielectric constant tensor:
#      x y z
#    x 2.082330 -0.055290 -0.025230 
#    y -0.055290 2.306930 0.033540 
#    z -0.025230 0.033540 2.222180 
# 
# From -- ./inp_files/316639.got.cif
#   From: 2010.05.17/outbox.cif.g08.bks.cpg/sg2_159_cif.got.tgz:316639.got - 2010.06.03 11:33:40.
