data_PCOD9087694
_publ_section_title
;
Structure prediction by ZEFSAII (Michael W. Deem and Ramdas Pophale) SiO2 
 PCOD9087694
Probable space group: P -1
;
_chemical_formula_sum "Si O2"
_cell_formula_units_Z 16
_cell_length_a 15.678034
_cell_length_b 22.624881
_cell_length_c 11.067591
_cell_angle_alpha 39.686000
_cell_angle_beta 27.979277
_cell_angle_gamma 22.580058
_cell_volume 683.900761
_symmetry_space_group_name_H-M "P -1"
_symmetry_group_IT_number 2
_symmetry_cell_setting 'triclinic'
loop_
_space_group_symop_operation_xyz
x,y,z
-x,-y,-z
loop_
_atom_site_type_symbol
_atom_site_label
_atom_site_fract_x
_atom_site_fract_y
_atom_site_fract_z
Si Si1 0.255945 0.825736 0.395457
Si Si2 0.799488 0.439434 0.865696
Si Si3 0.500038 0.527736 0.597109
Si Si4 0.642809 0.752869 0.667609
Si Si5 0.679285 0.951722 0.500170
Si Si6 0.808169 0.708847 0.797647
Si Si7 0.992433 0.040482 0.765824
Si Si8 0.220941 0.738892 0.974238
O O1 0.300335 0.705021 0.581791
O O2 0.143105 0.864641 0.337353
O O3 0.603247 0.727068 0.109554
O O4 0.000000 0.000000 0.500000
O O5 0.657697 0.487639 0.100269
O O6 0.817418 0.325680 0.974747
O O7 0.565437 0.586635 0.835418
O O8 0.129710 0.351161 0.566640
O O9 0.500000 0.500000 0.500000
O O10 0.852503 0.404345 0.397685
O O11 0.812222 0.668778 0.717174
O O12 0.542467 0.901807 0.544199
O O13 0.307291 0.842383 0.953308
O O14 0.596685 0.889418 0.762232
O O15 0.753510 0.996350 0.440188
O O16 0.003031 0.802549 0.259870
O O17 0.123216 0.882480 0.832422
#
# Coordination Sequence:
#
# PCOD9087694 Si02
#       8
#     2   2   2   2   2   2   2   2
#     4  11  26  45  71  99 129 184 239 270 309 405
#     4  11  21  37  66  98 127 168 225 268 322 401
#     4  12  26  47  68  93 142 186 223 270 333 394
#     4  10  21  36  67 102 124 166 215 276 336 395
#     4  11  20  39  64 100 136 166 203 271 361 391
#     4  11  22  43  72  92 133 179 227 268 339 405
#     4  10  23  41  65  97 142 166 208 278 350 386
#     4  10  19  36  65  97 130 164 207 275 339 390
#
# _framework density 23.395206999999999
#
# number of rings (size 3 to 8) (size 9 to 14) (size 15 to 20)
#    0.000    1.250    2.500    4.500    5.250    0.000 
#    2.250    3.750    2.750    0.000    0.000    0.000 
#    0.000    0.000    0.000    0.000    0.000    0.000 
#
# Total GULP energy -89433.136512 kJ/mol
# GULP energy per Si atom -5589.571032 kJ/mol
# Density = 2.334196 g / cm^3
# Si number density = 23.395207 Si / 1000 Ang^3
#
#
#
# Elastic Constant Matrix: (Units=GPa)
#
#
# Indices 1 2 3 4 5 6 
#
# 1 83.0592 18.1318 24.0984 1.6526 1.5684 -1.1407
# 2 18.1318 97.8252 24.0251 -7.4854 0.9463 2.8223
# 3 24.0984 24.0251 90.0806 11.0101 11.2859 -6.7225
# 4 1.6526 -7.4854 11.0101 36.7719 2.9541 -3.8820
# 5 1.5684 0.9463 11.2859 2.9541 25.9442 -2.8807
# 6 -1.1407 2.8223 -6.7225 -3.8820 -2.8807 36.9570
#
#
#
# Elastic Compliance Matrix: (Units=1/GPa)
#
#
# Indices 1 2 3 4 5 6 
#
# 1 0.013323 -0.001696 -0.003188 -0.000041 0.000649 0.000007
# 2 -0.001696 0.011594 -0.003189 0.003225 0.000574 -0.001134
# 3 -0.003188 -0.003189 0.014092 -0.004114 -0.005144 0.001875
# 4 -0.000041 0.003225 -0.004114 0.029411 -0.001454 0.001980
# 5 0.000649 0.000574 -0.005144 -0.001454 0.041120 0.002093
# 6 0.000007 -0.001134 0.001875 0.001980 0.002093 0.027858
#
#
# Mechanical properties :
#
#
# Convention : Reuss Voigt Hill
#
# Bulk Modulus (GPa) = 43.73855 44.83063 44.28459
# Shear Modulus (GPa) = 31.02424 33.58195 32.30310
#
# Velocity S-wave (km/s) = 3.64551 3.79280 3.71989
# Velocity P-wave (km/s) = 6.03786 6.19551 6.11719
#
# Compressibility (1/GPa) = 0.02286312
#
# Stress axis : x y z
#
# Youngs Moduli (GPa) = 75.05597 86.25212 70.96331
#
# Poissons Ratio (x) = 0.14630 0.22620
# Poissons Ratio (y) = 0.12731 0.22631
# Poissons Ratio (z) = 0.23925 0.27507
#
# Static dielectric constant tensor:
#      x y z
#    x 1.948540 0.032490 0.005790 
#    y 0.032490 1.906020 0.008900 
#    z 0.005790 0.008900 1.873100 
# 
# From -- ./inp_files/467595.got.cif
#   From: 2010.05.17/outbox.cif.g08.bks.cpg/sg2_234_cif.got.tgz:467595.got - 2010.06.03 11:33:40.
