data_PCOD9087636
_publ_section_title
;
Structure prediction by ZEFSAII (Michael W. Deem and Ramdas Pophale) SiO2 
 PCOD9087636
Probable space group: P -1
;
_chemical_formula_sum "Si O2"
_cell_formula_units_Z 16
_cell_length_a 12.373655
_cell_length_b 12.435137
_cell_length_c 11.412282
_cell_angle_alpha 68.875331
_cell_angle_beta 86.556060
_cell_angle_gamma 34.224725
_cell_volume 821.090391
_symmetry_space_group_name_H-M "P -1"
_symmetry_group_IT_number 2
_symmetry_cell_setting 'triclinic'
loop_
_space_group_symop_operation_xyz
x,y,z
-x,-y,-z
loop_
_atom_site_type_symbol
_atom_site_label
_atom_site_fract_x
_atom_site_fract_y
_atom_site_fract_z
Si Si1 0.593189 0.251612 0.001408
Si Si2 0.573962 0.707663 0.416328
Si Si3 0.828026 0.277284 0.031539
Si Si4 0.006274 0.400203 0.434635
Si Si5 0.653754 0.857669 0.659957
Si Si6 0.688734 0.209828 0.755364
Si Si7 0.630531 0.085112 0.280746
Si Si8 0.332185 0.508396 0.276407
O O1 0.727786 0.244109 0.022524
O O2 0.687128 0.067575 0.152423
O O3 0.348523 0.497473 0.964957
O O4 0.606012 0.223606 0.873725
O O5 0.443140 0.720256 0.370672
O O6 0.679450 0.574521 0.586915
O O7 0.769468 0.566043 0.376438
O O8 0.412505 0.964120 0.340548
O O9 0.841457 0.325227 0.883276
O O10 0.057754 0.050780 0.164868
O O11 0.108189 0.357050 0.325760
O O12 0.000000 0.500000 0.500000
O O13 0.172807 0.150636 0.568908
O O14 0.568461 0.822663 0.744437
O O15 0.500000 0.000000 0.500000
O O16 0.658594 0.373936 0.713435
O O17 0.546548 0.275022 0.281361
#
# Coordination Sequence:
#
# PCOD9087636 Si02
#       8
#     2   2   2   2   2   2   2   2
#     4   9  19  38  60  85 113 155 205 232 274 355
#     4  12  23  37  59  91 121 152 189 242 299 344
#     4   9  20  38  62  81 117 162 197 235 276 340
#     4  11  20  35  62  87 108 153 195 246 287 335
#     4  10  19  40  56  85 118 139 199 254 284 330
#     4  11  24  38  55  89 130 154 182 238 300 348
#     4  10  19  36  65  87 108 146 208 249 274 328
#     4  10  19  39  60  87 115 156 198 235 274 351
#
# _framework density 19.486284999999999
#
# number of rings (size 3 to 8) (size 9 to 14) (size 15 to 20)
#    0.000    1.750    5.000    2.625    3.500    1.000 
#    0.000    1.250    0.000    3.750    0.000    0.000 
#    0.000    0.000    0.000    0.000    0.000    0.000 
#
# Total GULP energy -89225.955969 kJ/mol
# GULP energy per Si atom -5576.622248 kJ/mol
# Density = 1.944193 g / cm^3
# Si number density = 19.486285 Si / 1000 Ang^3
#
#
#
# Elastic Constant Matrix: (Units=GPa)
#
#
# Indices 1 2 3 4 5 6 
#
# 1 48.6430 23.3688 8.9535 -8.4738 1.2525 -10.1169
# 2 23.3688 75.2039 -1.4806 -10.1064 9.5212 -15.7807
# 3 8.9535 -1.4806 41.7110 -0.4796 -8.5129 -13.9590
# 4 -8.4738 -10.1064 -0.4796 21.0448 -11.0902 -10.2459
# 5 1.2525 9.5212 -8.5129 -11.0902 23.4189 2.0152
# 6 -10.1169 -15.7807 -13.9590 -10.2459 2.0152 29.8420
#
#
#
# Elastic Compliance Matrix: (Units=1/GPa)
#
#
# Indices 1 2 3 4 5 6 
#
# 1 0.029126 -0.004106 0.000874 0.022202 0.009645 0.015083
# 2 -0.004106 0.021842 0.009890 0.021415 0.003190 0.021922
# 3 0.000874 0.009890 0.041906 0.037187 0.025664 0.036163
# 4 0.022202 0.021415 0.037187 0.139646 0.062875 0.079946
# 5 0.009645 0.003190 0.025664 0.062875 0.077123 0.033340
# 6 0.015083 0.021922 0.036163 0.079946 0.033340 0.092328
#
#
# Mechanical properties :
#
#
# Convention : Reuss Voigt Hill
#
# Bulk Modulus (GPa) = 9.41710 25.24904 17.33307
# Shear Modulus (GPa) = 11.79104 23.84222 17.81663
#
# Velocity S-wave (km/s) = 2.46253 3.50171 3.02705
# Velocity P-wave (km/s) = 3.59564 5.41615 4.59692
#
# Compressibility (1/GPa) = 0.10618985
#
# Stress axis : x y z
#
# Youngs Moduli (GPa) = 34.33357 45.78361 23.86318
#
# Poissons Ratio (x) = 0.18798 -0.02085
# Poissons Ratio (y) = 0.14097 -0.23601
# Poissons Ratio (z) = -0.03000 -0.45281
#
# Static dielectric constant tensor:
#      x y z
#    x 1.707260 -0.015740 -0.038960 
#    y -0.015740 1.728560 0.004790 
#    z -0.038960 0.004790 1.709460 
# 
# From -- ./inp_files/425648.got.cif
#   From: 2010.05.17/outbox.cif.g08.bks.cpg/sg2_213_cif.got.tgz:425648.got - 2010.06.03 11:33:40.
