data_PCOD9087310
_publ_section_title
;
Structure prediction by ZEFSAII (Michael W. Deem and Ramdas Pophale) SiO2 
 PCOD9087310
Probable space group: P -1
;
_chemical_formula_sum "Si O2"
_cell_formula_units_Z 16
_cell_length_a 15.070031
_cell_length_b 8.989076
_cell_length_c 13.594000
_cell_angle_alpha 134.750806
_cell_angle_beta 142.735075
_cell_angle_gamma 45.467391
_cell_volume 748.082378
_symmetry_space_group_name_H-M "P -1"
_symmetry_group_IT_number 2
_symmetry_cell_setting 'triclinic'
loop_
_space_group_symop_operation_xyz
x,y,z
-x,-y,-z
loop_
_atom_site_type_symbol
_atom_site_label
_atom_site_fract_x
_atom_site_fract_y
_atom_site_fract_z
Si Si1 0.465234 0.337340 0.473485
Si Si2 0.125562 0.626796 0.371737
Si Si3 0.579000 0.425891 0.814431
Si Si4 0.108605 0.073697 0.831288
Si Si5 0.029565 0.315835 0.524487
Si Si6 0.367505 0.224348 0.853539
Si Si7 0.682383 0.138698 0.255095
Si Si8 0.385047 0.923791 0.146832
O O1 0.500000 0.500000 0.500000
O O2 0.285793 0.436111 0.398177
O O3 0.582792 0.332577 0.664459
O O4 0.472201 0.100840 0.328327
O O5 0.046789 0.602256 0.395801
O O6 0.184046 0.835041 0.544793
O O7 0.016575 0.698940 0.212956
O O8 0.409543 0.618108 0.752828
O O9 0.610301 0.224232 0.822725
O O10 0.674036 0.581218 0.010772
O O11 0.035095 0.875542 0.662636
O O12 0.236854 0.021271 0.834681
O O13 0.211493 0.042639 0.006325
O O14 0.000000 0.500000 0.500000
O O15 0.213073 0.242084 0.667842
O O16 0.505704 0.238843 0.913559
O O17 0.420298 0.978079 0.831484
#
# Coordination Sequence:
#
# PCOD9087310 Si02
#       8
#     2   2   2   2   2   2   2   2
#     4  11  27  46  68  94 130 183 231 268 328 401
#     4  10  21  42  64  92 134 177 216 270 330 393
#     4  11  24  41  65  97 137 168 224 280 330 381
#     4  11  21  40  61  95 136 167 216 270 333 389
#     4  11  23  37  66 103 138 169 214 276 343 390
#     4  12  22  38  70 103 130 172 226 274 331 394
#     4  10  19  36  62  97 128 168 213 274 323 381
#     4  12  26  41  65 101 136 178 217 277 336 392
#
# _framework density 21.388017999999999
#
# number of rings (size 3 to 8) (size 9 to 14) (size 15 to 20)
#    0.000    1.000    3.750    4.125    7.000    0.500 
#    0.000    0.000    0.000    2.250    0.000    0.000 
#    0.000    0.000    0.000    0.000    0.000    0.000 
#
# Total GULP energy -89169.957406 kJ/mol
# GULP energy per Si atom -5573.122338 kJ/mol
# Density = 2.133934 g / cm^3
# Si number density = 21.388018 Si / 1000 Ang^3
#
#
#
# Elastic Constant Matrix: (Units=GPa)
#
#
# Indices 1 2 3 4 5 6 
#
# 1 54.3869 24.1080 30.0357 -11.4557 -3.1916 20.7471
# 2 24.1080 75.6649 41.0980 -8.7158 -7.3122 28.4320
# 3 30.0357 41.0980 140.3154 -11.3770 -8.5751 26.2714
# 4 -11.4557 -8.7158 -11.3770 38.4674 0.4902 -1.0816
# 5 -3.1916 -7.3122 -8.5751 0.4902 28.0383 -5.6104
# 6 20.7471 28.4320 26.2714 -1.0816 -5.6104 34.5443
#
#
#
# Elastic Compliance Matrix: (Units=1/GPa)
#
#
# Indices 1 2 3 4 5 6 
#
# 1 0.026617 -0.001785 -0.002324 0.006489 -0.000796 -0.012676
# 2 -0.001785 0.020968 -0.002864 0.002968 0.001605 -0.013654
# 3 -0.002324 -0.002864 0.009204 0.001281 0.001178 -0.003015
# 4 0.006489 0.002968 0.001281 0.028798 0.000122 -0.006393
# 5 -0.000796 0.001605 0.001178 0.000122 0.037214 0.004309
# 6 -0.012676 -0.013654 -0.003015 -0.006393 0.004309 0.050592
#
#
# Mechanical properties :
#
#
# Convention : Reuss Voigt Hill
#
# Bulk Modulus (GPa) = 23.34135 51.20564 37.27350
# Shear Modulus (GPa) = 24.79917 31.88504 28.34211
#
# Velocity S-wave (km/s) = 3.40882 3.86526 3.64420
# Velocity P-wave (km/s) = 5.14105 6.62673 5.93060
#
# Compressibility (1/GPa) = 0.04284242
#
# Stress axis : x y z
#
# Youngs Moduli (GPa) = 37.57037 47.69096 108.65394
#
# Poissons Ratio (x) = 0.08511 0.25252
# Poissons Ratio (y) = 0.06705 0.31122
# Poissons Ratio (z) = 0.08732 0.13660
#
# Static dielectric constant tensor:
#      x y z
#    x 1.767780 0.000650 -0.031570 
#    y 0.000650 1.794300 -0.021560 
#    z -0.031570 -0.021560 1.860190 
# 
# From -- ./inp_files/199606.got.cif
#   From: 2010.05.17/outbox.cif.g08.bks.cpg/sg2_100_cif.got.tgz:199606.got - 2010.06.03 11:33:40.
