data_PCOD9087476
_publ_section_title
;
Structure prediction by ZEFSAII (Michael W. Deem and Ramdas Pophale) SiO2 
 PCOD9087476
Probable space group: P -1
;
_chemical_formula_sum "Si O2"
_cell_formula_units_Z 12
_cell_length_a 9.261054
_cell_length_b 11.872726
_cell_length_c 12.738878
_cell_angle_alpha 23.293073
_cell_angle_beta 92.897889
_cell_angle_gamma 80.011128
_cell_volume 459.494796
_symmetry_space_group_name_H-M "P -1"
_symmetry_group_IT_number 2
_symmetry_cell_setting 'triclinic'
loop_
_space_group_symop_operation_xyz
x,y,z
-x,-y,-z
loop_
_atom_site_type_symbol
_atom_site_label
_atom_site_fract_x
_atom_site_fract_y
_atom_site_fract_z
Si Si1 0.090977 0.694851 0.612782
Si Si2 0.032007 0.115896 0.057444
Si Si3 0.476106 0.855314 0.949609
Si Si4 0.843228 0.438873 0.050034
Si Si5 0.340090 0.891950 0.136324
Si Si6 0.656162 0.586921 0.708713
O O1 0.218113 0.514402 0.872052
O O2 0.134358 0.848980 0.384562
O O3 0.021683 0.465891 0.772545
O O4 0.928906 0.044710 0.358897
O O5 0.157053 0.942594 0.110737
O O6 0.832744 0.251352 0.953570
O O7 0.636749 0.872147 0.982492
O O8 0.395499 0.108504 0.632584
O O9 0.359806 0.993119 0.934313
O O10 0.484144 0.513208 0.215114
O O11 0.702804 0.642873 0.779186
O O12 0.000000 0.500000 0.000000
O O13 0.500000 0.500000 0.500000
#
# Coordination Sequence:
#
# PCOD9087476 Si02
#       6
#     2   2   2   2   2   2
#     4  10  20  35  58 101 125 170 198 258 308 390
#     4  11  24  38  68  95 131 162 221 259 317 371
#     4  11  25  43  64  91 130 168 215 257 331 371
#     4  10  19  36  63  97 139 162 199 251 338 377
#     4  11  26  49  65  88 125 187 210 256 327 394
#     4  11  22  39  65 103 123 161 208 280 301 373
#
# _framework density 26.115639999999999
#
# number of rings (size 3 to 8) (size 9 to 14) (size 15 to 20)
#    0.000    1.333    5.000    2.000    7.000    1.333 
#    0.000    0.000    0.000    6.000    0.000    0.000 
#    0.000    0.000    0.000    0.000    0.000    0.000 
#
# Total GULP energy -67112.987779 kJ/mol
# GULP energy per Si atom -5592.748982 kJ/mol
# Density = 2.605620 g / cm^3
# Si number density = 26.115640 Si / 1000 Ang^3
#
#
#
# Elastic Constant Matrix: (Units=GPa)
#
#
# Indices 1 2 3 4 5 6 
#
# 1 132.5720 5.0719 24.5115 -1.6882 -3.9816 8.6427
# 2 5.0719 46.6233 17.7094 11.2185 -14.4598 14.4726
# 3 24.5115 17.7094 145.0827 11.5465 -29.3131 4.0113
# 4 -1.6882 11.2185 11.5465 53.4154 -7.2328 -8.1656
# 5 -3.9816 -14.4598 -29.3131 -7.2328 45.0893 -2.8619
# 6 8.6427 14.4726 4.0113 -8.1656 -2.8619 41.6842
#
#
#
# Elastic Compliance Matrix: (Units=1/GPa)
#
#
# Indices 1 2 3 4 5 6 
#
# 1 0.007887 -0.000038 -0.001361 0.000297 -0.000245 -0.001450
# 2 -0.000038 0.028936 -0.001364 -0.006521 0.006663 -0.010727
# 3 -0.001361 -0.001364 0.008309 -0.000900 0.004706 0.000103
# 4 0.000297 -0.006521 -0.000900 0.021464 0.001210 0.006577
# 5 -0.000245 0.006663 0.004706 0.001210 0.027510 -0.000589
# 6 -0.001450 -0.010727 0.000103 0.006577 -0.000589 0.029253
#
#
# Mechanical properties :
#
#
# Convention : Reuss Voigt Hill
#
# Bulk Modulus (GPa) = 25.24892 46.54040 35.89466
# Shear Modulus (GPa) = 35.18977 46.50345 40.84661
#
# Velocity S-wave (km/s) = 3.67476 4.22438 3.95912
# Velocity P-wave (km/s) = 5.26253 6.45395 5.88845
#
# Compressibility (1/GPa) = 0.03960566
#
# Stress axis : x y z
#
# Youngs Moduli (GPa) = 126.78964 34.55876 120.35684
#
# Poissons Ratio (x) = 0.00133 0.16379
# Poissons Ratio (y) = 0.00488 0.16414
# Poissons Ratio (z) = 0.17254 0.04713
#
# Static dielectric constant tensor:
#      x y z
#    x 2.081140 -0.055060 0.097720 
#    y -0.055060 2.124080 -0.023470 
#    z 0.097720 -0.023470 2.068150 
# 
# From -- ./inp_files/289257.got.cif
#   From: 2010.05.17/outbox.cif.g08.bks.cpg/sg2_145_cif.got.tgz:289257.got - 2010.06.03 11:33:40.
