data_PCOD9087541
_publ_section_title
;
Structure prediction by ZEFSAII (Michael W. Deem and Ramdas Pophale) SiO2 
 PCOD9087541
Probable space group: P -1
;
_chemical_formula_sum "Si O2"
_cell_formula_units_Z 12
_cell_length_a 9.404196
_cell_length_b 12.318470
_cell_length_c 18.215610
_cell_angle_alpha 28.566882
_cell_angle_beta 32.494077
_cell_angle_gamma 44.577500
_cell_volume 538.742278
_symmetry_space_group_name_H-M "P -1"
_symmetry_group_IT_number 2
_symmetry_cell_setting 'triclinic'
loop_
_space_group_symop_operation_xyz
x,y,z
-x,-y,-z
loop_
_atom_site_type_symbol
_atom_site_label
_atom_site_fract_x
_atom_site_fract_y
_atom_site_fract_z
Si Si1 0.273644 0.204136 0.094844
Si Si2 0.879199 0.253140 0.797803
Si Si3 0.028858 0.746477 0.663565
Si Si4 0.198960 0.383842 0.716151
Si Si5 0.637860 0.580722 0.227059
Si Si6 0.053847 0.746986 0.394583
O O1 0.182370 0.313971 0.143839
O O2 0.733559 0.649200 0.063589
O O3 0.089342 0.967874 0.298786
O O4 0.577100 0.150121 0.003471
O O5 0.990000 0.185752 0.710683
O O6 0.075617 0.237218 0.789916
O O7 0.859119 0.528678 0.633179
O O8 0.017217 0.587417 0.691268
O O9 0.301449 0.675187 0.625420
O O10 0.000000 0.000000 0.500000
O O11 0.500000 0.500000 0.500000
O O12 0.204960 0.280181 0.856941
O O13 0.339935 0.644055 0.327635
#
# Coordination Sequence:
#
# PCOD9087541 Si02
#       6
#     2   2   2   2   2   2
#     4  11  22  40  64  94 123 157 208 248 305 368
#     4  10  19  36  64  90 122 161 200 252 300 357
#     4  10  22  36  65  88 123 166 196 252 314 352
#     4  10  20  37  63  85 121 163 201 248 304 356
#     4   9  20  37  63  87 121 166 198 249 300 354
#     4  10  20  38  65  90 122 162 204 248 301 358
#
# _framework density 22.274101999999999
#
# number of rings (size 3 to 8) (size 9 to 14) (size 15 to 20)
#    1.000    1.000    1.667    3.500    0.000    0.667 
#    0.000    3.333    7.333   21.000    0.000    0.000 
#    0.000    0.000    0.000    0.000    0.000    0.000 
#
# Total GULP energy -66836.259090 kJ/mol
# GULP energy per Si atom -5569.688258 kJ/mol
# Density = 2.222340 g / cm^3
# Si number density = 22.274102 Si / 1000 Ang^3
#
#
#
# Elastic Constant Matrix: (Units=GPa)
#
#
# Indices 1 2 3 4 5 6 
#
# 1 140.6537 16.3026 20.0902 4.2021 12.7381 17.6594
# 2 16.3026 82.7090 12.5807 5.1207 13.3983 2.1182
# 3 20.0902 12.5807 42.8453 -5.4751 12.1854 5.3062
# 4 4.2021 5.1207 -5.4751 27.7963 5.9489 14.2740
# 5 12.7381 13.3983 12.1854 5.9489 35.8452 -8.9493
# 6 17.6594 2.1182 5.3062 14.2740 -8.9493 37.8277
#
#
#
# Elastic Compliance Matrix: (Units=1/GPa)
#
#
# Indices 1 2 3 4 5 6 
#
# 1 0.008391 -0.000774 -0.001709 0.002075 -0.003782 -0.005312
# 2 -0.000774 0.013363 -0.002907 -0.002241 -0.003341 0.000076
# 3 -0.001709 -0.002907 0.033920 0.018601 -0.016606 -0.014745
# 4 0.002075 -0.002241 0.018601 0.061725 -0.024597 -0.032563
# 5 -0.003782 -0.003341 -0.016606 -0.024597 0.046341 0.024527
# 6 -0.005312 0.000076 -0.014745 -0.032563 0.024527 0.049070
#
#
# Mechanical properties :
#
#
# Convention : Reuss Voigt Hill
#
# Bulk Modulus (GPa) = 22.27349 40.46166 31.36758
# Shear Modulus (GPa) = 20.95955 34.77612 27.86784
#
# Velocity S-wave (km/s) = 3.07087 3.95559 3.54097
# Velocity P-wave (km/s) = 4.75343 6.25036 5.55257
#
# Compressibility (1/GPa) = 0.04489641
#
# Stress axis : x y z
#
# Youngs Moduli (GPa) = 119.17729 74.83207 29.48072
#
# Poissons Ratio (x) = 0.05790 0.05037
# Poissons Ratio (y) = 0.09221 0.08569
# Poissons Ratio (z) = 0.20363 0.21752
#
# Static dielectric constant tensor:
#      x y z
#    x 1.882360 0.005300 0.028320 
#    y 0.005300 1.844820 -0.054060 
#    z 0.028320 -0.054060 1.900330 
# 
# From -- ./inp_files/172101.got.cif
#   From: 2010.05.17/outbox.cif.g08.bks.cpg/sg2_87_cif.got.tgz:172101.got - 2010.06.03 11:33:40.
