data_PCOD9087383
_publ_section_title
;
Structure prediction by ZEFSAII (Michael W. Deem and Ramdas Pophale) SiO2 
 PCOD9087383
Probable space group: P -1
;
_chemical_formula_sum "Si O2"
_cell_formula_units_Z 16
_cell_length_a 9.199666
_cell_length_b 9.194117
_cell_length_c 11.400949
_cell_angle_alpha 102.871125
_cell_angle_beta 107.964019
_cell_angle_gamma 44.142859
_cell_volume 638.861510
_symmetry_space_group_name_H-M "P -1"
_symmetry_group_IT_number 2
_symmetry_cell_setting 'triclinic'
loop_
_space_group_symop_operation_xyz
x,y,z
-x,-y,-z
loop_
_atom_site_type_symbol
_atom_site_label
_atom_site_fract_x
_atom_site_fract_y
_atom_site_fract_z
Si Si1 0.136934 0.661722 0.765791
Si Si2 0.292532 0.196769 0.267927
Si Si3 0.410636 0.245928 0.832798
Si Si4 0.778797 0.237691 0.960526
Si Si5 0.318684 0.380857 0.089612
Si Si6 0.149170 0.800260 0.412577
Si Si7 0.741670 0.125523 0.273469
Si Si8 0.547548 0.674241 0.527747
O O1 0.251171 0.426991 0.730589
O O2 0.172761 0.765223 0.701633
O O3 0.894296 0.793245 0.757013
O O4 0.253508 0.650082 0.906693
O O5 0.225619 0.354564 0.173153
O O6 0.339352 0.244868 0.412792
O O7 0.498918 0.970833 0.228692
O O8 0.608535 0.226417 0.888446
O O9 0.296133 0.319091 0.945248
O O10 0.759975 0.392927 0.895614
O O11 0.000000 0.000000 0.000000
O O12 0.575689 0.202867 0.143547
O O13 0.352520 0.760037 0.408915
O O14 0.272177 0.575035 0.457571
O O15 0.000000 0.000000 0.500000
O O16 0.959044 0.882801 0.292154
O O17 0.589596 0.229257 0.367358
#
# Coordination Sequence:
#
# PCOD9087383 Si02
#       8
#     2   2   2   2   2   2   2   2
#     4  11  22  36  56  84 123 161 203 243 288 346
#     4  11  24  37  57  90 124 156 193 252 304 337
#     4  11  21  39  56  82 125 166 201 245 288 343
#     4  11  20  37  60  80 119 168 212 244 282 341
#     4  10  21  39  57  86 122 159 212 248 277 346
#     4   9  19  39  70  90 113 149 198 242 301 358
#     4  10  19  36  63  89 113 159 202 240 289 348
#     4   9  21  40  60  94 121 145 196 250 293 364
#
# _framework density 25.044550999999998
#
# number of rings (size 3 to 8) (size 9 to 14) (size 15 to 20)
#    0.000    1.750    3.750    1.125    0.000    8.000 
#    2.250    0.625    0.000    7.500    0.000    0.000 
#    0.000    0.000    0.000    0.000    0.000    0.000 
#
# Total GULP energy -89256.865317 kJ/mol
# GULP energy per Si atom -5578.554082 kJ/mol
# Density = 2.498755 g / cm^3
# Si number density = 25.044551 Si / 1000 Ang^3
#
#
#
# Elastic Constant Matrix: (Units=GPa)
#
#
# Indices 1 2 3 4 5 6 
#
# 1 56.3402 2.0122 5.6717 -6.1521 7.3681 -4.6004
# 2 2.0122 157.5234 17.4252 -11.0335 11.4165 -18.2268
# 3 5.6717 17.4252 35.7352 -0.8923 13.4309 -6.6404
# 4 -6.1521 -11.0335 -0.8923 42.9874 2.2266 8.9546
# 5 7.3681 11.4165 13.4309 2.2266 26.3272 -7.2208
# 6 -4.6004 -18.2268 -6.6404 8.9546 -7.2208 36.1762
#
#
#
# Elastic Compliance Matrix: (Units=1/GPa)
#
#
# Indices 1 2 3 4 5 6 
#
# 1 0.018877 0.000540 -0.001186 0.002917 -0.004955 0.000744
# 2 0.000540 0.007115 -0.002533 0.001385 -0.001355 0.002575
# 3 -0.001186 -0.002533 0.035929 0.000406 -0.016444 0.001786
# 4 0.002917 0.001385 0.000406 0.025644 -0.005522 -0.006307
# 5 -0.004955 -0.001355 -0.016444 -0.005522 0.050781 0.007172
# 6 0.000744 0.002575 0.001786 -0.006307 0.007172 0.032355
#
#
# Mechanical properties :
#
#
# Convention : Reuss Voigt Hill
#
# Bulk Modulus (GPa) = 17.99772 33.31301 25.65536
# Shear Modulus (GPa) = 25.56524 36.06414 30.81469
#
# Velocity S-wave (km/s) = 3.19845 3.79885 3.51150
# Velocity P-wave (km/s) = 4.56530 5.70719 5.16788
#
# Compressibility (1/GPa) = 0.05556258
#
# Stress axis : x y z
#
# Youngs Moduli (GPa) = 52.97555 140.55476 27.83264
#
# Poissons Ratio (x) = -0.07583 0.03301
# Poissons Ratio (y) = -0.02858 0.07049
# Poissons Ratio (z) = 0.06282 0.35596
#
# Static dielectric constant tensor:
#      x y z
#    x 2.031160 0.040240 0.042570 
#    y 0.040240 2.124030 -0.032090 
#    z 0.042570 -0.032090 2.196470 
# 
# From -- ./inp_files/495249.got.cif
#   From: 2010.05.17/outbox.cif.g08.bks.cpg/sg2_248_cif.got.tgz:495249.got - 2010.06.03 11:33:40.
