data_PCOD9087055
_publ_section_title
;
Structure prediction by ZEFSAII (Michael W. Deem and Ramdas Pophale) SiO2 
 PCOD9087055
Probable space group: P -1
;
_chemical_formula_sum "Si O2"
_cell_formula_units_Z 14
_cell_length_a 17.607765
_cell_length_b 8.670287
_cell_length_c 9.086467
_cell_angle_alpha 58.888003
_cell_angle_beta 30.712468
_cell_angle_gamma 62.547393
_cell_volume 606.120088
_symmetry_space_group_name_H-M "P -1"
_symmetry_group_IT_number 2
_symmetry_cell_setting 'triclinic'
loop_
_space_group_symop_operation_xyz
x,y,z
-x,-y,-z
loop_
_atom_site_type_symbol
_atom_site_label
_atom_site_fract_x
_atom_site_fract_y
_atom_site_fract_z
Si Si1 0.540639 0.940686 0.124127
Si Si2 0.390768 0.856548 0.816153
Si Si3 0.105353 0.320514 0.933529
Si Si4 0.180627 0.328758 0.151128
Si Si5 0.949561 0.059058 0.719842
Si Si6 0.591183 0.540100 0.682340
Si Si7 0.639406 0.371791 0.380340
O O1 0.400010 0.834813 0.474504
O O2 0.594622 0.104176 0.052711
O O3 0.676512 0.792957 0.976730
O O4 0.500000 0.000000 0.000000
O O5 0.469289 0.668178 0.740809
O O6 0.500000 0.000000 0.500000
O O7 0.223213 0.885617 0.032207
O O8 0.260507 0.353572 0.575909
O O9 0.154385 0.305120 0.030964
O O10 0.000000 0.500000 0.000000
O O11 0.035338 0.125432 0.117518
O O12 0.045891 0.234215 0.504726
O O13 0.222652 0.538689 0.976584
O O14 0.000000 0.000000 0.500000
O O15 0.646140 0.398097 0.535476
O O16 0.500000 0.500000 0.000000
O O17 0.500000 0.500000 0.500000
#
# Coordination Sequence:
#
# PCOD9087055 Si02
#       7
#     2   2   2   2   2   2   2
#     4  11  21  36  65  92 124 169 207 248 309 391
#     4  12  21  39  64  96 124 159 206 272 319 345
#     4  10  20  35  56  88 124 162 199 256 311 368
#     4   9  19  36  57  88 117 158 218 246 296 360
#     4  10  19  36  61  90 124 160 212 262 305 372
#     4  11  23  35  56  97 127 147 206 267 312 350
#     4   9  19  39  58  86 123 163 206 242 298 388
#
# _framework density 23.097732000000001
#
# number of rings (size 3 to 8) (size 9 to 14) (size 15 to 20)
#    0.000    1.714    4.286    2.571    4.000    2.286 
#    0.000    0.000    0.000    8.571    3.714    0.000 
#    0.000    0.000    0.000    0.000    0.000    0.000 
#
# Total GULP energy -78043.299637 kJ/mol
# GULP energy per Si atom -5574.521403 kJ/mol
# Density = 2.304516 g / cm^3
# Si number density = 23.097732 Si / 1000 Ang^3
#
#
#
# Elastic Constant Matrix: (Units=GPa)
#
#
# Indices 1 2 3 4 5 6 
#
# 1 82.1957 35.2639 36.0131 -8.6615 5.0834 -12.7783
# 2 35.2639 100.2702 67.0785 -16.0460 -9.5946 -6.8344
# 3 36.0131 67.0785 184.1525 -28.2818 -27.2947 -9.7868
# 4 -8.6615 -16.0460 -28.2818 45.3454 3.5376 -4.7266
# 5 5.0834 -9.5946 -27.2947 3.5376 36.4976 -2.0615
# 6 -12.7783 -6.8344 -9.7868 -4.7266 -2.0615 41.9605
#
#
#
# Elastic Compliance Matrix: (Units=1/GPa)
#
#
# Indices 1 2 3 4 5 6 
#
# 1 0.015789 -0.004355 -0.001833 0.001063 -0.004617 0.003564
# 2 -0.004355 0.014605 -0.003976 0.001794 0.001321 0.000392
# 3 -0.001833 -0.003976 0.008633 0.003356 0.005423 0.001452
# 4 0.001063 0.001794 0.003356 0.025383 0.000615 0.004288
# 5 -0.004617 0.001321 0.005423 0.000615 0.032484 0.001739
# 6 0.003564 0.000392 0.001452 0.004288 0.001739 0.025889
#
#
# Mechanical properties :
#
#
# Convention : Reuss Voigt Hill
#
# Bulk Modulus (GPa) = 53.47845 71.48103 62.47974
# Shear Modulus (GPa) = 33.47964 39.97823 36.72894
#
# Velocity S-wave (km/s) = 3.81133 4.16484 3.99200
# Velocity P-wave (km/s) = 6.52470 7.35814 6.95392
#
# Compressibility (1/GPa) = 0.01869912
#
# Stress axis : x y z
#
# Youngs Moduli (GPa) = 63.33355 68.47021 115.82948
#
# Poissons Ratio (x) = 0.29822 0.21229
# Poissons Ratio (y) = 0.27585 0.46054
# Poissons Ratio (z) = 0.11608 0.27224
#
# Static dielectric constant tensor:
#      x y z
#    x 2.228540 0.156210 0.148620 
#    y 0.156210 1.935450 -0.043420 
#    z 0.148620 -0.043420 1.973020 
# 
# From -- ./inp_files/203073.got.cif
#   From: 2010.05.17/outbox.cif.g08.bks.cpg/sg2_102_cif.got.tgz:203073.got - 2010.06.03 11:33:40.
