data_PCOD9087737
_publ_section_title
;
Structure prediction by ZEFSAII (Michael W. Deem and Ramdas Pophale) SiO2 
 PCOD9087737
Probable space group: P -1
;
_chemical_formula_sum "Si O2"
_cell_formula_units_Z 14
_cell_length_a 10.548046
_cell_length_b 22.156434
_cell_length_c 8.607846
_cell_angle_alpha 142.399322
_cell_angle_beta 137.689066
_cell_angle_gamma 27.811114
_cell_volume 567.353418
_symmetry_space_group_name_H-M "P -1"
_symmetry_group_IT_number 2
_symmetry_cell_setting 'triclinic'
loop_
_space_group_symop_operation_xyz
x,y,z
-x,-y,-z
loop_
_atom_site_type_symbol
_atom_site_label
_atom_site_fract_x
_atom_site_fract_y
_atom_site_fract_z
Si Si1 0.656070 0.473873 0.744605
Si Si2 0.100053 0.667719 0.782334
Si Si3 0.297316 0.851424 0.531944
Si Si4 0.254490 0.339325 0.723453
Si Si5 0.671272 0.058053 0.677372
Si Si6 0.992610 0.221525 0.749974
Si Si7 0.860003 0.950878 0.965022
O O1 0.500000 0.500000 0.500000
O O2 0.423953 0.556589 0.836428
O O3 0.896100 0.311843 0.690829
O O4 0.756604 0.547996 0.986086
O O5 0.014040 0.601779 0.479597
O O6 0.970699 0.810511 0.862500
O O7 0.994620 0.713341 0.955892
O O8 0.517960 0.754635 0.400267
O O9 0.241299 0.769244 0.397167
O O10 0.000000 0.000000 0.500000
O O11 0.353096 0.912772 0.836343
O O12 0.375299 0.217723 0.711287
O O13 0.728288 0.990580 0.758672
O O14 0.745339 0.947137 0.390643
O O15 0.886147 0.068294 0.870469
#
# Coordination Sequence:
#
# PCOD9087737 Si02
#       7
#     2   2   2   2   2   2   2
#     4  12  27  48  68  91 132 176 214 272 327 389
#     4  12  24  43  68  98 130 173 219 266 328 383
#     4  11  18  39  66  98 128 168 218 261 322 381
#     4  12  25  42  69  97 133 168 222 270 319 391
#     4  10  20  39  69 101 126 175 214 264 329 381
#     4  11  22  41  70  96 129 175 221 259 326 386
#     4  10  19  36  66  96 136 163 217 265 320 383
#
# _framework density 24.675978000000001
#
# number of rings (size 3 to 8) (size 9 to 14) (size 15 to 20)
#    0.000    0.857    7.143    1.286    4.000    4.000 
#    0.000    1.429    0.000    0.000    0.000    0.000 
#    0.000    0.000    0.000    0.000    0.000    0.000 
#
# Total GULP energy -78424.874539 kJ/mol
# GULP energy per Si atom -5601.776753 kJ/mol
# Density = 2.461981 g / cm^3
# Si number density = 24.675978 Si / 1000 Ang^3
#
#
#
# Elastic Constant Matrix: (Units=GPa)
#
#
# Indices 1 2 3 4 5 6 
#
# 1 87.3415 23.1046 18.0013 -1.2960 -1.6066 4.3842
# 2 23.1046 65.0685 21.0982 7.8143 13.9621 25.9131
# 3 18.0013 21.0982 149.1454 -8.7389 7.2488 13.4413
# 4 -1.2960 7.8143 -8.7389 33.2605 4.8621 2.2329
# 5 -1.6066 13.9621 7.2488 4.8621 35.3089 -8.4322
# 6 4.3842 25.9131 13.4413 2.2329 -8.4322 39.6979
#
#
#
# Elastic Compliance Matrix: (Units=1/GPa)
#
#
# Indices 1 2 3 4 5 6 
#
# 1 0.013529 -0.007453 -0.001184 0.000946 0.004807 0.004739
# 2 -0.007453 0.031804 -0.000872 -0.003840 -0.017747 -0.023196
# 3 -0.001184 -0.000872 0.007448 0.002597 -0.002176 -0.002431
# 4 0.000946 -0.003840 0.002597 0.032296 -0.003675 -0.001074
# 5 0.004807 -0.017747 -0.002176 -0.003675 0.041480 0.020808
# 6 0.004739 -0.023196 -0.002431 -0.001074 0.020808 0.045111
#
#
# Mechanical properties :
#
#
# Convention : Reuss Voigt Hill
#
# Bulk Modulus (GPa) = 29.61630 47.32930 38.47280
# Shear Modulus (GPa) = 24.75969 37.61022 31.18496
#
# Velocity S-wave (km/s) = 3.17107 3.90829 3.55882
# Velocity P-wave (km/s) = 5.04339 6.29192 5.70193
#
# Compressibility (1/GPa) = 0.03376519
#
# Stress axis : x y z
#
# Youngs Moduli (GPa) = 73.91317 31.44234 134.26366
#
# Poissons Ratio (x) = 0.23433 0.15897
# Poissons Ratio (y) = 0.55085 0.11701
# Poissons Ratio (z) = 0.08751 0.02740
#
# Static dielectric constant tensor:
#      x y z
#    x 2.002970 -0.010060 -0.000910 
#    y -0.010060 1.938260 -0.047020 
#    z -0.000910 -0.047020 1.985160 
# 
# From -- ./inp_files/187685.got.cif
#   From: 2010.05.17/outbox.cif.g08.bks.cpg/sg2_94_cif.got.tgz:187685.got - 2010.06.03 11:33:40.
