data_PCOD9087472
_publ_section_title
;
Structure prediction by ZEFSAII (Michael W. Deem and Ramdas Pophale) SiO2 
 PCOD9087472
Probable space group: P -1
;
_chemical_formula_sum "Si O2"
_cell_formula_units_Z 16
_cell_length_a 17.104115
_cell_length_b 9.235970
_cell_length_c 5.388345
_cell_angle_alpha 100.729171
_cell_angle_beta 57.552034
_cell_angle_gamma 92.759948
_cell_volume 704.388525
_symmetry_space_group_name_H-M "P -1"
_symmetry_group_IT_number 2
_symmetry_cell_setting 'triclinic'
loop_
_space_group_symop_operation_xyz
x,y,z
-x,-y,-z
loop_
_atom_site_type_symbol
_atom_site_label
_atom_site_fract_x
_atom_site_fract_y
_atom_site_fract_z
Si Si1 0.888717 0.025364 0.216930
Si Si2 0.032186 0.418029 0.668640
Si Si3 0.419743 0.539659 0.942510
Si Si4 0.257010 0.185299 0.625532
Si Si5 0.510154 0.249821 0.483681
Si Si6 0.252063 0.367824 0.212944
Si Si7 0.920344 0.131148 0.699919
Si Si8 0.422331 0.975642 0.334365
O O1 0.846145 0.866960 0.257649
O O2 0.868267 0.125462 0.524794
O O3 0.000000 0.000000 0.000000
O O4 0.857810 0.097452 0.031300
O O5 0.143321 0.399058 0.459452
O O6 0.000000 0.500000 0.500000
O O7 0.977212 0.270901 0.702040
O O8 0.000000 0.500000 0.000000
O O9 0.444821 0.396391 0.681225
O O10 0.431379 0.694477 0.831509
O O11 0.500000 0.500000 0.000000
O O12 0.312953 0.511388 0.169551
O O13 0.289242 0.273000 0.357943
O O14 0.318757 0.030294 0.458429
O O15 0.258889 0.278025 0.909192
O O16 0.446299 0.113743 0.512616
O O17 0.569551 0.182493 0.593080
O O18 0.000000 0.000000 0.500000
O O19 0.500000 0.000000 0.000000
#
# Coordination Sequence:
#
# PCOD9087472 Si02
#       8
#     2   2   2   2   2   2   2   2
#     4  10  19  36  63  97 129 168 224 292 340 403
#     4  12  26  48  72 104 146 192 237 307 372 432
#     4  11  23  43  70 100 137 195 238 291 353 438
#     4  12  24  42  72 108 136 187 246 296 357 437
#     4  10  22  42  66  95 144 176 236 287 364 416
#     4  12  25  45  73 103 140 191 249 289 361 452
#     4  10  20  40  67  95 130 176 227 283 350 419
#     4  11  23  42  66 102 140 185 226 302 360 420
#
# _framework density 22.714735999999998
#
# number of rings (size 3 to 8) (size 9 to 14) (size 15 to 20)
#    0.000    1.000    1.250    7.500    3.500    0.000 
#    2.250    2.500    0.000    0.000    0.000    0.000 
#    0.000    0.000    0.000    0.000    0.000    0.000 
#
# Total GULP energy -89211.194748 kJ/mol
# GULP energy per Si atom -5575.699672 kJ/mol
# Density = 2.266304 g / cm^3
# Si number density = 22.714736 Si / 1000 Ang^3
#
#
#
# Elastic Constant Matrix: (Units=GPa)
#
#
# Indices 1 2 3 4 5 6 
#
# 1 77.4458 23.4682 57.6830 -7.2860 15.0557 10.7339
# 2 23.4682 112.6109 30.2630 -27.5546 9.5339 3.0321
# 3 57.6830 30.2630 101.8505 -13.4881 31.4795 1.6736
# 4 -7.2860 -27.5546 -13.4881 44.6510 1.8740 0.3245
# 5 15.0557 9.5339 31.4795 1.8740 43.3286 -3.7655
# 6 10.7339 3.0321 1.6736 0.3245 -3.7655 49.7333
#
#
#
# Elastic Compliance Matrix: (Units=1/GPa)
#
#
# Indices 1 2 3 4 5 6 
#
# 1 0.023638 -0.001625 -0.013501 -0.001260 0.001623 -0.004417
# 2 -0.001625 0.011212 -0.001128 0.006375 -0.001397 -0.000442
# 3 -0.013501 -0.001128 0.021677 0.004095 -0.010865 0.001404
# 4 -0.001260 0.006375 0.004095 0.027586 -0.005205 -0.000829
# 5 0.001623 -0.001397 -0.010865 -0.005205 0.031158 0.002494
# 6 -0.004417 -0.000442 0.001404 -0.000829 0.002494 0.021235
#
#
# Mechanical properties :
#
#
# Convention : Reuss Voigt Hill
#
# Bulk Modulus (GPa) = 41.63129 57.19283 49.41206
# Shear Modulus (GPa) = 28.24553 39.57543 33.91048
#
# Velocity S-wave (km/s) = 3.53014 4.17859 3.86798
# Velocity P-wave (km/s) = 5.91469 6.96522 6.46134
#
# Compressibility (1/GPa) = 0.02402039
#
# Stress axis : x y z
#
# Youngs Moduli (GPa) = 42.30411 89.19052 46.13249
#
# Poissons Ratio (x) = 0.14492 0.62282
# Poissons Ratio (y) = 0.06874 0.05203
# Poissons Ratio (z) = 0.57113 0.10059
#
# Static dielectric constant tensor:
#      x y z
#    x 1.981660 -0.089370 0.069980 
#    y -0.089370 1.845220 -0.055130 
#    z 0.069980 -0.055130 2.043800 
# 
# From -- ./inp_files/106845.got.cif
#   From: 2010.05.17/outbox.cif.g08.bks.cpg/sg2_54_cif.got.tgz:106845.got - 2010.06.03 11:33:40.
