data_PCOD9087890
_publ_section_title
;
Structure prediction by ZEFSAII (Michael W. Deem and Ramdas Pophale) SiO2 
 PCOD9087890
Probable space group: P -1
;
_chemical_formula_sum "Si O2"
_cell_formula_units_Z 16
_cell_length_a 14.456103
_cell_length_b 11.801461
_cell_length_c 12.180868
_cell_angle_alpha 142.641060
_cell_angle_beta 48.495878
_cell_angle_gamma 151.034105
_cell_volume 606.885408
_symmetry_space_group_name_H-M "P -1"
_symmetry_group_IT_number 2
_symmetry_cell_setting 'triclinic'
loop_
_space_group_symop_operation_xyz
x,y,z
-x,-y,-z
loop_
_atom_site_type_symbol
_atom_site_label
_atom_site_fract_x
_atom_site_fract_y
_atom_site_fract_z
Si Si1 0.972926 0.748213 0.308730
Si Si2 0.910220 0.768293 0.796331
Si Si3 0.899925 0.334150 0.306925
Si Si4 0.438130 0.753835 0.204953
Si Si5 0.511954 0.256469 0.079521
Si Si6 0.765969 0.112921 0.618695
Si Si7 0.560518 0.263480 0.289076
Si Si8 0.916899 0.112682 0.906925
O O1 0.144847 0.826955 0.284001
O O2 0.957005 0.698205 0.152593
O O3 0.777472 0.472779 0.311578
O O4 0.000000 0.000000 0.500000
O O5 0.682618 0.478798 0.780905
O O6 0.017269 0.699191 0.687136
O O7 0.933345 0.920346 0.787207
O O8 0.000000 0.000000 0.000000
O O9 0.034778 0.672382 0.441141
O O10 0.665454 0.058718 0.282518
O O11 0.956419 0.287376 0.114638
O O12 0.326971 0.817255 0.316829
O O13 0.410409 0.603054 0.996119
O O14 0.575925 0.377425 0.245867
O O15 0.296684 0.082600 0.110857
O O16 0.524730 0.044194 0.898297
O O17 0.560319 0.776436 0.551119
#
# Coordination Sequence:
#
# PCOD9087890 Si02
#       8
#     2   2   2   2   2   2   2   2
#     4  12  26  38  52  77 114 158 189 217 266 325
#     4   9  19  31  51  81 119 148 173 217 277 342
#     4   9  19  34  59  88 110 140 175 230 286 332
#     4   9  18  33  53  84 115 138 175 219 283 338
#     4   9  18  32  56  88 107 142 173 226 287 325
#     4  10  19  37  56  81 108 140 183 231 277 322
#     4  10  21  34  55  81 113 143 181 226 270 335
#     4  10  20  35  51  81 119 148 179 223 269 331
#
# _framework density 26.36412
#
# number of rings (size 3 to 8) (size 9 to 14) (size 15 to 20)
#    0.000    2.250    1.250    2.250    8.750    6.000 
#    0.000    0.000    0.000    3.000    0.000   11.375 
#    0.000    0.000    0.000    0.000    0.000    0.000 
#
# Total GULP energy -89094.205175 kJ/mol
# GULP energy per Si atom -5568.387823 kJ/mol
# Density = 2.630411 g / cm^3
# Si number density = 26.364120 Si / 1000 Ang^3
#
#
#
# Elastic Constant Matrix: (Units=GPa)
#
#
# Indices 1 2 3 4 5 6 
#
# 1 32.7581 152.5784 -19.3418 -127.2123 -60.2385 -30.4171
# 2 152.5784 60.0631 36.1755 94.5434 41.2538 54.3251
# 3 -19.3418 36.1755 64.5662 -39.2135 -39.1277 -14.8938
# 4 -127.2123 94.5434 -39.2135 -108.2035 -59.5421 -30.9107
# 5 -60.2385 41.2538 -39.1277 -59.5421 16.4828 -19.7824
# 6 -30.4171 54.3251 -14.8938 -30.9107 -19.7824 34.4877
#
#
#
# Elastic Compliance Matrix: (Units=1/GPa)
#
#
# Indices 1 2 3 4 5 6 
#
# 1 0.006504 -0.002057 -0.002767 -0.006941 -0.002726 -0.000003
# 2 -0.002057 0.008730 0.000766 0.009930 0.002308 -0.005011
# 3 -0.002767 0.000766 0.015064 -0.005384 0.006173 0.001574
# 4 -0.006941 0.009930 -0.005384 0.018921 -0.010278 -0.013024
# 5 -0.002726 0.002308 0.006173 -0.010278 0.023604 0.000954
# 6 -0.000003 -0.005011 0.001574 -0.013024 0.000954 0.026441
#
#
# Mechanical properties :
#
#
# Convention : Reuss Voigt Hill
#
# Bulk Modulus (GPa) = 45.07918 55.13461 50.10689
# Shear Modulus (GPa) = 43.56381 -12.24825 15.65778
#
# Velocity S-wave (km/s) = 4.06937 -2.15775 2.43966
# Velocity P-wave (km/s) = 6.26223 3.84061 5.19451
#
# Compressibility (1/GPa) = 0.02218319
#
# Stress axis : x y z
#
# Youngs Moduli (GPa) = 153.74148 114.55109 66.38238
#
# Poissons Ratio (x) = 0.23561 0.18367
# Poissons Ratio (y) = 0.31621 -0.05086
# Poissons Ratio (z) = 0.42539 -0.08776
#
# Static dielectric constant tensor:
#      x y z
#    x 2.020580 -0.039360 0.023170 
#    y -0.039360 2.160410 -0.014740 
#    z 0.023170 -0.014740 2.221390 
# 
# From -- ./inp_files/532716.got.cif
#   From: 2010.05.17/outbox.cif.g08.bks.cpg/sg2_267_cif.got.tgz:532716.got - 2010.06.03 11:33:40.
