data_PCOD9087765
_publ_section_title
;
Structure prediction by ZEFSAII (Michael W. Deem and Ramdas Pophale) SiO2 
 PCOD9087765
Probable space group: P -1
;
_chemical_formula_sum "Si O2"
_cell_formula_units_Z 16
_cell_length_a 19.078145
_cell_length_b 11.237333
_cell_length_c 8.066778
_cell_angle_alpha 78.327617
_cell_angle_beta 108.030567
_cell_angle_gamma 41.554505
_cell_volume 791.669157
_symmetry_space_group_name_H-M "P -1"
_symmetry_group_IT_number 2
_symmetry_cell_setting 'triclinic'
loop_
_space_group_symop_operation_xyz
x,y,z
-x,-y,-z
loop_
_atom_site_type_symbol
_atom_site_label
_atom_site_fract_x
_atom_site_fract_y
_atom_site_fract_z
Si Si1 0.209739 0.697858 0.971611
Si Si2 0.310195 0.724229 0.469225
Si Si3 0.353473 0.115068 0.159145
Si Si4 0.329107 0.337771 0.368519
Si Si5 0.346554 0.848002 0.158659
Si Si6 0.898215 0.213784 0.706030
Si Si7 0.770756 0.088623 0.282910
Si Si8 0.885739 0.377394 0.313211
O O1 0.249246 0.747309 0.858642
O O2 0.132416 0.697735 0.820189
O O3 0.346884 0.435595 0.240980
O O4 0.076652 0.938004 0.923935
O O5 0.283759 0.846602 0.253973
O O6 0.476051 0.432068 0.647458
O O7 0.194373 0.778521 0.378095
O O8 0.303840 0.803143 0.620029
O O9 0.324458 0.226410 0.280885
O O10 0.533710 0.868925 0.345524
O O11 0.317637 0.025357 0.149252
O O12 0.248297 0.335698 0.890598
O O13 0.173140 0.592390 0.268270
O O14 0.284900 0.914918 0.908488
O O15 0.873821 0.319648 0.487709
O O16 0.947028 0.810461 0.518708
#
# Coordination Sequence:
#
# PCOD9087765 Si02
#       8
#     2   2   2   2   2   2   2   2
#     4  10  19  36  67  94 122 148 203 276 310 354
#     4  11  22  41  66  93 126 160 208 258 311 361
#     4  10  23  43  54  87 130 168 204 245 305 377
#     4  10  21  37  63  88 122 166 202 260 310 356
#     4  11  25  41  61  91 131 168 205 249 299 386
#     4  11  18  37  65  96 115 151 209 264 317 349
#     4  11  21  41  65  96 122 164 201 261 320 351
#     4  10  21  39  64  88 129 153 204 264 305 369
#
# _framework density 20.210464000000002
#
# number of rings (size 3 to 8) (size 9 to 14) (size 15 to 20)
#    0.000    1.500    3.750    2.250    1.750    2.000 
#    2.250    0.625    0.000    0.000    0.000    0.000 
#    0.000    0.000    0.000    0.000    0.000    0.000 
#
# Total GULP energy -89271.567564 kJ/mol
# GULP energy per Si atom -5579.472973 kJ/mol
# Density = 2.016446 g / cm^3
# Si number density = 20.210464 Si / 1000 Ang^3
#
#
#
# Elastic Constant Matrix: (Units=GPa)
#
#
# Indices 1 2 3 4 5 6 
#
# 1 66.0567 41.7272 23.6588 -6.8610 -2.5126 8.0499
# 2 41.7272 114.5532 39.3935 3.1551 -12.2178 6.5554
# 3 23.6588 39.3935 104.8489 -12.7730 -8.6416 18.2328
# 4 -6.8610 3.1551 -12.7730 32.3791 8.1767 -4.4972
# 5 -2.5126 -12.2178 -8.6416 8.1767 13.2358 6.1713
# 6 8.0499 6.5554 18.2328 -4.4972 6.1713 31.0069
#
#
#
# Elastic Compliance Matrix: (Units=1/GPa)
#
#
# Indices 1 2 3 4 5 6 
#
# 1 0.021401 -0.008417 -0.001547 0.007017 -0.009027 -0.000053
# 2 -0.008417 0.015266 -0.002648 -0.009756 0.018973 -0.004676
# 3 -0.001547 -0.002648 0.013260 0.001822 0.008662 -0.008295
# 4 0.007017 -0.009756 0.001822 0.046614 -0.041938 0.014277
# 5 -0.009027 0.018973 0.008662 -0.041938 0.142090 -0.041123
# 6 -0.000053 -0.004676 -0.008295 0.014277 -0.041123 0.048387
#
#
# Mechanical properties :
#
#
# Convention : Reuss Voigt Hill
#
# Bulk Modulus (GPa) = 40.47961 55.00197 47.74079
# Shear Modulus (GPa) = 15.60186 27.36966 21.48576
#
# Velocity S-wave (km/s) = 2.78145 3.68398 3.26406
# Velocity P-wave (km/s) = 5.51251 6.73567 6.15455
#
# Compressibility (1/GPa) = 0.02470380
#
# Stress axis : x y z
#
# Youngs Moduli (GPa) = 46.72660 65.50538 75.41564
#
# Poissons Ratio (x) = 0.55134 0.11665
# Poissons Ratio (y) = 0.39328 0.19971
# Poissons Ratio (z) = 0.07228 0.17346
#
# Static dielectric constant tensor:
#      x y z
#    x 1.718700 -0.020910 -0.024350 
#    y -0.020910 1.737480 0.033810 
#    z -0.024350 0.033810 1.787670 
# 
# From -- ./inp_files/345289.got.cif
#   From: 2010.05.17/outbox.cif.g08.bks.cpg/sg2_173_cif.got.tgz:345289.got - 2010.06.03 11:33:40.
