data_PCOD9087125
_publ_section_title
;
Structure prediction by ZEFSAII (Michael W. Deem and Ramdas Pophale) SiO2 
 PCOD9087125
Probable space group: P -1
;
_chemical_formula_sum "Si O2"
_cell_formula_units_Z 14
_cell_length_a 12.273293
_cell_length_b 7.890642
_cell_length_c 9.117203
_cell_angle_alpha 57.697483
_cell_angle_beta 131.941400
_cell_angle_gamma 105.394172
_cell_volume 549.182573
_symmetry_space_group_name_H-M "P -1"
_symmetry_group_IT_number 2
_symmetry_cell_setting 'triclinic'
loop_
_space_group_symop_operation_xyz
x,y,z
-x,-y,-z
loop_
_atom_site_type_symbol
_atom_site_label
_atom_site_fract_x
_atom_site_fract_y
_atom_site_fract_z
Si Si1 0.331898 0.767368 0.678092
Si Si2 0.164269 0.264794 0.136836
Si Si3 0.666250 0.145648 0.655024
Si Si4 0.006002 0.705604 0.327520
Si Si5 0.537758 0.884888 0.240819
Si Si6 0.637008 0.412732 0.903084
Si Si7 0.111212 0.836290 0.919613
O O1 0.421601 0.741918 0.614457
O O2 0.376140 0.609611 0.922703
O O3 0.174366 0.735876 0.487871
O O4 0.332987 0.993009 0.642791
O O5 0.045982 0.245799 0.168776
O O6 0.246464 0.051479 0.252175
O O7 0.059210 0.331986 0.872492
O O8 0.292340 0.405763 0.195332
O O9 0.568022 0.078916 0.729134
O O10 0.789496 0.242700 0.811884
O O11 0.000000 0.500000 0.500000
O O12 0.917724 0.919261 0.208136
O O13 0.506525 0.659186 0.271868
O O14 0.500000 0.000000 0.000000
O O15 0.781059 0.236375 0.082794
#
# Coordination Sequence:
#
# PCOD9087125 Si02
#       7
#     2   2   2   2   2   2   2
#     4  11  19  37  59  81 114 150 194 234 275 338
#     4  11  19  36  59  87 116 148 191 234 283 342
#     4  10  19  36  62  81 109 154 192 232 282 335
#     4  11  20  35  59  87 114 146 192 235 282 340
#     4   9  21  39  59  80 112 155 191 232 287 331
#     4  10  22  36  58  83 118 153 188 234 284 332
#     4  10  20  37  57  84 121 151 182 236 290 335
#
# _framework density 25.492431
#
# number of rings (size 3 to 8) (size 9 to 14) (size 15 to 20)
#    0.000    1.714    4.286    1.714    0.000    0.571 
#    0.000    3.571    3.143    0.000    0.000    0.000 
#    0.000    0.000    0.000    0.000    0.000    0.000 
#
# Total GULP energy -78006.859932 kJ/mol
# GULP energy per Si atom -5571.918567 kJ/mol
# Density = 2.543441 g / cm^3
# Si number density = 25.492431 Si / 1000 Ang^3
#
#
#
# Elastic Constant Matrix: (Units=GPa)
#
#
# Indices 1 2 3 4 5 6 
#
# 1 112.1264 30.0617 39.8881 -2.0375 -31.1007 7.8391
# 2 30.0617 141.0027 9.9979 12.8408 -4.0555 42.3773
# 3 39.8881 9.9979 117.4468 17.4293 -25.8487 10.2410
# 4 -2.0375 12.8408 17.4293 41.8747 6.1663 0.8561
# 5 -31.1007 -4.0555 -25.8487 6.1663 37.8515 6.6401
# 6 7.8391 42.3773 10.2410 0.8561 6.6401 42.2428
#
#
#
# Elastic Compliance Matrix: (Units=1/GPa)
#
#
# Indices 1 2 3 4 5 6 
#
# 1 0.012822 -0.002049 -0.002274 0.000924 0.008819 -0.001178
# 2 -0.002049 0.011713 0.002501 -0.005111 0.004314 -0.012551
# 3 -0.002274 0.002501 0.012862 -0.007504 0.009556 -0.006555
# 4 0.000924 -0.005111 -0.007504 0.030105 -0.011208 0.007927
# 5 0.008819 0.004314 0.009556 -0.011208 0.045136 -0.015149
# 6 -0.001178 -0.012551 -0.006555 0.007927 -0.015149 0.040292
#
#
# Mechanical properties :
#
#
# Convention : Reuss Voigt Hill
#
# Bulk Modulus (GPa) = 29.62588 58.94124 44.28356
# Shear Modulus (GPa) = 29.79288 43.76903 36.78096
#
# Velocity S-wave (km/s) = 3.42233 4.14810 3.80257
# Velocity P-wave (km/s) = 5.22141 6.79069 6.05709
#
# Compressibility (1/GPa) = 0.03375427
#
# Stress axis : x y z
#
# Youngs Moduli (GPa) = 77.99111 85.37331 77.74725
#
# Poissons Ratio (x) = 0.17493 0.17678
# Poissons Ratio (y) = 0.15980 -0.19446
# Poissons Ratio (z) = 0.17733 -0.21353
#
# Static dielectric constant tensor:
#      x y z
#    x 2.149690 0.040800 -0.027820 
#    y 0.040800 2.091210 -0.093400 
#    z -0.027820 -0.093400 2.138190 
# 
# From -- ./inp_files/169822.got.cif
#   From: 2010.05.17/outbox.cif.g08.bks.cpg/sg2_85_cif.got.tgz:169822.got - 2010.06.03 11:33:40.
