data_PCOD9087981
_publ_section_title
;
Structure prediction by ZEFSAII (Michael W. Deem and Ramdas Pophale) SiO2 
 PCOD9087981
Probable space group: P -1
;
_chemical_formula_sum "Si O2"
_cell_formula_units_Z 16
_cell_length_a 26.984689
_cell_length_b 5.354271
_cell_length_c 5.144278
_cell_angle_alpha 91.285356
_cell_angle_beta 64.159250
_cell_angle_gamma 74.843560
_cell_volume 637.666068
_symmetry_space_group_name_H-M "P -1"
_symmetry_group_IT_number 2
_symmetry_cell_setting 'triclinic'
loop_
_space_group_symop_operation_xyz
x,y,z
-x,-y,-z
loop_
_atom_site_type_symbol
_atom_site_label
_atom_site_fract_x
_atom_site_fract_y
_atom_site_fract_z
Si Si1 0.599583 0.828793 0.663870
Si Si2 0.169405 0.271361 0.805495
Si Si3 0.555998 0.375837 0.540487
Si Si4 0.347546 0.043643 0.943364
Si Si5 0.233175 0.583970 0.910950
Si Si6 0.110795 0.002930 0.258037
Si Si7 0.254819 0.811626 0.374719
Si Si8 0.940744 0.726277 0.118273
O O1 0.555925 0.120575 0.706185
O O2 0.625214 0.826561 0.889367
O O3 0.571461 0.599995 0.673397
O O4 0.649564 0.811639 0.331795
O O5 0.225293 0.353850 0.743636
O O6 0.109946 0.417452 0.803753
O O7 0.191001 0.005242 0.578938
O O8 0.148938 0.201873 0.130983
O O9 0.500000 0.500000 0.500000
O O10 0.607949 0.244350 0.220660
O O11 0.291066 0.982865 0.168350
O O12 0.269468 0.713799 0.634903
O O13 0.163119 0.736009 0.103492
O O14 0.254368 0.592873 0.156034
O O15 0.068161 0.088432 0.111075
O O16 0.073674 0.081596 0.599591
O O17 0.000000 0.500000 0.000000
#
# Coordination Sequence:
#
# PCOD9087981 Si02
#       8
#     2   2   2   2   2   2   2   2
#     4  10  24  42  69  95 139 170 226 269 332 386
#     4   9  23  35  62  82 117 153 196 241 310 361
#     4  10  24  44  69 100 134 180 222 274 328 391
#     4  10  25  41  65  95 132 172 217 268 329 384
#     4  11  21  37  64  85 118 157 197 247 309 371
#     4   9  19  37  53  81 115 140 195 238 294 360
#     4  11  23  41  60  91 122 154 204 251 305 372
#     4  10  19  37  58  77 115 153 190 249 302 357
#
# _framework density 25.091502999999999
#
# number of rings (size 3 to 8) (size 9 to 14) (size 15 to 20)
#    1.500    0.500    1.250    1.500    3.500    3.000 
#    0.000    1.250    0.000    0.000    0.000    0.000 
#    0.000    0.000    0.000    0.000    0.000    0.000 
#
# Total GULP energy -89206.297346 kJ/mol
# GULP energy per Si atom -5575.393584 kJ/mol
# Density = 2.503439 g / cm^3
# Si number density = 25.091503 Si / 1000 Ang^3
#
#
#
# Elastic Constant Matrix: (Units=GPa)
#
#
# Indices 1 2 3 4 5 6 
#
# 1 88.2623 23.7412 34.2233 10.7520 16.8474 -4.7077
# 2 23.7412 88.7672 20.3469 9.6522 8.0873 11.6967
# 3 34.2233 20.3469 116.1429 11.7896 36.2601 -8.2243
# 4 10.7520 9.6522 11.7896 19.7844 -4.6131 6.1375
# 5 16.8474 8.0873 36.2601 -4.6131 43.0910 3.9758
# 6 -4.7077 11.6967 -8.2243 6.1375 3.9758 37.0628
#
#
#
# Elastic Compliance Matrix: (Units=1/GPa)
#
#
# Indices 1 2 3 4 5 6 
#
# 1 0.014937 -0.002912 -0.000694 -0.009220 -0.006144 0.004848
# 2 -0.002912 0.013260 -0.001557 -0.002542 0.000102 -0.004490
# 3 -0.000694 -0.001557 0.015735 -0.014149 -0.014915 0.007838
# 4 -0.009220 -0.002542 -0.014149 0.077214 0.026015 -0.019086
# 5 -0.006144 0.000102 -0.014915 0.026015 0.042120 -0.012949
# 6 0.004848 -0.004490 0.007838 -0.019086 -0.012949 0.035303
#
#
# Mechanical properties :
#
#
# Convention : Reuss Voigt Hill
#
# Bulk Modulus (GPa) = 29.75644 49.97726 39.86685
# Shear Modulus (GPa) = 22.71733 34.31170 28.51451
#
# Velocity S-wave (km/s) = 3.01222 3.70193 3.37474
# Velocity P-wave (km/s) = 4.89723 6.18334 5.57748
#
# Compressibility (1/GPa) = 0.03360617
#
# Stress axis : x y z
#
# Youngs Moduli (GPa) = 66.94895 75.41519 63.55228
#
# Poissons Ratio (x) = 0.21964 0.04409
# Poissons Ratio (y) = 0.19499 0.09892
# Poissons Ratio (z) = 0.04645 0.11739
#
# Static dielectric constant tensor:
#      x y z
#    x 2.050620 0.023370 -0.043760 
#    y 0.023370 2.221810 -0.017110 
#    z -0.043760 -0.017110 1.976670 
# 
# From -- ./inp_files/125593.got.cif
#   From: 2010.05.17/outbox.cif.g08.bks.cpg/sg2_63_cif.got.tgz:125593.got - 2010.06.03 11:33:40.
