data_PCOD9087355
_publ_section_title
;
Structure prediction by ZEFSAII (Michael W. Deem and Ramdas Pophale) SiO2 
 PCOD9087355
Probable space group: P -1
;
_chemical_formula_sum "Si O2"
_cell_formula_units_Z 16
_cell_length_a 12.430598
_cell_length_b 9.646514
_cell_length_c 14.207945
_cell_angle_alpha 63.295745
_cell_angle_beta 41.008625
_cell_angle_gamma 93.008498
_cell_volume 743.144094
_symmetry_space_group_name_H-M "P -1"
_symmetry_group_IT_number 2
_symmetry_cell_setting 'triclinic'
loop_
_space_group_symop_operation_xyz
x,y,z
-x,-y,-z
loop_
_atom_site_type_symbol
_atom_site_label
_atom_site_fract_x
_atom_site_fract_y
_atom_site_fract_z
Si Si1 0.568454 0.659524 0.042429
Si Si2 0.998051 0.964020 0.784845
Si Si3 0.643395 0.799989 0.227970
Si Si4 0.227357 0.923109 0.784618
Si Si5 0.493488 0.729080 0.868151
Si Si6 0.722887 0.562686 0.523448
Si Si7 0.636178 0.101105 0.560694
Si Si8 0.021675 0.576652 0.177739
O O1 0.511551 0.447549 0.114929
O O2 0.400672 0.593014 0.258419
O O3 0.538983 0.745799 0.943775
O O4 0.819247 0.825146 0.864056
O O5 0.128661 0.895963 0.756816
O O6 0.172331 0.210820 0.580543
O O7 0.845354 0.914628 0.989816
O O8 0.474135 0.556937 0.387724
O O9 0.505004 0.873180 0.283039
O O10 0.725683 0.880729 0.254880
O O11 0.459400 0.983143 0.628723
O O12 0.058999 0.723126 0.024015
O O13 0.662561 0.951313 0.636365
O O14 0.254993 0.651463 0.027935
O O15 0.914070 0.589493 0.335997
O O16 0.853611 0.337476 0.329031
#
# Coordination Sequence:
#
# PCOD9087355 Si02
#       8
#     2   2   2   2   2   2   2   2
#     4  10  25  39  56  83 112 147 190 237 279 329
#     4  11  19  34  54  85 123 149 178 231 281 328
#     4   8  17  31  51  86 116 145 179 220 275 332
#     4   9  18  31  56  88 119 149 178 222 280 337
#     4  10  21  44  60  73 110 154 191 231 284 334
#     4  10  20  35  55  91 118 137 189 232 275 328
#     4   8  18  33  57  84 104 143 193 226 265 333
#     4  10  19  36  63  87 108 150 190 223 276 338
#
# _framework density 21.530145999999998
#
# number of rings (size 3 to 8) (size 9 to 14) (size 15 to 20)
#    0.750    1.750    1.250    0.375    0.000    5.000 
#    0.000   13.750    0.000    4.500    0.000    0.000 
#    0.000    0.000    0.000    0.000    0.000    0.000 
#
# Total GULP energy -89213.316446 kJ/mol
# GULP energy per Si atom -5575.832278 kJ/mol
# Density = 2.148114 g / cm^3
# Si number density = 21.530146 Si / 1000 Ang^3
#
#
#
# Elastic Constant Matrix: (Units=GPa)
#
#
# Indices 1 2 3 4 5 6 
#
# 1 81.1143 18.6491 28.8499 -13.9721 13.4628 11.7319
# 2 18.6491 70.4374 28.0754 -11.5589 15.4085 7.2997
# 3 28.8499 28.0754 97.9269 -22.1378 7.1274 1.7687
# 4 -13.9721 -11.5589 -22.1378 39.0357 -6.9200 3.3261
# 5 13.4628 15.4085 7.1274 -6.9200 25.4814 1.5579
# 6 11.7319 7.2997 1.7687 3.3261 1.5579 20.2073
#
#
#
# Elastic Compliance Matrix: (Units=1/GPa)
#
#
# Indices 1 2 3 4 5 6 
#
# 1 0.016585 -0.000103 -0.003404 0.003684 -0.006171 -0.009424
# 2 -0.000103 0.018859 -0.004123 0.002080 -0.009264 -0.006020
# 3 -0.003404 -0.004123 0.013462 0.005430 0.001925 0.001246
# 4 0.003684 0.002080 0.005430 0.032211 0.004576 -0.009020
# 5 -0.006171 -0.009264 0.001925 0.004576 0.048673 0.002255
# 6 -0.009424 -0.006020 0.001246 -0.009020 0.002255 0.058335
#
#
# Mechanical properties :
#
#
# Convention : Reuss Voigt Hill
#
# Bulk Modulus (GPa) = 29.72238 44.51416 37.11827
# Shear Modulus (GPa) = 23.29903 28.53850 25.91876
#
# Velocity S-wave (km/s) = 3.29319 3.64471 3.47340
# Velocity P-wave (km/s) = 5.31931 6.19936 5.77612
#
# Compressibility (1/GPa) = 0.03364468
#
# Stress axis : x y z
#
# Youngs Moduli (GPa) = 60.29676 53.02369 74.28471
#
# Poissons Ratio (x) = 0.00545 0.25288
# Poissons Ratio (y) = 0.00620 0.30631
# Poissons Ratio (z) = 0.20526 0.21864
#
# Static dielectric constant tensor:
#      x y z
#    x 1.764640 0.000810 -0.005640 
#    y 0.000810 1.842620 0.014980 
#    z -0.005640 0.014980 1.792550 
# 
# From -- ./inp_files/517766.got.cif
#   From: 2010.05.17/outbox.cif.g08.bks.cpg/sg2_259_cif.got.tgz:517766.got - 2010.06.03 11:33:40.
