data_PCOD9087500
_publ_section_title
;
Structure prediction by ZEFSAII (Michael W. Deem and Ramdas Pophale) SiO2 
 PCOD9087500
Probable space group: P -1
;
_chemical_formula_sum "Si O2"
_cell_formula_units_Z 14
_cell_length_a 12.303354
_cell_length_b 18.330781
_cell_length_c 21.584936
_cell_angle_alpha 161.511257
_cell_angle_beta 24.877721
_cell_angle_gamma 145.413941
_cell_volume 623.798785
_symmetry_space_group_name_H-M "P -1"
_symmetry_group_IT_number 2
_symmetry_cell_setting 'triclinic'
loop_
_space_group_symop_operation_xyz
x,y,z
-x,-y,-z
loop_
_atom_site_type_symbol
_atom_site_label
_atom_site_fract_x
_atom_site_fract_y
_atom_site_fract_z
Si Si1 0.267164 0.195664 0.861203
Si Si2 0.731140 0.742837 0.289024
Si Si3 0.272675 0.480808 0.650554
Si Si4 0.570001 0.504157 0.078324
Si Si5 0.581235 0.289226 0.454976
Si Si6 0.008991 0.935089 0.516861
Si Si7 0.826607 0.735265 0.888471
O O1 0.455236 0.324922 0.829168
O O2 0.465124 0.929212 0.546164
O O3 0.166564 0.257286 0.033518
O O4 0.987995 0.293861 0.046331
O O5 0.788220 0.541965 0.045348
O O6 0.609697 0.665227 0.350836
O O7 0.966573 0.854402 0.279901
O O8 0.500000 0.500000 0.500000
O O9 0.423299 0.458118 0.619386
O O10 0.176177 0.232970 0.500118
O O11 0.311949 0.473094 0.222078
O O12 0.692744 0.243073 0.775446
O O13 0.875879 0.321526 0.337953
O O14 0.656552 0.001376 0.168815
O O15 0.000000 0.000000 0.500000
#
# Coordination Sequence:
#
# PCOD9087500 Si02
#       7
#     2   2   2   2   2   2   2
#     4  10  21  37  59  89 122 152 201 250 299 352
#     4  11  23  40  62  90 121 157 204 252 296 365
#     4  11  21  35  64  92 118 162 205 245 305 364
#     4  11  22  37  65  90 118 157 205 249 302 356
#     4  10  20  37  59  89 120 159 203 244 303 358
#     4  11  22  41  63  91 122 158 202 250 306 356
#     4  10  19  36  64  85 119 163 201 245 299 363
#
# _framework density 22.443135000000002
#
# number of rings (size 3 to 8) (size 9 to 14) (size 15 to 20)
#    0.000    1.429    5.714    0.857    2.000    1.143 
#    0.000    0.000    0.000    4.286    0.000    0.000 
#    0.000    0.000    0.000    0.000    0.000    0.000 
#
# Total GULP energy -77994.965577 kJ/mol
# GULP energy per Si atom -5571.068970 kJ/mol
# Density = 2.239205 g / cm^3
# Si number density = 22.443135 Si / 1000 Ang^3
#
#
#
# Elastic Constant Matrix: (Units=GPa)
#
#
# Indices 1 2 3 4 5 6 
#
# 1 78.1452 4.8667 23.4625 15.7030 -22.6322 -14.2510
# 2 4.8667 139.9259 10.5276 -3.3027 -8.2994 -0.5021
# 3 23.4625 10.5276 56.2470 8.3201 -21.2051 -1.3458
# 4 15.7030 -3.3027 8.3201 24.1987 -3.3992 -6.1999
# 5 -22.6322 -8.2994 -21.2051 -3.3992 36.3818 12.8288
# 6 -14.2510 -0.5021 -1.3458 -6.1999 12.8288 41.4042
#
#
#
# Elastic Compliance Matrix: (Units=1/GPa)
#
#
# Indices 1 2 3 4 5 6 
#
# 1 0.018295 -0.000135 -0.003299 -0.009046 0.007721 0.002441
# 2 -0.000135 0.007341 -0.001139 0.001612 0.001112 -0.000097
# 3 -0.003299 -0.001139 0.025378 -0.006216 0.013855 -0.005548
# 4 -0.009046 0.001612 -0.006216 0.050246 -0.006375 0.006203
# 5 0.007721 0.001112 0.013855 -0.006375 0.044074 -0.011489
# 6 0.002441 -0.000097 -0.005548 0.006203 -0.011489 0.029300
#
#
# Mechanical properties :
#
#
# Convention : Reuss Voigt Hill
#
# Bulk Modulus (GPa) = 23.88499 39.11466 31.49982
# Shear Modulus (GPa) = 25.28644 36.09435 30.69039
#
# Velocity S-wave (km/s) = 3.36026 4.01466 3.70195
# Velocity P-wave (km/s) = 5.07156 6.24149 5.68669
#
# Compressibility (1/GPa) = 0.04186730
#
# Stress axis : x y z
#
# Youngs Moduli (GPa) = 54.66083 136.22682 39.40415
#
# Poissons Ratio (x) = 0.01838 0.12998
# Poissons Ratio (y) = 0.00737 0.04490
# Poissons Ratio (z) = 0.18031 0.15523
#
# Static dielectric constant tensor:
#      x y z
#    x 1.900710 0.043860 0.012220 
#    y 0.043860 1.881960 0.037340 
#    z 0.012220 0.037340 1.848590 
# 
# From -- ./inp_files/403913.got.cif
#   From: 2010.05.17/outbox.cif.g08.bks.cpg/sg2_202_cif.got.tgz:403913.got - 2010.06.03 11:33:40.
