data_PCOD9087480
_publ_section_title
;
Structure prediction by ZEFSAII (Michael W. Deem and Ramdas Pophale) SiO2 
 PCOD9087480
Probable space group: P -1
;
_chemical_formula_sum "Si O2"
_cell_formula_units_Z 16
_cell_length_a 15.988612
_cell_length_b 8.479360
_cell_length_c 10.241182
_cell_angle_alpha 74.308217
_cell_angle_beta 132.681699
_cell_angle_gamma 69.234646
_cell_volume 638.610556
_symmetry_space_group_name_H-M "P -1"
_symmetry_group_IT_number 2
_symmetry_cell_setting 'triclinic'
loop_
_space_group_symop_operation_xyz
x,y,z
-x,-y,-z
loop_
_atom_site_type_symbol
_atom_site_label
_atom_site_fract_x
_atom_site_fract_y
_atom_site_fract_z
Si Si1 0.483473 0.628510 0.824036
Si Si2 0.921196 0.320198 0.945464
Si Si3 0.351142 0.117894 0.505522
Si Si4 0.160528 0.694439 0.628702
Si Si5 0.059839 0.499744 0.424104
Si Si6 0.329497 0.033128 0.199894
Si Si7 0.078065 0.145455 0.425992
Si Si8 0.281790 0.772220 0.332486
O O1 0.416006 0.605610 0.631884
O O2 0.370064 0.919341 0.636501
O O3 0.500000 0.500000 0.000000
O O4 0.679640 0.485674 0.060052
O O5 0.823445 0.584173 0.720795
O O6 0.789545 0.314993 0.784103
O O7 0.949744 0.319767 0.129452
O O8 0.106149 0.060226 0.137246
O O9 0.345672 0.084397 0.352425
O O10 0.528521 0.031755 0.726569
O O11 0.163116 0.555767 0.547974
O O12 0.997992 0.828785 0.519273
O O13 0.155094 0.883928 0.522870
O O14 0.156831 0.236232 0.526565
O O15 0.000000 0.500000 0.500000
O O16 0.871507 0.732024 0.106810
O O17 0.365005 0.801459 0.306925
#
# Coordination Sequence:
#
# PCOD9087480 Si02
#       8
#     2   2   2   2   2   2   2   2
#     4  11  24  46  66  89 133 179 218 280 349 397
#     4  11  22  44  66 101 133 176 233 271 339 414
#     4  10  22  39  70  96 132 173 221 281 336 406
#     4  10  22  39  63  98 137 176 226 273 334 402
#     4  10  19  36  63  99 135 173 215 274 331 401
#     4  10  20  39  63 103 135 169 217 279 340 388
#     4  10  20  38  67  97 131 180 219 278 332 405
#     4  10  25  42  69  97 136 181 219 284 342 396
#
# _framework density 25.054392
#
# number of rings (size 3 to 8) (size 9 to 14) (size 15 to 20)
#    0.000    1.750    1.250    3.000    3.500    3.500 
#   11.250    0.625    0.000    0.000    0.000    0.000 
#    0.000    0.000    0.000    0.000    0.000    0.000 
#
# Total GULP energy -89329.364839 kJ/mol
# GULP energy per Si atom -5583.085302 kJ/mol
# Density = 2.499737 g / cm^3
# Si number density = 25.054392 Si / 1000 Ang^3
#
#
#
# Elastic Constant Matrix: (Units=GPa)
#
#
# Indices 1 2 3 4 5 6 
#
# 1 62.6608 38.5577 4.7797 3.3122 -19.1135 20.0020
# 2 38.5577 157.2150 33.3675 12.9238 -2.4236 40.4549
# 3 4.7797 33.3675 80.4223 10.2645 -1.1324 15.8260
# 4 3.3122 12.9238 10.2645 43.0264 13.4263 2.2516
# 5 -19.1135 -2.4236 -1.1324 13.4263 40.9508 -1.5244
# 6 20.0020 40.4549 15.8260 2.2516 -1.5244 37.0140
#
#
#
# Elastic Compliance Matrix: (Units=1/GPa)
#
#
# Indices 1 2 3 4 5 6 
#
# 1 0.025453 -0.003603 0.002817 -0.005083 0.013033 -0.010175
# 2 -0.003603 0.009815 -0.002150 -0.001444 -0.000978 -0.007813
# 3 0.002817 -0.002150 0.014663 -0.003608 0.002586 -0.005116
# 4 -0.005083 -0.001444 -0.003608 0.028397 -0.011732 0.003657
# 5 0.013033 -0.000978 0.002586 -0.011732 0.034178 -0.004958
# 6 -0.010175 -0.007813 -0.005116 0.003657 -0.004958 0.042815
#
#
# Mechanical properties :
#
#
# Convention : Reuss Voigt Hill
#
# Bulk Modulus (GPa) = 22.69745 50.41200 36.55472
# Shear Modulus (GPa) = 28.42843 39.10447 33.76645
#
# Velocity S-wave (km/s) = 3.37214 3.95496 3.67512
# Velocity P-wave (km/s) = 4.92348 6.40471 5.71231
#
# Compressibility (1/GPa) = 0.04405782
#
# Stress axis : x y z
#
# Youngs Moduli (GPa) = 39.28741 101.88558 68.20068
#
# Poissons Ratio (x) = 0.36714 -0.19212
# Poissons Ratio (y) = 0.14157 0.14664
# Poissons Ratio (z) = -0.11067 0.21906
#
# Static dielectric constant tensor:
#      x y z
#    x 2.049880 0.006220 0.081290 
#    y 0.006220 2.034270 -0.015280 
#    z 0.081290 -0.015280 2.007760 
# 
# From -- ./inp_files/469380.got.cif
#   From: 2010.05.17/outbox.cif.g08.bks.cpg/sg2_235_cif.got.tgz:469380.got - 2010.06.03 11:33:40.
