data_PCOD9087304
_publ_section_title
;
Structure prediction by ZEFSAII (Michael W. Deem and Ramdas Pophale) SiO2 
 PCOD9087304
Probable space group: P -1
;
_chemical_formula_sum "Si O2"
_cell_formula_units_Z 14
_cell_length_a 17.144741
_cell_length_b 17.134167
_cell_length_c 10.978946
_cell_angle_alpha 135.923182
_cell_angle_beta 31.127992
_cell_angle_gamma 156.740994
_cell_volume 620.738974
_symmetry_space_group_name_H-M "P -1"
_symmetry_group_IT_number 2
_symmetry_cell_setting 'triclinic'
loop_
_space_group_symop_operation_xyz
x,y,z
-x,-y,-z
loop_
_atom_site_type_symbol
_atom_site_label
_atom_site_fract_x
_atom_site_fract_y
_atom_site_fract_z
Si Si1 0.157598 0.790889 0.364720
Si Si2 0.721379 0.801693 0.010234
Si Si3 0.722534 0.891564 0.537239
Si Si4 0.702847 0.997545 0.917836
Si Si5 0.289045 0.970045 0.774051
Si Si6 0.201215 0.353279 0.094673
Si Si7 0.881164 0.551337 0.227905
O O1 0.013765 0.723677 0.609472
O O2 0.918296 0.609468 0.384138
O O3 0.302422 0.996241 0.354599
O O4 0.393782 0.845422 0.119354
O O5 0.758244 0.746559 0.017373
O O6 0.496030 0.599919 0.997009
O O7 0.011937 0.988076 0.756017
O O8 0.631706 0.872108 0.237235
O O9 0.437707 0.647500 0.614787
O O10 0.772170 0.939438 0.668739
O O11 0.922895 0.236643 0.866605
O O12 0.689845 0.975418 0.054538
O O13 0.964666 0.740328 0.914529
O O14 0.500000 0.000000 0.500000
O O15 0.000000 0.500000 0.000000
#
# Coordination Sequence:
#
# PCOD9087304 Si02
#       7
#     2   2   2   2   2   2   2
#     4  10  19  36  62  96 128 159 218 272 316 379
#     4  10  25  45  69  93 129 180 224 269 325 388
#     4  10  21  40  64  93 128 167 220 271 315 385
#     4  11  22  38  60  98 132 161 211 273 326 385
#     4  12  26  43  66  98 139 174 214 271 335 393
#     4  10  23  46  69  95 130 175 227 268 320 395
#     4  11  19  34  65  96 125 173 217 262 326 381
#
# _framework density 22.553764000000001
#
# number of rings (size 3 to 8) (size 9 to 14) (size 15 to 20)
#    0.000    1.429    4.286    1.286    0.000   10.286 
#    0.000    1.429    0.000    0.000    0.000    0.000 
#    0.000    0.000    0.000    0.000    0.000    0.000 
#
# Total GULP energy -78315.166742 kJ/mol
# GULP energy per Si atom -5593.940482 kJ/mol
# Density = 2.250243 g / cm^3
# Si number density = 22.553764 Si / 1000 Ang^3
#
#
#
# Elastic Constant Matrix: (Units=GPa)
#
#
# Indices 1 2 3 4 5 6 
#
# 1 71.6615 31.6482 35.9355 -2.2741 -10.6134 27.9045
# 2 31.6482 125.5806 37.9875 -15.3281 -12.1568 22.2388
# 3 35.9355 37.9875 77.8076 -8.9048 -12.8247 2.3057
# 4 -2.2741 -15.3281 -8.9048 34.2860 1.1800 -3.4904
# 5 -10.6134 -12.1568 -12.8247 1.1800 39.8149 6.3204
# 6 27.9045 22.2388 2.3057 -3.4904 6.3204 32.6737
#
#
#
# Elastic Compliance Matrix: (Units=1/GPa)
#
#
# Indices 1 2 3 4 5 6 
#
# 1 0.034263 0.001914 -0.014618 -0.004274 0.010210 -0.031965
# 2 0.001914 0.011453 -0.005260 0.002787 0.003736 -0.009484
# 3 -0.014618 -0.005260 0.022026 0.003970 -0.000925 0.015113
# 4 -0.004274 0.002787 0.003970 0.031695 -0.000743 0.005002
# 5 0.010210 0.003736 -0.000925 -0.000743 0.031459 -0.017362
# 6 -0.031965 -0.009484 0.015113 0.005002 -0.017362 0.067186
#
#
# Mechanical properties :
#
#
# Convention : Reuss Voigt Hill
#
# Bulk Modulus (GPa) = 31.43232 54.02134 42.72683
# Shear Modulus (GPa) = 20.44041 32.65349 26.54695
#
# Velocity S-wave (km/s) = 3.01374 3.80913 3.43454
# Velocity P-wave (km/s) = 5.10657 6.58409 5.89183
#
# Compressibility (1/GPa) = 0.03181439
#
# Stress axis : x y z
#
# Youngs Moduli (GPa) = 29.18618 87.31306 45.40166
#
# Poissons Ratio (x) = -0.16716 0.66368
# Poissons Ratio (y) = -0.05588 0.23881
# Poissons Ratio (z) = 0.42664 0.45927
#
# Static dielectric constant tensor:
#      x y z
#    x 1.872840 0.017340 0.000740 
#    y 0.017340 1.844160 0.020400 
#    z 0.000740 0.020400 1.825180 
# 
# From -- ./inp_files/81476.got.cif
#   From: 2010.05.17/outbox.cif.g08.bks.cpg/sg2_41_cif.got.tgz:81476.got - 2010.06.03 11:33:40.
