data_PCOD9087384
_publ_section_title
;
Structure prediction by ZEFSAII (Michael W. Deem and Ramdas Pophale) SiO2 
 PCOD9087384
Probable space group: P -1
;
_chemical_formula_sum "Si O2"
_cell_formula_units_Z 12
_cell_length_a 14.618691
_cell_length_b 9.507021
_cell_length_c 6.770692
_cell_angle_alpha 69.429344
_cell_angle_beta 40.914093
_cell_angle_gamma 53.345940
_cell_volume 485.418291
_symmetry_space_group_name_H-M "P -1"
_symmetry_group_IT_number 2
_symmetry_cell_setting 'triclinic'
loop_
_space_group_symop_operation_xyz
x,y,z
-x,-y,-z
loop_
_atom_site_type_symbol
_atom_site_label
_atom_site_fract_x
_atom_site_fract_y
_atom_site_fract_z
Si Si1 0.714673 0.404919 0.164836
Si Si2 0.694623 0.914420 0.690503
Si Si3 0.251366 0.204786 0.895049
Si Si4 0.563956 0.296846 0.763361
Si Si5 0.580132 0.200191 0.245067
Si Si6 0.015159 0.426873 0.732166
O O1 0.636939 0.410341 0.503834
O O2 0.616277 0.590497 0.106355
O O3 0.674803 0.280869 0.161309
O O4 0.898524 0.347885 0.942402
O O5 0.797422 0.745040 0.461480
O O6 0.687563 0.096417 0.577866
O O7 0.760261 0.841513 0.835411
O O8 0.500000 0.000000 0.000000
O O9 0.403314 0.232889 0.590993
O O10 0.303179 0.014631 0.814406
O O11 0.078040 0.394613 0.069483
O O12 0.556781 0.269965 0.021149
O O13 0.000000 0.500000 0.500000
#
# Coordination Sequence:
#
# PCOD9087384 Si02
#       6
#     2   2   2   2   2   2
#     4  11  21  37  62  92 125 164 207 254 306 359
#     4  10  19  36  63  89 117 162 210 252 310 371
#     4   9  19  37  61  92 129 161 201 252 302 364
#     4  10  21  36  61  93 124 163 205 247 303 369
#     4  10  20  37  65  96 129 165 203 247 302 371
#     4  10  21  38  61  89 123 162 208 260 309 363
#
# _framework density 24.720949000000001
#
# number of rings (size 3 to 8) (size 9 to 14) (size 15 to 20)
#    0.000    2.000    0.000    5.500    0.000    0.667 
#    0.000    7.500    0.000   53.000    0.000    3.500 
#    0.000    0.000    0.000    0.000    0.000    0.000 
#
# Total GULP energy -66871.618156 kJ/mol
# GULP energy per Si atom -5572.634846 kJ/mol
# Density = 2.466468 g / cm^3
# Si number density = 24.720949 Si / 1000 Ang^3
#
#
#
# Elastic Constant Matrix: (Units=GPa)
#
#
# Indices 1 2 3 4 5 6 
#
# 1 52.9466 48.0578 13.7338 -13.4483 9.4890 -5.7789
# 2 48.0578 211.5936 46.7152 14.9206 11.3109 -15.5537
# 3 13.7338 46.7152 89.8961 3.3678 11.6036 2.8860
# 4 -13.4483 14.9206 3.3678 60.5033 -4.5358 4.7960
# 5 9.4890 11.3109 11.6036 -4.5358 43.7457 -6.7190
# 6 -5.7789 -15.5537 2.8860 4.7960 -6.7190 53.7112
#
#
#
# Elastic Compliance Matrix: (Units=1/GPa)
#
#
# Indices 1 2 3 4 5 6 
#
# 1 0.027378 -0.006407 -0.000706 0.007452 -0.003315 0.000048
# 2 -0.006407 0.007120 -0.002689 -0.003159 0.000215 0.001826
# 3 -0.000706 -0.002689 0.013081 -0.000292 -0.002943 -0.001900
# 4 0.007452 -0.003159 -0.000292 0.019189 0.001009 -0.001685
# 5 -0.003315 0.000215 -0.002943 0.001009 0.024851 0.002882
# 6 0.000048 0.001826 -0.001900 -0.001685 0.002882 0.019765
#
#
# Mechanical properties :
#
#
# Convention : Reuss Voigt Hill
#
# Bulk Modulus (GPa) = 35.74685 63.49441 49.62063
# Shear Modulus (GPa) = 35.63435 47.98735 41.81085
#
# Velocity S-wave (km/s) = 3.80078 4.41064 4.11702
# Velocity P-wave (km/s) = 5.80971 7.18878 6.53572
#
# Compressibility (1/GPa) = 0.02797449
#
# Stress axis : x y z
#
# Youngs Moduli (GPa) = 36.52608 140.43997 76.44530
#
# Poissons Ratio (x) = 0.89980 0.05397
# Poissons Ratio (y) = 0.23402 0.20559
# Poissons Ratio (z) = 0.02579 0.37770
#
# Static dielectric constant tensor:
#      x y z
#    x 2.118950 0.045750 0.030640 
#    y 0.045750 2.334950 0.083030 
#    z 0.030640 0.083030 2.054810 
# 
# From -- ./inp_files/345033.got.cif
#   From: 2010.05.17/outbox.cif.g08.bks.cpg/sg2_173_cif.got.tgz:345033.got - 2010.06.03 11:33:40.
