data_PCOD9087298
_publ_section_title
;
Structure prediction by ZEFSAII (Michael W. Deem and Ramdas Pophale) SiO2 
 PCOD9087298
Probable space group: P -1
;
_chemical_formula_sum "Si O2"
_cell_formula_units_Z 16
_cell_length_a 8.736083
_cell_length_b 15.865391
_cell_length_c 9.586523
_cell_angle_alpha 128.617254
_cell_angle_beta 134.917706
_cell_angle_gamma 78.376147
_cell_volume 662.892714
_symmetry_space_group_name_H-M "P -1"
_symmetry_group_IT_number 2
_symmetry_cell_setting 'triclinic'
loop_
_space_group_symop_operation_xyz
x,y,z
-x,-y,-z
loop_
_atom_site_type_symbol
_atom_site_label
_atom_site_fract_x
_atom_site_fract_y
_atom_site_fract_z
Si Si1 0.511021 0.313727 0.992670
Si Si2 0.404626 0.095567 0.492276
Si Si3 0.681099 0.620131 0.659415
Si Si4 0.347677 0.712394 0.375013
Si Si5 0.068033 0.538498 0.762234
Si Si6 0.057383 0.945716 0.700587
Si Si7 0.983729 0.296032 0.587032
Si Si8 0.755119 0.826750 0.099116
O O1 0.497107 0.206412 0.773517
O O2 0.085050 0.108661 0.595320
O O3 0.743736 0.422417 0.201037
O O4 0.492295 0.264465 0.085778
O O5 0.507043 0.159327 0.476246
O O6 0.120125 0.039777 0.284986
O O7 0.500000 0.000000 0.500000
O O8 0.500000 0.500000 0.500000
O O9 0.531178 0.667856 0.516061
O O10 0.832122 0.735823 0.973362
O O11 0.864265 0.583740 0.661016
O O12 0.167058 0.712171 0.379041
O O13 0.205749 0.612653 0.065420
O O14 0.983727 0.401058 0.601477
O O15 0.118586 0.838961 0.679285
O O16 0.250253 0.074171 0.906762
O O17 0.269594 0.333148 0.836304
#
# Coordination Sequence:
#
# PCOD9087298 Si02
#       8
#     2   2   2   2   2   2   2   2
#     4   9  21  35  64  97 124 174 216 270 329 383
#     4   9  20  35  64  98 126 167 225 269 323 394
#     4  12  26  43  65 102 133 174 226 268 327 390
#     4  11  24  39  68  99 131 175 219 273 330 388
#     4  11  22  42  67  95 132 175 218 275 324 389
#     4   9  20  37  67  94 125 176 215 272 330 383
#     4  10  19  36  62  95 128 166 217 259 325 390
#     4   9  20  40  62  92 131 169 219 268 320 393
#
# _framework density 24.136637
#
# number of rings (size 3 to 8) (size 9 to 14) (size 15 to 20)
#    0.000    2.250    1.250    2.250   14.000    0.000 
#    0.000    5.625    0.000    0.000    0.000    0.000 
#    0.000    0.000    0.000    0.000    0.000    0.000 
#
# Total GULP energy -89426.569004 kJ/mol
# GULP energy per Si atom -5589.160563 kJ/mol
# Density = 2.408170 g / cm^3
# Si number density = 24.136637 Si / 1000 Ang^3
#
#
#
# Elastic Constant Matrix: (Units=GPa)
#
#
# Indices 1 2 3 4 5 6 
#
# 1 165.9593 106.6034 48.7541 14.9041 27.4055 -0.6420
# 2 106.6034 205.8660 50.4623 19.2611 44.5126 -5.2459
# 3 48.7541 50.4623 67.3052 2.9927 19.8274 -1.9327
# 4 14.9041 19.2611 2.9927 37.1746 10.9725 17.5523
# 5 27.4055 44.5126 19.8274 10.9725 34.6375 0.9723
# 6 -0.6420 -5.2459 -1.9327 17.5523 0.9723 34.9866
#
#
#
# Elastic Compliance Matrix: (Units=1/GPa)
#
#
# Indices 1 2 3 4 5 6 
#
# 1 0.009949 -0.004004 -0.004184 -0.001745 0.000216 0.000221
# 2 -0.004004 0.009116 -0.001717 -0.002067 -0.006977 0.002430
# 3 -0.004184 -0.001717 0.021284 0.003460 -0.007743 -0.000679
# 4 -0.001745 -0.002067 0.003460 0.041143 -0.010401 -0.020503
# 5 0.000216 -0.006977 -0.007743 -0.010401 0.045323 0.002488
# 6 0.000221 0.002430 -0.000679 -0.020503 0.002488 0.039130
#
#
# Mechanical properties :
#
#
# Convention : Reuss Voigt Hill
#
# Bulk Modulus (GPa) = 48.69127 94.53000 71.61064
# Shear Modulus (GPa) = 25.96054 36.91379 31.43716
#
# Velocity S-wave (km/s) = 3.28314 3.91496 3.61289
# Velocity P-wave (km/s) = 5.88124 7.72563 6.86565
#
# Compressibility (1/GPa) = 0.02053756
#
# Stress axis : x y z
#
# Youngs Moduli (GPa) = 100.51751 109.70196 46.98407
#
# Poissons Ratio (x) = 0.43921 0.19659
# Poissons Ratio (y) = 0.40244 0.08068
# Poissons Ratio (z) = 0.42059 0.18839
#
# Static dielectric constant tensor:
#      x y z
#    x 1.905700 0.022080 0.001450 
#    y 0.022080 1.919250 -0.022100 
#    z 0.001450 -0.022100 2.046590 
# 
# From -- ./inp_files/397702.got.cif
#   From: 2010.05.17/outbox.cif.g08.bks.cpg/sg2_199_cif.got.tgz:397702.got - 2010.06.03 11:33:40.
