data_PCOD9087214
_publ_section_title
;
Structure prediction by ZEFSAII (Michael W. Deem and Ramdas Pophale) SiO2 
 PCOD9087214
Probable space group: P -1
;
_chemical_formula_sum "Si O2"
_cell_formula_units_Z 16
_cell_length_a 8.745181
_cell_length_b 15.194212
_cell_length_c 7.374467
_cell_angle_alpha 126.659611
_cell_angle_beta 52.316654
_cell_angle_gamma 114.283650
_cell_volume 620.438223
_symmetry_space_group_name_H-M "P -1"
_symmetry_group_IT_number 2
_symmetry_cell_setting 'triclinic'
loop_
_space_group_symop_operation_xyz
x,y,z
-x,-y,-z
loop_
_atom_site_type_symbol
_atom_site_label
_atom_site_fract_x
_atom_site_fract_y
_atom_site_fract_z
Si Si1 0.101213 0.994189 0.617843
Si Si2 0.623325 0.149827 0.249811
Si Si3 0.003731 0.749431 0.398739
Si Si4 0.478983 0.074162 0.863630
Si Si5 0.150551 0.660109 0.521367
Si Si6 0.778255 0.767572 0.216436
Si Si7 0.581099 0.298324 0.962353
Si Si8 0.666409 0.551859 0.808015
O O1 0.008153 0.877513 0.617864
O O2 0.325984 0.967175 0.413816
O O3 0.114232 0.122676 0.816595
O O4 0.000000 0.000000 0.500000
O O5 0.796990 0.242505 0.255327
O O6 0.433157 0.194207 0.532350
O O7 0.671535 0.031816 0.154623
O O8 0.545258 0.113304 0.064247
O O9 0.986332 0.675296 0.503497
O O10 0.213123 0.723868 0.124232
O O11 0.860245 0.738073 0.320252
O O12 0.440848 0.188117 0.939022
O O13 0.190562 0.544394 0.440448
O O14 0.329168 0.684040 0.279523
O O15 0.771734 0.657262 0.965035
O O16 0.454879 0.400930 0.213255
O O17 0.500000 0.500000 0.000000
#
# Coordination Sequence:
#
# PCOD9087214 Si02
#       8
#     2   2   2   2   2   2   2   2
#     4   8  15  28  46  70  94 113 152 190 229 272
#     4  10  18  29  47  70  98 125 145 190 239 276
#     4   8  16  27  46  72  89 116 160 186 231 276
#     4   9  18  29  47  73  93 120 159 183 231 291
#     4   9  18  31  46  67  97 119 158 196 228 266
#     4  10  16  27  48  68  95 126 146 195 232 270
#     4   8  16  31  46  67  94 114 158 199 220 270
#     4  10  17  30  45  69  98 116 162 198 226 264
#
# _framework density 25.788222999999999
#
# number of rings (size 3 to 8) (size 9 to 14) (size 15 to 20)
#    0.750    2.250    2.500    0.000    0.000    2.000 
#    0.000    0.625    0.000   16.500    0.000    8.750 
#    0.000    0.000    0.000    0.000    0.000    0.000 
#
# Total GULP energy -89071.820926 kJ/mol
# GULP energy per Si atom -5566.988808 kJ/mol
# Density = 2.572953 g / cm^3
# Si number density = 25.788223 Si / 1000 Ang^3
#
#
#
# Elastic Constant Matrix: (Units=GPa)
#
#
# Indices 1 2 3 4 5 6 
#
# 1 -43.0286 -23.4807 -52.0630 -24.9057 -28.2857 6.3130
# 2 -23.4807 84.7988 11.1607 23.7521 -17.1635 -14.9570
# 3 -52.0630 11.1607 44.3718 -1.8256 -14.2693 0.8501
# 4 -24.9057 23.7521 -1.8256 31.2750 -15.2065 0.1010
# 5 -28.2857 -17.1635 -14.2693 -15.2065 34.4391 13.0172
# 6 6.3130 -14.9570 0.8501 0.1010 13.0172 35.9176
#
#
#
# Elastic Compliance Matrix: (Units=1/GPa)
#
#
# Indices 1 2 3 4 5 6 
#
# 1 -0.002711 0.001447 -0.007293 -0.008683 -0.010247 0.004990
# 2 0.001447 0.017221 -0.002982 -0.011725 0.000817 0.006725
# 3 -0.007293 -0.002982 0.012848 -0.005269 -0.005082 0.001593
# 4 -0.008683 -0.011725 -0.005269 0.034395 0.001492 -0.003869
# 5 -0.010247 0.000817 -0.005082 0.001492 0.021700 -0.005607
# 6 0.004990 0.006725 0.001593 -0.003869 -0.005607 0.031770
#
#
# Mechanical properties :
#
#
# Convention : Reuss Voigt Hill
#
# Bulk Modulus (GPa) = 103.08337 -4.73600 49.17369
# Shear Modulus (GPa) = 36.73406 30.36134 33.54770
#
# Velocity S-wave (km/s) = 3.77828 3.43495 3.61070
# Velocity P-wave (km/s) = 7.68724 3.72711 6.04091
#
# Compressibility (1/GPa) = 0.00970089
#
# Stress axis : x y z
#
# Youngs Moduli (GPa) = -368.83173 58.06696 77.83503
#
# Poissons Ratio (x) = -0.08403 0.56769
# Poissons Ratio (y) = 0.53377 0.23212
# Poissons Ratio (z) = -2.69006 0.17317
#
# Static dielectric constant tensor:
#      x y z
#    x 2.117500 0.008430 -0.068980 
#    y 0.008430 2.160460 -0.025520 
#    z -0.068980 -0.025520 2.083560 
# 
# From -- ./inp_files/213541.got.cif
#   From: 2010.05.17/outbox.cif.g08.bks.cpg/sg2_107_cif.got.tgz:213541.got - 2010.06.03 11:33:40.
