data_PCOD9087046
_publ_section_title
;
Structure prediction by ZEFSAII (Michael W. Deem and Ramdas Pophale) SiO2 
 PCOD9087046
Probable space group: P -1
;
_chemical_formula_sum "Si O2"
_cell_formula_units_Z 16
_cell_length_a 16.658833
_cell_length_b 21.706035
_cell_length_c 5.696104
_cell_angle_alpha 91.209568
_cell_angle_beta 98.873954
_cell_angle_gamma 155.447789
_cell_volume 777.498194
_symmetry_space_group_name_H-M "P -1"
_symmetry_group_IT_number 2
_symmetry_cell_setting 'triclinic'
loop_
_space_group_symop_operation_xyz
x,y,z
-x,-y,-z
loop_
_atom_site_type_symbol
_atom_site_label
_atom_site_fract_x
_atom_site_fract_y
_atom_site_fract_z
Si Si1 0.747930 0.160907 0.623590
Si Si2 0.144809 0.272223 0.794847
Si Si3 0.336971 0.558913 0.308723
Si Si4 0.122949 0.509260 0.947656
Si Si5 0.287016 0.646554 0.530798
Si Si6 0.740289 0.022460 0.846485
Si Si7 0.543329 0.582159 0.328264
Si Si8 0.049648 0.770888 0.657165
O O1 0.768190 0.109904 0.758020
O O2 0.839081 0.209723 0.409627
O O3 0.500000 0.000000 0.500000
O O4 0.892650 0.315469 0.813472
O O5 0.235039 0.278550 0.686186
O O6 0.932306 0.115225 0.840655
O O7 0.087312 0.286939 0.594165
O O8 0.346129 0.434371 0.050532
O O9 0.293053 0.571438 0.064287
O O10 0.345253 0.615082 0.523178
O O11 0.520591 0.637120 0.398919
O O12 0.119380 0.369400 0.239604
O O13 0.162134 0.571835 0.220388
O O14 0.170745 0.573293 0.722488
O O15 0.508617 0.837478 0.659298
O O16 0.779178 0.062318 0.142231
O O17 0.500000 0.500000 0.500000
#
# Coordination Sequence:
#
# PCOD9087046 Si02
#       8
#     2   2   2   2   2   2   2   2
#     4  11  23  40  67  96 122 158 211 265 311 374
#     4  10  21  31  59  90 123 155 210 264 312 357
#     4  10  19  36  61  90 119 171 207 255 308 371
#     4  10  21  43  62  92 123 168 211 253 314 380
#     4  10  24  38  67  88 129 173 210 251 319 382
#     4  11  22  41  60  94 120 169 206 261 312 375
#     4  11  19  32  55  95 123 157 208 267 312 360
#     4  11  19  38  64  85 124 158 214 258 311 371
#
# _framework density 20.578824000000001
#
# number of rings (size 3 to 8) (size 9 to 14) (size 15 to 20)
#    0.750    0.750    5.000    0.750    3.500    0.500 
#    0.000    1.875    0.000    3.750    0.000    0.000 
#    0.000    0.000    0.000    0.000    0.000    0.000 
#
# Total GULP energy -89155.141377 kJ/mol
# GULP energy per Si atom -5572.196336 kJ/mol
# Density = 2.053199 g / cm^3
# Si number density = 20.578824 Si / 1000 Ang^3
#
#
#
# Elastic Constant Matrix: (Units=GPa)
#
#
# Indices 1 2 3 4 5 6 
#
# 1 70.4646 26.1049 26.5496 -0.4078 -7.8792 24.3196
# 2 26.1049 89.3958 58.5513 16.2246 -6.2950 12.8588
# 3 26.5496 58.5513 135.9925 6.1207 -5.5531 6.9473
# 4 -0.4078 16.2246 6.1207 35.6000 -4.7999 -3.6669
# 5 -7.8792 -6.2950 -5.5531 -4.7999 24.8347 2.0609
# 6 24.3196 12.8588 6.9473 -3.6669 2.0609 28.1618
#
#
#
# Elastic Compliance Matrix: (Units=1/GPa)
#
#
# Indices 1 2 3 4 5 6 
#
# 1 0.023379 -0.002065 -0.002400 0.000740 0.008089 -0.019150
# 2 -0.002065 0.018751 -0.006939 -0.007806 0.001552 -0.006197
# 3 -0.002400 -0.006939 0.010589 0.001596 -0.000080 0.002842
# 4 0.000740 -0.007806 0.001596 0.032638 0.004385 0.006460
# 5 0.008089 0.001552 -0.000080 0.004385 0.044918 -0.010391
# 6 -0.019150 -0.006197 0.002842 0.006460 -0.010391 0.055776
#
#
# Mechanical properties :
#
#
# Convention : Reuss Voigt Hill
#
# Bulk Modulus (GPa) = 33.43207 57.58492 45.50849
# Shear Modulus (GPa) = 22.84882 30.02911 26.43896
#
# Velocity S-wave (km/s) = 3.33574 3.82412 3.58825
# Velocity P-wave (km/s) = 5.57829 6.89506 6.27133
#
# Compressibility (1/GPa) = 0.02991140
#
# Stress axis : x y z
#
# Youngs Moduli (GPa) = 42.77364 53.32957 94.43697
#
# Poissons Ratio (x) = 0.11014 0.22662
# Poissons Ratio (y) = 0.08834 0.65529
# Poissons Ratio (z) = 0.10264 0.37005
#
# Static dielectric constant tensor:
#      x y z
#    x 1.814300 0.027620 -0.021590 
#    y 0.027620 1.746900 -0.058240 
#    z -0.021590 -0.058240 1.867270 
# 
# From -- ./inp_files/112909.got.cif
#   From: 2010.05.17/outbox.cif.g08.bks.cpg/sg2_57_cif.got.tgz:112909.got - 2010.06.03 11:33:40.
