data_PCOD9087899
_publ_section_title
;
Structure prediction by ZEFSAII (Michael W. Deem and Ramdas Pophale) SiO2 
 PCOD9087899
Probable space group: P -1
;
_chemical_formula_sum "Si O2"
_cell_formula_units_Z 14
_cell_length_a 12.086832
_cell_length_b 9.513644
_cell_length_c 11.826187
_cell_angle_alpha 46.949077
_cell_angle_beta 53.479492
_cell_angle_gamma 88.112324
_cell_volume 616.488319
_symmetry_space_group_name_H-M "P -1"
_symmetry_group_IT_number 2
_symmetry_cell_setting 'triclinic'
loop_
_space_group_symop_operation_xyz
x,y,z
-x,-y,-z
loop_
_atom_site_type_symbol
_atom_site_label
_atom_site_fract_x
_atom_site_fract_y
_atom_site_fract_z
Si Si1 0.147238 0.387427 0.170922
Si Si2 0.256851 0.129201 0.544654
Si Si3 0.752673 0.968085 0.646495
Si Si4 0.138889 0.221866 0.025387
Si Si5 0.388342 0.600643 0.497351
Si Si6 0.474100 0.297311 0.874118
Si Si7 0.398043 0.951697 0.706168
O O1 0.209892 0.229819 0.255994
O O2 0.144707 0.378367 0.040138
O O3 0.286410 0.669825 0.969403
O O4 0.941836 0.232490 0.416391
O O5 0.286079 0.043407 0.455863
O O6 0.414725 0.420762 0.303782
O O7 0.260197 0.992201 0.724853
O O8 0.058470 0.039399 0.710211
O O9 0.595113 0.876010 0.879058
O O10 0.197625 0.377125 0.789186
O O11 0.289806 0.202603 0.978764
O O12 0.500000 0.500000 0.500000
O O13 0.405164 0.675169 0.315805
O O14 0.477373 0.836565 0.394579
O O15 0.500000 0.000000 0.500000
#
# Coordination Sequence:
#
# PCOD9087899 Si02
#       7
#     2   2   2   2   2   2   2
#     4   9  18  35  58  87 119 151 196 242 293 338
#     4  11  21  34  65  91 113 154 203 240 293 348
#     4   9  19  36  59  85 117 158 196 236 284 363
#     4   9  18  34  55  87 116 149 192 246 285 341
#     4  10  19  38  58  84 125 159 186 240 303 351
#     4  10  19  37  56  84 120 158 194 235 289 354
#     4  12  21  37  62  94 118 151 196 253 297 334
#
# _framework density 22.709271000000001
#
# number of rings (size 3 to 8) (size 9 to 14) (size 15 to 20)
#    0.000    2.000    4.286    2.143    0.000    2.857 
#    0.000    0.714    0.000    3.429    0.000    0.000 
#    0.000    0.000    0.000    0.000    0.000    0.000 
#
# Total GULP energy -78189.950448 kJ/mol
# GULP energy per Si atom -5584.996461 kJ/mol
# Density = 2.265758 g / cm^3
# Si number density = 22.709271 Si / 1000 Ang^3
#
#
#
# Elastic Constant Matrix: (Units=GPa)
#
#
# Indices 1 2 3 4 5 6 
#
# 1 51.5888 5.2225 24.7508 0.2056 -2.5307 9.8052
# 2 5.2225 63.2291 21.7589 2.4161 11.7716 2.1295
# 3 24.7508 21.7589 128.7998 8.0844 6.1507 -1.0546
# 4 0.2056 2.4161 8.0844 43.6083 8.5191 13.8083
# 5 -2.5307 11.7716 6.1507 8.5191 22.8815 2.2787
# 6 9.8052 2.1295 -1.0546 13.8083 2.2787 21.4404
#
#
#
# Elastic Compliance Matrix: (Units=1/GPa)
#
#
# Indices 1 2 3 4 5 6 
#
# 1 0.025119 -0.000702 -0.005347 0.004925 0.004267 -0.015306
# 2 -0.000702 0.018540 -0.002683 0.001909 -0.009418 -0.001881
# 3 -0.005347 -0.002683 0.009534 -0.003029 -0.001169 0.005256
# 4 0.004925 0.001909 -0.003029 0.032292 -0.009417 -0.022387
# 5 0.004267 -0.009418 -0.001169 -0.009417 0.052904 -0.000632
# 6 -0.015306 -0.001881 0.005256 -0.022387 -0.000632 0.068572
#
#
# Mechanical properties :
#
#
# Convention : Reuss Voigt Hill
#
# Bulk Modulus (GPa) = 27.98720 38.56468 33.27594
# Shear Modulus (GPa) = 21.15650 30.37839 25.76745
#
# Velocity S-wave (km/s) = 3.05556 3.66144 3.37214
# Velocity P-wave (km/s) = 4.97991 5.90708 5.46320
#
# Compressibility (1/GPa) = 0.03573063
#
# Stress axis : x y z
#
# Youngs Moduli (GPa) = 39.81035 53.93598 104.89155
#
# Poissons Ratio (x) = 0.03786 0.56082
# Poissons Ratio (y) = 0.02795 0.28139
# Poissons Ratio (z) = 0.21285 0.14469
#
# Static dielectric constant tensor:
#      x y z
#    x 1.938480 -0.021460 0.027870 
#    y -0.021460 1.846980 0.051470 
#    z 0.027870 0.051470 1.841190 
# 
# From -- ./inp_files/445630.got.cif
#   From: 2010.05.17/outbox.cif.g08.bks.cpg/sg2_223_cif.got.tgz:445630.got - 2010.06.03 11:33:40.
