data_PCOD9087446
_publ_section_title
;
Structure prediction by ZEFSAII (Michael W. Deem and Ramdas Pophale) SiO2 
 PCOD9087446
Probable space group: P -1
;
_chemical_formula_sum "Si O2"
_cell_formula_units_Z 14
_cell_length_a 16.690843
_cell_length_b 11.545247
_cell_length_c 7.871686
_cell_angle_alpha 86.897848
_cell_angle_beta 72.979807
_cell_angle_gamma 25.952758
_cell_volume 549.850888
_symmetry_space_group_name_H-M "P -1"
_symmetry_group_IT_number 2
_symmetry_cell_setting 'triclinic'
loop_
_space_group_symop_operation_xyz
x,y,z
-x,-y,-z
loop_
_atom_site_type_symbol
_atom_site_label
_atom_site_fract_x
_atom_site_fract_y
_atom_site_fract_z
Si Si1 0.926692 0.909088 0.315040
Si Si2 0.659840 0.143120 0.770354
Si Si3 0.598962 0.765630 0.847100
Si Si4 0.978362 0.766326 0.912935
Si Si5 0.746883 0.806749 0.619220
Si Si6 0.222716 0.686636 0.787098
Si Si7 0.665238 0.881847 0.321051
O O1 0.195586 0.573579 0.190017
O O2 0.826268 0.971985 0.533487
O O3 0.797900 0.197013 0.364390
O O4 0.901273 0.880647 0.147446
O O5 0.421233 0.470284 0.806414
O O6 0.637371 0.030023 0.809809
O O7 0.777411 0.034376 0.880399
O O8 0.726368 0.696604 0.651897
O O9 0.424333 0.942613 0.805156
O O10 0.500000 0.000000 0.000000
O O11 0.171680 0.617700 0.777288
O O12 0.110235 0.476102 0.830836
O O13 0.684541 0.939722 0.465402
O O14 0.000000 0.500000 0.500000
O O15 0.000000 0.000000 0.000000
O O16 0.500000 0.000000 0.500000
#
# Coordination Sequence:
#
# PCOD9087446 Si02
#       7
#     2   2   2   2   2   2   2
#     4  11  24  43  65 101 133 173 226 273 325 400
#     4  12  24  46  70  95 139 173 219 284 328 391
#     4  11  21  38  64  92 133 166 215 270 321 394
#     4  11  23  45  70  95 134 177 222 272 334 393
#     4  11  21  39  63  94 131 169 212 269 336 386
#     4  10  25  45  70  97 130 177 229 272 331 392
#     4  10  19  36  63  93 126 174 211 261 332 387
#
# _framework density 25.461447
#
# number of rings (size 3 to 8) (size 9 to 14) (size 15 to 20)
#    0.000    1.143    4.286    3.000    2.000    2.857 
#    2.571    6.429    0.000    0.000    0.000    0.000 
#    0.000    0.000    0.000    0.000    0.000    0.000 
#
# Total GULP energy -77933.973018 kJ/mol
# GULP energy per Si atom -5566.712358 kJ/mol
# Density = 2.540350 g / cm^3
# Si number density = 25.461447 Si / 1000 Ang^3
#
#
#
# Elastic Constant Matrix: (Units=GPa)
#
#
# Indices 1 2 3 4 5 6 
#
# 1 42.9929 11.5390 -6.9908 -14.1424 6.8138 -11.6824
# 2 11.5390 190.5477 21.5131 -3.0036 13.1699 -46.9074
# 3 -6.9908 21.5131 35.2860 -10.0509 9.2449 -12.6953
# 4 -14.1424 -3.0036 -10.0509 51.7492 -7.8838 2.2536
# 5 6.8138 13.1699 9.2449 -7.8838 29.2230 -14.7278
# 6 -11.6824 -46.9074 -12.6953 2.2536 -14.7278 49.9787
#
#
#
# Elastic Compliance Matrix: (Units=1/GPa)
#
#
# Indices 1 2 3 4 5 6 
#
# 1 0.032280 -0.001013 0.014198 0.010469 -0.004503 0.008402
# 2 -0.001013 0.007006 -0.002701 -0.000536 0.000763 0.005901
# 3 0.014198 -0.002701 0.040769 0.010046 -0.008097 0.008300
# 4 0.010469 -0.000536 0.010046 0.024437 0.003436 0.004407
# 5 -0.004503 0.000763 -0.008097 0.003436 0.043606 0.010302
# 6 0.008402 0.005901 0.008300 0.004407 0.010302 0.032457
#
#
# Mechanical properties :
#
#
# Convention : Reuss Voigt Hill
#
# Bulk Modulus (GPa) = 9.89888 35.66102 22.77995
# Shear Modulus (GPa) = 25.87154 42.37452 34.12303
#
# Velocity S-wave (km/s) = 3.19110 4.08396 3.66482
# Velocity P-wave (km/s) = 4.18016 6.02284 5.18403
#
# Compressibility (1/GPa) = 0.10102153
#
# Stress axis : x y z
#
# Youngs Moduli (GPa) = 30.97848 142.73582 24.52844
#
# Poissons Ratio (x) = 0.14462 -0.34825
# Poissons Ratio (y) = 0.03139 0.06626
# Poissons Ratio (z) = -0.43982 0.38559
#
# Static dielectric constant tensor:
#      x y z
#    x 2.603070 -0.190870 0.385990 
#    y -0.190870 2.331960 -0.314970 
#    z 0.385990 -0.314970 2.876300 
# 
# From -- ./inp_files/346915.got.cif
#   From: 2010.05.17/outbox.cif.g08.bks.cpg/sg2_174_cif.got.tgz:346915.got - 2010.06.03 11:33:40.
