data_PCOD9087093
_publ_section_title
;
Structure prediction by ZEFSAII (Michael W. Deem and Ramdas Pophale) SiO2 
 PCOD9087093
Probable space group: P -1
;
_chemical_formula_sum "Si O2"
_cell_formula_units_Z 16
_cell_length_a 10.715626
_cell_length_b 8.000206
_cell_length_c 8.492984
_cell_angle_alpha 67.027180
_cell_angle_beta 104.735983
_cell_angle_gamma 102.923651
_cell_volume 641.931703
_symmetry_space_group_name_H-M "P -1"
_symmetry_group_IT_number 2
_symmetry_cell_setting 'triclinic'
loop_
_space_group_symop_operation_xyz
x,y,z
-x,-y,-z
loop_
_atom_site_type_symbol
_atom_site_label
_atom_site_fract_x
_atom_site_fract_y
_atom_site_fract_z
Si Si1 0.129367 0.411731 0.124752
Si Si2 0.390518 0.671690 0.029799
Si Si3 0.278687 0.002705 0.809845
Si Si4 0.784904 0.226533 0.590148
Si Si5 0.151043 0.054509 0.053883
Si Si6 0.430847 0.577315 0.710212
Si Si7 0.385186 0.110676 0.481361
Si Si8 0.039973 0.800735 0.610382
O O1 0.159101 0.235666 0.097552
O O2 0.082614 0.330014 0.309415
O O3 0.258965 0.555303 0.097514
O O4 0.000000 0.500000 0.000000
O O5 0.376913 0.881636 0.964225
O O6 0.397901 0.638769 0.854192
O O7 0.519435 0.615759 0.172151
O O8 0.161677 0.852305 0.752371
O O9 0.352139 0.116490 0.650646
O O10 0.217559 0.108393 0.888929
O O11 0.681080 0.365653 0.464316
O O12 0.912182 0.283750 0.504098
O O13 0.805726 0.139733 0.798889
O O14 0.734913 0.027108 0.569912
O O15 0.000000 0.000000 0.000000
O O16 0.564621 0.695772 0.647639
O O17 0.500000 0.000000 0.500000
O O18 0.000000 0.000000 0.500000
#
# Coordination Sequence:
#
# PCOD9087093 Si02
#       8
#     2   2   2   2   2   2   2   2
#     4  12  22  38  64  96 124 159 211 260 314 379
#     4  11  21  37  65  96 124 162 213 261 315 369
#     4  11  21  39  62  95 127 162 210 263 318 368
#     4  10  19  36  61  94 120 162 214 256 301 378
#     4  12  23  39  62  94 132 165 202 265 323 375
#     4  10  20  37  65  90 123 162 218 263 298 361
#     4   9  17  36  65  90 117 164 223 253 292 372
#     4  11  19  36  62  91 115 162 213 255 298 381
#
# _framework density 24.924768
#
# number of rings (size 3 to 8) (size 9 to 14) (size 15 to 20)
#    0.000    1.250    7.500    0.750    1.750    0.000 
#    0.000    3.125    5.500    4.500    0.000    0.000 
#    0.000    0.000    0.000    0.000    0.000    0.000 
#
# Total GULP energy -89293.543801 kJ/mol
# GULP energy per Si atom -5580.846488 kJ/mol
# Density = 2.486804 g / cm^3
# Si number density = 24.924768 Si / 1000 Ang^3
#
#
#
# Elastic Constant Matrix: (Units=GPa)
#
#
# Indices 1 2 3 4 5 6 
#
# 1 129.6807 35.0777 73.5334 -2.2289 -22.9738 -10.9270
# 2 35.0777 34.9819 12.5857 8.0906 4.4285 -5.0512
# 3 73.5334 12.5857 119.3806 -12.6478 -11.1188 -9.1821
# 4 -2.2289 8.0906 -12.6478 31.7323 -19.0090 -1.0165
# 5 -22.9738 4.4285 -11.1188 -19.0090 73.9200 -14.6115
# 6 -10.9270 -5.0512 -9.1821 -1.0165 -14.6115 40.4180
#
#
#
# Elastic Compliance Matrix: (Units=1/GPa)
#
#
# Indices 1 2 3 4 5 6 
#
# 1 0.019608 -0.019389 -0.007867 0.008896 0.009283 0.004670
# 2 -0.019389 0.054425 0.001771 -0.024366 -0.016175 -0.004498
# 3 -0.007867 0.001771 0.013861 0.005340 0.001270 0.001837
# 4 0.008896 -0.024366 0.005340 0.053069 0.020518 0.009325
# 5 0.009283 -0.016175 0.001270 0.020518 0.024883 0.010288
# 6 0.004670 -0.004498 0.001837 0.009325 0.010288 0.029813
#
#
# Mechanical properties :
#
#
# Convention : Reuss Voigt Hill
#
# Bulk Modulus (GPa) = 27.08324 58.49297 42.78810
# Shear Modulus (GPa) = 19.30973 40.07048 29.69011
#
# Velocity S-wave (km/s) = 2.78640 4.01391 3.45510
# Velocity P-wave (km/s) = 4.60886 6.70826 5.75510
#
# Compressibility (1/GPa) = 0.03692321
#
# Stress axis : x y z
#
# Youngs Moduli (GPa) = 51.00005 18.37404 72.14456
#
# Poissons Ratio (x) = 0.35626 0.56758
# Poissons Ratio (y) = 0.98885 -0.12779
# Poissons Ratio (z) = 0.40123 -0.03255
#
# Static dielectric constant tensor:
#      x y z
#    x 1.767160 0.234220 0.345560 
#    y 0.234220 1.891540 -0.224070 
#    z 0.345560 -0.224070 1.711790 
# 
# From -- ./inp_files/242565.got.cif
#   From: 2010.05.17/outbox.cif.g08.bks.cpg/sg2_122_cif.got.tgz:242565.got - 2010.06.03 11:33:40.
