data_PCOD9087572
_publ_section_title
;
Structure prediction by ZEFSAII (Michael W. Deem and Ramdas Pophale) SiO2 
 PCOD9087572
Probable space group: P -1
;
_chemical_formula_sum "Si O2"
_cell_formula_units_Z 14
_cell_length_a 22.925823
_cell_length_b 10.358379
_cell_length_c 8.978232
_cell_angle_alpha 150.262091
_cell_angle_beta 131.875140
_cell_angle_gamma 46.692203
_cell_volume 754.154830
_symmetry_space_group_name_H-M "P -1"
_symmetry_group_IT_number 2
_symmetry_cell_setting 'triclinic'
loop_
_space_group_symop_operation_xyz
x,y,z
-x,-y,-z
loop_
_atom_site_type_symbol
_atom_site_label
_atom_site_fract_x
_atom_site_fract_y
_atom_site_fract_z
Si Si1 0.678866 0.613377 0.662260
Si Si2 0.267872 0.939372 0.619269
Si Si3 0.904153 0.808020 0.553041
Si Si4 0.911504 0.302302 0.264230
Si Si5 0.249936 0.411259 0.567732
Si Si6 0.501267 0.748958 0.358016
Si Si7 0.674328 0.159809 0.719302
O O1 0.712191 0.321876 0.503671
O O2 0.726156 0.619759 0.594745
O O3 0.583751 0.673613 0.518799
O O4 0.693278 0.840489 0.023561
O O5 0.303899 0.854781 0.431623
O O6 0.170997 0.074184 0.566591
O O7 0.898413 0.529632 0.339354
O O8 0.994329 0.756603 0.586100
O O9 0.899253 0.030649 0.898214
O O10 0.843940 0.426312 0.396741
O O11 0.272773 0.116964 0.388891
O O12 0.302919 0.587513 0.913542
O O13 0.419983 0.816470 0.386614
O O14 0.500000 0.000000 0.500000
O O15 0.500000 0.500000 0.000000
#
# Coordination Sequence:
#
# PCOD9087572 Si02
#       7
#     2   2   2   2   2   2   2
#     4  12  26  39  63  90 132 161 195 259 322 360
#     4  12  24  41  59  97 129 161 193 257 324 360
#     4  10  20  36  62  91 125 155 202 258 300 352
#     4  10  19  36  64  93 114 160 215 250 284 361
#     4  12  21  41  64  95 115 168 212 247 296 373
#     4  12  23  43  65  91 119 160 215 256 296 359
#     4  12  23  40  69  87 122 163 212 251 296 371
#
# _framework density 18.563825999999999
#
# number of rings (size 3 to 8) (size 9 to 14) (size 15 to 20)
#    0.000    0.571    5.714    3.429    0.000    1.143 
#    0.000    1.429    0.000    0.000    0.000    0.000 
#    0.000    0.000    0.000    0.000    0.000    0.000 
#
# Total GULP energy -78302.537888 kJ/mol
# GULP energy per Si atom -5593.038421 kJ/mol
# Density = 1.852157 g / cm^3
# Si number density = 18.563826 Si / 1000 Ang^3
#
#
#
# Elastic Constant Matrix: (Units=GPa)
#
#
# Indices 1 2 3 4 5 6 
#
# 1 90.2190 13.1381 -26.8704 -11.0852 -4.0958 -2.5231
# 2 13.1381 124.3636 13.5479 -10.3454 19.8681 -43.7867
# 3 -26.8704 13.5479 71.7208 4.0962 7.2128 9.2622
# 4 -11.0852 -10.3454 4.0962 31.5082 -4.2410 11.9164
# 5 -4.0958 19.8681 7.2128 -4.2410 34.8175 -29.5890
# 6 -2.5231 -43.7867 9.2622 11.9164 -29.5890 113.6170
#
#
#
# Elastic Compliance Matrix: (Units=1/GPa)
#
#
# Indices 1 2 3 4 5 6 
#
# 1 0.013492 -0.002263 0.005258 0.003903 0.001369 -0.001054
# 2 -0.002263 0.010316 -0.003064 0.001375 -0.002472 0.003387
# 3 0.005258 -0.003064 0.017423 -0.000665 -0.004335 -0.003544
# 4 0.003903 0.001375 -0.000665 0.034848 0.001953 -0.002475
# 5 0.001369 -0.002472 -0.004335 0.001953 0.039517 0.009518
# 6 -0.001054 0.003387 -0.003544 -0.002475 0.009518 0.013111
#
#
# Mechanical properties :
#
#
# Convention : Reuss Voigt Hill
#
# Bulk Modulus (GPa) = 24.33559 31.77052 28.05306
# Shear Modulus (GPa) = 35.07729 55.08774 45.08252
#
# Velocity S-wave (km/s) = 4.35161 5.45337 4.93334
# Velocity P-wave (km/s) = 6.19567 7.53682 6.89891
#
# Compressibility (1/GPa) = 0.04109208
#
# Stress axis : x y z
#
# Youngs Moduli (GPa) = 74.11840 96.93984 57.39499
#
# Poissons Ratio (x) = 0.21940 -0.30177
# Poissons Ratio (y) = 0.16775 0.17585
# Poissons Ratio (z) = -0.38970 0.29701
#
# Static dielectric constant tensor:
#      x y z
#    x 1.637380 -0.031140 0.009370 
#    y -0.031140 1.605950 -0.001560 
#    z 0.009370 -0.001560 1.602480 
# 
# From -- ./inp_files/45163.got.cif
#   From: 2010.05.17/outbox.cif.g08.bks.cpg/sg2_23_cif.got.tgz:45163.got - 2010.06.03 11:33:40.
