data_PCOD9087531
_publ_section_title
;
Structure prediction by ZEFSAII (Michael W. Deem and Ramdas Pophale) SiO2 
 PCOD9087531
Probable space group: P -1
;
_chemical_formula_sum "Si O2"
_cell_formula_units_Z 15
_cell_length_a 16.327451
_cell_length_b 11.472299
_cell_length_c 20.830065
_cell_angle_alpha 44.297057
_cell_angle_beta 161.137677
_cell_angle_gamma 146.916677
_cell_volume 619.262895
_symmetry_space_group_name_H-M "P -1"
_symmetry_group_IT_number 2
_symmetry_cell_setting 'triclinic'
loop_
_space_group_symop_operation_xyz
x,y,z
-x,-y,-z
loop_
_atom_site_type_symbol
_atom_site_label
_atom_site_fract_x
_atom_site_fract_y
_atom_site_fract_z
Si Si1 0.184740 0.811857 0.527808
Si Si2 0.500000 0.000000 0.000000
Si Si3 0.824595 0.519887 0.032653
Si Si4 0.609300 0.263502 0.744944
Si Si5 0.584562 0.324262 0.338649
Si Si6 0.998626 0.252570 0.146736
Si Si7 0.196726 0.180210 0.873373
Si Si8 0.006257 0.379360 0.739922
O O1 0.497298 0.856308 0.704148
O O2 0.971002 0.579253 0.502872
O O3 0.933548 0.762623 0.303929
O O4 0.296805 0.015560 0.576527
O O5 0.560932 0.236260 0.952715
O O6 0.179363 0.864158 0.870590
O O7 0.650354 0.620695 0.858397
O O8 0.045841 0.621229 0.223376
O O9 0.066188 0.611697 0.113314
O O10 0.623049 0.470039 0.680686
O O11 0.715358 0.231859 0.903662
O O12 0.669028 0.280757 0.486705
O O13 0.017090 0.090123 0.185836
O O14 0.113194 0.241917 0.851736
O O15 0.621834 0.350307 0.110298
#
# Coordination Sequence:
#
# PCOD9087531 Si02
#       8
#     2   1   2   2   2   2   2   2
#     4  10  20  37  59  96 121 165 204 263 300 378
#     4  10  20  38  70  84 120 158 220 246 296 366
#     4  11  22  42  61  94 126 166 200 264 301 376
#     4  10  24  38  61  88 133 158 205 252 328 354
#     4  10  21  37  65  91 126 159 220 244 309 367
#     4  10  20  40  61  88 120 169 201 259 301 378
#     4  10  19  36  64  89 123 157 213 256 304 355
#     4  10  20  36  63  96 118 163 207 260 298 365
#
# _framework density 24.222345000000001
#
# number of rings (size 3 to 8) (size 9 to 14) (size 15 to 20)
#    0.000    1.867    2.667    0.800    3.733    1.067 
#    2.400    2.000    8.800    0.000    0.000    0.000 
#    0.000    0.000    0.000    0.000    0.000    0.000 
#
# Total GULP energy -83592.417976 kJ/mol
# GULP energy per Si atom -5572.827865 kJ/mol
# Density = 2.416721 g / cm^3
# Si number density = 24.222345 Si / 1000 Ang^3
#
#
#
# Elastic Constant Matrix: (Units=GPa)
#
#
# Indices 1 2 3 4 5 6 
#
# 1 61.8857 18.5906 12.8276 5.7649 -14.0245 -10.5803
# 2 18.5906 126.0010 13.4260 11.6178 -2.0210 -20.4136
# 3 12.8276 13.4260 49.6994 -3.6669 -18.7063 0.8528
# 4 5.7649 11.6178 -3.6669 28.4344 -2.6016 -6.3218
# 5 -14.0245 -2.0210 -18.7063 -2.6016 23.8823 4.3525
# 6 -10.5803 -20.4136 0.8528 -6.3218 4.3525 42.1218
#
#
#
# Elastic Compliance Matrix: (Units=1/GPa)
#
#
# Indices 1 2 3 4 5 6 
#
# 1 0.019889 -0.002067 -0.000968 -0.001791 0.010058 0.002706
# 2 -0.002067 0.009624 -0.004235 -0.003572 -0.004871 0.004198
# 3 -0.000968 -0.004235 0.031758 0.007367 0.025566 -0.004475
# 4 -0.001791 -0.003572 0.007367 0.039296 0.008201 0.002720
# 5 0.010058 -0.004871 0.025566 0.008201 0.069432 -0.006295
# 6 0.002706 0.004198 -0.004475 0.002720 -0.006295 0.027604
#
#
# Mechanical properties :
#
#
# Convention : Reuss Voigt Hill
#
# Bulk Modulus (GPa) = 21.39885 36.36385 28.88135
# Shear Modulus (GPa) = 21.95678 31.73718 26.84698
#
# Velocity S-wave (km/s) = 3.01403 3.62366 3.33281
# Velocity P-wave (km/s) = 4.57886 5.70552 5.17296
#
# Compressibility (1/GPa) = 0.04673149
#
# Stress axis : x y z
#
# Youngs Moduli (GPa) = 50.27891 103.90740 31.48812
#
# Poissons Ratio (x) = 0.21473 0.03048
# Poissons Ratio (y) = 0.10390 0.13336
# Poissons Ratio (z) = 0.04867 0.44007
#
# Static dielectric constant tensor:
#      x y z
#    x 1.928810 -0.043650 0.020100 
#    y -0.043650 1.993510 0.024540 
#    z 0.020100 0.024540 1.948810 
# 
# From -- ./inp_files/203510.got.cif
#   From: 2010.05.17/outbox.cif.g08.bks.cpg/sg2_102_cif.got.tgz:203510.got - 2010.06.03 11:33:40.
