data_PCOD9087567
_publ_section_title
;
Structure prediction by ZEFSAII (Michael W. Deem and Ramdas Pophale) SiO2 
 PCOD9087567
Probable space group: P -1
;
_chemical_formula_sum "Si O2"
_cell_formula_units_Z 14
_cell_length_a 12.369547
_cell_length_b 15.973518
_cell_length_c 14.428807
_cell_angle_alpha 28.600947
_cell_angle_beta 28.361847
_cell_angle_gamma 43.949603
_cell_volume 630.703363
_symmetry_space_group_name_H-M "P -1"
_symmetry_group_IT_number 2
_symmetry_cell_setting 'triclinic'
loop_
_space_group_symop_operation_xyz
x,y,z
-x,-y,-z
loop_
_atom_site_type_symbol
_atom_site_label
_atom_site_fract_x
_atom_site_fract_y
_atom_site_fract_z
Si Si1 0.422340 0.130614 0.222387
Si Si2 0.225697 0.085662 0.806799
Si Si3 0.230826 0.423743 0.666110
Si Si4 0.255947 0.503395 0.766359
Si Si5 0.261227 0.088438 0.182456
Si Si6 0.088637 0.026481 0.180722
Si Si7 0.785154 0.504492 0.590561
O O1 0.409912 0.076947 0.174051
O O2 0.555682 0.996841 0.302753
O O3 0.159283 0.103868 0.483229
O O4 0.570917 0.332837 0.930542
O O5 0.274406 0.300096 0.548475
O O6 0.160895 0.022462 0.023342
O O7 0.000000 0.000000 0.000000
O O8 0.251750 0.550981 0.615176
O O9 0.494802 0.389062 0.485430
O O10 0.145180 0.503376 0.562311
O O11 0.063798 0.234236 0.003529
O O12 0.282843 0.300414 0.951465
O O13 0.000000 0.500000 0.000000
O O14 0.262284 0.013767 0.148572
O O15 0.000000 0.000000 0.500000
O O16 0.000000 0.500000 0.500000
#
# Coordination Sequence:
#
# PCOD9087567 Si02
#       7
#     2   2   2   2   2   2   2
#     4  11  22  44  68  92 134 167 211 272 318 383
#     4  11  24  44  67  92 127 176 215 261 332 371
#     4   9  20  38  60  93 130 161 206 268 313 370
#     4  10  19  36  64  92 126 168 204 253 323 383
#     4   9  19  38  59  93 130 159 204 262 314 376
#     4   9  22  41  65  95 131 168 211 264 321 383
#     4  11  22  43  68  94 128 167 220 275 310 380
#
# _framework density 22.197441000000001
#
# number of rings (size 3 to 8) (size 9 to 14) (size 15 to 20)
#    0.000    2.000    2.857    0.000    0.000    8.000 
#    5.143    2.143    0.000    0.000    0.000    0.000 
#    0.000    0.000    0.000    0.000    0.000    0.000 
#
# Total GULP energy -78047.603361 kJ/mol
# GULP energy per Si atom -5574.828811 kJ/mol
# Density = 2.214692 g / cm^3
# Si number density = 22.197441 Si / 1000 Ang^3
#
#
#
# Elastic Constant Matrix: (Units=GPa)
#
#
# Indices 1 2 3 4 5 6 
#
# 1 162.8273 34.0873 54.0987 5.3128 -20.9805 -12.8039
# 2 34.0873 50.7706 35.5954 1.7639 -8.2416 -13.2600
# 3 54.0987 35.5954 155.2491 -16.7555 -17.6267 -7.2673
# 4 5.3128 1.7639 -16.7555 29.9061 2.9306 0.9165
# 5 -20.9805 -8.2416 -17.6267 2.9306 37.2631 0.8578
# 6 -12.8039 -13.2600 -7.2673 0.9165 0.8578 24.2024
#
#
#
# Elastic Compliance Matrix: (Units=1/GPa)
#
#
# Indices 1 2 3 4 5 6 
#
# 1 0.008062 -0.002863 -0.001997 -0.002753 0.003130 0.002090
# 2 -0.002863 0.029358 -0.005373 -0.004871 0.002422 0.013055
# 3 -0.001997 -0.005373 0.009086 0.005655 0.001576 -0.001542
# 4 -0.002753 -0.004871 0.005655 0.037776 -0.002837 -0.003757
# 5 0.003130 0.002422 0.001576 -0.002837 0.030045 0.002499
# 6 0.002090 0.013055 -0.001542 -0.003757 0.002499 0.049167
#
#
# Mechanical properties :
#
#
# Convention : Reuss Voigt Hill
#
# Bulk Modulus (GPa) = 38.40261 68.48995 53.44628
# Shear Modulus (GPa) = 25.95522 34.61203 30.28362
#
# Velocity S-wave (km/s) = 3.42320 3.95306 3.69763
# Velocity P-wave (km/s) = 5.74129 7.19426 6.50845
#
# Compressibility (1/GPa) = 0.02603990
#
# Stress axis : x y z
#
# Youngs Moduli (GPa) = 124.04358 34.06242 110.05870
#
# Poissons Ratio (x) = 0.09753 0.21975
# Poissons Ratio (y) = 0.35516 0.59135
# Poissons Ratio (z) = 0.24767 0.18302
#
# Static dielectric constant tensor:
#      x y z
#    x 1.831230 0.035740 0.101320 
#    y 0.035740 1.851390 0.017580 
#    z 0.101320 0.017580 1.535050 
# 
# From -- ./inp_files/523196.got.cif
#   From: 2010.05.17/outbox.cif.g08.bks.cpg/sg2_262_cif.got.tgz:523196.got - 2010.06.03 11:33:40.
