data_PCOD9087437
_publ_section_title
;
Structure prediction by ZEFSAII (Michael W. Deem and Ramdas Pophale) SiO2 
 PCOD9087437
Probable space group: P -1
;
_chemical_formula_sum "Si O2"
_cell_formula_units_Z 16
_cell_length_a 26.125217
_cell_length_b 5.275132
_cell_length_c 9.215284
_cell_angle_alpha 81.364385
_cell_angle_beta 29.905838
_cell_angle_gamma 79.300566
_cell_volume 622.030005
_symmetry_space_group_name_H-M "P -1"
_symmetry_group_IT_number 2
_symmetry_cell_setting 'triclinic'
loop_
_space_group_symop_operation_xyz
x,y,z
-x,-y,-z
loop_
_atom_site_type_symbol
_atom_site_label
_atom_site_fract_x
_atom_site_fract_y
_atom_site_fract_z
Si Si1 0.530567 0.345936 0.085363
Si Si2 0.734496 0.258926 0.427015
Si Si3 0.568508 0.809636 0.109658
Si Si4 0.076283 0.130838 0.694146
Si Si5 0.959018 0.242658 0.675860
Si Si6 0.209523 0.296844 0.583169
Si Si7 0.272566 0.590319 0.864397
Si Si8 0.713029 0.970542 0.983818
O O1 0.651346 0.252254 0.761678
O O2 0.521397 0.537588 0.230076
O O3 0.492901 0.061320 0.218827
O O4 0.500000 0.500000 0.000000
O O5 0.804115 0.473309 0.290722
O O6 0.794666 0.974341 0.301742
O O7 0.672838 0.370451 0.426760
O O8 0.673829 0.734092 0.763426
O O9 0.614467 0.908630 0.137104
O O10 0.126352 0.336388 0.655753
O O11 0.185472 0.994358 0.368312
O O12 0.006787 0.206431 0.720681
O O13 0.000000 0.000000 0.000000
O O14 0.838717 0.285967 0.930352
O O15 0.000000 0.500000 0.500000
O O16 0.000000 0.000000 0.500000
O O17 0.265557 0.296320 0.953908
O O18 0.305940 0.773811 0.893695
#
# Coordination Sequence:
#
# PCOD9087437 Si02
#       8
#     2   2   2   2   2   2   2   2
#     4  10  19  36  63  93 121 146 182 246 307 351
#     4  10  21  38  60  89 116 154 202 241 299 363
#     4   9  19  35  58  86 118 149 193 235 286 357
#     4  11  23  40  62  86 117 156 208 262 312 354
#     4  12  24  42  57  85 121 156 203 257 317 360
#     4   9  20  37  56  84 115 149 199 255 291 347
#     4  12  22  40  61  79 119 164 203 245 299 372
#     4  11  23  40  60  85 115 162 205 245 296 356
#
# _framework density 25.72223
#
# number of rings (size 3 to 8) (size 9 to 14) (size 15 to 20)
#    0.000    1.500    2.500    2.625    0.000    5.000 
#    0.000    3.750    0.000    4.500    0.000    0.000 
#    0.000    0.000    0.000    0.000    0.000    0.000 
#
# Total GULP energy -89369.469475 kJ/mol
# GULP energy per Si atom -5585.591842 kJ/mol
# Density = 2.566369 g / cm^3
# Si number density = 25.722230 Si / 1000 Ang^3
#
#
#
# Elastic Constant Matrix: (Units=GPa)
#
#
# Indices 1 2 3 4 5 6 
#
# 1 126.2344 26.8918 20.0015 0.3781 10.4391 2.5869
# 2 26.8918 120.6850 34.2090 -11.9275 6.4459 19.0170
# 3 20.0015 34.2090 81.4508 7.3110 10.9828 5.3749
# 4 0.3781 -11.9275 7.3110 21.7070 -7.4262 3.2325
# 5 10.4391 6.4459 10.9828 -7.4262 35.3614 2.6431
# 6 2.5869 19.0170 5.3749 3.2325 2.6431 55.6202
#
#
#
# Elastic Compliance Matrix: (Units=1/GPa)
#
#
# Indices 1 2 3 4 5 6 
#
# 1 0.008637 -0.001779 -0.000943 -0.001680 -0.002323 0.000506
# 2 -0.001779 0.011683 -0.005398 0.009700 0.002413 -0.004069
# 3 -0.000943 -0.005398 0.016507 -0.010821 -0.006228 0.001219
# 4 -0.001680 0.009700 -0.010821 0.061325 0.015453 -0.006491
# 5 -0.002323 0.002413 -0.006228 0.015453 0.033901 -0.002624
# 6 0.000506 -0.004069 0.001219 -0.006491 -0.002624 0.019731
#
#
# Mechanical properties :
#
#
# Convention : Reuss Voigt Hill
#
# Bulk Modulus (GPa) = 48.57298 54.50829 51.54063
# Shear Modulus (GPa) = 28.59005 39.02223 33.80614
#
# Velocity S-wave (km/s) = 3.33752 3.89917 3.62923
# Velocity P-wave (km/s) = 5.81177 6.44271 6.13536
#
# Compressibility (1/GPa) = 0.02058758
#
# Stress axis : x y z
#
# Youngs Moduli (GPa) = 115.78162 85.59185 60.58171
#
# Poissons Ratio (x) = 0.15226 0.05713
# Poissons Ratio (y) = 0.20596 0.32700
# Poissons Ratio (z) = 0.10919 0.46200
#
# Static dielectric constant tensor:
#      x y z
#    x 2.024260 0.004500 0.119060 
#    y 0.004500 2.051920 0.064990 
#    z 0.119060 0.064990 2.506440 
# 
# From -- ./inp_files/93062.got.cif
#   From: 2010.05.17/outbox.cif.g08.bks.cpg/sg2_47_cif.got.tgz:93062.got - 2010.06.03 11:33:40.
