data_PCOD9087469
_publ_section_title
;
Structure prediction by ZEFSAII (Michael W. Deem and Ramdas Pophale) SiO2 
 PCOD9087469
Probable space group: P -1
;
_chemical_formula_sum "Si O2"
_cell_formula_units_Z 16
_cell_length_a 9.271162
_cell_length_b 16.334986
_cell_length_c 10.520162
_cell_angle_alpha 115.397760
_cell_angle_beta 136.033420
_cell_angle_gamma 42.055963
_cell_volume 721.591021
_symmetry_space_group_name_H-M "P -1"
_symmetry_group_IT_number 2
_symmetry_cell_setting 'triclinic'
loop_
_space_group_symop_operation_xyz
x,y,z
-x,-y,-z
loop_
_atom_site_type_symbol
_atom_site_label
_atom_site_fract_x
_atom_site_fract_y
_atom_site_fract_z
Si Si1 0.700388 0.636370 0.686211
Si Si2 0.687230 0.199753 0.844072
Si Si3 0.953799 0.300753 0.968849
Si Si4 0.952488 0.632440 0.378526
Si Si5 0.480227 0.457189 0.319277
Si Si6 0.299094 0.163400 0.852582
Si Si7 0.083316 0.875405 0.512157
Si Si8 0.886290 0.070759 0.153665
O O1 0.666604 0.594336 0.773761
O O2 0.361986 0.757639 0.530516
O O3 0.869752 0.514008 0.624834
O O4 0.876414 0.676014 0.825592
O O5 0.802726 0.260842 0.909965
O O6 0.341656 0.296553 0.686187
O O7 0.810547 0.150069 0.032584
O O8 0.819262 0.073524 0.769661
O O9 0.715247 0.428384 0.823768
O O10 0.187488 0.196210 0.946072
O O11 0.838159 0.708400 0.222396
O O12 0.188850 0.634283 0.577557
O O13 0.500000 0.500000 0.500000
O O14 0.174952 0.114382 0.670949
O O15 0.637724 0.069865 0.999641
O O16 0.140078 0.865446 0.691617
O O17 0.000000 0.000000 0.500000
#
# Coordination Sequence:
#
# PCOD9087469 Si02
#       8
#     2   2   2   2   2   2   2   2
#     4  11  22  39  68 102 131 171 225 286 335 390
#     4  10  25  44  66  94 142 187 218 269 350 414
#     4  12  22  37  69 105 133 174 225 284 337 403
#     4  10  21  43  65  93 137 180 221 270 341 407
#     4  10  19  36  63  96 128 169 220 280 331 384
#     4  11  21  41  74  99 128 179 232 286 329 389
#     4  12  25  40  72 109 127 167 237 292 330 392
#     4  10  24  48  68  93 141 188 224 272 343 410
#
# _framework density 22.173224000000001
#
# number of rings (size 3 to 8) (size 9 to 14) (size 15 to 20)
#    0.000    1.250    5.000    1.875    1.750    2.000 
#    0.000    5.625   16.500    0.000    0.000    0.000 
#    0.000    0.000    0.000    0.000    0.000    0.000 
#
# Total GULP energy -89404.520292 kJ/mol
# GULP energy per Si atom -5587.782518 kJ/mol
# Density = 2.212276 g / cm^3
# Si number density = 22.173224 Si / 1000 Ang^3
#
#
#
# Elastic Constant Matrix: (Units=GPa)
#
#
# Indices 1 2 3 4 5 6 
#
# 1 83.5664 30.5776 6.8173 -19.3511 39.4970 3.0050
# 2 30.5776 95.0838 6.2418 -10.2129 9.8908 -6.7296
# 3 6.8173 6.2418 42.9914 5.2285 19.5820 -12.5026
# 4 -19.3511 -10.2129 5.2285 27.1711 -1.3745 9.0297
# 5 39.4970 9.8908 19.5820 -1.3745 34.6680 -2.1286
# 6 3.0050 -6.7296 -12.5026 9.0297 -2.1286 39.6164
#
#
#
# Elastic Compliance Matrix: (Units=1/GPa)
#
#
# Indices 1 2 3 4 5 6 
#
# 1 0.052766 -0.008525 0.015836 0.031719 -0.066060 -0.011232
# 2 -0.008525 0.012695 -0.003341 -0.001053 0.008084 0.002423
# 3 0.015836 -0.003341 0.043607 -0.004007 -0.041223 0.010692
# 4 0.031719 -0.001053 -0.004007 0.064909 -0.032251 -0.020377
# 5 -0.066060 0.008084 -0.041223 -0.032251 0.124261 0.007402
# 6 -0.011232 0.002423 0.010692 -0.020377 0.007402 0.034922
#
#
# Mechanical properties :
#
#
# Convention : Reuss Voigt Hill
#
# Bulk Modulus (GPa) = 8.54631 34.32390 21.43511
# Shear Modulus (GPa) = 13.72788 32.15810 22.94299
#
# Velocity S-wave (km/s) = 2.49091 3.81243 3.22019
# Velocity P-wave (km/s) = 3.48361 5.90703 4.84915
#
# Compressibility (1/GPa) = 0.11700962
#
# Stress axis : x y z
#
# Youngs Moduli (GPa) = 18.95172 78.76975 22.93192
#
# Poissons Ratio (x) = 0.67148 -0.36316
# Poissons Ratio (y) = 0.16156 0.07661
# Poissons Ratio (z) = -0.30012 0.26317
#
# Static dielectric constant tensor:
#      x y z
#    x 1.846720 0.001300 -0.003970 
#    y 0.001300 1.845250 -0.013150 
#    z -0.003970 -0.013150 1.825130 
# 
# From -- ./inp_files/399344.got.cif
#   From: 2010.05.17/outbox.cif.g08.bks.cpg/sg2_200_cif.got.tgz:399344.got - 2010.06.03 11:33:40.
