data_PCOD9087130
_publ_section_title
;
Structure prediction by ZEFSAII (Michael W. Deem and Ramdas Pophale) SiO2 
 PCOD9087130
Probable space group: P -1
;
_chemical_formula_sum "Si O2"
_cell_formula_units_Z 16
_cell_length_a 10.637865
_cell_length_b 7.221518
_cell_length_c 18.743877
_cell_angle_alpha 96.171767
_cell_angle_beta 132.386985
_cell_angle_gamma 118.282063
_cell_volume 706.603868
_symmetry_space_group_name_H-M "P -1"
_symmetry_group_IT_number 2
_symmetry_cell_setting 'triclinic'
loop_
_space_group_symop_operation_xyz
x,y,z
-x,-y,-z
loop_
_atom_site_type_symbol
_atom_site_label
_atom_site_fract_x
_atom_site_fract_y
_atom_site_fract_z
Si Si1 0.987489 0.448355 0.878037
Si Si2 0.604489 0.228367 0.847503
Si Si3 0.615894 0.236810 0.160875
Si Si4 0.039474 0.768171 0.440243
Si Si5 0.422682 0.880484 0.386874
Si Si6 0.767083 0.030577 0.102667
Si Si7 0.982331 0.156091 0.410007
Si Si8 0.234715 0.372818 0.369911
O O1 0.778433 0.356890 0.849690
O O2 0.811587 0.202022 0.742292
O O3 0.119815 0.728466 0.900544
O O4 0.210688 0.531057 0.011480
O O5 0.547771 0.972472 0.843567
O O6 0.326061 0.088488 0.724120
O O7 0.857931 0.529999 0.301628
O O8 0.679632 0.098873 0.135587
O O9 0.466735 0.238489 0.044685
O O10 0.941961 0.680935 0.480758
O O11 0.061251 0.004913 0.440055
O O12 0.321602 0.914057 0.551968
O O13 0.318403 0.590250 0.351892
O O14 0.500000 0.000000 0.500000
O O15 0.986133 0.081276 0.223448
O O16 0.117198 0.346239 0.399318
O O17 0.500000 0.500000 0.500000
#
# Coordination Sequence:
#
# PCOD9087130 Si02
#       8
#     2   2   2   2   2   2   2   2
#     4   9  19  35  57  85 110 147 186 235 283 333
#     4  10  19  36  62  82 109 149 196 235 276 337
#     4  10  20  37  59  87 113 147 195 238 281 338
#     4  11  23  38  57  86 122 154 188 235 295 345
#     4  11  22  37  57  86 118 149 189 243 289 334
#     4   9  19  36  62  82 114 152 187 238 292 327
#     4  11  23  39  58  85 118 159 188 233 293 346
#     4  11  21  39  59  82 114 154 194 231 287 349
#
# _framework density 22.643522000000001
#
# number of rings (size 3 to 8) (size 9 to 14) (size 15 to 20)
#    0.000    1.750    3.750    1.500    0.000    1.500 
#    0.000    1.875    0.000    7.500    0.000    0.000 
#    0.000    0.000    0.000    0.000    0.000    0.000 
#
# Total GULP energy -89116.356485 kJ/mol
# GULP energy per Si atom -5569.772280 kJ/mol
# Density = 2.259198 g / cm^3
# Si number density = 22.643522 Si / 1000 Ang^3
#
#
#
# Elastic Constant Matrix: (Units=GPa)
#
#
# Indices 1 2 3 4 5 6 
#
# 1 68.8700 25.5314 31.3341 2.1669 6.6215 26.3516
# 2 25.5314 36.3933 -0.0600 -0.9991 -2.7051 22.8342
# 3 31.3341 -0.0600 208.1615 -5.3101 7.0235 -6.0857
# 4 2.1669 -0.9991 -5.3101 26.4274 1.5308 1.8856
# 5 6.6215 -2.7051 7.0235 1.5308 34.2275 -8.0019
# 6 26.3516 22.8342 -6.0857 1.8856 -8.0019 38.2818
#
#
#
# Elastic Compliance Matrix: (Units=1/GPa)
#
#
# Indices 1 2 3 4 5 6 
#
# 1 0.026695 -0.010253 -0.004212 -0.001892 -0.008439 -0.014600
# 2 -0.010253 0.048556 0.001020 0.004427 0.000294 -0.021899
# 3 -0.004212 0.001020 0.005548 0.001244 0.000451 0.003206
# 4 -0.001892 0.004427 0.001244 0.038782 -0.002089 -0.003487
# 5 -0.008439 0.000294 0.000451 -0.002089 0.033887 0.012891
# 6 -0.014600 -0.021899 0.003206 -0.003487 0.012891 0.052610
#
#
# Mechanical properties :
#
#
# Convention : Reuss Voigt Hill
#
# Bulk Modulus (GPa) = 18.54961 47.44843 32.99902
# Shear Modulus (GPa) = 19.92538 36.89529 28.41033
#
# Velocity S-wave (km/s) = 2.96963 4.04096 3.54599
# Velocity P-wave (km/s) = 4.46856 6.54007 5.60092
#
# Compressibility (1/GPa) = 0.05390950
#
# Stress axis : x y z
#
# Youngs Moduli (GPa) = 37.46079 20.59496 180.23009
#
# Poissons Ratio (x) = 0.21116 0.75906
# Poissons Ratio (y) = 0.38409 -0.18386
# Poissons Ratio (z) = 0.15777 -0.02101
#
# Static dielectric constant tensor:
#      x y z
#    x 1.863210 0.008930 0.007700 
#    y 0.008930 1.828260 0.002420 
#    z 0.007700 0.002420 2.021720 
# 
# From -- ./inp_files/431253.got.cif
#   From: 2010.05.17/outbox.cif.g08.bks.cpg/sg2_216_cif.got.tgz:431253.got - 2010.06.03 11:33:40.
