data_PCOD9087323
_publ_section_title
;
Structure prediction by ZEFSAII (Michael W. Deem and Ramdas Pophale) SiO2 
 PCOD9087323
Probable space group: P -1
;
_chemical_formula_sum "Si O2"
_cell_formula_units_Z 16
_cell_length_a 7.636748
_cell_length_b 12.276534
_cell_length_c 13.104955
_cell_angle_alpha 111.140665
_cell_angle_beta 61.198299
_cell_angle_gamma 65.633507
_cell_volume 699.586520
_symmetry_space_group_name_H-M "P -1"
_symmetry_group_IT_number 2
_symmetry_cell_setting 'triclinic'
loop_
_space_group_symop_operation_xyz
x,y,z
-x,-y,-z
loop_
_atom_site_type_symbol
_atom_site_label
_atom_site_fract_x
_atom_site_fract_y
_atom_site_fract_z
Si Si1 0.822635 0.030134 0.925773
Si Si2 0.290909 0.524841 0.358718
Si Si3 0.433817 0.817209 0.741282
Si Si4 0.166702 0.601764 0.630725
Si Si5 0.202146 0.315164 0.583855
Si Si6 0.932747 0.458133 0.901173
Si Si7 0.150023 0.699693 0.984774
Si Si8 0.703853 0.788979 0.992637
O O1 0.824739 0.172163 0.965573
O O2 0.679849 0.065970 0.088677
O O3 0.622124 0.064968 0.904853
O O4 0.159980 0.862687 0.786061
O O5 0.355961 0.365399 0.325621
O O6 0.101919 0.654076 0.547892
O O7 0.101501 0.609540 0.340125
O O8 0.604174 0.441696 0.214028
O O9 0.565857 0.828227 0.610951
O O10 0.500000 0.500000 0.500000
O O11 0.195686 0.453501 0.601325
O O12 0.909693 0.744199 0.826169
O O13 0.205269 0.311055 0.703337
O O14 0.801460 0.393067 0.957263
O O15 0.753066 0.628716 0.944871
O O16 0.000000 0.500000 0.000000
O O17 0.845134 0.790235 0.052329
#
# Coordination Sequence:
#
# PCOD9087323 Si02
#       8
#     2   2   2   2   2   2   2   2
#     4  10  20  34  55  72 106 146 167 209 253 310
#     4  10  18  31  53  78 101 133 166 213 264 311
#     4   9  18  34  51  76 104 135 174 206 256 308
#     4  10  16  27  48  75 103 127 157 209 264 308
#     4  10  19  32  55  74 102 138 164 215 269 299
#     4   9  19  33  53  78 103 131 167 222 263 301
#     4  10  19  33  52  76 102 132 180 208 252 310
#     4  10  19  33  52  77 106 135 167 212 266 304
#
# _framework density 22.870653000000001
#
# number of rings (size 3 to 8) (size 9 to 14) (size 15 to 20)
#    0.000    2.250    1.250    5.250    0.000    2.000 
#    0.000    6.250    5.500    3.000    0.000    0.000 
#    0.000    0.000    0.000    0.000    0.000    0.000 
#
# Total GULP energy -89140.604681 kJ/mol
# GULP energy per Si atom -5571.287793 kJ/mol
# Density = 2.281860 g / cm^3
# Si number density = 22.870653 Si / 1000 Ang^3
#
#
#
# Elastic Constant Matrix: (Units=GPa)
#
#
# Indices 1 2 3 4 5 6 
#
# 1 89.4421 23.7254 10.0414 1.5735 -14.6665 -24.1144
# 2 23.7254 77.1124 32.9454 -11.3740 -10.6522 2.8997
# 3 10.0414 32.9454 128.9617 -19.8940 3.9874 -7.5467
# 4 1.5735 -11.3740 -19.8940 39.3001 -1.2502 -9.1538
# 5 -14.6665 -10.6522 3.9874 -1.2502 25.4727 -0.3722
# 6 -24.1144 2.8997 -7.5467 -9.1538 -0.3722 41.4355
#
#
#
# Elastic Compliance Matrix: (Units=1/GPa)
#
#
# Indices 1 2 3 4 5 6 
#
# 1 0.016256 -0.004332 0.000325 0.000852 0.007687 0.010080
# 2 -0.004332 0.017308 -0.004117 0.002360 0.005447 -0.003912
# 3 0.000325 -0.004117 0.009729 0.004374 -0.002797 0.003190
# 4 0.000852 0.002360 0.004374 0.030206 0.002390 0.007822
# 5 0.007687 0.005447 -0.002797 0.002390 0.046583 0.004529
# 6 0.010080 -0.003912 0.003190 0.007822 0.004529 0.032624
#
#
# Mechanical properties :
#
#
# Convention : Reuss Voigt Hill
#
# Bulk Modulus (GPa) = 36.97780 47.66007 42.31894
# Shear Modulus (GPa) = 28.09475 36.49528 32.29502
#
# Velocity S-wave (km/s) = 3.50868 3.99899 3.76183
# Velocity P-wave (km/s) = 5.71120 6.49667 6.11656
#
# Compressibility (1/GPa) = 0.02704325
#
# Stress axis : x y z
#
# Youngs Moduli (GPa) = 61.51491 57.77794 102.78789
#
# Poissons Ratio (x) = 0.25028 -0.03336
# Poissons Ratio (y) = 0.26647 0.42322
# Poissons Ratio (z) = -0.01996 0.23790
#
# Static dielectric constant tensor:
#      x y z
#    x 2.027170 0.015170 0.079740 
#    y 0.015170 1.910570 0.069990 
#    z 0.079740 0.069990 1.968690 
# 
# From -- ./inp_files/312049.got.cif
#   From: 2010.05.17/outbox.cif.g08.bks.cpg/sg2_157_cif.got.tgz:312049.got - 2010.06.03 11:33:40.
