data_PCOD9087092
_publ_section_title
;
Structure prediction by ZEFSAII (Michael W. Deem and Ramdas Pophale) SiO2 
 PCOD9087092
Probable space group: P -1
;
_chemical_formula_sum "Si O2"
_cell_formula_units_Z 16
_cell_length_a 15.898699
_cell_length_b 8.295853
_cell_length_c 9.035043
_cell_angle_alpha 108.392875
_cell_angle_beta 126.603591
_cell_angle_gamma 55.753564
_cell_volume 790.423860
_symmetry_space_group_name_H-M "P -1"
_symmetry_group_IT_number 2
_symmetry_cell_setting 'triclinic'
loop_
_space_group_symop_operation_xyz
x,y,z
-x,-y,-z
loop_
_atom_site_type_symbol
_atom_site_label
_atom_site_fract_x
_atom_site_fract_y
_atom_site_fract_z
Si Si1 0.130975 0.375671 0.667904
Si Si2 0.952012 0.434813 0.072681
Si Si3 0.671071 0.566524 0.250460
Si Si4 0.698959 0.563816 0.765883
Si Si5 0.309132 0.709857 0.549390
Si Si6 0.486129 0.208213 0.101320
Si Si7 0.363612 0.126808 0.446352
Si Si8 0.170152 0.080751 0.377296
O O1 0.106947 0.385684 0.819253
O O2 0.215039 0.466621 0.737923
O O3 0.180862 0.181135 0.569048
O O4 0.000000 0.500000 0.500000
O O5 0.056287 0.243336 0.211601
O O6 0.835915 0.412825 0.908438
O O7 0.000000 0.500000 0.000000
O O8 0.702257 0.387597 0.339497
O O9 0.639789 0.746833 0.379573
O O10 0.560018 0.644651 0.044259
O O11 0.643541 0.457672 0.576078
O O12 0.616194 0.687522 0.850646
O O13 0.707057 0.718935 0.711067
O O14 0.398034 0.793780 0.707175
O O15 0.185376 0.880999 0.400178
O O16 0.500000 0.000000 0.000000
O O17 0.287570 0.023179 0.382075
O O18 0.500000 0.000000 0.500000
#
# Coordination Sequence:
#
# PCOD9087092 Si02
#       8
#     2   2   2   2   2   2   2   2
#     4   9  19  38  68  89 121 167 215 264 310 369
#     4  11  21  40  69  94 122 164 222 270 309 383
#     4  10  21  39  61  93 130 165 210 259 321 378
#     4  11  23  40  65  94 131 168 207 269 337 368
#     4  11  25  40  61  94 139 170 203 260 338 379
#     4  12  23  42  69  95 126 167 225 268 307 390
#     4  10  19  36  61  93 127 165 212 260 315 381
#     4  10  21  40  61  93 127 168 216 260 314 383
#
# _framework density 20.242305000000002
#
# number of rings (size 3 to 8) (size 9 to 14) (size 15 to 20)
#    0.000    1.500    2.500    3.750    1.750    1.500 
#    0.000    5.000    0.000    0.000    0.000    0.000 
#    0.000    0.000    0.000    0.000    0.000    0.000 
#
# Total GULP energy -89105.773038 kJ/mol
# GULP energy per Si atom -5569.110815 kJ/mol
# Density = 2.019623 g / cm^3
# Si number density = 20.242305 Si / 1000 Ang^3
#
#
#
# Elastic Constant Matrix: (Units=GPa)
#
#
# Indices 1 2 3 4 5 6 
#
# 1 95.7434 47.6875 51.0914 2.7324 -14.6661 -24.2934
# 2 47.6875 90.4775 45.2622 -11.7449 -10.6057 2.7612
# 3 51.0914 45.2622 121.5146 -11.5041 -14.8211 0.5191
# 4 2.7324 -11.7449 -11.5041 41.3564 -2.2972 -1.3401
# 5 -14.6661 -10.6057 -14.8211 -2.2972 42.0348 -3.4433
# 6 -24.2934 2.7612 0.5191 -1.3401 -3.4433 25.5881
#
#
#
# Elastic Compliance Matrix: (Units=1/GPa)
#
#
# Indices 1 2 3 4 5 6 
#
# 1 0.029925 -0.012908 -0.007707 -0.006430 0.006615 0.030514
# 2 -0.012908 0.019599 -0.001401 0.005519 -0.000912 -0.014175
# 3 -0.007707 -0.001401 0.012460 0.003400 0.000954 -0.007112
# 4 -0.006430 0.005519 0.003400 0.027028 0.001402 -0.005165
# 5 0.006615 -0.000912 0.000954 0.001402 0.027107 0.010081
# 6 0.030514 -0.014175 -0.007112 -0.005165 0.010081 0.070810
#
#
# Mechanical properties :
#
#
# Convention : Reuss Voigt Hill
#
# Bulk Modulus (GPa) = 55.70083 66.20199 60.95141
# Shear Modulus (GPa) = 21.10188 32.70881 26.90535
#
# Velocity S-wave (km/s) = 3.23222 4.02414 3.64973
# Velocity P-wave (km/s) = 6.44255 7.37342 6.92365
#
# Compressibility (1/GPa) = 0.01795306
#
# Stress axis : x y z
#
# Youngs Moduli (GPa) = 33.41647 51.02345 80.25460
#
# Poissons Ratio (x) = 0.65860 0.61849
# Poissons Ratio (y) = 0.43133 0.11246
# Poissons Ratio (z) = 0.25753 0.07150
#
# Static dielectric constant tensor:
#      x y z
#    x 1.733220 -0.003770 0.021250 
#    y -0.003770 1.766670 -0.003490 
#    z 0.021250 -0.003490 1.799880 
# 
# From -- ./inp_files/274090.got.cif
#   From: 2010.05.17/outbox.cif.g08.bks.cpg/sg2_138_cif.got.tgz:274090.got - 2010.06.03 11:33:40.
