data_PCOD9087482
_publ_section_title
;
Structure prediction by ZEFSAII (Michael W. Deem and Ramdas Pophale) SiO2 
 PCOD9087482
Probable space group: P -1
;
_chemical_formula_sum "Si O2"
_cell_formula_units_Z 12
_cell_length_a 9.262720
_cell_length_b 5.280398
_cell_length_c 13.726287
_cell_angle_alpha 105.092415
_cell_angle_beta 54.031616
_cell_angle_gamma 77.537965
_cell_volume 462.544527
_symmetry_space_group_name_H-M "P -1"
_symmetry_group_IT_number 2
_symmetry_cell_setting 'triclinic'
loop_
_space_group_symop_operation_xyz
x,y,z
-x,-y,-z
loop_
_atom_site_type_symbol
_atom_site_label
_atom_site_fract_x
_atom_site_fract_y
_atom_site_fract_z
Si Si1 0.389139 0.923780 0.862074
Si Si2 0.211684 0.497268 0.422721
Si Si3 0.461055 0.821003 0.580650
Si Si4 0.809344 0.514447 0.134609
Si Si5 0.900031 0.683385 0.821862
Si Si6 0.944539 0.975668 0.330163
O O1 0.621681 0.670727 0.744099
O O2 0.268905 0.727286 0.880788
O O3 0.352937 0.154434 0.807372
O O4 0.294513 0.134985 0.013812
O O5 0.344945 0.288863 0.437168
O O6 0.000000 0.500000 0.500000
O O7 0.163005 0.827876 0.511740
O O8 0.500000 0.500000 0.500000
O O9 0.500000 0.000000 0.500000
O O10 0.214448 0.980339 0.689403
O O11 0.902913 0.420233 0.195624
O O12 0.000000 0.500000 0.000000
O O13 0.929184 0.372911 0.738202
O O14 0.914170 0.894999 0.756161
#
# Coordination Sequence:
#
# PCOD9087482 Si02
#       6
#     2   2   2   2   2   2
#     4  11  23  39  62  96 135 175 219 274 336 400
#     4  11  26  47  68  99 141 186 227 276 338 406
#     4  10  21  41  67  97 129 171 222 276 330 394
#     4  10  19  36  64 100 133 167 216 282 342 393
#     4  11  20  38  64  95 127 168 217 276 335 396
#     4  11  23  41  67  97 129 169 221 280 336 395
#
# _framework density 25.943446000000002
#
# number of rings (size 3 to 8) (size 9 to 14) (size 15 to 20)
#    0.000    1.333    0.000    9.000    0.000    5.333 
#    0.000   15.000    0.000    0.000    0.000    0.000 
#    0.000    0.000    0.000    0.000    0.000    0.000 
#
# Total GULP energy -66927.936530 kJ/mol
# GULP energy per Si atom -5577.328044 kJ/mol
# Density = 2.588440 g / cm^3
# Si number density = 25.943446 Si / 1000 Ang^3
#
#
#
# Elastic Constant Matrix: (Units=GPa)
#
#
# Indices 1 2 3 4 5 6 
#
# 1 105.9391 49.5813 52.8486 26.4000 -27.0620 -9.4868
# 2 49.5813 188.7971 49.8899 15.9220 -10.7299 20.1025
# 3 52.8486 49.8899 155.0703 51.7580 -32.3770 6.0706
# 4 26.4000 15.9220 51.7580 48.5113 1.7120 4.7044
# 5 -27.0620 -10.7299 -32.3770 1.7120 17.2528 -3.7460
# 6 -9.4868 20.1025 6.0706 4.7044 -3.7460 39.1392
#
#
#
# Elastic Compliance Matrix: (Units=1/GPa)
#
#
# Indices 1 2 3 4 5 6 
#
# 1 -0.071947 0.019879 -0.089249 0.144025 -0.295159 -0.059367
# 2 0.019879 0.000619 0.022006 -0.038603 0.079592 0.013345
# 3 -0.089249 0.022006 -0.076883 0.140374 -0.298955 -0.066496
# 4 0.144025 -0.038603 0.140374 -0.223447 0.511117 0.108741
# 5 -0.295159 0.079592 -0.298955 0.511117 -1.016055 -0.224734
# 6 -0.059367 0.013345 -0.066496 0.108741 -0.224734 -0.019960
#
#
# Mechanical properties :
#
#
# Convention : Reuss Voigt Hill
#
# Bulk Modulus (GPa) = -4.11627 83.82734 39.85554
# Shear Modulus (GPa) = -3.58700 40.81311 18.61306
#
# Velocity S-wave (km/s) = -1.17712 3.97061 2.68143
# Velocity P-wave (km/s) = 1.85407 7.30771 4.99825
#
# Compressibility (1/GPa) = -0.24293844
#
# Stress axis : x y z
#
# Youngs Moduli (GPa) = -13.89920 1615.30019 -13.00673
#
# Poissons Ratio (x) = -32.11035 -1.16084
# Poissons Ratio (y) = 0.27630 0.28623
# Poissons Ratio (z) = -1.24049 -35.54671
#
# Static dielectric constant tensor:
#      x y z
#    x 2.032470 0.029630 -0.028800 
#    y 0.029630 2.011970 0.052640 
#    z -0.028800 0.052640 1.997820 
# 
# From -- ./inp_files/487873.got.cif
#   From: 2010.05.17/outbox.cif.g08.bks.cpg/sg2_244_cif.got.tgz:487873.got - 2010.06.03 11:33:40.
