data_PCOD9087397
_publ_section_title
;
Structure prediction by ZEFSAII (Michael W. Deem and Ramdas Pophale) SiO2 
 PCOD9087397
Probable space group: P -1
;
_chemical_formula_sum "Si O2"
_cell_formula_units_Z 16
_cell_length_a 9.544027
_cell_length_b 6.944554
_cell_length_c 12.909659
_cell_angle_alpha 46.490346
_cell_angle_beta 76.327774
_cell_angle_gamma 82.036385
_cell_volume 602.620049
_symmetry_space_group_name_H-M "P -1"
_symmetry_group_IT_number 2
_symmetry_cell_setting 'triclinic'
loop_
_space_group_symop_operation_xyz
x,y,z
-x,-y,-z
loop_
_atom_site_type_symbol
_atom_site_label
_atom_site_fract_x
_atom_site_fract_y
_atom_site_fract_z
Si Si1 0.045575 0.127157 0.597525
Si Si2 0.902411 0.344124 0.720243
Si Si3 0.586283 0.133207 0.841648
Si Si4 0.573788 0.738271 0.794502
Si Si5 0.718786 0.277544 0.064851
Si Si6 0.689622 0.657881 0.230745
Si Si7 0.019326 0.304102 0.925069
Si Si8 0.771099 0.124325 0.496602
O O1 0.109985 0.414377 0.445958
O O2 0.003545 0.137939 0.720366
O O3 0.897219 0.088311 0.572918
O O4 0.161388 0.930818 0.607474
O O5 0.747782 0.211683 0.812473
O O6 0.969059 0.453632 0.773792
O O7 0.481536 0.373098 0.747318
O O8 0.594435 0.937455 0.815443
O O9 0.500000 0.000000 0.000000
O O10 0.401067 0.691248 0.836200
O O11 0.649133 0.902028 0.628238
O O12 0.651856 0.472191 0.916196
O O13 0.709009 0.962137 0.156249
O O14 0.889939 0.353915 0.009720
O O15 0.724297 0.426962 0.391311
O O16 0.808211 0.648778 0.120009
O O17 0.000000 0.000000 0.000000
#
# Coordination Sequence:
#
# PCOD9087397 Si02
#       8
#     2   2   2   2   2   2   2   2
#     4  10  23  37  65  91 128 167 210 263 318 377
#     4  11  20  40  62  94 124 168 209 258 322 374
#     4  11  23  39  61  90 132 167 210 256 323 379
#     4  10  20  37  61  92 121 167 210 258 305 382
#     4   9  20  36  59  92 122 161 213 248 310 375
#     4  10  22  39  63  94 124 169 207 261 313 377
#     4  10  19  36  63  90 122 162 208 254 303 379
#     4  11  21  41  65  97 125 165 220 265 308 379
#
# _framework density 26.550726999999998
#
# number of rings (size 3 to 8) (size 9 to 14) (size 15 to 20)
#    0.000    1.750    2.500    3.000    1.750    3.000 
#    0.000    3.125    0.000    7.500    0.000    0.000 
#    0.000    0.000    0.000    0.000    0.000    0.000 
#
# Total GULP energy -89498.123035 kJ/mol
# GULP energy per Si atom -5593.632690 kJ/mol
# Density = 2.649030 g / cm^3
# Si number density = 26.550727 Si / 1000 Ang^3
#
#
#
# Elastic Constant Matrix: (Units=GPa)
#
#
# Indices 1 2 3 4 5 6 
#
# 1 111.7231 39.4730 59.5280 -3.5838 -27.3039 -21.0624
# 2 39.4730 145.0850 59.1722 6.7385 -10.0318 -24.3553
# 3 59.5280 59.1722 134.4290 -7.9288 -31.8610 -31.3970
# 4 -3.5838 6.7385 -7.9288 45.7112 -15.6392 1.3899
# 5 -27.3039 -10.0318 -31.8610 -15.6392 43.1892 -5.2634
# 6 -21.0624 -24.3553 -31.3970 1.3899 -5.2634 36.4668
#
#
#
# Elastic Compliance Matrix: (Units=1/GPa)
#
#
# Indices 1 2 3 4 5 6 
#
# 1 0.014189 -0.001650 -0.001119 0.004453 0.010281 0.007444
# 2 -0.001650 0.009080 -0.003621 -0.002997 -0.002478 0.001750
# 3 -0.001119 -0.003621 0.016773 0.008229 0.015424 0.013289
# 4 0.004453 -0.002997 0.008229 0.030821 0.020500 0.009439
# 5 0.010281 -0.002478 0.015424 0.020500 0.050819 0.024117
# 6 0.007444 0.001750 0.013289 0.009439 0.024117 0.047453
#
#
# Mechanical properties :
#
#
# Convention : Reuss Voigt Hill
#
# Bulk Modulus (GPa) = 36.68246 78.62039 57.65143
# Shear Modulus (GPa) = 26.17762 40.61104 33.39433
#
# Velocity S-wave (km/s) = 3.14339 3.91521 3.55033
# Velocity P-wave (km/s) = 5.19812 7.07913 6.21026
#
# Compressibility (1/GPa) = 0.02726098
#
# Stress axis : x y z
#
# Youngs Moduli (GPa) = 70.47958 110.13121 59.61911
#
# Poissons Ratio (x) = 0.18175 0.06670
# Poissons Ratio (y) = 0.11632 0.21590
# Poissons Ratio (z) = 0.07885 0.39882
#
# Static dielectric constant tensor:
#      x y z
#    x 2.193770 0.008500 0.059100 
#    y 0.008500 2.136830 -0.017250 
#    z 0.059100 -0.017250 2.091180 
# 
# From -- ./inp_files/565681.got.cif
#   From: 2010.05.17/outbox.cif.g08.bks.cpg/sg2_283_cif.got.tgz:565681.got - 2010.06.03 11:33:40.
