data_PCOD9087271
_publ_section_title
;
Structure prediction by ZEFSAII (Michael W. Deem and Ramdas Pophale) SiO2 
 PCOD9087271
Probable space group: P -1
;
_chemical_formula_sum "Si O2"
_cell_formula_units_Z 15
_cell_length_a 8.870186
_cell_length_b 22.106140
_cell_length_c 12.623882
_cell_angle_alpha 26.252617
_cell_angle_beta 41.578019
_cell_angle_gamma 47.885543
_cell_volume 726.635332
_symmetry_space_group_name_H-M "P -1"
_symmetry_group_IT_number 2
_symmetry_cell_setting 'triclinic'
loop_
_space_group_symop_operation_xyz
x,y,z
-x,-y,-z
loop_
_atom_site_type_symbol
_atom_site_label
_atom_site_fract_x
_atom_site_fract_y
_atom_site_fract_z
Si Si1 0.331159 0.768332 0.729183
Si Si2 0.661511 0.009710 0.798499
Si Si3 0.438783 0.213271 0.977489
Si Si4 0.500000 0.500000 0.000000
Si Si5 0.101831 0.900420 0.015285
Si Si6 0.125769 0.394780 0.747324
Si Si7 0.805941 0.990176 0.424557
Si Si8 0.849127 0.656604 0.431756
O O1 0.385217 0.858339 0.456744
O O2 0.295904 0.875430 0.674401
O O3 0.500053 0.641992 0.851979
O O4 0.092004 0.688324 0.962359
O O5 0.620348 0.883619 0.939271
O O6 0.926492 0.014362 0.681966
O O7 0.500000 0.000000 0.000000
O O8 0.310000 0.143135 0.254550
O O9 0.703785 0.195489 0.887165
O O10 0.335184 0.357970 0.770367
O O11 0.375694 0.412407 0.296039
O O12 0.913794 0.803485 0.213098
O O13 0.213045 0.989541 0.722540
O O14 0.000000 0.000000 0.000000
O O15 0.159489 0.342729 0.691370
O O16 0.047864 0.550979 0.530147
#
# Coordination Sequence:
#
# PCOD9087271 Si02
#       8
#     2   2   2   1   2   2   2   2
#     4  10  19  36  62  92 123 151 211 263 305 362
#     4  11  21  34  63  94 124 158 209 268 304 361
#     4  11  22  38  62  92 122 169 206 253 319 376
#     4  10  24  36  64  98 120 162 204 276 308 358
#     4  12  26  41  59  93 135 168 204 258 320 382
#     4  10  19  42  69  88 114 161 221 262 301 371
#     4  11  21  41  62  90 125 170 210 257 308 374
#     4  10  23  42  65  93 124 162 210 264 316 368
#
# _framework density 20.643091999999999
#
# number of rings (size 3 to 8) (size 9 to 14) (size 15 to 20)
#    0.000    1.333    4.000    2.000    7.467    0.533 
#    0.000    0.000    0.000    1.600    0.000    0.000 
#    0.000    0.000    0.000    0.000    0.000    0.000 
#
# Total GULP energy -83532.171618 kJ/mol
# GULP energy per Si atom -5568.811441 kJ/mol
# Density = 2.059611 g / cm^3
# Si number density = 20.643092 Si / 1000 Ang^3
#
#
#
# Elastic Constant Matrix: (Units=GPa)
#
#
# Indices 1 2 3 4 5 6 
#
# 1 53.4436 12.2555 14.3626 -1.9252 16.9731 -3.7944
# 2 12.2555 78.4546 38.0341 -5.8627 23.2391 19.7966
# 3 14.3626 38.0341 106.6049 7.5039 21.7350 12.7778
# 4 -1.9252 -5.8627 7.5039 36.7478 -0.3794 8.0659
# 5 16.9731 23.2391 21.7350 -0.3794 33.2945 1.1097
# 6 -3.7944 19.7966 12.7778 8.0659 1.1097 20.9032
#
#
#
# Elastic Compliance Matrix: (Units=1/GPa)
#
#
# Indices 1 2 3 4 5 6 
#
# 1 0.023167 -0.002125 -0.001253 -0.000674 -0.009775 0.007763
# 2 -0.002125 0.026587 -0.003933 0.010610 -0.013901 -0.026516
# 3 -0.001253 -0.003933 0.012430 -0.002659 -0.004666 -0.002827
# 4 -0.000674 0.010610 -0.002659 0.034082 -0.004222 -0.021472
# 5 -0.009775 -0.013901 -0.004666 -0.004222 0.047274 0.013363
# 6 0.007763 -0.026516 -0.002827 -0.021472 0.013363 0.083665
#
#
# Mechanical properties :
#
#
# Convention : Reuss Voigt Hill
#
# Bulk Modulus (GPa) = 21.02610 40.86752 30.94681
# Shear Modulus (GPa) = 19.40380 29.77916 24.59148
#
# Velocity S-wave (km/s) = 3.06921 3.80224 3.45522
# Velocity P-wave (km/s) = 4.77155 6.25430 5.56255
#
# Compressibility (1/GPa) = 0.04755994
#
# Stress axis : x y z
#
# Youngs Moduli (GPa) = 43.16532 37.61296 80.45077
#
# Poissons Ratio (x) = 0.07994 0.10080
# Poissons Ratio (y) = 0.09174 0.31645
# Poissons Ratio (z) = 0.05409 0.14795
#
# Static dielectric constant tensor:
#      x y z
#    x 1.762070 -0.075150 0.000510 
#    y -0.075150 1.812380 -0.000290 
#    z 0.000510 -0.000290 1.730610 
# 
# From -- ./inp_files/258020.got.cif
#   From: 2010.05.17/outbox.cif.g08.bks.cpg/sg2_130_cif.got.tgz:258020.got - 2010.06.03 11:33:40.
