data_PCOD9087163
_publ_section_title
;
Structure prediction by ZEFSAII (Michael W. Deem and Ramdas Pophale) SiO2 
 PCOD9087163
Probable space group: P -1
;
_chemical_formula_sum "Si O2"
_cell_formula_units_Z 16
_cell_length_a 17.267855
_cell_length_b 9.319395
_cell_length_c 7.583117
_cell_angle_alpha 58.313398
_cell_angle_beta 91.202988
_cell_angle_gamma 49.081265
_cell_volume 645.954677
_symmetry_space_group_name_H-M "P -1"
_symmetry_group_IT_number 2
_symmetry_cell_setting 'triclinic'
loop_
_space_group_symop_operation_xyz
x,y,z
-x,-y,-z
loop_
_atom_site_type_symbol
_atom_site_label
_atom_site_fract_x
_atom_site_fract_y
_atom_site_fract_z
Si Si1 0.538470 0.602716 0.325935
Si Si2 0.751281 0.715957 0.682559
Si Si3 0.118221 0.813250 0.004840
Si Si4 0.757379 0.061823 0.528277
Si Si5 0.356669 0.751499 0.987297
Si Si6 0.394150 0.326975 0.407807
Si Si7 0.010708 0.172533 0.453231
Si Si8 0.137411 0.339262 0.650522
O O1 0.500000 0.500000 0.500000
O O2 0.681328 0.326497 0.462600
O O3 0.531013 0.776262 0.341063
O O4 0.455753 0.725095 0.068455
O O5 0.622502 0.829829 0.579968
O O6 0.805667 0.678013 0.516598
O O7 0.742562 0.892779 0.690419
O O8 0.852289 0.410361 0.954150
O O9 0.095529 0.997884 0.746249
O O10 0.244398 0.610043 0.252814
O O11 0.000000 0.000000 0.000000
O O12 0.686333 0.178276 0.261014
O O13 0.901038 0.865115 0.640951
O O14 0.234733 0.027373 0.909567
O O15 0.412970 0.469418 0.209009
O O16 0.888781 0.474291 0.324333
O O17 0.000000 0.000000 0.500000
O O18 0.000000 0.500000 0.500000
#
# Coordination Sequence:
#
# PCOD9087163 Si02
#       8
#     2   2   2   2   2   2   2   2
#     4  10  23  41  62  88 121 161 210 253 301 355
#     4   9  20  34  64  88 116 163 199 240 301 365
#     4  10  19  36  62  85 123 162 197 231 313 366
#     4  11  21  40  63  89 125 157 205 252 301 356
#     4  10  20  39  66  85 117 168 202 246 303 361
#     4   9  19  38  62  84 117 157 203 243 301 356
#     4  12  24  38  61  98 126 158 198 253 302 367
#     4  11  19  38  61  89 126 156 201 245 302 369
#
# _framework density 24.769539000000002
#
# number of rings (size 3 to 8) (size 9 to 14) (size 15 to 20)
#    0.750    1.000    5.000    0.375    3.500    0.000 
#    4.500    5.625    2.750    0.000    0.000    0.000 
#    0.000    0.000    0.000    0.000    0.000    0.000 
#
# Total GULP energy -89182.414205 kJ/mol
# GULP energy per Si atom -5573.900888 kJ/mol
# Density = 2.471316 g / cm^3
# Si number density = 24.769539 Si / 1000 Ang^3
#
#
#
# Elastic Constant Matrix: (Units=GPa)
#
#
# Indices 1 2 3 4 5 6 
#
# 1 83.9591 8.5568 3.4110 2.3670 5.1837 21.3749
# 2 8.5568 80.8136 -5.9182 -5.0465 -0.9587 25.4326
# 3 3.4110 -5.9182 40.8303 -3.2600 -3.5553 12.0524
# 4 2.3670 -5.0465 -3.2600 26.4454 10.1074 1.9947
# 5 5.1837 -0.9587 -3.5553 10.1074 28.8894 -4.2998
# 6 21.3749 25.4326 12.0524 1.9947 -4.2998 55.1856
#
#
#
# Elastic Compliance Matrix: (Units=1/GPa)
#
#
# Indices 1 2 3 4 5 6 
#
# 1 0.013527 0.000431 0.000403 0.000686 -0.003470 -0.005821
# 2 0.000431 0.015795 0.005108 0.005047 -0.002015 -0.008901
# 3 0.000403 0.005108 0.028236 0.004871 0.000557 -0.008810
# 4 0.000686 0.005047 0.004871 0.046110 -0.016471 -0.006606
# 5 -0.003470 -0.002015 0.000557 -0.016471 0.041896 0.006011
# 6 -0.005821 -0.008901 -0.008810 -0.006606 0.006011 0.027109
#
#
# Mechanical properties :
#
#
# Convention : Reuss Voigt Hill
#
# Bulk Modulus (GPa) = 14.40003 24.18913 19.29458
# Shear Modulus (GPa) = 27.18339 35.40762 31.29551
#
# Velocity S-wave (km/s) = 3.31638 3.78495 3.55838
# Velocity P-wave (km/s) = 4.52666 5.37476 4.96884
#
# Compressibility (1/GPa) = 0.06944432
#
# Stress axis : x y z
#
# Youngs Moduli (GPa) = 73.92538 63.31044 35.41533
#
# Poissons Ratio (x) = -0.02728 -0.01429
# Poissons Ratio (y) = -0.03186 -0.18092
# Poissons Ratio (z) = -0.02982 -0.32342
#
# Static dielectric constant tensor:
#      x y z
#    x 2.063700 0.061100 -0.009840 
#    y 0.061100 2.118740 -0.058960 
#    z -0.009840 -0.058960 2.052010 
# 
# From -- ./inp_files/328722.got.cif
#   From: 2010.05.17/outbox.cif.g08.bks.cpg/sg2_165_cif.got.tgz:328722.got - 2010.06.03 11:33:40.
