data_PCOD9087290
_publ_section_title
;
Structure prediction by ZEFSAII (Michael W. Deem and Ramdas Pophale) SiO2 
 PCOD9087290
Probable space group: P -1
;
_chemical_formula_sum "Si O2"
_cell_formula_units_Z 16
_cell_length_a 8.942387
_cell_length_b 16.917282
_cell_length_c 5.116153
_cell_angle_alpha 71.174207
_cell_angle_beta 109.813815
_cell_angle_gamma 104.551485
_cell_volume 680.399596
_symmetry_space_group_name_H-M "P -1"
_symmetry_group_IT_number 2
_symmetry_cell_setting 'triclinic'
loop_
_space_group_symop_operation_xyz
x,y,z
-x,-y,-z
loop_
_atom_site_type_symbol
_atom_site_label
_atom_site_fract_x
_atom_site_fract_y
_atom_site_fract_z
Si Si1 0.601549 0.087362 0.067570
Si Si2 0.859931 0.004034 0.624627
Si Si3 0.697239 0.362803 0.671397
Si Si4 0.887912 0.154721 0.816948
Si Si5 0.600539 0.764140 0.175934
Si Si6 0.885139 0.313660 0.330875
Si Si7 0.209024 0.189574 0.242268
Si Si8 0.903803 0.525868 0.665267
O O1 0.724165 0.055365 0.376066
O O2 0.495917 0.157204 0.015818
O O3 0.712601 0.135812 0.855780
O O4 0.500000 0.000000 0.000000
O O5 0.776489 0.907806 0.715185
O O6 0.075794 0.935445 0.162377
O O7 0.000000 0.000000 0.500000
O O8 0.522580 0.314455 0.697305
O O9 0.759903 0.341552 0.443588
O O10 0.732808 0.464957 0.618643
O O11 0.814700 0.328023 0.990288
O O12 0.895496 0.219208 0.515917
O O13 0.023494 0.192681 0.064271
O O14 0.732213 0.792909 0.447943
O O15 0.683429 0.750436 0.964618
O O16 0.058825 0.372868 0.409310
O O17 0.000000 0.500000 0.500000
O O18 0.000000 0.500000 0.000000
#
# Coordination Sequence:
#
# PCOD9087290 Si02
#       8
#     2   2   2   2   2   2   2   2
#     4  12  25  39  64  89 118 157 206 263 306 352
#     4  12  25  44  63  87 123 166 209 255 317 366
#     4  10  19  36  62  93 127 157 196 256 311 356
#     4  12  26  41  64  87 122 168 206 257 308 370
#     4  12  25  42  62  94 123 161 207 261 305 365
#     4  10  20  36  62  95 123 155 207 251 304 367
#     4  12  27  43  61  85 127 168 207 251 313 370
#     4   8  16  31  56  91 126 155 188 247 310 363
#
# _framework density 23.515592999999999
#
# number of rings (size 3 to 8) (size 9 to 14) (size 15 to 20)
#    0.000    1.000    3.750    3.375    1.750    1.000 
#    0.000    0.000    0.000    1.500    0.000    0.000 
#    0.000    0.000    0.000    0.000    0.000    0.000 
#
# Total GULP energy -89506.038924 kJ/mol
# GULP energy per Si atom -5594.127433 kJ/mol
# Density = 2.346207 g / cm^3
# Si number density = 23.515593 Si / 1000 Ang^3
#
#
#
# Elastic Constant Matrix: (Units=GPa)
#
#
# Indices 1 2 3 4 5 6 
#
# 1 71.0941 13.2686 14.5355 0.7621 -15.5696 20.4604
# 2 13.2686 115.3502 -7.8486 -19.7133 2.0205 31.0244
# 3 14.5355 -7.8486 75.4757 5.8097 -7.3606 1.6240
# 4 0.7621 -19.7133 5.8097 41.0240 7.5750 -7.8980
# 5 -15.5696 2.0205 -7.3606 7.5750 30.4359 -0.4076
# 6 20.4604 31.0244 1.6240 -7.8980 -0.4076 29.9049
#
#
#
# Elastic Compliance Matrix: (Units=1/GPa)
#
#
# Indices 1 2 3 4 5 6 
#
# 1 0.021806 0.000785 -0.002233 -0.005088 0.011604 -0.016798
# 2 0.000785 0.012774 0.001040 0.003737 -0.001298 -0.012877
# 3 -0.002233 0.001040 0.014240 -0.002149 0.002756 -0.000854
# 4 -0.005088 0.003737 -0.002149 0.029996 -0.010736 0.007497
# 5 0.011604 -0.001298 0.002756 -0.010736 0.042096 -0.009005
# 6 -0.016798 -0.012877 -0.000854 0.007497 -0.009005 0.060195
#
#
# Mechanical properties :
#
#
# Convention : Reuss Voigt Hill
#
# Bulk Modulus (GPa) = 20.83146 33.53676 27.18411
# Shear Modulus (GPa) = 25.26200 36.40391 30.83296
#
# Velocity S-wave (km/s) = 3.28116 3.93883 3.62494
# Velocity P-wave (km/s) = 4.82000 5.91424 5.39494
#
# Compressibility (1/GPa) = 0.04800433
#
# Stress axis : x y z
#
# Youngs Moduli (GPa) = 45.85849 78.28102 70.22443
#
# Poissons Ratio (x) = -0.06143 0.15682
# Poissons Ratio (y) = -0.03599 -0.07304
# Poissons Ratio (z) = 0.10241 -0.08142
#
# Static dielectric constant tensor:
#      x y z
#    x 1.905070 0.008270 0.005140 
#    y 0.008270 1.946930 -0.003110 
#    z 0.005140 -0.003110 1.942100 
# 
# From -- ./inp_files/54375.got.cif
#   From: 2010.05.17/outbox.cif.g08.bks.cpg/sg2_28_cif.got.tgz:54375.got - 2010.06.03 11:33:40.
