data_PCOD9087583
_publ_section_title
;
Structure prediction by ZEFSAII (Michael W. Deem and Ramdas Pophale) SiO2 
 PCOD9087583
Probable space group: P -1
;
_chemical_formula_sum "Si O2"
_cell_formula_units_Z 16
_cell_length_a 8.758811
_cell_length_b 9.527959
_cell_length_c 15.043736
_cell_angle_alpha 89.909577
_cell_angle_beta 47.841765
_cell_angle_gamma 119.755303
_cell_volume 690.102753
_symmetry_space_group_name_H-M "P -1"
_symmetry_group_IT_number 2
_symmetry_cell_setting 'triclinic'
loop_
_space_group_symop_operation_xyz
x,y,z
-x,-y,-z
loop_
_atom_site_type_symbol
_atom_site_label
_atom_site_fract_x
_atom_site_fract_y
_atom_site_fract_z
Si Si1 0.399627 0.459905 0.140378
Si Si2 0.848566 0.036201 0.628804
Si Si3 0.147851 0.949117 0.614200
Si Si4 0.317622 0.644304 0.846439
Si Si5 0.619402 0.183071 0.577683
Si Si6 0.270076 0.422835 0.711750
Si Si7 0.720174 0.805311 0.146666
Si Si8 0.864973 0.569741 0.424847
O O1 0.533460 0.396763 0.146407
O O2 0.519527 0.648701 0.148120
O O3 0.075170 0.268919 0.265725
O O4 0.500000 0.500000 0.000000
O O5 0.518476 0.869304 0.769618
O O6 0.992055 0.024782 0.659143
O O7 0.000000 0.000000 0.500000
O O8 0.944487 0.240147 0.593121
O O9 0.276469 0.928909 0.477205
O O10 0.391934 0.089071 0.587224
O O11 0.334380 0.593713 0.740050
O O12 0.000000 0.500000 0.000000
O O13 0.455435 0.164281 0.727134
O O14 0.856065 0.405869 0.460548
O O15 0.180726 0.272587 0.823335
O O16 0.555932 0.485645 0.566355
O O17 0.087019 0.381692 0.698551
O O18 0.000000 0.000000 0.000000
#
# Coordination Sequence:
#
# PCOD9087583 Si02
#       8
#     2   2   2   2   2   2   2   2
#     4  10  22  40  61  85 125 171 210 257 326 385
#     4  11  21  39  63  92 124 164 211 257 318 371
#     4  10  22  40  61  92 126 165 207 264 319 382
#     4  10  22  40  61  88 125 165 211 262 310 387
#     4  10  22  39  63  96 128 161 213 264 322 381
#     4   9  18  35  59  88 121 159 211 256 322 371
#     4  10  20  37  58  86 125 171 212 259 317 384
#     4  10  19  36  64  94 121 161 205 270 317 376
#
# _framework density 23.184953
#
# number of rings (size 3 to 8) (size 9 to 14) (size 15 to 20)
#    0.000    2.000    1.250    3.000    1.750    2.500 
#    6.750    0.625    0.000    0.000    0.000    0.000 
#    0.000    0.000    0.000    0.000    0.000    0.000 
#
# Total GULP energy -89348.796949 kJ/mol
# GULP energy per Si atom -5584.299809 kJ/mol
# Density = 2.313218 g / cm^3
# Si number density = 23.184953 Si / 1000 Ang^3
#
#
#
# Elastic Constant Matrix: (Units=GPa)
#
#
# Indices 1 2 3 4 5 6 
#
# 1 42.1617 39.3731 14.6703 2.9247 3.4302 -3.2081
# 2 39.3731 165.6802 55.1928 -6.2080 9.9681 -4.8530
# 3 14.6703 55.1928 81.8109 -10.6529 18.2495 -7.7075
# 4 2.9247 -6.2080 -10.6529 50.7311 5.0598 6.8995
# 5 3.4302 9.9681 18.2495 5.0598 35.0715 9.8506
# 6 -3.2081 -4.8530 -7.7075 6.8995 9.8506 38.3532
#
#
#
# Elastic Compliance Matrix: (Units=1/GPa)
#
#
# Indices 1 2 3 4 5 6 
#
# 1 0.031101 -0.007135 -0.000760 -0.003057 -0.000826 0.002308
# 2 -0.007135 0.009438 -0.005311 0.000466 0.000934 -0.000794
# 3 -0.000760 -0.005311 0.019239 0.003775 -0.010412 0.005126
# 4 -0.003057 0.000466 0.003775 0.021464 -0.004276 -0.002201
# 5 -0.000826 0.000934 -0.010412 -0.004276 0.037421 -0.010885
# 6 0.002308 -0.000794 0.005126 -0.002201 -0.010885 0.030388
#
#
# Mechanical properties :
#
#
# Convention : Reuss Voigt Hill
#
# Bulk Modulus (GPa) = 29.96928 56.45837 43.21382
# Shear Modulus (GPa) = 26.79760 36.85893 31.82826
#
# Velocity S-wave (km/s) = 3.40342 3.99153 3.70915
# Velocity P-wave (km/s) = 5.32903 6.75627 6.08465
#
# Compressibility (1/GPa) = 0.03336750
#
# Stress axis : x y z
#
# Youngs Moduli (GPa) = 32.15371 105.94959 51.97675
#
# Poissons Ratio (x) = 0.75596 0.03949
# Poissons Ratio (y) = 0.22942 0.27603
# Poissons Ratio (z) = 0.02443 0.56265
#
# Static dielectric constant tensor:
#      x y z
#    x 3.258190 -0.677400 1.283990 
#    y -0.677400 2.257100 -0.669700 
#    z 1.283990 -0.669700 3.089180 
# 
# From -- ./inp_files/500453.got.cif
#   From: 2010.05.17/outbox.cif.g08.bks.cpg/sg2_251_cif.got.tgz:500453.got - 2010.06.03 11:33:40.
