data_PCOD9087148
_publ_section_title
;
Structure prediction by ZEFSAII (Michael W. Deem and Ramdas Pophale) SiO2 
 PCOD9087148
Probable space group: P -1
;
_chemical_formula_sum "Si O2"
_cell_formula_units_Z 16
_cell_length_a 8.959879
_cell_length_b 14.335060
_cell_length_c 9.217453
_cell_angle_alpha 88.777137
_cell_angle_beta 43.599631
_cell_angle_gamma 64.048011
_cell_volume 645.336509
_symmetry_space_group_name_H-M "P -1"
_symmetry_group_IT_number 2
_symmetry_cell_setting 'triclinic'
loop_
_space_group_symop_operation_xyz
x,y,z
-x,-y,-z
loop_
_atom_site_type_symbol
_atom_site_label
_atom_site_fract_x
_atom_site_fract_y
_atom_site_fract_z
Si Si1 0.824165 0.919623 0.753182
Si Si2 0.149829 0.667177 0.682572
Si Si3 0.144717 0.195006 0.527987
Si Si4 0.204882 0.185844 0.815873
Si Si5 0.235203 0.976538 0.937035
Si Si6 0.745862 0.456276 0.665396
Si Si7 0.346324 0.335805 0.710778
Si Si8 0.205919 0.480945 0.081300
O O1 0.894649 0.888229 0.537101
O O2 0.957769 0.791128 0.729449
O O3 0.887019 0.986397 0.815801
O O4 0.500000 0.000000 0.000000
O O5 0.176750 0.571477 0.559294
O O6 0.437552 0.644150 0.490560
O O7 0.022606 0.700466 0.930484
O O8 0.107132 0.188277 0.724085
O O9 0.936338 0.328226 0.613968
O O10 0.459791 0.146373 0.281570
O O11 0.283006 0.070246 0.843226
O O12 0.436798 0.204412 0.640873
O O13 0.000000 0.000000 0.000000
O O14 0.775983 0.533829 0.755627
O O15 0.435286 0.500093 0.888627
O O16 0.085597 0.413549 0.785184
O O17 0.296097 0.373268 0.914841
#
# Coordination Sequence:
#
# PCOD9087148 Si02
#       8
#     2   2   2   2   2   2   2   2
#     4   8  17  35  59  79 115 155 187 230 290 342
#     4   9  20  36  60  83 117 157 192 236 296 339
#     4  10  19  36  62  84 117 159 191 234 292 347
#     4  11  22  36  61  90 121 149 199 242 285 352
#     4  10  22  38  62  89 117 154 197 240 291 349
#     4   9  17  35  64  83 116 163 188 240 302 344
#     4  10  20  37  62  88 116 155 198 245 290 346
#     4   9  18  35  63  85 114 158 198 238 300 345
#
# _framework density 24.793265999999999
#
# number of rings (size 3 to 8) (size 9 to 14) (size 15 to 20)
#    0.000    2.500    1.250    0.375    3.500    0.000 
#    0.000    6.875   55.000    0.000    0.000    0.000 
#    0.000    0.000    0.000    0.000    0.000    0.000 
#
# Total GULP energy -89282.728296 kJ/mol
# GULP energy per Si atom -5580.170519 kJ/mol
# Density = 2.473683 g / cm^3
# Si number density = 24.793266 Si / 1000 Ang^3
#
#
#
# Elastic Constant Matrix: (Units=GPa)
#
#
# Indices 1 2 3 4 5 6 
#
# 1 198.4395 27.9777 69.4088 8.9719 24.3339 -6.8655
# 2 27.9777 66.9992 15.2106 3.6628 -14.0311 -14.9337
# 3 69.4088 15.2106 112.3380 4.0000 35.5503 -15.4344
# 4 8.9719 3.6628 4.0000 29.9931 -14.8332 -2.1550
# 5 24.3339 -14.0311 35.5503 -14.8332 60.6263 0.4407
# 6 -6.8655 -14.9337 -15.4344 -2.1550 0.4407 30.9706
#
#
#
# Elastic Compliance Matrix: (Units=1/GPa)
#
#
# Indices 1 2 3 4 5 6 
#
# 1 0.006916 -0.002764 -0.003411 -0.002376 -0.001985 -0.001637
# 2 -0.002764 0.019883 -0.002532 0.003219 0.007927 0.007824
# 3 -0.003411 -0.002532 0.015253 -0.004973 -0.009417 0.005412
# 4 -0.002376 0.003219 -0.004973 0.041739 0.014818 0.001241
# 5 -0.001985 0.007927 -0.009417 0.014818 0.028278 -0.000682
# 6 -0.001637 0.007824 0.005412 0.001241 -0.000682 0.038491
#
#
# Mechanical properties :
#
#
# Convention : Reuss Voigt Hill
#
# Bulk Modulus (GPa) = 40.59051 66.99674 53.79363
# Shear Modulus (GPa) = 28.37874 41.99666 35.18770
#
# Velocity S-wave (km/s) = 3.38689 4.12013 3.77137
# Velocity P-wave (km/s) = 5.63043 7.05087 6.38031
#
# Compressibility (1/GPa) = 0.02463630
#
# Stress axis : x y z
#
# Youngs Moduli (GPa) = 144.58415 50.29498 65.56109
#
# Poissons Ratio (x) = 0.13903 0.22364
# Poissons Ratio (y) = 0.39968 0.16602
# Poissons Ratio (z) = 0.49320 0.12736
#
# Static dielectric constant tensor:
#      x y z
#    x 2.039820 0.040780 0.034810 
#    y 0.040780 1.953240 -0.033900 
#    z 0.034810 -0.033900 2.072150 
# 
# From -- ./inp_files/217619.got.cif
#   From: 2010.05.17/outbox.cif.g08.bks.cpg/sg2_109_cif.got.tgz:217619.got - 2010.06.03 11:33:40.
