data_PCOD9087901
_publ_section_title
;
Structure prediction by ZEFSAII (Michael W. Deem and Ramdas Pophale) SiO2 
 PCOD9087901
Probable space group: P -1
;
_chemical_formula_sum "Si O2"
_cell_formula_units_Z 16
_cell_length_a 26.045283
_cell_length_b 14.297243
_cell_length_c 11.254448
_cell_angle_alpha 31.587408
_cell_angle_beta 155.141324
_cell_angle_gamma 147.198555
_cell_volume 878.200677
_symmetry_space_group_name_H-M "P -1"
_symmetry_group_IT_number 2
_symmetry_cell_setting 'triclinic'
loop_
_space_group_symop_operation_xyz
x,y,z
-x,-y,-z
loop_
_atom_site_type_symbol
_atom_site_label
_atom_site_fract_x
_atom_site_fract_y
_atom_site_fract_z
Si Si1 0.534119 0.022603 0.687277
Si Si2 0.951004 0.271237 0.140916
Si Si3 0.082055 0.570659 0.434531
Si Si4 0.130681 0.308012 0.280210
Si Si5 0.183106 0.959699 0.669593
Si Si6 0.383971 0.570852 0.640297
Si Si7 0.946147 0.179188 0.685764
Si Si8 0.717739 0.278564 0.502107
O O1 0.558932 0.242046 0.520113
O O2 0.500000 0.000000 0.500000
O O3 0.410334 0.876886 0.643318
O O4 0.669530 0.991460 0.032897
O O5 0.909668 0.186873 0.274559
O O6 0.060931 0.222239 0.350138
O O7 0.821920 0.196025 0.872519
O O8 0.000000 0.500000 0.000000
O O9 0.050319 0.372282 0.649601
O O10 0.201252 0.598096 0.566703
O O11 0.104634 0.746932 0.381564
O O12 0.958107 0.581327 0.086640
O O13 0.270978 0.434029 0.475296
O O14 0.141136 0.145714 0.391129
O O15 0.161037 0.877585 0.580639
O O16 0.321960 0.613946 0.587039
O O17 0.500000 0.500000 0.000000
O O18 0.000000 0.000000 0.000000
#
# Coordination Sequence:
#
# PCOD9087901 Si02
#       8
#     2   2   2   2   2   2   2   2
#     4  10  19  37  56  84 121 157 190 237 296 369
#     4  11  19  34  54  87 121 150 188 245 304 364
#     4  10  23  42  65  86 122 158 201 262 299 344
#     4  11  21  34  57  92 118 154 196 242 309 368
#     4  12  21  36  62  84 121 159 198 245 301 363
#     4  11  21  34  55  87 128 158 191 235 303 372
#     4  11  23  43  62  90 116 160 211 252 300 348
#     4  10  20  38  59  86 124 155 195 242 305 359
#
# _framework density 18.219069999999999
#
# number of rings (size 3 to 8) (size 9 to 14) (size 15 to 20)
#    0.000    1.250    5.000    4.125    0.000    0.000 
#    2.250    0.625    0.000    0.750    0.000    0.000 
#    0.000    0.000    0.000    0.000    0.000    0.000 
#
# Total GULP energy -89201.999006 kJ/mol
# GULP energy per Si atom -5575.124938 kJ/mol
# Density = 1.817760 g / cm^3
# Si number density = 18.219070 Si / 1000 Ang^3
#
#
#
# Elastic Constant Matrix: (Units=GPa)
#
#
# Indices 1 2 3 4 5 6 
#
# 1 46.7210 27.8491 4.7956 4.9323 -5.1219 -5.1912
# 2 27.8491 97.0462 26.1616 4.6389 6.1588 -2.5009
# 3 4.7956 26.1616 60.2119 5.1922 4.3187 6.1371
# 4 4.9323 4.6389 5.1922 36.3653 -1.7967 -3.4437
# 5 -5.1219 6.1588 4.3187 -1.7967 22.2641 4.3223
# 6 -5.1912 -2.5009 6.1371 -3.4437 4.3223 31.8293
#
#
#
# Elastic Compliance Matrix: (Units=1/GPa)
#
#
# Indices 1 2 3 4 5 6 
#
# 1 0.027772 -0.008545 0.000877 -0.002185 0.007946 0.002374
# 2 -0.008545 0.014595 -0.005435 -0.000043 -0.005245 0.001509
# 3 0.000877 -0.005435 0.019666 -0.002703 -0.001520 -0.004162
# 4 -0.002185 -0.000043 -0.002703 0.028558 0.001753 0.003013
# 5 0.007946 -0.005245 -0.001520 0.001753 0.049675 -0.005379
# 6 0.002374 0.001509 -0.004162 0.003013 -0.005379 0.033782
#
#
# Mechanical properties :
#
#
# Convention : Reuss Voigt Hill
#
# Bulk Modulus (GPa) = 27.91056 35.73240 31.82148
# Shear Modulus (GPa) = 23.56301 27.76994 25.66647
#
# Velocity S-wave (km/s) = 3.60017 3.90837 3.75743
# Velocity P-wave (km/s) = 5.71265 6.32632 6.02730
#
# Compressibility (1/GPa) = 0.03582873
#
# Stress axis : x y z
#
# Youngs Moduli (GPa) = 36.00692 68.51455 50.84965
#
# Poissons Ratio (x) = 0.58545 -0.04461
# Poissons Ratio (y) = 0.30768 0.27636
# Poissons Ratio (z) = -0.03159 0.37237
#
# Static dielectric constant tensor:
#      x y z
#    x 1.663000 0.019520 0.030150 
#    y 0.019520 1.715840 0.036440 
#    z 0.030150 0.036440 1.738130 
# 
# From -- ./inp_files/453507.got.cif
#   From: 2010.05.17/outbox.cif.g08.bks.cpg/sg2_227_cif.got.tgz:453507.got - 2010.06.03 11:33:40.
