data_PCOD9087314
_publ_section_title
;
Structure prediction by ZEFSAII (Michael W. Deem and Ramdas Pophale) SiO2 
 PCOD9087314
Probable space group: P -1
;
_chemical_formula_sum "Si O2"
_cell_formula_units_Z 13
_cell_length_a 6.606351
_cell_length_b 12.089764
_cell_length_c 9.869105
_cell_angle_alpha 124.687079
_cell_angle_beta 78.294886
_cell_angle_gamma 80.873457
_cell_volume 596.768897
_symmetry_space_group_name_H-M "P -1"
_symmetry_group_IT_number 2
_symmetry_cell_setting 'triclinic'
loop_
_space_group_symop_operation_xyz
x,y,z
-x,-y,-z
loop_
_atom_site_type_symbol
_atom_site_label
_atom_site_fract_x
_atom_site_fract_y
_atom_site_fract_z
Si Si1 0.733989 0.952203 0.243658
Si Si2 0.157378 0.731895 0.930342
Si Si3 0.684124 0.310047 0.704704
Si Si4 0.000000 0.000000 0.500000
Si Si5 0.250719 0.484050 0.947305
Si Si6 0.124352 0.792841 0.674154
Si Si7 0.648050 0.015549 0.864580
O O1 0.489092 0.966793 0.243629
O O2 0.813035 0.982337 0.401470
O O3 0.781605 0.076623 0.234724
O O4 0.905465 0.803856 0.063718
O O5 0.269238 0.587958 0.895814
O O6 0.151792 0.714525 0.757966
O O7 0.273598 0.848815 0.029335
O O8 0.857537 0.170209 0.649873
O O9 0.429797 0.330106 0.782594
O O10 0.747993 0.301706 0.533215
O O11 0.704392 0.448776 0.871929
O O12 0.000000 0.500000 0.000000
O O13 0.868961 0.876558 0.728719
O O14 0.500000 0.000000 0.000000
#
# Coordination Sequence:
#
# PCOD9087314 Si02
#       7
#     2   2   2   1   2   2   2
#     4  10  19  36  62  99 142 169 220 280 341 414
#     4  11  21  40  66  98 138 179 229 282 345 408
#     4  10  24  46  67  97 140 174 235 296 332 419
#     4  10  20  42  68 102 130 178 226 286 348 390
#     4  11  26  49  67  91 140 194 232 274 348 417
#     4  10  21  38  65 105 139 165 230 291 340 409
#     4  11  19  36  66 106 142 178 219 285 358 405
#
# _framework density 21.78398
#
# number of rings (size 3 to 8) (size 9 to 14) (size 15 to 20)
#    0.000    1.538    4.615    0.923    0.000    5.538 
#    0.000    8.462    0.000    0.000    0.000    0.000 
#    0.000    0.000    0.000    0.000    0.000    0.000 
#
# Total GULP energy -72376.363649 kJ/mol
# GULP energy per Si atom -5567.412588 kJ/mol
# Density = 2.173440 g / cm^3
# Si number density = 21.783980 Si / 1000 Ang^3
#
#
#
# Elastic Constant Matrix: (Units=GPa)
#
#
# Indices 1 2 3 4 5 6 
#
# 1 123.7928 37.6767 46.8335 -25.5154 4.9693 -22.9426
# 2 37.6767 96.1242 31.8621 -10.3029 -1.5824 -24.4411
# 3 46.8335 31.8621 105.3409 -20.1529 -17.3445 -19.9428
# 4 -25.5154 -10.3029 -20.1529 25.7550 -5.8994 4.9294
# 5 4.9693 -1.5824 -17.3445 -5.8994 30.4067 -11.6267
# 6 -22.9426 -24.4411 -19.9428 4.9294 -11.6267 31.9370
#
#
#
# Elastic Compliance Matrix: (Units=1/GPa)
#
#
# Indices 1 2 3 4 5 6 
#
# 1 0.012143 -0.001941 -0.002352 0.008550 -0.000077 0.004422
# 2 -0.001941 0.014499 0.000452 0.003462 0.006523 0.011824
# 3 -0.002352 0.000452 0.019775 0.014978 0.020815 0.016271
# 4 0.008550 0.003462 0.014978 0.063008 0.026453 0.018050
# 5 -0.000077 0.006523 0.020815 0.026453 0.064524 0.037341
# 6 0.004422 0.011824 0.016271 0.018050 0.037341 0.064505
#
#
# Mechanical properties :
#
#
# Convention : Reuss Voigt Hill
#
# Bulk Modulus (GPa) = 25.81532 62.00028 43.90780
# Shear Modulus (GPa) = 19.30158 31.54546 25.42352
#
# Velocity S-wave (km/s) = 2.97988 3.80952 3.41995
# Velocity P-wave (km/s) = 4.86990 6.91904 5.98285
#
# Compressibility (1/GPa) = 0.03873669
#
# Stress axis : x y z
#
# Youngs Moduli (GPa) = 82.35077 68.97041 50.56911
#
# Poissons Ratio (x) = 0.13385 0.11893
# Poissons Ratio (y) = 0.15982 -0.02287
# Poissons Ratio (z) = 0.19367 -0.03119
#
# Static dielectric constant tensor:
#      x y z
#    x 1.903530 0.015570 -0.024730 
#    y 0.015570 1.827250 -0.031460 
#    z -0.024730 -0.031460 1.789220 
# 
# From -- ./inp_files/366494.got.cif
#   From: 2010.05.17/outbox.cif.g08.bks.cpg/sg2_184_cif.got.tgz:366494.got - 2010.06.03 11:33:40.
