data_PCOD9087518
_publ_section_title
;
Structure prediction by ZEFSAII (Michael W. Deem and Ramdas Pophale) SiO2 
 PCOD9087518
Probable space group: P -1
;
_chemical_formula_sum "Si O2"
_cell_formula_units_Z 14
_cell_length_a 11.921946
_cell_length_b 15.431566
_cell_length_c 8.604291
_cell_angle_alpha 135.001267
_cell_angle_beta 100.838744
_cell_angle_gamma 118.072133
_cell_volume 543.815213
_symmetry_space_group_name_H-M "P -1"
_symmetry_group_IT_number 2
_symmetry_cell_setting 'triclinic'
loop_
_space_group_symop_operation_xyz
x,y,z
-x,-y,-z
loop_
_atom_site_type_symbol
_atom_site_label
_atom_site_fract_x
_atom_site_fract_y
_atom_site_fract_z
Si Si1 0.908491 0.791075 0.616203
Si Si2 0.511534 0.317387 0.511291
Si Si3 0.761797 0.285415 0.065484
Si Si4 0.791631 0.045836 0.760243
Si Si5 0.892860 0.528151 0.085997
Si Si6 0.324069 0.566637 0.620489
Si Si7 0.238821 0.217403 0.743836
O O1 0.000786 0.755783 0.487414
O O2 0.739579 0.570178 0.417618
O O3 0.792432 0.754372 0.397532
O O4 0.000000 0.000000 0.000000
O O5 0.501783 0.300604 0.302275
O O6 0.281273 0.067872 0.230474
O O7 0.710233 0.417987 0.774575
O O8 0.581016 0.523387 0.806711
O O9 0.804018 0.384772 0.038718
O O10 0.609466 0.234460 0.060766
O O11 0.000000 0.500000 0.500000
O O12 0.679274 0.072335 0.751017
O O13 0.708251 0.874128 0.392020
O O14 0.066439 0.318068 0.159699
O O15 0.000000 0.500000 0.000000
O O16 0.000000 0.000000 0.500000
#
# Coordination Sequence:
#
# PCOD9087518 Si02
#       7
#     2   2   2   2   2   2   2
#     4  10  19  36  64  88 118 162 207 247 304 365
#     4  11  23  38  62  90 120 160 202 247 303 362
#     4   9  20  36  60  84 120 159 193 249 303 352
#     4  11  21  37  63  87 124 156 203 247 301 360
#     4  10  21  36  60  91 120 157 206 253 300 364
#     4  10  20  41  61  85 124 158 198 251 301 355
#     4  11  21  38  65  89 119 163 201 249 305 357
#
# _framework density 25.744036999999999
#
# number of rings (size 3 to 8) (size 9 to 14) (size 15 to 20)
#    0.000    1.714    2.857    2.143    2.000    1.143 
#    0.000    0.714    9.429    0.000    0.000    0.000 
#    0.000    0.000    0.000    0.000    0.000    0.000 
#
# Total GULP energy -77965.811751 kJ/mol
# GULP energy per Si atom -5568.986554 kJ/mol
# Density = 2.568544 g / cm^3
# Si number density = 25.744037 Si / 1000 Ang^3
#
#
#
# Elastic Constant Matrix: (Units=GPa)
#
#
# Indices 1 2 3 4 5 6 
#
# 1 165.5018 32.1610 77.1585 -6.5826 -69.3882 2.8553
# 2 32.1610 137.5864 27.1755 1.5054 -19.5838 17.0514
# 3 77.1585 27.1755 99.1492 -0.9253 -32.6313 17.3806
# 4 -6.5826 1.5054 -0.9253 44.0712 3.9542 -12.0436
# 5 -69.3882 -19.5838 -32.6313 3.9542 62.4463 -11.9249
# 6 2.8553 17.0514 17.3806 -12.0436 -11.9249 38.3184
#
#
#
# Elastic Compliance Matrix: (Units=1/GPa)
#
#
# Indices 1 2 3 4 5 6 
#
# 1 0.017099 -0.001147 -0.009617 0.003614 0.015193 0.009462
# 2 -0.001147 0.008175 -0.000602 -0.001489 0.000376 -0.003630
# 3 -0.009617 -0.000602 0.018402 -0.003313 -0.002821 -0.009282
# 4 0.003614 -0.001489 -0.003313 0.025948 0.002226 0.010744
# 5 0.015193 0.000376 -0.002821 0.002226 0.033520 0.011112
# 6 0.009462 -0.003630 -0.009282 0.010744 0.011112 0.038053
#
#
# Mechanical properties :
#
#
# Convention : Reuss Voigt Hill
#
# Bulk Modulus (GPa) = 47.74546 75.02527 61.38536
# Shear Modulus (GPa) = 29.25529 46.68332 37.96930
#
# Velocity S-wave (km/s) = 3.37470 4.26298 3.84458
# Velocity P-wave (km/s) = 5.81130 7.31004 6.60333
#
# Compressibility (1/GPa) = 0.02094440
#
# Stress axis : x y z
#
# Youngs Moduli (GPa) = 58.48389 122.32644 54.34112
#
# Poissons Ratio (x) = 0.14032 0.52259
# Poissons Ratio (y) = 0.06709 0.03270
# Poissons Ratio (z) = 0.56243 0.07362
#
# Static dielectric constant tensor:
#      x y z
#    x 2.279060 -0.032610 0.014060 
#    y -0.032610 1.953820 -0.013500 
#    z 0.014060 -0.013500 2.136570 
# 
# From -- ./inp_files/278506.got.cif
#   From: 2010.05.17/outbox.cif.g08.bks.cpg/sg2_140_cif.got.tgz:278506.got - 2010.06.03 11:33:40.
