data_PCOD9087810
_publ_section_title
;
Structure prediction by ZEFSAII (Michael W. Deem and Ramdas Pophale) SiO2 
 PCOD9087810
Probable space group: P -1
;
_chemical_formula_sum "Si O2"
_cell_formula_units_Z 16
_cell_length_a 7.478859
_cell_length_b 9.589370
_cell_length_c 21.054671
_cell_angle_alpha 39.093817
_cell_angle_beta 62.864905
_cell_angle_gamma 91.122501
_cell_volume 632.351141
_symmetry_space_group_name_H-M "P -1"
_symmetry_group_IT_number 2
_symmetry_cell_setting 'triclinic'
loop_
_space_group_symop_operation_xyz
x,y,z
-x,-y,-z
loop_
_atom_site_type_symbol
_atom_site_label
_atom_site_fract_x
_atom_site_fract_y
_atom_site_fract_z
Si Si1 0.078692 0.331788 0.107525
Si Si2 0.237126 0.748825 0.264416
Si Si3 0.988252 0.943791 0.155493
Si Si4 0.464018 0.317801 0.417578
Si Si5 0.676444 0.884899 0.773744
Si Si6 0.712577 0.049725 0.996602
Si Si7 0.950240 0.129265 0.520082
Si Si8 0.774928 0.315634 0.266945
O O1 0.151230 0.193916 0.197038
O O2 0.872506 0.347320 0.168689
O O3 0.371027 0.635251 0.934419
O O4 0.951837 0.136021 0.133834
O O5 0.998777 0.418576 0.392658
O O6 0.187329 0.944837 0.167211
O O7 0.225823 0.815125 0.315669
O O8 0.530051 0.874609 0.149914
O O9 0.710479 0.611171 0.309369
O O10 0.141983 0.052722 0.024335
O O11 0.209695 0.289651 0.466858
O O12 0.563488 0.334604 0.323620
O O13 0.354723 0.010114 0.573714
O O14 0.705935 0.905718 0.685626
O O15 0.944808 0.401099 0.846007
O O16 0.500000 0.000000 0.000000
O O17 0.000000 0.000000 0.500000
#
# Coordination Sequence:
#
# PCOD9087810 Si02
#       8
#     2   2   2   2   2   2   2   2
#     4  10  19  36  69  95 116 152 212 263 293 351
#     4  10  21  39  62  90 123 163 196 254 308 357
#     4   9  21  36  63  96 118 156 204 255 305 352
#     4  10  23  40  59  89 127 160 197 257 301 368
#     4  10  21  39  61  94 124 156 203 258 303 351
#     4   9  18  32  60  89 117 153 200 249 294 348
#     4  12  27  39  61  90 126 166 202 243 307 377
#     4  10  19  37  63  87 120 152 204 254 302 340
#
# _framework density 25.302399000000001
#
# number of rings (size 3 to 8) (size 9 to 14) (size 15 to 20)
#    0.000    2.000    2.500    0.375   10.500    0.500 
#    0.000    3.750    0.000    1.500    0.000    0.000 
#    0.000    0.000    0.000    0.000    0.000    0.000 
#
# Total GULP energy -89436.708474 kJ/mol
# GULP energy per Si atom -5589.794280 kJ/mol
# Density = 2.524481 g / cm^3
# Si number density = 25.302399 Si / 1000 Ang^3
#
#
#
# Elastic Constant Matrix: (Units=GPa)
#
#
# Indices 1 2 3 4 5 6 
#
# 1 48.1995 8.6406 17.8498 -0.5714 -23.8293 -0.5618
# 2 8.6406 194.3931 62.2280 15.6139 -6.2419 -5.6282
# 3 17.8498 62.2280 140.4243 15.6422 -11.7742 2.0229
# 4 -0.5714 15.6139 15.6422 42.2973 -6.2225 -5.1318
# 5 -23.8293 -6.2419 -11.7742 -6.2225 35.1521 5.9576
# 6 -0.5618 -5.6282 2.0229 -5.1318 5.9576 18.4514
#
#
#
# Elastic Compliance Matrix: (Units=1/GPa)
#
#
# Indices 1 2 3 4 5 6 
#
# 1 0.033237 -0.000429 -0.002492 0.004326 0.023259 -0.005153
# 2 -0.000429 0.006132 -0.002616 -0.001148 -0.000625 0.002027
# 3 -0.002492 -0.002616 0.009005 -0.002616 0.000886 -0.002875
# 4 0.004326 -0.001148 -0.002616 0.026603 0.005602 0.005658
# 5 0.023259 -0.000625 0.000886 0.005602 0.047666 -0.013412
# 6 -0.005153 0.002027 -0.002875 0.005658 -0.013412 0.060877
#
#
# Mechanical properties :
#
#
# Convention : Reuss Voigt Hill
#
# Bulk Modulus (GPa) = 26.81106 62.27262 44.54184
# Shear Modulus (GPa) = 24.15139 38.80006 31.47572
#
# Velocity S-wave (km/s) = 3.09287 3.92018 3.53084
# Velocity P-wave (km/s) = 4.83463 6.71976 5.85358
#
# Compressibility (1/GPa) = 0.03729804
#
# Stress axis : x y z
#
# Youngs Moduli (GPa) = 30.08660 163.08858 111.05377
#
# Poissons Ratio (x) = 0.07003 0.27675
# Poissons Ratio (y) = 0.01292 0.29056
# Poissons Ratio (z) = 0.07498 0.42670
#
# Static dielectric constant tensor:
#      x y z
#    x 2.026330 -0.005590 0.062690 
#    y -0.005590 2.059220 -0.036190 
#    z 0.062690 -0.036190 2.060300 
# 
# From -- ./inp_files/271487.got.cif
#   From: 2010.05.17/outbox.cif.g08.bks.cpg/sg2_136_cif.got.tgz:271487.got - 2010.06.03 11:33:40.
