data_PCOD9087025
_publ_section_title
;
Structure prediction by ZEFSAII (Michael W. Deem and Ramdas Pophale) SiO2 
 PCOD9087025
Probable space group: P -1
;
_chemical_formula_sum "Si O2"
_cell_formula_units_Z 16
_cell_length_a 14.079944
_cell_length_b 11.289361
_cell_length_c 20.282227
_cell_angle_alpha 152.991629
_cell_angle_beta 38.001779
_cell_angle_gamma 150.219154
_cell_volume 725.622679
_symmetry_space_group_name_H-M "P -1"
_symmetry_group_IT_number 2
_symmetry_cell_setting 'triclinic'
loop_
_space_group_symop_operation_xyz
x,y,z
-x,-y,-z
loop_
_atom_site_type_symbol
_atom_site_label
_atom_site_fract_x
_atom_site_fract_y
_atom_site_fract_z
Si Si1 0.701337 0.478687 0.072317
Si Si2 0.420400 0.714352 0.818402
Si Si3 0.644778 0.417557 0.858547
Si Si4 0.345128 0.690526 0.697582
Si Si5 0.833195 0.854270 0.571376
Si Si6 0.058192 0.450563 0.137755
Si Si7 0.564388 0.292860 0.693510
Si Si8 0.678521 0.462528 0.574552
O O1 0.729251 0.454820 0.123101
O O2 0.599200 0.652405 0.201299
O O3 0.889401 0.637647 0.003305
O O4 0.539047 0.102691 0.953138
O O5 0.341580 0.607113 0.734794
O O6 0.562309 0.615183 0.704546
O O7 0.837205 0.600957 0.886686
O O8 0.667707 0.447196 0.782370
O O9 0.531432 0.041916 0.753180
O O10 0.500000 0.500000 0.000000
O O11 0.332774 0.447672 0.530325
O O12 0.159110 0.696344 0.797841
O O13 0.856103 0.697496 0.545793
O O14 0.836683 0.162338 0.737322
O O15 0.000000 0.000000 0.500000
O O16 0.704162 0.443675 0.628656
O O17 0.452569 0.906066 0.561816
#
# Coordination Sequence:
#
# PCOD9087025 Si02
#       8
#     2   2   2   2   2   2   2   2
#     4  10  19  38  58  88 122 154 205 247 299 370
#     4  10  20  35  63  87 116 159 203 254 299 355
#     4  12  22  39  60  87 121 162 201 243 305 372
#     4  11  23  38  60  90 120 153 206 258 300 355
#     4  10  21  37  59  89 120 153 205 259 298 355
#     4  11  23  38  61  90 119 157 203 259 304 350
#     4  10  21  34  59  90 121 159 202 243 303 374
#     4  10  19  36  61  89 116 161 203 246 307 361
#
# _framework density 22.050027
#
# number of rings (size 3 to 8) (size 9 to 14) (size 15 to 20)
#    0.000    1.500    5.000    0.000    1.750    2.000 
#    0.000    0.000    0.000    3.000    0.000    0.000 
#    0.000    0.000    0.000    0.000    0.000    0.000 
#
# Total GULP energy -89325.511140 kJ/mol
# GULP energy per Si atom -5582.844446 kJ/mol
# Density = 2.199984 g / cm^3
# Si number density = 22.050027 Si / 1000 Ang^3
#
#
#
# Elastic Constant Matrix: (Units=GPa)
#
#
# Indices 1 2 3 4 5 6 
#
# 1 93.0843 28.7836 -1.6878 -13.9398 20.8115 -29.8993
# 2 28.7836 69.6582 9.1298 -12.4286 5.0135 -19.8946
# 3 -1.6878 9.1298 57.2003 1.5540 9.8567 -18.8266
# 4 -13.9398 -12.4286 1.5540 37.8926 -16.7211 6.1239
# 5 20.8115 5.0135 9.8567 -16.7211 34.3009 -12.1838
# 6 -29.8993 -19.8946 -18.8266 6.1239 -12.1838 35.5209
#
#
#
# Elastic Compliance Matrix: (Units=1/GPa)
#
#
# Indices 1 2 3 4 5 6 
#
# 1 0.018466 -0.003962 0.007369 -0.000640 -0.007852 0.014647
# 2 -0.003962 0.018997 -0.001953 0.006245 0.005782 0.007176
# 3 0.007369 -0.001953 0.024955 -0.005153 -0.008017 0.016474
# 4 -0.000640 0.006245 -0.005153 0.036737 0.019013 0.000415
# 5 -0.007852 0.005782 -0.008017 0.019013 0.046431 0.005028
# 6 0.014647 0.007176 0.016474 0.000415 0.005028 0.054885
#
#
# Mechanical properties :
#
#
# Convention : Reuss Voigt Hill
#
# Bulk Modulus (GPa) = 15.30818 32.48824 23.89821
# Shear Modulus (GPa) = 22.79576 33.79069 28.29323
#
# Velocity S-wave (km/s) = 3.21880 3.91891 3.58598
# Velocity P-wave (km/s) = 4.55760 5.93658 5.29220
#
# Compressibility (1/GPa) = 0.06532453
#
# Stress axis : x y z
#
# Youngs Moduli (GPa) = 54.15352 52.64111 40.07192
#
# Poissons Ratio (x) = 0.20857 -0.29527
# Poissons Ratio (y) = 0.21456 0.07826
# Poissons Ratio (z) = -0.39903 0.10281
#
# Static dielectric constant tensor:
#      x y z
#    x 1.817650 -0.012780 0.037540 
#    y -0.012780 1.904940 -0.004630 
#    z 0.037540 -0.004630 1.896470 
# 
# From -- ./inp_files/531225.got.cif
#   From: 2010.05.17/outbox.cif.g08.bks.cpg/sg2_266_cif.got.tgz:531225.got - 2010.06.03 11:33:40.
