data_PCOD9087833
_publ_section_title
;
Structure prediction by ZEFSAII (Michael W. Deem and Ramdas Pophale) SiO2 
 PCOD9087833
Probable space group: P -1
;
_chemical_formula_sum "Si O2"
_cell_formula_units_Z 16
_cell_length_a 11.067812
_cell_length_b 13.935817
_cell_length_c 8.645688
_cell_angle_alpha 110.317875
_cell_angle_beta 104.498088
_cell_angle_gamma 32.123087
_cell_volume 662.397067
_symmetry_space_group_name_H-M "P -1"
_symmetry_group_IT_number 2
_symmetry_cell_setting 'triclinic'
loop_
_space_group_symop_operation_xyz
x,y,z
-x,-y,-z
loop_
_atom_site_type_symbol
_atom_site_label
_atom_site_fract_x
_atom_site_fract_y
_atom_site_fract_z
Si Si1 0.826932 0.864907 0.168938
Si Si2 0.672216 0.751549 0.017416
Si Si3 0.832438 0.982802 0.945636
Si Si4 0.409460 0.952934 0.498414
Si Si5 0.052416 0.697025 0.634679
Si Si6 0.469076 0.627096 0.976448
Si Si7 0.779877 0.568099 0.234916
Si Si8 0.277949 0.488207 0.284088
O O1 0.743540 0.817076 0.032739
O O2 0.049365 0.683351 0.235131
O O3 0.633848 0.022966 0.320288
O O4 0.878435 0.923708 0.105588
O O5 0.410557 0.915932 0.089471
O O6 0.827403 0.618400 0.144629
O O7 0.690715 0.652205 0.835283
O O8 0.755584 0.147542 0.958317
O O9 0.045348 0.792689 0.811457
O O10 0.585587 0.748604 0.382178
O O11 0.500000 0.000000 0.500000
O O12 0.165448 0.118418 0.429869
O O13 0.035674 0.607803 0.689480
O O14 0.245900 0.538081 0.481469
O O15 0.665043 0.559499 0.088470
O O16 0.500000 0.500000 0.000000
O O17 0.525397 0.587926 0.789847
#
# Coordination Sequence:
#
# PCOD9087833 Si02
#       8
#     2   2   2   2   2   2   2   2
#     4  11  20  34  58  83 128 161 203 242 296 360
#     4  10  19  37  52  86 125 170 201 238 291 359
#     4  10  20  37  60  84 119 159 199 247 305 357
#     4  11  21  38  56  93 130 170 204 244 293 354
#     4  11  21  39  59  89 128 158 202 253 295 354
#     4  10  22  46  67  84 116 157 202 259 315 366
#     4  10  21  38  63  86 128 161 205 247 305 348
#     4   9  22  36  57  88 119 154 205 248 296 360
#
# _framework density 24.154696999999999
#
# number of rings (size 3 to 8) (size 9 to 14) (size 15 to 20)
#    0.000    2.000    3.750    2.250    3.500    0.500 
#    0.000    3.750    0.000    0.000    0.000    0.000 
#    0.000    0.000    0.000    0.000    0.000    0.000 
#
# Total GULP energy -89294.321841 kJ/mol
# GULP energy per Si atom -5580.895115 kJ/mol
# Density = 2.409972 g / cm^3
# Si number density = 24.154697 Si / 1000 Ang^3
#
#
#
# Elastic Constant Matrix: (Units=GPa)
#
#
# Indices 1 2 3 4 5 6 
#
# 1 49.0816 17.2050 22.5696 -0.3875 -12.9413 21.1525
# 2 17.2050 136.6807 47.0026 -8.1715 -10.1321 27.9906
# 3 22.5696 47.0026 183.5915 29.7242 -37.0257 25.8870
# 4 -0.3875 -8.1715 29.7242 39.5290 -4.7264 -8.2924
# 5 -12.9413 -10.1321 -37.0257 -4.7264 18.9828 -3.9765
# 6 21.1525 27.9906 25.8870 -8.2924 -3.9765 37.7976
#
#
#
# Elastic Compliance Matrix: (Units=1/GPa)
#
#
# Indices 1 2 3 4 5 6 
#
# 1 0.034231 -0.000020 0.005006 -0.004456 0.027658 -0.020638
# 2 -0.000020 0.009167 -0.001886 0.002381 0.000770 -0.004882
# 3 0.005006 -0.001886 0.012877 -0.009320 0.023142 -0.009834
# 4 -0.004456 0.002381 -0.009320 0.034649 -0.008421 0.013829
# 5 0.027658 0.000770 0.023142 -0.008421 0.110351 -0.022137
# 6 -0.020638 -0.004882 -0.009834 0.013829 -0.022137 0.049062
#
#
# Mechanical properties :
#
#
# Convention : Reuss Voigt Hill
#
# Bulk Modulus (GPa) = 16.00643 60.32311 38.16477
# Shear Modulus (GPa) = 18.87069 38.10031 28.48550
#
# Velocity S-wave (km/s) = 2.79810 3.97589 3.43781
# Velocity P-wave (km/s) = 4.13282 6.79005 5.62072
#
# Compressibility (1/GPa) = 0.06247489
#
# Stress axis : x y z
#
# Youngs Moduli (GPa) = 29.21334 109.09091 77.65711
#
# Poissons Ratio (x) = 0.00220 -0.38878
# Poissons Ratio (y) = 0.00059 0.14647
# Poissons Ratio (z) = -0.14625 0.20576
#
# Static dielectric constant tensor:
#      x y z
#    x 1.888650 0.030600 0.019800 
#    y 0.030600 1.937890 -0.006080 
#    z 0.019800 -0.006080 2.033690 
# 
# From -- ./inp_files/313554.got.cif
#   From: 2010.05.17/outbox.cif.g08.bks.cpg/sg2_157_cif.got.tgz:313554.got - 2010.06.03 11:33:40.
