data_PCOD9087870
_publ_section_title
;
Structure prediction by ZEFSAII (Michael W. Deem and Ramdas Pophale) SiO2 
 PCOD9087870
Probable space group: P -1
;
_chemical_formula_sum "Si O2"
_cell_formula_units_Z 16
_cell_length_a 4.975164
_cell_length_b 22.224497
_cell_length_c 11.942371
_cell_angle_alpha 135.799393
_cell_angle_beta 109.851683
_cell_angle_gamma 77.014712
_cell_volume 865.537760
_symmetry_space_group_name_H-M "P -1"
_symmetry_group_IT_number 2
_symmetry_cell_setting 'triclinic'
loop_
_space_group_symop_operation_xyz
x,y,z
-x,-y,-z
loop_
_atom_site_type_symbol
_atom_site_label
_atom_site_fract_x
_atom_site_fract_y
_atom_site_fract_z
Si Si1 0.276874 0.262135 0.555767
Si Si2 0.659166 0.099625 0.063679
Si Si3 0.109021 0.470161 0.148322
Si Si4 0.699203 0.910345 0.780316
Si Si5 0.620696 0.282135 0.200806
Si Si6 0.427244 0.631439 0.063311
Si Si7 0.011609 0.339882 0.135472
Si Si8 0.686021 0.335791 0.535224
O O1 0.364262 0.163662 0.417923
O O2 0.419854 0.310254 0.744935
O O3 0.399529 0.312713 0.531648
O O4 0.936162 0.271600 0.521007
O O5 0.596624 0.007095 0.873203
O O6 0.432325 0.115315 0.151172
O O7 0.680576 0.181544 0.095429
O O8 0.960562 0.088529 0.153444
O O9 0.193631 0.569514 0.290325
O O10 0.089974 0.436262 0.229397
O O11 0.342819 0.414959 0.043370
O O12 0.795945 0.442278 0.018870
O O13 0.849852 0.328234 0.213482
O O14 0.632095 0.325469 0.382412
O O15 0.305398 0.291024 0.117386
O O16 0.217743 0.687018 0.029178
#
# Coordination Sequence:
#
# PCOD9087870 Si02
#       8
#     2   2   2   2   2   2   2   2
#     4  12  22  38  60  85 118 144 187 235 283 343
#     4  10  20  34  59  85 118 143 171 225 287 352
#     4  10  22  42  51  85 110 152 203 225 284 315
#     4  10  19  37  55  87 119 140 175 219 295 348
#     4  12  20  37  59  84 115 142 190 231 281 338
#     4  10  22  41  57  77 109 164 193 227 275 325
#     4  10  22  39  56  77 110 160 193 225 271 328
#     4  12  25  34  58  91 112 145 188 242 291 325
#
# _framework density 18.485619
#
# number of rings (size 3 to 8) (size 9 to 14) (size 15 to 20)
#    0.750    0.500    3.750    3.000    0.000    4.000 
#    0.000    0.000    0.000    1.500    0.000    0.000 
#    0.000    0.000    0.000    0.000    0.000    0.000 
#
# Total GULP energy -89252.453255 kJ/mol
# GULP energy per Si atom -5578.278328 kJ/mol
# Density = 1.844354 g / cm^3
# Si number density = 18.485619 Si / 1000 Ang^3
#
#
#
# Elastic Constant Matrix: (Units=GPa)
#
#
# Indices 1 2 3 4 5 6 
#
# 1 76.4421 6.2042 11.8671 9.2977 -1.5212 1.1016
# 2 6.2042 27.0709 46.8365 -9.2961 -3.8555 -11.0892
# 3 11.8671 46.8365 81.0627 35.6596 -16.7023 6.1389
# 4 9.2977 -9.2961 35.6596 2.0502 3.2013 -7.0467
# 5 -1.5212 -3.8555 -16.7023 3.2013 15.6317 3.5083
# 6 1.1016 -11.0892 6.1389 -7.0467 3.5083 18.5019
#
#
#
# Elastic Compliance Matrix: (Units=1/GPa)
#
#
# Indices 1 2 3 4 5 6 
#
# 1 0.013466 0.001544 -0.002760 -0.000981 -0.001260 0.000905
# 2 0.001544 0.020167 0.004345 -0.028605 0.016400 -0.003450
# 3 -0.002760 0.004345 0.002657 0.015256 -0.001263 0.007937
# 4 -0.000981 -0.028605 0.015256 0.011844 0.011157 -0.019753
# 5 -0.001260 0.016400 -0.001263 0.011157 0.063700 0.002494
# 6 0.000905 -0.003450 0.007937 -0.019753 0.002494 0.041297
#
#
# Mechanical properties :
#
#
# Convention : Reuss Voigt Hill
#
# Bulk Modulus (GPa) = 23.50241 34.93236 29.21739
# Shear Modulus (GPa) = 31.04493 15.21462 23.12978
#
# Velocity S-wave (km/s) = 4.10251 2.87200 3.54111
# Velocity P-wave (km/s) = 5.93146 5.47137 5.70606
#
# Compressibility (1/GPa) = 0.04254882
#
# Stress axis : x y z
#
# Youngs Moduli (GPa) = 74.26033 49.58479 376.33446
#
# Poissons Ratio (x) = -0.07655 1.03878
# Poissons Ratio (y) = -0.11465 -1.63531
# Poissons Ratio (z) = 0.20498 -0.21546
#
# Static dielectric constant tensor:
#      x y z
#    x 1.653450 0.009740 0.007950 
#    y 0.009740 1.659930 0.015820 
#    z 0.007950 0.015820 1.641460 
# 
# From -- ./inp_files/370882.got.cif
#   From: 2010.05.17/outbox.cif.g08.bks.cpg/sg2_186_cif.got.tgz:370882.got - 2010.06.03 11:33:40.
