data_PCOD9087834
_publ_section_title
;
Structure prediction by ZEFSAII (Michael W. Deem and Ramdas Pophale) SiO2 
 PCOD9087834
Probable space group: P -1
;
_chemical_formula_sum "Si O2"
_cell_formula_units_Z 12
_cell_length_a 9.573589
_cell_length_b 7.713597
_cell_length_c 9.952554
_cell_angle_alpha 128.545334
_cell_angle_beta 97.926203
_cell_angle_gamma 103.349091
_cell_volume 519.543662
_symmetry_space_group_name_H-M "P -1"
_symmetry_group_IT_number 2
_symmetry_cell_setting 'triclinic'
loop_
_space_group_symop_operation_xyz
x,y,z
-x,-y,-z
loop_
_atom_site_type_symbol
_atom_site_label
_atom_site_fract_x
_atom_site_fract_y
_atom_site_fract_z
Si Si1 0.799994 0.049812 0.059912
Si Si2 0.304443 0.527548 0.037260
Si Si3 0.705281 0.787979 0.658777
Si Si4 0.006228 0.766027 0.058759
Si Si5 0.392680 0.085266 0.786149
Si Si6 0.380403 0.664220 0.423307
O O1 0.901147 0.912164 0.067736
O O2 0.698348 0.077729 0.179503
O O3 0.920036 0.265082 0.088935
O O4 0.684561 0.874076 0.848209
O O5 0.422933 0.769108 0.097660
O O6 0.351443 0.581735 0.226409
O O7 0.121799 0.454860 0.983683
O O8 0.336450 0.303919 0.874501
O O9 0.556005 0.719469 0.515305
O O10 0.724680 0.544251 0.586498
O O11 0.852815 0.023196 0.742348
O O12 0.361247 0.911203 0.570636
#
# Coordination Sequence:
#
# PCOD9087834 Si02
#       6
#     2   2   2   2   2   2
#     4   8  14  32  52  73  92 133 167 201 243 286
#     4  10  19  37  53  73 102 134 170 206 245 298
#     4   9  18  32  53  75 105 130 161 213 252 291
#     4   8  14  33  55  68 100 138 160 202 257 286
#     4  10  20  31  55  78  98 132 172 208 242 298
#     4  11  19  32  51  81 101 131 166 210 251 294
#
# _framework density 23.097193000000001
#
# number of rings (size 3 to 8) (size 9 to 14) (size 15 to 20)
#    1.000    1.667    3.333    0.500    0.000    0.667 
#    0.000    8.333    0.000    9.000    0.000    0.000 
#    0.000    0.000    0.000    0.000    0.000    0.000 
#
# Total GULP energy -66814.475548 kJ/mol
# GULP energy per Si atom -5567.872962 kJ/mol
# Density = 2.304462 g / cm^3
# Si number density = 23.097193 Si / 1000 Ang^3
#
#
#
# Elastic Constant Matrix: (Units=GPa)
#
#
# Indices 1 2 3 4 5 6 
#
# 1 80.3606 -3.2278 21.9424 -9.7409 6.4325 37.8053
# 2 -3.2278 21.2555 5.4014 -20.7956 -12.9544 37.6297
# 3 21.9424 5.4014 89.9313 13.3680 -6.4956 -14.3156
# 4 -9.7409 -20.7956 13.3680 23.6932 -0.9406 5.0322
# 5 6.4325 -12.9544 -6.4956 -0.9406 36.3189 4.8181
# 6 37.8053 37.6297 -14.3156 5.0322 4.8181 43.4072
#
#
#
# Elastic Compliance Matrix: (Units=1/GPa)
#
#
# Indices 1 2 3 4 5 6 
#
# 1 0.011051 -0.012299 -0.001180 -0.006323 -0.007005 0.002159
# 2 -0.012299 -0.002347 0.008177 -0.015382 0.000122 0.017213
# 3 -0.001180 0.008177 0.010521 0.001696 0.005502 -0.003399
# 4 -0.006323 -0.015382 0.001696 0.021180 -0.005849 0.017594
# 5 -0.007005 0.000122 0.005502 -0.005849 0.028951 0.005275
# 6 0.002159 0.017213 -0.003399 0.017594 0.005275 0.002489
#
#
# Mechanical properties :
#
#
# Convention : Reuss Voigt Hill
#
# Bulk Modulus (GPa) = 116.01084 26.64216 71.32650
# Shear Modulus (GPa) = 58.60167 31.84594 45.22381
#
# Velocity S-wave (km/s) = 5.04250 3.71722 4.42971
# Velocity P-wave (km/s) = 9.17817 5.47572 7.55719
#
# Compressibility (1/GPa) = 0.00861988
#
# Stress axis : x y z
#
# Youngs Moduli (GPa) = 90.49080 -426.01855 95.05145
#
# Poissons Ratio (x) = -5.23969 0.11217
# Poissons Ratio (y) = 1.11296 -0.77725
# Poissons Ratio (z) = 0.10679 3.48362
#
# Static dielectric constant tensor:
#      x y z
#    x 1.945150 -0.015710 0.001010 
#    y -0.015710 2.035230 0.050930 
#    z 0.001010 0.050930 1.792990 
# 
# From -- ./inp_files/236218.got.cif
#   From: 2010.05.17/outbox.cif.g08.bks.cpg/sg2_119_cif.got.tgz:236218.got - 2010.06.03 11:33:40.
