data_PCOD9087978
_publ_section_title
;
Structure prediction by ZEFSAII (Michael W. Deem and Ramdas Pophale) SiO2 
 PCOD9087978
Probable space group: P -1
;
_chemical_formula_sum "Si O2"
_cell_formula_units_Z 14
_cell_length_a 11.706758
_cell_length_b 15.822797
_cell_length_c 15.555061
_cell_angle_alpha 26.927808
_cell_angle_beta 62.845280
_cell_angle_gamma 45.411340
_cell_volume 790.581902
_symmetry_space_group_name_H-M "P -1"
_symmetry_group_IT_number 2
_symmetry_cell_setting 'triclinic'
loop_
_space_group_symop_operation_xyz
x,y,z
-x,-y,-z
loop_
_atom_site_type_symbol
_atom_site_label
_atom_site_fract_x
_atom_site_fract_y
_atom_site_fract_z
Si Si1 0.799354 0.524104 0.537484
Si Si2 0.981258 0.652613 0.551175
Si Si3 0.432596 0.855822 0.938644
Si Si4 0.359041 0.711685 0.930424
Si Si5 0.674275 0.278850 0.748354
Si Si6 0.078948 0.709789 0.105015
Si Si7 0.382054 0.293123 0.819846
O O1 0.950738 0.411186 0.514238
O O2 0.663435 0.509820 0.557534
O O3 0.889580 0.339260 0.758743
O O4 0.683325 0.832379 0.320080
O O5 0.168426 0.513487 0.663817
O O6 0.930196 0.495131 0.735259
O O7 0.804412 0.975095 0.330587
O O8 0.465335 0.710642 0.971389
O O9 0.316885 0.837277 0.056743
O O10 0.598882 0.735218 0.057146
O O11 0.500000 0.500000 0.000000
O O12 0.246631 0.653735 0.059584
O O13 0.495585 0.361502 0.695171
O O14 0.876970 0.018353 0.873636
O O15 0.500000 0.000000 0.000000
#
# Coordination Sequence:
#
# PCOD9087978 Si02
#       7
#     2   2   2   2   2   2   2
#     4  12  19  32  63  95 122 150 184 243 321 354
#     4  12  22  36  62  94 124 152 187 244 304 360
#     4  10  21  40  58  87 128 151 187 250 297 353
#     4  12  27  44  60  81 115 167 217 247 275 334
#     4  10  20  32  57  92 127 149 177 233 313 371
#     4  12  20  35  60  91 120 151 196 248 297 354
#     4  10  19  37  57  97 130 149 176 239 310 376
#
# _framework density 17.708476000000001
#
# number of rings (size 3 to 8) (size 9 to 14) (size 15 to 20)
#    0.857    0.000    8.571    1.714    0.000    1.143 
#    2.571    0.714    0.000    0.857    0.000    0.000 
#    0.000    0.000    0.000    0.000    0.000    0.000 
#
# Total GULP energy -78079.649927 kJ/mol
# GULP energy per Si atom -5577.117852 kJ/mol
# Density = 1.766817 g / cm^3
# Si number density = 17.708476 Si / 1000 Ang^3
#
#
#
# Elastic Constant Matrix: (Units=GPa)
#
#
# Indices 1 2 3 4 5 6 
#
# 1 148.8284 47.3038 51.2407 -3.0133 -1.3015 13.1830
# 2 47.3038 86.6953 38.7386 -19.3098 -2.4429 15.1199
# 3 51.2407 38.7386 64.0232 -2.7119 -7.7832 7.0365
# 4 -3.0133 -19.3098 -2.7119 16.3963 -2.3887 -6.0226
# 5 -1.3015 -2.4429 -7.7832 -2.3887 47.6317 6.1035
# 6 13.1830 15.1199 7.0365 -6.0226 6.1035 15.5163
#
#
#
# Elastic Compliance Matrix: (Units=1/GPa)
#
#
# Indices 1 2 3 4 5 6 
#
# 1 0.010030 -0.003049 -0.005953 -0.004408 -0.000518 -0.004359
# 2 -0.003049 0.024628 -0.010347 0.024019 0.001728 -0.008073
# 3 -0.005953 -0.010347 0.026901 -0.009033 0.003498 -0.001941
# 4 -0.004408 0.024019 -0.009033 0.094769 0.001757 0.020530
# 5 -0.000518 0.001728 0.003498 0.001757 0.023172 -0.011263
# 6 -0.004359 -0.008073 -0.001941 0.020530 -0.011263 0.089297
#
#
# Mechanical properties :
#
#
# Convention : Reuss Voigt Hill
#
# Bulk Modulus (GPa) = 43.74353 63.79035 53.76694
# Shear Modulus (GPa) = 15.86721 26.72646 21.29683
#
# Velocity S-wave (km/s) = 2.99661 3.88912 3.47167
# Velocity P-wave (km/s) = 6.06041 7.50118 6.81895
#
# Compressibility (1/GPa) = 0.02286052
#
# Stress axis : x y z
#
# Youngs Moduli (GPa) = 99.69822 40.60428 37.17394
#
# Poissons Ratio (x) = 0.12380 0.22131
# Poissons Ratio (y) = 0.30398 0.38463
# Poissons Ratio (z) = 0.59355 0.42012
#
# Static dielectric constant tensor:
#      x y z
#    x 1.672120 0.027500 0.015640 
#    y 0.027500 1.565770 0.040350 
#    z 0.015640 0.040350 1.630310 
# 
# From -- ./inp_files/522138.got.cif
#   From: 2010.05.17/outbox.cif.g08.bks.cpg/sg2_262_cif.got.tgz:522138.got - 2010.06.03 11:33:40.
