data_PCOD9087772
_publ_section_title
;
Structure prediction by ZEFSAII (Michael W. Deem and Ramdas Pophale) SiO2 
 PCOD9087772
Probable space group: P -1
;
_chemical_formula_sum "Si O2"
_cell_formula_units_Z 12
_cell_length_a 11.025983
_cell_length_b 7.866626
_cell_length_c 14.123137
_cell_angle_alpha 142.345731
_cell_angle_beta 141.690474
_cell_angle_gamma 56.919188
_cell_volume 454.616864
_symmetry_space_group_name_H-M "P -1"
_symmetry_group_IT_number 2
_symmetry_cell_setting 'triclinic'
loop_
_space_group_symop_operation_xyz
x,y,z
-x,-y,-z
loop_
_atom_site_type_symbol
_atom_site_label
_atom_site_fract_x
_atom_site_fract_y
_atom_site_fract_z
Si Si1 0.439587 0.148058 0.934414
Si Si2 0.282468 0.120620 0.381304
Si Si3 0.182784 0.471831 0.034041
Si Si4 0.166455 0.385722 0.614620
Si Si5 0.650109 0.445137 0.649430
Si Si6 0.856134 0.341919 0.558849
O O1 0.261099 0.305182 0.924772
O O2 0.637979 0.381005 0.133613
O O3 0.336016 0.901643 0.691958
O O4 0.500000 0.000000 0.000000
O O5 0.488334 0.783679 0.469072
O O6 0.225339 0.800734 0.170472
O O7 0.239715 0.177183 0.490966
O O8 0.172329 0.348543 0.361280
O O9 0.287002 0.334347 0.130080
O O10 0.000000 0.500000 0.000000
O O11 0.000000 0.500000 0.500000
O O12 0.043330 0.275745 0.585248
O O13 0.500000 0.500000 0.500000
O O14 0.837399 0.370523 0.673212
#
# Coordination Sequence:
#
# PCOD9087772 Si02
#       6
#     2   2   2   2   2   2
#     4  12  21  40  67 100 132 180 232 277 322 423
#     4  10  20  42  68  92 129 181 220 271 337 398
#     4  12  26  42  72 102 135 175 237 280 336 406
#     4  10  19  36  67  96 130 177 230 266 336 407
#     4  10  21  44  66  95 136 181 216 280 347 399
#     4  10  22  41  68  97 133 174 229 278 339 396
#
# _framework density 26.395852000000001
#
# number of rings (size 3 to 8) (size 9 to 14) (size 15 to 20)
#    0.000    1.333    5.000    2.500    2.333    0.000 
#    3.000    5.833    0.000    0.000    0.000    0.000 
#    0.000    0.000    0.000    0.000    0.000    0.000 
#
# Total GULP energy -66811.840943 kJ/mol
# GULP energy per Si atom -5567.653412 kJ/mol
# Density = 2.633577 g / cm^3
# Si number density = 26.395852 Si / 1000 Ang^3
#
#
#
# Elastic Constant Matrix: (Units=GPa)
#
#
# Indices 1 2 3 4 5 6 
#
# 1 244.4118 37.2351 37.9553 11.3217 1.8252 -11.7910
# 2 37.2351 81.1774 9.4260 10.5470 -12.5122 -21.1848
# 3 37.9553 9.4260 60.6683 12.2352 -15.8335 -6.9722
# 4 11.3217 10.5470 12.2352 27.2037 -8.3784 -5.9840
# 5 1.8252 -12.5122 -15.8335 -8.3784 60.6792 -5.1905
# 6 -11.7910 -21.1848 -6.9722 -5.9840 -5.1905 55.1666
#
#
#
# Elastic Compliance Matrix: (Units=1/GPa)
#
#
# Indices 1 2 3 4 5 6 
#
# 1 0.004912 -0.002169 -0.003093 -0.000345 -0.001480 -0.000351
# 2 -0.002169 0.015649 0.001198 -0.003337 0.003630 0.005677
# 3 -0.003093 0.001198 0.021166 -0.006621 0.005141 0.002240
# 4 -0.000345 -0.003337 -0.006621 0.042956 0.003767 0.002822
# 5 -0.001480 0.003630 0.005141 0.003767 0.019474 0.003968
# 6 -0.000351 0.005677 0.002240 0.002822 0.003968 0.021194
#
#
# Mechanical properties :
#
#
# Convention : Reuss Voigt Hill
#
# Bulk Modulus (GPa) = 29.76206 61.72113 45.74160
# Shear Modulus (GPa) = 34.55913 48.71932 41.63922
#
# Velocity S-wave (km/s) = 3.62230 4.30084 3.97607
# Velocity P-wave (km/s) = 5.36605 6.93518 6.20045
#
# Compressibility (1/GPa) = 0.03359983
#
# Stress axis : x y z
#
# Youngs Moduli (GPa) = 203.56934 63.90262 47.24486
#
# Poissons Ratio (x) = 0.13859 0.14613
# Poissons Ratio (y) = 0.44149 -0.05660
# Poissons Ratio (z) = 0.62967 -0.07656
#
# Static dielectric constant tensor:
#      x y z
#    x 2.763390 0.026080 1.193840 
#    y 0.026080 2.239090 -0.127970 
#    z 1.193840 -0.127970 4.078120 
# 
# From -- ./inp_files/494147.got.cif
#   From: 2010.05.17/outbox.cif.g08.bks.cpg/sg2_248_cif.got.tgz:494147.got - 2010.06.03 11:33:40.
