data_PCOD9087017
_publ_section_title
;
Structure prediction by ZEFSAII (Michael W. Deem and Ramdas Pophale) SiO2 
 PCOD9087017
Probable space group: P -1
;
_chemical_formula_sum "Si O2"
_cell_formula_units_Z 16
_cell_length_a 23.944209
_cell_length_b 18.115708
_cell_length_c 11.860259
_cell_angle_alpha 150.073556
_cell_angle_beta 149.976152
_cell_angle_gamma 19.269972
_cell_volume 810.681239
_symmetry_space_group_name_H-M "P -1"
_symmetry_group_IT_number 2
_symmetry_cell_setting 'triclinic'
loop_
_space_group_symop_operation_xyz
x,y,z
-x,-y,-z
loop_
_atom_site_type_symbol
_atom_site_label
_atom_site_fract_x
_atom_site_fract_y
_atom_site_fract_z
Si Si1 0.211473 0.576206 0.764458
Si Si2 0.841370 0.859828 0.381830
Si Si3 0.033177 0.640735 0.745973
Si Si4 0.108653 0.695297 0.190119
Si Si5 0.642282 0.589226 0.431192
Si Si6 0.714378 0.152484 0.753584
Si Si7 0.966746 0.888999 0.430659
Si Si8 0.657014 0.758261 0.890914
O O1 0.194630 0.522125 0.787562
O O2 0.350968 0.390376 0.664236
O O3 0.027776 0.710912 0.566199
O O4 0.224621 0.740890 0.014828
O O5 0.844561 0.926278 0.351972
O O6 0.705713 0.076493 0.517852
O O7 0.814968 0.712851 0.126583
O O8 0.000000 0.500000 0.500000
O O9 0.066814 0.650853 0.945978
O O10 0.862295 0.909880 0.761313
O O11 0.292341 0.445646 0.229059
O O12 0.978442 0.810018 0.221436
O O13 0.100689 0.875521 0.385864
O O14 0.473808 0.664899 0.271866
O O15 0.628891 0.748621 0.698059
O O16 0.831388 0.322331 0.445823
O O17 0.500000 0.000000 0.000000
#
# Coordination Sequence:
#
# PCOD9087017 Si02
#       8
#     2   2   2   2   2   2   2   2
#     4  10  21  36  59  91 109 156 200 236 277 345
#     4  10  19  36  61  89 112 148 204 234 283 345
#     4  11  22  35  58  84 119 157 191 233 287 348
#     4  10  20  37  59  81 119 147 193 232 293 340
#     4  10  21  37  63  88 120 149 198 240 289 339
#     4  11  20  37  63  85 120 154 192 240 284 345
#     4   9  20  37  62  88 109 150 195 247 281 333
#     4  11  22  38  62  85 114 153 191 244 292 343
#
# _framework density 19.736487
#
# number of rings (size 3 to 8) (size 9 to 14) (size 15 to 20)
#    0.000    1.750    1.250    5.625    0.000    5.500 
#    0.000    1.250    8.250    3.000    0.000    0.000 
#    0.000    0.000    0.000    0.000    0.000    0.000 
#
# Total GULP energy -89191.601566 kJ/mol
# GULP energy per Si atom -5574.475098 kJ/mol
# Density = 1.969157 g / cm^3
# Si number density = 19.736487 Si / 1000 Ang^3
#
#
#
# Elastic Constant Matrix: (Units=GPa)
#
#
# Indices 1 2 3 4 5 6 
#
# 1 -1472.5977 -787.7328-1919.5587 -492.1467 132.6091 -36.1333
# 2 -787.7328 -370.2413 -984.9299 -236.6423 75.9127 -26.4259
# 3 -1919.5587 -984.9299-2274.6071 -591.9694 175.5647 -41.2462
# 4 -492.1467 -236.6423 -591.9694 -124.7583 40.7950 -10.0308
# 5 132.6091 75.9127 175.5647 40.7950 20.1558 -2.4655
# 6 -36.1333 -26.4259 -41.2462 -10.0308 -2.4655 22.1878
#
#
#
# Elastic Compliance Matrix: (Units=1/GPa)
#
#
# Indices 1 2 3 4 5 6 
#
# 1 0.009878 -0.009608 -0.005016 0.004819 0.004898 -0.001959
# 2 -0.009608 0.034712 -0.001813 -0.022100 -0.005567 0.011715
# 3 -0.005016 -0.001813 0.006221 -0.006565 -0.001298 -0.001876
# 4 0.004819 -0.022100 -0.006565 0.049280 0.008052 -0.007504
# 5 0.004898 -0.005567 -0.001298 0.008052 0.034146 0.006367
# 6 -0.001959 0.011715 -0.001876 -0.007504 0.006367 0.049661
#
#
# Mechanical properties :
#
#
# Convention : Reuss Voigt Hill
#
# Bulk Modulus (GPa) = 55.75274 -1277.98765 -611.11746
# Shear Modulus (GPa) = 22.44654 -44.83125 -11.19236
#
# Velocity S-wave (km/s) = 3.37606 -4.77119 -2.38395
# Velocity P-wave (km/s) = 6.59598 26.06307 17.82942
#
# Compressibility (1/GPa) = 0.01793634
#
# Stress axis : x y z
#
# Youngs Moduli (GPa) = 101.23581 28.80846 160.74217
#
# Poissons Ratio (x) = 0.27679 0.80633
# Poissons Ratio (y) = 0.97265 0.29147
# Poissons Ratio (z) = 0.50783 0.05224
#
# Static dielectric constant tensor:
#      x y z
#    x 1.882970 0.125390 0.100640 
#    y 0.125390 1.871580 0.128150 
#    z 0.100640 0.128150 1.816840 
# 
# From -- ./inp_files/257019.got.cif
#   From: 2010.05.17/outbox.cif.g08.bks.cpg/sg2_129_cif.got.tgz:257019.got - 2010.06.03 11:33:40.
