data_PCOD9087858
_publ_section_title
;
Structure prediction by ZEFSAII (Michael W. Deem and Ramdas Pophale) SiO2 
 PCOD9087858
Probable space group: P -1
;
_chemical_formula_sum "Si O2"
_cell_formula_units_Z 16
_cell_length_a 16.549620
_cell_length_b 23.456360
_cell_length_c 6.471214
_cell_angle_alpha 112.539111
_cell_angle_beta 123.119583
_cell_angle_gamma 26.193799
_cell_volume 888.981646
_symmetry_space_group_name_H-M "P -1"
_symmetry_group_IT_number 2
_symmetry_cell_setting 'triclinic'
loop_
_space_group_symop_operation_xyz
x,y,z
-x,-y,-z
loop_
_atom_site_type_symbol
_atom_site_label
_atom_site_fract_x
_atom_site_fract_y
_atom_site_fract_z
Si Si1 0.482840 0.467018 0.232100
Si Si2 0.030195 0.435253 0.139208
Si Si3 0.878132 0.428383 0.628979
Si Si4 0.850481 0.312557 0.247294
Si Si5 0.939535 0.131775 0.023268
Si Si6 0.733847 0.604831 0.342729
Si Si7 0.741605 0.148172 0.084417
Si Si8 0.583396 0.303326 0.439601
O O1 0.500000 0.500000 0.500000
O O2 0.661449 0.388137 0.216592
O O3 0.531620 0.372886 0.260591
O O4 0.259462 0.599394 0.991923
O O5 0.219436 0.356049 0.428166
O O6 0.830035 0.551354 0.173799
O O7 0.000000 0.500000 0.000000
O O8 0.033552 0.367746 0.935130
O O9 0.867192 0.477399 0.477810
O O10 0.641023 0.573343 0.589787
O O11 0.920602 0.333301 0.498707
O O12 0.995342 0.170983 0.207127
O O13 0.865476 0.133867 0.122524
O O14 0.742212 0.243807 0.742382
O O15 0.123837 0.988883 0.972168
O O16 0.488767 0.728463 0.168498
O O17 0.701979 0.179369 0.319026
#
# Coordination Sequence:
#
# PCOD9087858 Si02
#       8
#     2   2   2   2   2   2   2   2
#     4  11  19  30  49  72 107 144 175 220 257 311
#     4   9  20  35  56  82 104 128 168 230 283 321
#     4  11  20  30  55  82 106 133 171 225 278 317
#     4  11  21  32  47  77 109 142 177 214 269 310
#     4  11  23  35  47  76 115 151 185 203 243 316
#     4  10  19  37  55  80 107 132 174 223 280 311
#     4  11  22  35  53  73 109 153 181 215 246 309
#     4  12  19  33  51  76 107 143 183 214 262 306
#
# _framework density 17.99812
#
# number of rings (size 3 to 8) (size 9 to 14) (size 15 to 20)
#    0.000    1.250    6.250    1.875    0.000    0.000 
#    0.000    0.000    0.000    0.750    0.000    7.875 
#    0.000    0.000    0.000    0.000    0.000    0.000 
#
# Total GULP energy -89160.103068 kJ/mol
# GULP energy per Si atom -5572.506442 kJ/mol
# Density = 1.795716 g / cm^3
# Si number density = 17.998120 Si / 1000 Ang^3
#
#
#
# Elastic Constant Matrix: (Units=GPa)
#
#
# Indices 1 2 3 4 5 6 
#
# 1 59.5591 25.0107 21.0365 12.2299 0.2370 11.5115
# 2 25.0107 70.6322 23.3039 30.8391 6.6737 18.1221
# 3 21.0365 23.3039 82.5958 26.9231 13.2657 14.3105
# 4 12.2299 30.8391 26.9231 31.0377 7.0017 5.3023
# 5 0.2370 6.6737 13.2657 7.0017 39.2461 10.6399
# 6 11.5115 18.1221 14.3105 5.3023 10.6399 24.4908
#
#
#
# Elastic Compliance Matrix: (Units=1/GPa)
#
#
# Indices 1 2 3 4 5 6 
#
# 1 0.021317 -0.005373 -0.003583 0.000208 0.003448 -0.005493
# 2 -0.005373 0.033730 0.005743 -0.033805 0.003847 -0.020141
# 3 -0.003583 0.005743 0.019534 -0.019315 -0.001650 -0.009081
# 4 0.000208 -0.033805 -0.019315 0.080505 -0.008134 0.022307
# 5 0.003448 0.003847 -0.001650 -0.008134 0.030929 -0.015180
# 6 -0.005493 -0.020141 -0.009081 0.022307 -0.015180 0.065388
#
#
# Mechanical properties :
#
#
# Convention : Reuss Voigt Hill
#
# Bulk Modulus (GPa) = 14.67277 39.05439 26.86358
# Shear Modulus (GPa) = 17.82222 28.51730 23.16976
#
# Velocity S-wave (km/s) = 3.15020 3.98485 3.59185
# Velocity P-wave (km/s) = 4.62621 6.55120 5.67098
#
# Compressibility (1/GPa) = 0.06815347
#
# Stress axis : x y z
#
# Youngs Moduli (GPa) = 46.91003 29.64730 51.19370
#
# Poissons Ratio (x) = 0.15931 0.18344
# Poissons Ratio (y) = 0.25207 -0.29400
# Poissons Ratio (z) = 0.16809 -0.17026
#
# Static dielectric constant tensor:
#      x y z
#    x 1.670230 0.052210 0.004630 
#    y 0.052210 1.701150 0.044820 
#    z 0.004630 0.044820 1.670310 
# 
# From -- ./inp_files/100657.got.cif
#   From: 2010.05.17/outbox.cif.g08.bks.cpg/sg2_51_cif.got.tgz:100657.got - 2010.06.03 11:33:40.
