data_PCOD9087283
_publ_section_title
;
Structure prediction by ZEFSAII (Michael W. Deem and Ramdas Pophale) SiO2 
 PCOD9087283
Probable space group: P -1
;
_chemical_formula_sum "Si O2"
_cell_formula_units_Z 14
_cell_length_a 7.620650
_cell_length_b 10.998452
_cell_length_c 10.608256
_cell_angle_alpha 69.910349
_cell_angle_beta 110.308721
_cell_angle_gamma 128.100538
_cell_volume 646.037039
_symmetry_space_group_name_H-M "P -1"
_symmetry_group_IT_number 2
_symmetry_cell_setting 'triclinic'
loop_
_space_group_symop_operation_xyz
x,y,z
-x,-y,-z
loop_
_atom_site_type_symbol
_atom_site_label
_atom_site_fract_x
_atom_site_fract_y
_atom_site_fract_z
Si Si1 0.208804 0.411920 0.552474
Si Si2 0.996709 0.070957 0.692978
Si Si3 0.204955 0.656688 0.061781
Si Si4 0.867757 0.149580 0.197755
Si Si5 0.170976 0.746433 0.294518
Si Si6 0.370929 0.041778 0.550832
Si Si7 0.322893 0.458473 0.281082
O O1 0.222825 0.457053 0.394701
O O2 0.448532 0.529290 0.637463
O O3 0.166328 0.238491 0.606998
O O4 0.004318 0.377641 0.602333
O O5 0.870868 0.114655 0.746644
O O6 0.813335 0.957558 0.580912
O O7 0.118163 0.990835 0.801059
O O8 0.125310 0.687198 0.162858
O O9 0.375216 0.608637 0.160926
O O10 0.270244 0.800406 0.936396
O O11 0.000000 0.500000 0.000000
O O12 0.762861 0.093291 0.330374
O O13 0.124254 0.302776 0.218348
O O14 0.425567 0.810217 0.376951
O O15 0.500000 0.000000 0.500000
#
# Coordination Sequence:
#
# PCOD9087283 Si02
#       7
#     2   2   2   2   2   2   2
#     4   9  20  38  63  91 117 152 201 249 299 339
#     4   9  20  37  62  92 117 148 198 253 294 344
#     4  10  24  41  58  82 124 167 197 234 295 364
#     4  11  21  38  61  87 123 158 198 240 295 357
#     4   9  21  39  59  91 119 151 201 249 295 348
#     4  10  19  36  62  93 120 146 194 253 302 337
#     4  10  20  38  61  88 120 160 195 239 296 357
#
# _framework density 21.670584999999999
#
# number of rings (size 3 to 8) (size 9 to 14) (size 15 to 20)
#    0.857    1.429    1.429    0.429    2.000    2.857 
#    0.000   10.000    0.000    0.000    0.000    0.000 
#    0.000    0.000    0.000    0.000    0.000    0.000 
#
# Total GULP energy -78045.025368 kJ/mol
# GULP energy per Si atom -5574.644669 kJ/mol
# Density = 2.162126 g / cm^3
# Si number density = 21.670585 Si / 1000 Ang^3
#
#
#
# Elastic Constant Matrix: (Units=GPa)
#
#
# Indices 1 2 3 4 5 6 
#
# 1 30.0749 27.7323 2.8838 -6.4684 -1.1317 0.9279
# 2 27.7323 75.1374 32.5029 5.3577 -3.6334 -6.1035
# 3 2.8838 32.5029 89.9953 -14.4925 10.4950 -14.7555
# 4 -6.4684 5.3577 -14.4925 42.5930 -10.5405 5.4956
# 5 -1.1317 -3.6334 10.4950 -10.5405 18.5890 0.0822
# 6 0.9279 -6.1035 -14.7555 5.4956 0.0822 36.4986
#
#
#
# Elastic Compliance Matrix: (Units=1/GPa)
#
#
# Indices 1 2 3 4 5 6 
#
# 1 0.063791 -0.029673 0.010481 0.018277 0.002552 -0.005104
# 2 -0.029673 0.030778 -0.012116 -0.011779 0.004359 0.002767
# 3 0.010481 -0.012116 0.017805 0.006687 -0.008008 0.003917
# 4 0.018277 -0.011779 0.006687 0.034224 0.014463 -0.004917
# 5 0.002552 0.004359 -0.008008 0.014463 0.067546 -0.004903
# 6 -0.005104 0.002767 0.003917 -0.004917 -0.004903 0.030325
#
#
# Mechanical properties :
#
#
# Convention : Reuss Voigt Hill
#
# Bulk Modulus (GPa) = 20.09747 35.71618 27.90683
# Shear Modulus (GPa) = 15.44777 28.34202 21.89490
#
# Velocity S-wave (km/s) = 2.67281 3.62035 3.18205
# Velocity P-wave (km/s) = 4.33814 5.83036 5.13871
#
# Compressibility (1/GPa) = 0.04975750
#
# Stress axis : x y z
#
# Youngs Moduli (GPa) = 15.67611 32.49115 56.16495
#
# Poissons Ratio (x) = 0.96411 -0.58869
# Poissons Ratio (y) = 0.46516 0.68052
# Poissons Ratio (z) = -0.16431 0.39368
#
# Static dielectric constant tensor:
#      x y z
#    x 1.803340 -0.043110 0.055710 
#    y -0.043110 1.871150 -0.027020 
#    z 0.055710 -0.027020 1.797530 
# 
# From -- ./inp_files/387001.got.cif
#   From: 2010.05.17/outbox.cif.g08.bks.cpg/sg2_194_cif.got.tgz:387001.got - 2010.06.03 11:33:40.
