data_PCOD9087459
_publ_section_title
;
Structure prediction by ZEFSAII (Michael W. Deem and Ramdas Pophale) SiO2 
 PCOD9087459
Probable space group: P -1
;
_chemical_formula_sum "Si O2"
_cell_formula_units_Z 16
_cell_length_a 9.090671
_cell_length_b 10.286196
_cell_length_c 11.716958
_cell_angle_alpha 87.975253
_cell_angle_beta 65.190824
_cell_angle_gamma 129.066332
_cell_volume 698.828315
_symmetry_space_group_name_H-M "P -1"
_symmetry_group_IT_number 2
_symmetry_cell_setting 'triclinic'
loop_
_space_group_symop_operation_xyz
x,y,z
-x,-y,-z
loop_
_atom_site_type_symbol
_atom_site_label
_atom_site_fract_x
_atom_site_fract_y
_atom_site_fract_z
Si Si1 0.841327 0.809073 0.815061
Si Si2 0.645569 0.832931 0.300906
Si Si3 0.015086 0.165319 0.465913
Si Si4 0.292392 0.482229 0.549851
Si Si5 0.497014 0.842853 0.871209
Si Si6 0.853295 0.783859 0.063852
Si Si7 0.871455 0.245836 0.857840
Si Si8 0.496806 0.026509 0.361914
O O1 0.878908 0.744129 0.694848
O O2 0.639892 0.793691 0.849321
O O3 0.796998 0.717255 0.954164
O O4 0.096359 0.024845 0.734440
O O5 0.435165 0.688526 0.458681
O O6 0.643142 0.716597 0.211511
O O7 0.602364 0.955705 0.273327
O O8 0.157291 0.324578 0.505377
O O9 0.767015 0.085820 0.557970
O O10 0.000000 0.000000 0.500000
O O11 0.500000 0.500000 0.500000
O O12 0.097928 0.409806 0.706377
O O13 0.686246 0.060307 0.845386
O O14 0.415322 0.815989 0.766794
O O15 0.280106 0.732688 0.029802
O O16 0.015025 0.778409 0.079355
O O17 0.000000 0.000000 0.000000
O O18 0.500000 0.000000 0.500000
#
# Coordination Sequence:
#
# PCOD9087459 Si02
#       8
#     2   2   2   2   2   2   2   2
#     4  11  21  41  69  99 130 172 223 276 328 390
#     4  11  23  41  67 100 131 175 218 272 336 385
#     4  12  24  43  66  99 131 174 226 265 337 395
#     4  12  24  43  70  97 134 177 220 274 334 396
#     4  11  21  37  62  94 130 164 224 274 316 387
#     4  10  19  36  63  95 127 166 219 271 317 386
#     4  11  21  36  61  97 125 169 219 269 326 381
#     4  12  25  39  67 101 134 168 215 284 329 383
#
# _framework density 22.895465000000002
#
# number of rings (size 3 to 8) (size 9 to 14) (size 15 to 20)
#    0.000    0.750    7.500    2.250    1.750    0.500 
#    0.000    0.625    0.000    3.000    0.000    0.000 
#    0.000    0.000    0.000    0.000    0.000    0.000 
#
# Total GULP energy -89134.357347 kJ/mol
# GULP energy per Si atom -5570.897334 kJ/mol
# Density = 2.284335 g / cm^3
# Si number density = 22.895465 Si / 1000 Ang^3
#
#
#
# Elastic Constant Matrix: (Units=GPa)
#
#
# Indices 1 2 3 4 5 6 
#
# 1 72.4823 29.7067 43.8663 9.3271 -0.9336 13.7904
# 2 29.7067 32.8582 23.9887 2.0102 2.2477 9.8416
# 3 43.8663 23.9887 187.8980 4.7431 -15.3702 19.6632
# 4 9.3271 2.0102 4.7431 35.2482 4.4924 4.3974
# 5 -0.9336 2.2477 -15.3702 4.4924 49.5102 7.9219
# 6 13.7904 9.8416 19.6632 4.3974 7.9219 18.3989
#
#
#
# Elastic Compliance Matrix: (Units=1/GPa)
#
#
# Indices 1 2 3 4 5 6 
#
# 1 0.024621 -0.018614 -0.002534 -0.004663 0.001819 -0.005458
# 2 -0.018614 0.051804 -0.001125 0.003904 -0.001340 -0.012912
# 3 -0.002534 -0.001125 0.006978 0.000186 0.003172 -0.006367
# 4 -0.004663 0.003904 0.000186 0.030266 -0.002137 -0.005105
# 5 0.001819 -0.001340 0.003172 -0.002137 0.023666 -0.013715
# 6 -0.005458 -0.012912 -0.006367 -0.005105 -0.013715 0.079278
#
#
# Mechanical properties :
#
#
# Convention : Reuss Voigt Hill
#
# Bulk Modulus (GPa) = 25.73519 54.26245 39.99882
# Shear Modulus (GPa) = 18.24078 33.67657 25.95868
#
# Velocity S-wave (km/s) = 2.82565 3.83937 3.37083
# Velocity P-wave (km/s) = 4.68086 6.58832 5.71473
#
# Compressibility (1/GPa) = 0.03885730
#
# Stress axis : x y z
#
# Youngs Moduli (GPa) = 40.61611 19.30350 143.30288
#
# Poissons Ratio (x) = 0.35931 0.36310
# Poissons Ratio (y) = 0.75602 0.16125
# Poissons Ratio (z) = 0.10291 0.02172
#
# Static dielectric constant tensor:
#      x y z
#    x 1.847060 -0.006500 0.085450 
#    y -0.006500 1.896070 0.024330 
#    z 0.085450 0.024330 1.962350 
# 
# From -- ./inp_files/392597.got.cif
#   From: 2010.05.17/outbox.cif.g08.bks.cpg/sg2_197_cif.got.tgz:392597.got - 2010.06.03 11:33:40.
