data_PCOD9087478
_publ_section_title
;
Structure prediction by ZEFSAII (Michael W. Deem and Ramdas Pophale) SiO2 
 PCOD9087478
Probable space group: P -1
;
_chemical_formula_sum "Si O2"
_cell_formula_units_Z 16
_cell_length_a 25.283332
_cell_length_b 9.546644
_cell_length_c 13.943090
_cell_angle_alpha 121.422299
_cell_angle_beta 19.038410
_cell_angle_gamma 134.556993
_cell_volume 619.568399
_symmetry_space_group_name_H-M "P -1"
_symmetry_group_IT_number 2
_symmetry_cell_setting 'triclinic'
loop_
_space_group_symop_operation_xyz
x,y,z
-x,-y,-z
loop_
_atom_site_type_symbol
_atom_site_label
_atom_site_fract_x
_atom_site_fract_y
_atom_site_fract_z
Si Si1 0.977674 0.268392 0.619277
Si Si2 0.221234 0.722085 0.862858
Si Si3 0.591840 0.096878 0.085431
Si Si4 0.352115 0.141367 0.369782
Si Si5 0.874178 0.716851 0.145413
Si Si6 0.226444 0.000261 0.814764
Si Si7 0.827301 0.854956 0.860940
Si Si8 0.381542 0.234460 0.127977
O O1 0.826125 0.006367 0.842055
O O2 0.205349 0.335681 0.213481
O O3 0.958950 0.388506 0.777330
O O4 0.858948 0.266203 0.730328
O O5 0.233130 0.543404 0.749111
O O6 0.119005 0.764289 0.972502
O O7 0.500000 0.000000 0.500000
O O8 0.545744 0.159680 0.089015
O O9 0.453588 0.101696 0.402666
O O10 0.494018 0.834523 0.154837
O O11 0.326965 0.295245 0.525920
O O12 0.376919 0.189124 0.232094
O O13 0.081891 0.862635 0.760117
O O14 0.021436 0.886990 0.048538
O O15 0.297858 0.187683 0.839665
O O16 0.107419 0.045139 0.487738
O O17 0.500000 0.500000 0.000000
#
# Coordination Sequence:
#
# PCOD9087478 Si02
#       8
#     2   2   2   2   2   2   2   2
#     4   9  19  37  56  90 128 174 209 259 328 388
#     4  11  21  35  63  99 135 170 220 278 325 391
#     4  10  21  37  63  93 130 169 215 269 331 394
#     4  10  22  42  62  94 132 177 216 272 338 393
#     4  10  22  38  65  95 133 174 222 270 333 399
#     4  10  19  36  63  98 126 169 219 278 327 376
#     4   9  19  35  60  89 130 161 214 268 325 388
#     4  11  23  38  65  98 128 166 220 283 327 383
#
# _framework density 25.824428999999999
#
# number of rings (size 3 to 8) (size 9 to 14) (size 15 to 20)
#    0.000    2.000    2.500    0.750    1.750    4.000 
#    0.000    0.625    0.000    9.750    0.000    0.000 
#    0.000    0.000    0.000    0.000    0.000    0.000 
#
# Total GULP energy -89371.962391 kJ/mol
# GULP energy per Si atom -5585.747649 kJ/mol
# Density = 2.576565 g / cm^3
# Si number density = 25.824429 Si / 1000 Ang^3
#
#
#
# Elastic Constant Matrix: (Units=GPa)
#
#
# Indices 1 2 3 4 5 6 
#
# 1 156.6059 30.6289 30.8230 -4.7221 4.9500 -28.8225
# 2 30.6289 103.9194 24.3922 30.4379 1.6735 -10.1925
# 3 30.8230 24.3922 96.2510 18.5816 6.7119 2.6249
# 4 -4.7221 30.4379 18.5816 38.9195 -0.0957 -0.0542
# 5 4.9500 1.6735 6.7119 -0.0957 42.3622 14.8184
# 6 -28.8225 -10.1925 2.6249 -0.0542 14.8184 41.1169
#
#
#
# Elastic Compliance Matrix: (Units=1/GPa)
#
#
# Indices 1 2 3 4 5 6 
#
# 1 0.008992 -0.002532 -0.003106 0.004557 -0.002867 0.006913
# 2 -0.002532 0.013916 -0.000604 -0.010902 -0.000889 0.002020
# 3 -0.003106 -0.000604 0.012826 -0.006034 -0.000636 -0.002925
# 4 0.004557 -0.010902 -0.006034 0.037656 0.000704 0.000673
# 5 -0.002867 -0.000889 -0.000636 0.000704 0.028428 -0.012434
# 6 0.006913 0.002020 -0.002925 0.000673 -0.012434 0.034337
#
#
# Mechanical properties :
#
#
# Convention : Reuss Voigt Hill
#
# Bulk Modulus (GPa) = 43.01070 58.71828 50.86449
# Shear Modulus (GPa) = 31.97121 42.54186 37.25654
#
# Velocity S-wave (km/s) = 3.52237 4.06316 3.80239
# Velocity P-wave (km/s) = 5.76489 6.69322 6.24633
#
# Compressibility (1/GPa) = 0.02325003
#
# Stress axis : x y z
#
# Youngs Moduli (GPa) = 111.20516 71.85774 77.96418
#
# Poissons Ratio (x) = 0.18192 0.24219
# Poissons Ratio (y) = 0.28153 0.04713
# Poissons Ratio (z) = 0.34545 0.04344
#
# Static dielectric constant tensor:
#      x y z
#    x 2.054470 0.043360 -0.018670 
#    y 0.043360 2.082470 -0.012040 
#    z -0.018670 -0.012040 2.137030 
# 
# From -- ./inp_files/543842.got.cif
#   From: 2010.05.17/outbox.cif.g08.bks.cpg/sg2_272_cif.got.tgz:543842.got - 2010.06.03 11:33:40.
