data_PCOD9087719
_publ_section_title
;
Structure prediction by ZEFSAII (Michael W. Deem and Ramdas Pophale) SiO2 
 PCOD9087719
Probable space group: P -1
;
_chemical_formula_sum "Si O2"
_cell_formula_units_Z 16
_cell_length_a 16.204437
_cell_length_b 8.977554
_cell_length_c 11.693973
_cell_angle_alpha 104.286853
_cell_angle_beta 61.805567
_cell_angle_gamma 151.042184
_cell_volume 668.305796
_symmetry_space_group_name_H-M "P -1"
_symmetry_group_IT_number 2
_symmetry_cell_setting 'triclinic'
loop_
_space_group_symop_operation_xyz
x,y,z
-x,-y,-z
loop_
_atom_site_type_symbol
_atom_site_label
_atom_site_fract_x
_atom_site_fract_y
_atom_site_fract_z
Si Si1 0.971882 0.775087 0.490648
Si Si2 0.781829 0.964512 0.808482
Si Si3 0.469201 0.121056 0.992055
Si Si4 0.262763 0.093237 0.556291
Si Si5 0.797409 0.818099 0.991927
Si Si6 0.783606 0.714718 0.224566
Si Si7 0.418587 0.644836 0.268433
Si Si8 0.522878 0.857999 0.494255
O O1 0.751676 0.465468 0.633810
O O2 0.002181 0.745932 0.340088
O O3 0.149616 0.959918 0.486156
O O4 0.000000 0.000000 0.500000
O O5 0.685368 0.991237 0.861549
O O6 0.656746 0.635243 0.776209
O O7 0.775473 0.927950 0.941895
O O8 0.687811 0.521601 0.939666
O O9 0.427542 0.066985 0.873337
O O10 0.500000 0.000000 0.000000
O O11 0.500000 0.500000 0.500000
O O12 0.138659 0.022153 0.708931
O O13 0.278169 0.936763 0.546353
O O14 0.699840 0.664703 0.152180
O O15 0.036197 0.134258 0.901543
O O16 0.641516 0.418160 0.350764
O O17 0.487308 0.724961 0.369266
O O18 0.500000 0.000000 0.500000
#
# Coordination Sequence:
#
# PCOD9087719 Si02
#       8
#     2   2   2   2   2   2   2   2
#     4  10  19  36  66  92 121 154 215 271 308 365
#     4  10  20  37  65  91 119 164 216 251 311 380
#     4  11  25  38  62  93 131 163 209 263 321 374
#     4  10  20  34  61  91 123 161 212 257 306 374
#     4  10  21  38  62  87 124 163 207 254 303 385
#     4  10  21  38  62  90 120 163 213 252 306 380
#     4  10  21  41  63  88 124 169 212 262 319 386
#     4  11  25  40  63  94 132 165 209 271 327 373
#
# _framework density 23.941137000000001
#
# number of rings (size 3 to 8) (size 9 to 14) (size 15 to 20)
#    0.000    1.750    0.000    7.500    8.750    0.000 
#    0.000    6.250    0.000    3.000    0.000    0.000 
#    0.000    0.000    0.000    0.000    0.000    0.000 
#
# Total GULP energy -89140.693179 kJ/mol
# GULP energy per Si atom -5571.293324 kJ/mol
# Density = 2.388665 g / cm^3
# Si number density = 23.941137 Si / 1000 Ang^3
#
#
#
# Elastic Constant Matrix: (Units=GPa)
#
#
# Indices 1 2 3 4 5 6 
#
# 1 189.2563 25.2199 70.0354 3.1903 0.8435 -23.6415
# 2 25.2199 11.2513 7.2735 1.3718 3.4792 -8.6395
# 3 70.0354 7.2735 150.2757 2.8982 8.7498 -11.9709
# 4 3.1903 1.3718 2.8982 16.6774 11.4197 0.0734
# 5 0.8435 3.4792 8.7498 11.4197 51.9562 8.6349
# 6 -23.6415 -8.6395 -11.9709 0.0734 8.6349 40.1053
#
#
#
# Elastic Compliance Matrix: (Units=1/GPa)
#
#
# Indices 1 2 3 4 5 6 
#
# 1 0.009007 -0.018544 -0.003401 -0.000895 0.001882 -0.000104
# 2 -0.018544 0.152661 0.004235 0.000510 -0.015148 0.026480
# 3 -0.003401 0.004235 0.008289 0.000202 -0.001969 0.001805
# 4 -0.000895 0.000510 0.000202 0.071124 -0.016184 0.002997
# 5 0.001882 -0.015148 -0.001969 -0.016184 0.025482 -0.008198
# 6 -0.000104 0.026480 0.001805 0.002997 -0.008198 0.032876
#
#
# Mechanical properties :
#
#
# Convention : Reuss Voigt Hill
#
# Bulk Modulus (GPa) = 7.43287 61.76010 34.59649
# Shear Modulus (GPa) = 13.16813 38.29811 25.73312
#
# Velocity S-wave (km/s) = 2.34780 4.00394 3.28205
# Velocity P-wave (km/s) = 3.23433 6.87226 5.37070
#
# Compressibility (1/GPa) = 0.13453756
#
# Stress axis : x y z
#
# Youngs Moduli (GPa) = 111.02294 6.55046 120.64283
#
# Poissons Ratio (x) = 0.12147 0.41028
# Poissons Ratio (y) = 2.05877 -0.51089
# Poissons Ratio (z) = 0.37757 -0.02774
#
# Static dielectric constant tensor:
#      x y z
#    x 1.975730 0.053500 0.024420 
#    y 0.053500 2.045320 -0.020990 
#    z 0.024420 -0.020990 2.036640 
# 
# From -- ./inp_files/447643.got.cif
#   From: 2010.05.17/outbox.cif.g08.bks.cpg/sg2_224_cif.got.tgz:447643.got - 2010.06.03 11:33:40.
