data_PCOD9087689
_publ_section_title
;
Structure prediction by ZEFSAII (Michael W. Deem and Ramdas Pophale) SiO2 
 PCOD9087689
Probable space group: P -1
;
_chemical_formula_sum "Si O2"
_cell_formula_units_Z 16
_cell_length_a 10.838887
_cell_length_b 13.826371
_cell_length_c 5.658462
_cell_angle_alpha 66.959465
_cell_angle_beta 65.301173
_cell_angle_gamma 80.733603
_cell_volume 708.953581
_symmetry_space_group_name_H-M "P -1"
_symmetry_group_IT_number 2
_symmetry_cell_setting 'triclinic'
loop_
_space_group_symop_operation_xyz
x,y,z
-x,-y,-z
loop_
_atom_site_type_symbol
_atom_site_label
_atom_site_fract_x
_atom_site_fract_y
_atom_site_fract_z
Si Si1 0.275079 0.766594 0.988890
Si Si2 0.178935 0.499644 0.743334
Si Si3 0.655390 0.310003 0.493646
Si Si4 0.105042 0.952623 0.146578
Si Si5 0.574952 0.574877 0.685102
Si Si6 0.768233 0.677777 0.746717
Si Si7 0.897234 0.844370 0.772700
Si Si8 0.996311 0.342414 0.799584
O O1 0.357348 0.738727 0.188817
O O2 0.207585 0.878014 0.998081
O O3 0.154291 0.679173 0.149760
O O4 0.337044 0.762340 0.678934
O O5 0.205665 0.619289 0.682619
O O6 0.293461 0.481597 0.469174
O O7 0.039780 0.450982 0.793133
O O8 0.226877 0.420948 0.986524
O O9 0.529002 0.385788 0.466078
O O10 0.018683 0.883817 0.468334
O O11 0.159610 0.054507 0.142886
O O12 0.000000 0.000000 0.000000
O O13 0.638854 0.671123 0.688774
O O14 0.500000 0.500000 0.000000
O O15 0.781627 0.784701 0.777176
O O16 0.903410 0.667784 0.492367
O O17 0.960318 0.755567 0.976617
#
# Coordination Sequence:
#
# PCOD9087689 Si02
#       8
#     2   2   2   2   2   2   2   2
#     4  12  26  41  61  95 141 168 205 266 329 408
#     4  10  23  39  66  89 124 172 226 267 302 380
#     4  12  27  41  61  95 136 178 209 260 334 373
#     4  11  21  37  67  91 126 167 218 263 316 397
#     4  11  22  42  67  90 122 173 234 268 297 373
#     4  10  20  37  67  92 122 160 226 276 303 365
#     4  10  19  36  65  96 122 158 217 273 320 363
#     4  10  21  39  59  97 128 167 213 259 329 381
#
# _framework density 22.568470999999999
#
# number of rings (size 3 to 8) (size 9 to 14) (size 15 to 20)
#    0.000    1.250    3.750    1.875    7.000    1.000 
#    0.000    0.000    0.000    1.500    0.000    0.000 
#    0.000    0.000    0.000    0.000    0.000    0.000 
#
# Total GULP energy -89518.799002 kJ/mol
# GULP energy per Si atom -5594.924938 kJ/mol
# Density = 2.251710 g / cm^3
# Si number density = 22.568471 Si / 1000 Ang^3
#
#
#
# Elastic Constant Matrix: (Units=GPa)
#
#
# Indices 1 2 3 4 5 6 
#
# 1 90.3623 21.3203 5.7543 0.5339 27.1734 8.7532
# 2 21.3203 144.9887 22.7661 19.7701 22.5648 13.7917
# 3 5.7543 22.7661 101.2003 6.8610 21.6704 -2.6949
# 4 0.5339 19.7701 6.8610 32.6652 1.5979 6.6625
# 5 27.1734 22.5648 21.6704 1.5979 32.4230 4.4620
# 6 8.7532 13.7917 -2.6949 6.6625 4.4620 36.7734
#
#
#
# Elastic Compliance Matrix: (Units=1/GPa)
#
#
# Indices 1 2 3 4 5 6 
#
# 1 0.015327 -0.000341 0.002068 0.000562 -0.013771 -0.001800
# 2 -0.000341 0.008569 -0.000628 -0.004449 -0.004792 -0.001791
# 3 0.002068 -0.000628 0.012174 -0.002188 -0.009627 0.002200
# 4 0.000562 -0.004449 -0.002188 0.034683 0.003106 -0.005286
# 5 -0.013771 -0.004792 -0.009627 0.003106 0.052350 -0.002545
# 6 -0.001800 -0.001791 0.002200 -0.005286 -0.002545 0.029722
#
#
# Mechanical properties :
#
#
# Convention : Reuss Voigt Hill
#
# Bulk Modulus (GPa) = 26.13197 48.47029 37.30113
# Shear Modulus (GPa) = 30.60307 39.48636 35.04471
#
# Velocity S-wave (km/s) = 3.68640 4.18739 3.94486
# Velocity P-wave (km/s) = 5.45193 6.70094 6.10844
#
# Compressibility (1/GPa) = 0.03826731
#
# Stress axis : x y z
#
# Youngs Moduli (GPa) = 65.24273 116.70465 82.14504
#
# Poissons Ratio (x) = 0.03978 -0.16986
# Poissons Ratio (y) = 0.02224 0.05160
# Poissons Ratio (z) = -0.13491 0.07331
#
# Static dielectric constant tensor:
#      x y z
#    x 1.878040 0.026810 0.016840 
#    y 0.026810 1.870610 0.050660 
#    z 0.016840 0.050660 1.869550 
# 
# From -- ./inp_files/69786.got.cif
#   From: 2010.05.17/outbox.cif.g08.bks.cpg/sg2_35_cif.got.tgz:69786.got - 2010.06.03 11:33:40.
