data_PCOD9087534
_publ_section_title
;
Structure prediction by ZEFSAII (Michael W. Deem and Ramdas Pophale) SiO2 
 PCOD9087534
Probable space group: P -1
;
_chemical_formula_sum "Si O2"
_cell_formula_units_Z 16
_cell_length_a 8.111474
_cell_length_b 6.419857
_cell_length_c 18.950914
_cell_angle_alpha 62.421364
_cell_angle_beta 49.692254
_cell_angle_gamma 70.720788
_cell_volume 666.363843
_symmetry_space_group_name_H-M "P -1"
_symmetry_group_IT_number 2
_symmetry_cell_setting 'triclinic'
loop_
_space_group_symop_operation_xyz
x,y,z
-x,-y,-z
loop_
_atom_site_type_symbol
_atom_site_label
_atom_site_fract_x
_atom_site_fract_y
_atom_site_fract_z
Si Si1 0.329092 0.394839 0.977217
Si Si2 0.185427 0.322951 0.770902
Si Si3 0.808096 0.337772 0.488801
Si Si4 0.776943 0.912148 0.656488
Si Si5 0.356006 0.738307 0.720044
Si Si6 0.069517 0.826711 0.920967
Si Si7 0.348403 0.199069 0.587748
Si Si8 0.742565 0.628381 0.839134
O O1 0.192225 0.644476 0.967779
O O2 0.570007 0.454912 0.879743
O O3 0.334181 0.317867 0.068989
O O4 0.185430 0.215552 0.002465
O O5 0.369928 0.474449 0.730078
O O6 0.252125 0.256128 0.683567
O O7 0.973243 0.493318 0.798975
O O8 0.132220 0.094231 0.866437
O O9 0.599783 0.257557 0.514436
O O10 0.771241 0.618830 0.460790
O O11 0.022547 0.250872 0.401957
O O12 0.807344 0.180124 0.583915
O O13 0.564720 0.825607 0.688903
O O14 0.749639 0.859970 0.754012
O O15 0.162806 0.753067 0.828780
O O16 0.320781 0.920450 0.636036
#
# Coordination Sequence:
#
# PCOD9087534 Si02
#       8
#     2   2   2   2   2   2   2   2
#     4  10  22  40  61  90 124 158 201 253 297 351
#     4  11  22  38  64  90 120 162 202 243 302 360
#     4   9  18  36  64  89 118 160 199 248 304 354
#     4  10  19  36  64  89 125 159 197 251 302 356
#     4  10  20  39  61  90 123 161 198 246 300 356
#     4  10  21  41  63  86 122 161 202 249 295 355
#     4   9  19  37  64  89 121 156 201 250 297 356
#     4  11  21  37  62  91 124 159 198 249 303 352
#
# _framework density 24.010907
#
# number of rings (size 3 to 8) (size 9 to 14) (size 15 to 20)
#    0.000    2.000    3.750    0.000    0.000    1.000 
#    0.000   10.000    0.000    0.000    0.000    0.000 
#    0.000    0.000    0.000    0.000    0.000    0.000 
#
# Total GULP energy -89502.789432 kJ/mol
# GULP energy per Si atom -5593.924340 kJ/mol
# Density = 2.395626 g / cm^3
# Si number density = 24.010907 Si / 1000 Ang^3
#
#
#
# Elastic Constant Matrix: (Units=GPa)
#
#
# Indices 1 2 3 4 5 6 
#
# 1 71.3509 17.6492 35.8625 -12.5011 2.8003 -14.2186
# 2 17.6492 61.5177 21.7380 -31.8509 18.3986 -5.0788
# 3 35.8625 21.7380 103.8891 -31.8815 24.8518 -11.4362
# 4 -12.5011 -31.8509 -31.8815 50.5973 -22.2260 1.5682
# 5 2.8003 18.3986 24.8518 -22.2260 44.2777 -4.9255
# 6 -14.2186 -5.0788 -11.4362 1.5682 -4.9255 29.8528
#
#
#
# Elastic Compliance Matrix: (Units=1/GPa)
#
#
# Indices 1 2 3 4 5 6 
#
# 1 0.019358 -0.004145 -0.006140 0.000207 0.004821 0.006947
# 2 -0.004145 0.025600 0.001577 0.014325 -0.003893 0.001590
# 3 -0.006140 0.001577 0.014845 0.006523 -0.005119 0.001843
# 4 0.000207 0.014325 0.006523 0.036943 0.009435 0.004651
# 5 0.004821 -0.003893 -0.005119 0.009435 0.032002 0.004458
# 6 0.006947 0.001590 0.001843 0.004651 0.004458 0.038274
#
#
# Mechanical properties :
#
#
# Convention : Reuss Voigt Hill
#
# Bulk Modulus (GPa) = 23.59304 43.02857 33.31081
# Shear Modulus (GPa) = 25.18016 35.71277 30.44647
#
# Velocity S-wave (km/s) = 3.24187 3.86081 3.56480
# Velocity P-wave (km/s) = 4.88470 6.15092 5.55401
#
# Compressibility (1/GPa) = 0.04238538
#
# Stress axis : x y z
#
# Youngs Moduli (GPa) = 51.65757 39.06253 67.36437
#
# Poissons Ratio (x) = 0.16193 0.41362
# Poissons Ratio (y) = 0.21414 -0.10621
# Poissons Ratio (z) = 0.31718 -0.06159
#
# Static dielectric constant tensor:
#      x y z
#    x 1.917970 0.009660 0.008770 
#    y 0.009660 1.928150 -0.014570 
#    z 0.008770 -0.014570 1.932380 
# 
# From -- ./inp_files/585529.got.cif
#   From: 2010.05.17/outbox.cif.g08.bks.cpg/sg2_293_cif.got.tgz:585529.got - 2010.06.03 11:33:40.
