data_PCOD9087202
_publ_section_title
;
Structure prediction by ZEFSAII (Michael W. Deem and Ramdas Pophale) SiO2 
 PCOD9087202
Probable space group: P -1
;
_chemical_formula_sum "Si O2"
_cell_formula_units_Z 16
_cell_length_a 8.939326
_cell_length_b 16.084521
_cell_length_c 30.018833
_cell_angle_alpha 18.121876
_cell_angle_beta 36.184138
_cell_angle_gamma 36.483179
_cell_volume 776.396667
_symmetry_space_group_name_H-M "P -1"
_symmetry_group_IT_number 2
_symmetry_cell_setting 'triclinic'
loop_
_space_group_symop_operation_xyz
x,y,z
-x,-y,-z
loop_
_atom_site_type_symbol
_atom_site_label
_atom_site_fract_x
_atom_site_fract_y
_atom_site_fract_z
Si Si1 0.205055 0.548072 0.889196
Si Si2 0.917425 0.550868 0.182879
Si Si3 0.787640 0.603175 0.897346
Si Si4 0.666015 0.816982 0.676495
Si Si5 0.475089 0.816000 0.556948
Si Si6 0.918283 0.405144 0.616958
Si Si7 0.522747 0.016065 0.932304
Si Si8 0.386383 0.947447 0.764149
O O1 0.422400 0.689408 0.785182
O O2 0.016571 0.700935 0.818409
O O3 0.000000 0.500000 0.000000
O O4 0.360484 0.276588 0.966655
O O5 0.692915 0.418962 0.280619
O O6 0.768525 0.849148 0.080415
O O7 0.122439 0.526140 0.106504
O O8 0.074101 0.393551 0.266293
O O9 0.557560 0.859002 0.812122
O O10 0.719074 0.335774 0.073775
O O11 0.574215 0.976900 0.662743
O O12 0.686882 0.004246 0.534415
O O13 0.759950 0.671229 0.544861
O O14 0.500000 0.000000 0.500000
O O15 0.711718 0.204243 0.770481
O O16 0.000000 0.500000 0.500000
O O17 0.162723 0.216358 0.679353
O O18 0.500000 0.000000 0.000000
#
# Coordination Sequence:
#
# PCOD9087202 Si02
#       8
#     2   2   2   2   2   2   2   2
#     4  12  22  37  62  96 127 161 213 273 315 375
#     4  10  22  40  62  90 121 169 208 257 317 381
#     4  10  19  36  62  88 127 156 212 252 313 374
#     4  11  22  38  63  90 125 163 213 258 316 375
#     4  11  24  40  64  92 126 167 210 262 316 382
#     4  11  21  39  64  95 130 169 213 258 322 393
#     4  11  22  40  63  92 127 169 212 264 320 380
#     4  10  19  37  61  93 118 172 206 252 314 380
#
# _framework density 20.608024
#
# number of rings (size 3 to 8) (size 9 to 14) (size 15 to 20)
#    0.000    1.250    5.000    1.125    1.750    0.500 
#    0.000    1.250    0.000    8.250    0.000    0.000 
#    0.000    0.000    0.000    0.000    0.000    0.000 
#
# Total GULP energy -89120.241447 kJ/mol
# GULP energy per Si atom -5570.015090 kJ/mol
# Density = 2.056112 g / cm^3
# Si number density = 20.608024 Si / 1000 Ang^3
#
#
#
# Elastic Constant Matrix: (Units=GPa)
#
#
# Indices 1 2 3 4 5 6 
#
# 1 121.0931 41.3930 29.5442 -21.2101 24.7860 -28.4802
# 2 41.3930 92.8609 9.2858 -7.0379 21.1182 -16.1439
# 3 29.5442 9.2858 52.6662 10.5799 13.9845 1.1691
# 4 -21.2101 -7.0379 10.5799 28.8625 -6.5035 13.4270
# 5 24.7860 21.1182 13.9845 -6.5035 40.2929 -5.5889
# 6 -28.4802 -16.1439 1.1691 13.4270 -5.5889 40.8434
#
#
#
# Elastic Compliance Matrix: (Units=1/GPa)
#
#
# Indices 1 2 3 4 5 6 
#
# 1 0.015658 -0.003757 -0.010101 0.011241 -0.001536 0.005817
# 2 -0.003757 0.013847 0.001575 -0.002547 -0.005503 0.002893
# 3 -0.010101 0.001575 0.030564 -0.019173 -0.008616 -0.002171
# 4 0.011241 -0.002547 -0.019173 0.055831 0.008730 -0.009779
# 5 -0.001536 -0.005503 -0.008616 0.008730 0.032856 -0.001374
# 6 0.005817 0.002893 -0.002171 -0.009779 -0.001374 0.032773
#
#
# Mechanical properties :
#
#
# Convention : Reuss Voigt Hill
#
# Bulk Modulus (GPa) = 28.16646 47.45182 37.80914
# Shear Modulus (GPa) = 22.94324 34.42623 28.68473
#
# Velocity S-wave (km/s) = 3.34026 4.09164 3.73489
# Velocity P-wave (km/s) = 5.34545 6.73780 6.08160
#
# Compressibility (1/GPa) = 0.03550321
#
# Stress axis : x y z
#
# Youngs Moduli (GPa) = 63.86441 72.21581 32.71867
#
# Poissons Ratio (x) = 0.27132 0.33048
# Poissons Ratio (y) = 0.23994 -0.05153
# Poissons Ratio (z) = 0.64508 -0.11373
#
# Static dielectric constant tensor:
#      x y z
#    x 1.715270 -0.260260 -0.106370 
#    y -0.260260 0.880860 -0.433540 
#    z -0.106370 -0.433540 1.573520 
# 
# From -- ./inp_files/390477.got.cif
#   From: 2010.05.17/outbox.cif.g08.bks.cpg/sg2_196_cif.got.tgz:390477.got - 2010.06.03 11:33:40.
