data_PCOD9087520
_publ_section_title
;
Structure prediction by ZEFSAII (Michael W. Deem and Ramdas Pophale) SiO2 
 PCOD9087520
Probable space group: P -1
;
_chemical_formula_sum "Si O2"
_cell_formula_units_Z 16
_cell_length_a 7.948424
_cell_length_b 9.920687
_cell_length_c 15.516828
_cell_angle_alpha 38.947862
_cell_angle_beta 65.699748
_cell_angle_gamma 53.567548
_cell_volume 615.748515
_symmetry_space_group_name_H-M "P -1"
_symmetry_group_IT_number 2
_symmetry_cell_setting 'triclinic'
loop_
_space_group_symop_operation_xyz
x,y,z
-x,-y,-z
loop_
_atom_site_type_symbol
_atom_site_label
_atom_site_fract_x
_atom_site_fract_y
_atom_site_fract_z
Si Si1 0.499508 0.741925 0.338341
Si Si2 0.299818 0.421669 0.991173
Si Si3 0.979750 0.987669 0.752878
Si Si4 0.383911 0.353887 0.825904
Si Si5 0.181656 0.621877 0.272930
Si Si6 0.171755 0.916974 0.577578
Si Si7 0.592556 0.883650 0.426094
Si Si8 0.647413 0.580241 0.830803
O O1 0.500000 0.500000 0.500000
O O2 0.257898 0.918972 0.275316
O O3 0.627026 0.714893 0.236468
O O4 0.591218 0.828977 0.352705
O O5 0.327558 0.271560 0.970135
O O6 0.522774 0.426724 0.946310
O O7 0.277961 0.357067 0.126589
O O8 0.107731 0.698909 0.886578
O O9 0.983947 0.142790 0.757232
O O10 0.078001 0.058469 0.615292
O O11 0.615787 0.330686 0.794238
O O12 0.232620 0.640250 0.719542
O O13 0.245708 0.374843 0.436102
O O14 0.166489 0.558190 0.208478
O O15 0.372149 0.924943 0.494267
O O16 0.000000 0.000000 0.500000
O O17 0.533959 0.169256 0.296752
#
# Coordination Sequence:
#
# PCOD9087520 Si02
#       8
#     2   2   2   2   2   2   2   2
#     4  11  16  31  55  85 108 134 164 209 277 327
#     4   9  20  38  57  72  99 146 188 215 246 303
#     4  10  18  31  56  82 102 135 175 216 259 312
#     4   8  16  29  51  76 100 134 173 204 253 318
#     4   9  18  32  54  79 105 133 172 220 261 310
#     4  10  16  27  49  78 105 130 161 207 262 313
#     4  11  20  32  54  82 108 138 169 212 270 322
#     4  10  21  39  54  70 104 150 184 209 255 309
#
# _framework density 25.984635000000001
#
# number of rings (size 3 to 8) (size 9 to 14) (size 15 to 20)
#    0.000    2.250    5.000    1.125    0.000    0.500 
#    0.000    3.750    0.000    0.000    0.000    0.000 
#    0.000    0.000    0.000    0.000    0.000    0.000 
#
# Total GULP energy -89307.900096 kJ/mol
# GULP energy per Si atom -5581.743756 kJ/mol
# Density = 2.592549 g / cm^3
# Si number density = 25.984635 Si / 1000 Ang^3
#
#
#
# Elastic Constant Matrix: (Units=GPa)
#
#
# Indices 1 2 3 4 5 6 
#
# 1 15.3029 4.1735 21.8508 7.3615 7.0027 -9.6249
# 2 4.1735 168.4747 60.1447 55.9717 15.6631 23.4595
# 3 21.8508 60.1447 106.8260 28.9437 20.0442 9.7780
# 4 7.3615 55.9717 28.9437 59.1590 14.9409 20.9608
# 5 7.0027 15.6631 20.0442 14.9409 24.2135 0.0784
# 6 -9.6249 23.4595 9.7780 20.9608 0.0784 30.3226
#
#
#
# Elastic Compliance Matrix: (Units=1/GPa)
#
#
# Indices 1 2 3 4 5 6 
#
# 1 0.259961 0.018268 -0.057453 -0.070492 0.003618 0.135629
# 2 0.018268 0.010988 -0.007636 -0.012194 0.001428 0.008185
# 3 -0.057453 -0.007636 0.025884 0.014968 -0.009007 -0.030999
# 4 -0.070492 -0.012194 0.014968 0.053588 -0.017006 -0.054768
# 5 0.003618 0.001428 -0.009007 -0.017006 0.057232 0.014556
# 6 0.135629 0.008185 -0.030999 -0.054768 0.014556 0.117514
#
#
# Mechanical properties :
#
#
# Convention : Reuss Voigt Hill
#
# Bulk Modulus (GPa) = 4.92151 51.43796 28.17973
# Shear Modulus (GPa) = 7.28289 36.36802 21.82545
#
# Velocity S-wave (km/s) = 1.67596 3.74518 2.90131
# Velocity P-wave (km/s) = 2.37555 6.20808 4.70019
#
# Compressibility (1/GPa) = 0.20318981
#
# Stress axis : x y z
#
# Youngs Moduli (GPa) = 3.84673 91.01130 38.63388
#
# Poissons Ratio (x) = -1.66256 2.21963
# Poissons Ratio (y) = -0.07027 0.29502
# Poissons Ratio (z) = 0.22101 0.69498
#
# Static dielectric constant tensor:
#      x y z
#    x 2.527410 0.023350 -0.090430 
#    y 0.023350 2.108520 0.074270 
#    z -0.090430 0.074270 2.071090 
# 
# From -- ./inp_files/186797.got.cif
#   From: 2010.05.17/outbox.cif.g08.bks.cpg/sg2_94_cif.got.tgz:186797.got - 2010.06.03 11:33:40.
