data_PCOD9087053
_publ_section_title
;
Structure prediction by ZEFSAII (Michael W. Deem and Ramdas Pophale) SiO2 
 PCOD9087053
Probable space group: P -1
;
_chemical_formula_sum "Si O2"
_cell_formula_units_Z 14
_cell_length_a 9.068312
_cell_length_b 8.381545
_cell_length_c 12.095423
_cell_angle_alpha 126.935772
_cell_angle_beta 57.589773
_cell_angle_gamma 118.622927
_cell_volume 603.350710
_symmetry_space_group_name_H-M "P -1"
_symmetry_group_IT_number 2
_symmetry_cell_setting 'triclinic'
loop_
_space_group_symop_operation_xyz
x,y,z
-x,-y,-z
loop_
_atom_site_type_symbol
_atom_site_label
_atom_site_fract_x
_atom_site_fract_y
_atom_site_fract_z
Si Si1 0.547118 0.404352 0.329949
Si Si2 0.155884 0.772677 0.806290
Si Si3 0.799954 0.889538 0.677448
Si Si4 0.683036 0.984251 0.361153
Si Si5 0.550391 0.407774 0.775725
Si Si6 0.125676 0.817710 0.431037
Si Si7 0.223011 0.190443 0.086362
O O1 0.500000 0.500000 0.500000
O O2 0.752083 0.390843 0.241554
O O3 0.412991 0.180831 0.287227
O O4 0.484872 0.522875 0.304285
O O5 0.943062 0.725051 0.859303
O O6 0.237968 0.829155 0.674750
O O7 0.217113 0.980966 0.938574
O O8 0.818463 0.878507 0.797347
O O9 0.917722 0.736625 0.515306
O O10 0.860045 0.088708 0.658416
O O11 0.624452 0.781143 0.222970
O O12 0.500000 0.000000 0.500000
O O13 0.813144 0.004837 0.423823
O O14 0.731643 0.322718 0.674081
O O15 0.598740 0.624512 0.911852
#
# Coordination Sequence:
#
# PCOD9087053 Si02
#       7
#     2   2   2   2   2   2   2
#     4  11  22  35  60  94 118 155 198 259 299 350
#     4  11  23  43  63  82 131 161 203 240 306 369
#     4  10  21  36  61  88 119 165 198 239 308 358
#     4  10  19  38  62  89 119 157 193 255 300 350
#     4  10  22  36  61  92 119 155 208 249 300 347
#     4  10  19  36  61  90 124 155 197 255 298 363
#     4  10  24  42  61  90 117 174 197 244 298 363
#
# _framework density 23.203751
#
# number of rings (size 3 to 8) (size 9 to 14) (size 15 to 20)
#    0.000    1.714    1.429    4.286    2.000    4.000 
#    0.000    1.429    0.000    3.429    0.000    0.000 
#    0.000    0.000    0.000    0.000    0.000    0.000 
#
# Total GULP energy -78069.972392 kJ/mol
# GULP energy per Si atom -5576.426599 kJ/mol
# Density = 2.315094 g / cm^3
# Si number density = 23.203751 Si / 1000 Ang^3
#
#
#
# Elastic Constant Matrix: (Units=GPa)
#
#
# Indices 1 2 3 4 5 6 
#
# 1 125.8846 15.7875 24.7559 12.3749 5.2106 -28.7437
# 2 15.7875 62.4760 7.2931 -5.5226 11.8253 -7.6295
# 3 24.7559 7.2931 43.3347 8.4800 19.3870 -6.0933
# 4 12.3749 -5.5226 8.4800 32.1484 7.3776 7.4418
# 5 5.2106 11.8253 19.3870 7.3776 35.2762 7.2771
# 6 -28.7437 -7.6295 -6.0933 7.4418 7.2771 39.4098
#
#
#
# Elastic Compliance Matrix: (Units=1/GPa)
#
#
# Indices 1 2 3 4 5 6 
#
# 1 0.011450 -0.002059 -0.004311 -0.005724 0.000873 0.008206
# 2 -0.002059 0.018741 0.001150 0.004929 -0.008238 0.002895
# 3 -0.004311 0.001150 0.036378 -0.004791 -0.020255 0.007348
# 4 -0.005724 0.004929 -0.004791 0.038801 -0.004117 -0.010528
# 5 0.000873 -0.008238 -0.020255 -0.004117 0.045385 -0.011693
# 6 0.008206 0.002895 0.007348 -0.010528 -0.011693 0.037203
#
#
# Mechanical properties :
#
#
# Convention : Reuss Voigt Hill
#
# Bulk Modulus (GPa) = 17.81615 36.37426 27.09521
# Shear Modulus (GPa) = 23.03012 33.62413 28.32712
#
# Velocity S-wave (km/s) = 3.15384 3.81081 3.49778
# Velocity P-wave (km/s) = 4.57789 5.92225 5.29293
#
# Compressibility (1/GPa) = 0.05612885
#
# Stress axis : x y z
#
# Youngs Moduli (GPa) = 87.33638 53.35972 27.48934
#
# Poissons Ratio (x) = 0.10988 0.11851
# Poissons Ratio (y) = 0.17984 -0.03162
# Poissons Ratio (z) = 0.37651 -0.06139
#
# Static dielectric constant tensor:
#      x y z
#    x 1.845360 0.028630 -0.020960 
#    y 0.028630 1.925500 0.038550 
#    z -0.020960 0.038550 1.864320 
# 
# From -- ./inp_files/175999.got.cif
#   From: 2010.05.17/outbox.cif.g08.bks.cpg/sg2_88_cif.got.tgz:175999.got - 2010.06.03 11:33:40.
