data_PCOD9087802
_publ_section_title
;
Structure prediction by ZEFSAII (Michael W. Deem and Ramdas Pophale) SiO2 
 PCOD9087802
Probable space group: P -1
;
_chemical_formula_sum "Si O2"
_cell_formula_units_Z 10
_cell_length_a 10.376574
_cell_length_b 9.952741
_cell_length_c 8.395253
_cell_angle_alpha 47.196238
_cell_angle_beta 143.757519
_cell_angle_gamma 123.986463
_cell_volume 375.957251
_symmetry_space_group_name_H-M "P -1"
_symmetry_group_IT_number 2
_symmetry_cell_setting 'triclinic'
loop_
_space_group_symop_operation_xyz
x,y,z
-x,-y,-z
loop_
_atom_site_type_symbol
_atom_site_label
_atom_site_fract_x
_atom_site_fract_y
_atom_site_fract_z
Si Si1 0.390884 0.693668 0.389483
Si Si2 0.437341 0.333144 0.908100
Si Si3 0.245029 0.168117 0.553791
Si Si4 0.247969 0.028596 0.156703
Si Si5 0.811703 0.265007 0.171443
O O1 0.377751 0.535206 0.633476
O O2 0.639690 0.759598 0.549172
O O3 0.252449 0.868364 0.157367
O O4 0.307165 0.639475 0.174014
O O5 0.410985 0.187214 0.852428
O O6 0.287622 0.236456 0.967572
O O7 0.702970 0.333232 0.172265
O O8 0.059960 0.293493 0.341447
O O9 0.187625 0.956882 0.639616
O O10 0.500000 0.000000 0.500000
O O11 0.000000 0.000000 0.000000
#
# Coordination Sequence:
#
# PCOD9087802 Si02
#       5
#     2   2   2   2   2
#     4  11  23  41  66 100 133 172 224 280 341 403
#     4  11  23  41  66 100 133 172 224 280 341 403
#     4  10  19  36  69 101 135 173 210 273 356 411
#     4  12  30  51  70  93 134 186 238 280 326 388
#     4  10  19  36  69 101 135 173 210 273 356 411
#
# _framework density 26.598769000000001
#
# number of rings (size 3 to 8) (size 9 to 14) (size 15 to 20)
#    0.000    1.200    4.000    3.600    5.600    4.800 
#    0.000    0.000    0.000    0.000    0.000    0.000 
#    0.000    0.000    0.000    0.000    0.000    0.000 
#
# Total GULP energy -55678.465267 kJ/mol
# GULP energy per Si atom -5567.846527 kJ/mol
# Density = 2.653823 g / cm^3
# Si number density = 26.598769 Si / 1000 Ang^3
#
#
#
# Elastic Constant Matrix: (Units=GPa)
#
#
# Indices 1 2 3 4 5 6 
#
# 1 179.4409 63.6943 58.5251 -17.1212 13.5575 57.6751
# 2 63.6943 76.7781 35.6427 -35.5404 -7.2143 31.6923
# 3 58.5251 35.6427 109.1630 -27.9349 4.7406 48.5047
# 4 -17.1212 -35.5404 -27.9349 42.7309 11.5435 -8.2863
# 5 13.5575 -7.2143 4.7406 11.5435 34.9358 -4.8525
# 6 57.6751 31.6923 48.5047 -8.2863 -4.8525 54.0410
#
#
#
# Elastic Compliance Matrix: (Units=1/GPa)
#
#
# Indices 1 2 3 4 5 6 
#
# 1 0.011181 -0.006743 0.000240 -0.000891 -0.006711 -0.008934
# 2 -0.006743 0.034203 0.005783 0.027370 -0.002100 -0.014045
# 3 0.000240 0.005783 0.021614 0.017791 -0.010665 -0.021277
# 4 -0.000891 0.027370 0.017791 0.057906 -0.018867 -0.023884
# 5 -0.006711 -0.002100 -0.010665 -0.018867 0.041082 0.018762
# 6 -0.008934 -0.014045 -0.021277 -0.023884 0.018762 0.053395
#
#
# Mechanical properties :
#
#
# Convention : Reuss Voigt Hill
#
# Bulk Modulus (GPa) = 15.25344 75.67848 45.46596
# Shear Modulus (GPa) = 20.60387 40.17619 30.39003
#
# Velocity S-wave (km/s) = 2.78621 3.89067 3.38381
# Velocity P-wave (km/s) = 4.01220 6.97830 5.69186
#
# Compressibility (1/GPa) = 0.06555899
#
# Stress axis : x y z
#
# Youngs Moduli (GPa) = 89.43432 29.23705 46.26727
#
# Poissons Ratio (x) = 0.19713 -0.01110
# Poissons Ratio (y) = 0.60301 -0.26757
# Poissons Ratio (z) = -0.02145 -0.16908
#
# Static dielectric constant tensor:
#      x y z
#    x 2.254270 0.101710 0.062770 
#    y 0.101710 2.298080 0.224430 
#    z 0.062770 0.224430 2.231580 
# 
# From -- ./inp_files/160661.got.cif
#   From: 2010.05.17/outbox.cif.g08.bks.cpg/sg2_81_cif.got.tgz:160661.got - 2010.06.03 11:33:40.
