data_PCOD9087935
_publ_section_title
;
Structure prediction by ZEFSAII (Michael W. Deem and Ramdas Pophale) SiO2 
 PCOD9087935
Probable space group: P -1
;
_chemical_formula_sum "Si O2"
_cell_formula_units_Z 16
_cell_length_a 10.372812
_cell_length_b 5.287671
_cell_length_c 34.771525
_cell_angle_alpha 108.532288
_cell_angle_beta 29.747670
_cell_angle_gamma 120.484207
_cell_volume 781.240704
_symmetry_space_group_name_H-M "P -1"
_symmetry_group_IT_number 2
_symmetry_cell_setting 'triclinic'
loop_
_space_group_symop_operation_xyz
x,y,z
-x,-y,-z
loop_
_atom_site_type_symbol
_atom_site_label
_atom_site_fract_x
_atom_site_fract_y
_atom_site_fract_z
Si Si1 0.780612 0.680036 0.964749
Si Si2 0.283967 0.130000 0.382890
Si Si3 0.264237 0.937106 0.591976
Si Si4 0.144139 0.310975 0.588800
Si Si5 0.515444 0.180141 0.621016
Si Si6 0.257040 0.726358 0.972460
Si Si7 0.082968 0.027303 0.186460
Si Si8 0.115571 0.660579 0.809880
O O1 0.767854 0.450512 0.989868
O O2 0.071656 0.782159 0.867680
O O3 0.767752 0.970572 0.998941
O O4 0.500000 0.500000 0.000000
O O5 0.303481 0.452991 0.402904
O O6 0.555446 0.202104 0.286496
O O7 0.335852 0.980170 0.400352
O O8 0.997528 0.891287 0.421945
O O9 0.055973 0.572697 0.630560
O O10 0.500000 0.000000 0.500000
O O11 0.086367 0.104337 0.631345
O O12 0.452103 0.079088 0.588531
O O13 0.500000 0.500000 0.500000
O O14 0.184988 0.060780 0.718621
O O15 0.585610 0.823341 0.875724
O O16 0.000000 0.500000 0.000000
O O17 0.059318 0.250019 0.172021
O O18 0.016267 0.703511 0.169808
#
# Coordination Sequence:
#
# PCOD9087935 Si02
#       8
#     2   2   2   2   2   2   2   2
#     4  12  21  38  63  81 113 161 201 236 291 345
#     4  10  21  39  61  88 117 148 201 244 277 346
#     4  10  21  40  60  86 121 152 184 234 294 351
#     4  10  21  40  60  85 123 151 177 240 298 340
#     4  10  21  38  63  84 114 156 201 233 288 341
#     4  12  24  38  55  86 125 149 196 246 293 342
#     4  10  19  37  57  83 115 154 190 247 288 338
#     4  10  20  35  61  86 108 151 205 244 278 335
#
# _framework density 20.480246000000001
#
# number of rings (size 3 to 8) (size 9 to 14) (size 15 to 20)
#    0.000    1.500    2.500    3.000    0.000    0.000 
#    4.500   15.000    0.000    0.000    0.000    0.000 
#    0.000    0.000    0.000    0.000    0.000    0.000 
#
# Total GULP energy -89391.206722 kJ/mol
# GULP energy per Si atom -5586.950420 kJ/mol
# Density = 2.043363 g / cm^3
# Si number density = 20.480246 Si / 1000 Ang^3
#
#
#
# Elastic Constant Matrix: (Units=GPa)
#
#
# Indices 1 2 3 4 5 6 
#
# 1 106.8500 49.2335 10.4460 -11.3822 11.7222 1.0554
# 2 49.2335 123.2601 7.1118 -11.2830 5.3961 -5.5267
# 3 10.4460 7.1118 46.5663 -1.1681 -1.7430 10.2511
# 4 -11.3822 -11.2830 -1.1681 13.9224 -0.7279 -2.2699
# 5 11.7222 5.3961 -1.7430 -0.7279 18.8190 -2.0205
# 6 1.0554 -5.5267 10.2511 -2.2699 -2.0205 53.7576
#
#
#
# Elastic Compliance Matrix: (Units=1/GPa)
#
#
# Indices 1 2 3 4 5 6 
#
# 1 0.012957 -0.004143 -0.002317 0.006648 -0.006864 -0.000216
# 2 -0.004143 0.010365 -0.000864 0.005184 -0.000107 0.001527
# 3 -0.002317 -0.000864 0.023187 -0.001191 0.003321 -0.004390
# 4 0.006648 0.005184 -0.001191 0.081905 -0.002139 0.004007
# 5 -0.006864 -0.000107 0.003321 -0.002139 0.057838 0.001574
# 6 -0.000216 0.001527 -0.004390 0.004007 0.001574 0.019829
#
#
# Mechanical properties :
#
#
# Convention : Reuss Voigt Hill
#
# Bulk Modulus (GPa) = 31.38347 45.58432 38.48389
# Shear Modulus (GPa) = 21.61241 31.29213 26.45227
#
# Velocity S-wave (km/s) = 3.25203 3.91310 3.59778
# Velocity P-wave (km/s) = 5.42752 6.53624 6.00752
#
# Compressibility (1/GPa) = 0.03186391
#
# Stress axis : x y z
#
# Youngs Moduli (GPa) = 77.17546 96.47750 43.12708
#
# Poissons Ratio (x) = 0.39967 0.09991
# Poissons Ratio (y) = 0.31971 0.03725
# Poissons Ratio (z) = 0.17879 0.08333
#
# Static dielectric constant tensor:
#      x y z
#    x 1.745730 -0.085080 -0.022440 
#    y -0.085080 1.784070 0.016280 
#    z -0.022440 0.016280 1.753070 
# 
# From -- ./inp_files/605683.got.cif
#   From: 2010.05.17/outbox.cif.g08.bks.cpg/sg2_303_cif.got.tgz:605683.got - 2010.06.03 11:33:40.
