data_PCOD9087777
_publ_section_title
;
Structure prediction by ZEFSAII (Michael W. Deem and Ramdas Pophale) SiO2 
 PCOD9087777
Probable space group: P -1
;
_chemical_formula_sum "Si O2"
_cell_formula_units_Z 16
_cell_length_a 8.268392
_cell_length_b 16.441568
_cell_length_c 11.626297
_cell_angle_alpha 66.282699
_cell_angle_beta 98.131637
_cell_angle_gamma 43.884327
_cell_volume 735.808524
_symmetry_space_group_name_H-M "P -1"
_symmetry_group_IT_number 2
_symmetry_cell_setting 'triclinic'
loop_
_space_group_symop_operation_xyz
x,y,z
-x,-y,-z
loop_
_atom_site_type_symbol
_atom_site_label
_atom_site_fract_x
_atom_site_fract_y
_atom_site_fract_z
Si Si1 0.993595 0.304506 0.746923
Si Si2 0.318380 0.718602 0.386081
Si Si3 0.077753 0.712977 0.002058
Si Si4 0.827575 0.158384 0.456595
Si Si5 0.665313 0.557055 0.139929
Si Si6 0.705545 0.579412 0.890690
Si Si7 0.126736 0.180414 0.332777
Si Si8 0.297658 0.336505 0.702286
O O1 0.264060 0.245821 0.761513
O O2 0.652110 0.518083 0.581073
O O3 0.904438 0.256450 0.697496
O O4 0.092093 0.231876 0.927655
O O5 0.144185 0.844636 0.404299
O O6 0.410667 0.750070 0.283074
O O7 0.377621 0.632237 0.115984
O O8 0.214843 0.556887 0.057720
O O9 0.907586 0.824866 0.804565
O O10 0.466206 0.304620 0.303778
O O11 0.938445 0.196462 0.381985
O O12 0.000000 0.000000 0.500000
O O13 0.744428 0.596457 0.216205
O O14 0.956833 0.354138 0.251287
O O15 0.523232 0.660943 0.946858
O O16 0.000000 0.500000 0.000000
O O17 0.500000 0.000000 0.500000
O O18 0.000000 0.500000 0.500000
#
# Coordination Sequence:
#
# PCOD9087777 Si02
#       8
#     2   2   2   2   2   2   2   2
#     4  10  19  36  67  99 126 166 219 274 323 381
#     4  10  21  39  61  96 136 168 211 276 327 376
#     4  11  19  41  68  92 129 170 220 280 329 378
#     4  12  26  43  61  94 138 176 210 266 338 396
#     4  11  20  40  66  93 130 164 220 281 326 376
#     4  11  22  36  61  95 126 167 221 269 315 391
#     4  11  25  41  63  95 132 176 216 272 338 398
#     4  10  22  33  63 104 126 162 218 280 322 383
#
# _framework density 21.744788
#
# number of rings (size 3 to 8) (size 9 to 14) (size 15 to 20)
#    0.000    1.250    5.000    1.500    8.750    0.000 
#    0.000    0.000    0.000    5.250    0.000    0.000 
#    0.000    0.000    0.000    0.000    0.000    0.000 
#
# Total GULP energy -89198.836769 kJ/mol
# GULP energy per Si atom -5574.927298 kJ/mol
# Density = 2.169530 g / cm^3
# Si number density = 21.744788 Si / 1000 Ang^3
#
#
#
# Elastic Constant Matrix: (Units=GPa)
#
#
# Indices 1 2 3 4 5 6 
#
# 1 149.8246 48.9287 24.4184 21.1715 10.8096 -4.8183
# 2 48.9287 104.9162 32.4843 41.8819 -2.3940 7.7875
# 3 24.4184 32.4843 62.7626 20.2800 17.6051 1.3016
# 4 21.1715 41.8819 20.2800 34.3227 -0.6479 5.5073
# 5 10.8096 -2.3940 17.6051 -0.6479 27.6212 14.4448
# 6 -4.8183 7.7875 1.3016 5.5073 14.4448 22.6332
#
#
#
# Elastic Compliance Matrix: (Units=1/GPa)
#
#
# Indices 1 2 3 4 5 6 
#
# 1 0.009930 -0.005584 0.004224 -0.004352 -0.014562 0.014145
# 2 -0.005584 0.023191 -0.009334 -0.016375 0.018297 -0.016324
# 3 0.004224 -0.009334 0.037790 -0.020217 -0.045942 0.036178
# 4 -0.004352 -0.016375 -0.020217 0.069247 0.030824 -0.030651
# 5 -0.014562 0.018297 -0.045942 0.030824 0.121500 -0.091796
# 6 0.014145 -0.016324 0.036178 -0.030651 -0.091796 0.116774
#
#
# Mechanical properties :
#
#
# Convention : Reuss Voigt Hill
#
# Bulk Modulus (GPa) = 20.19189 58.79625 39.49407
# Shear Modulus (GPa) = 12.00980 31.02689 21.51834
#
# Velocity S-wave (km/s) = 2.35267 3.78149 3.14918
# Velocity P-wave (km/s) = 4.08486 6.79442 5.60581
#
# Compressibility (1/GPa) = 0.04952483
#
# Stress axis : x y z
#
# Youngs Moduli (GPa) = 100.70532 43.11951 26.46228
#
# Poissons Ratio (x) = 0.24076 -0.11178
# Poissons Ratio (y) = 0.56230 0.24699
# Poissons Ratio (z) = -0.42539 0.40246
#
# Static dielectric constant tensor:
#      x y z
#    x 1.911240 -0.070220 -0.103560 
#    y -0.070220 1.852530 -0.029300 
#    z -0.103560 -0.029300 2.040300 
# 
# From -- ./inp_files/402057.got.cif
#   From: 2010.05.17/outbox.cif.g08.bks.cpg/sg2_202_cif.got.tgz:402057.got - 2010.06.03 11:33:40.
