data_PCOD9087818
_publ_section_title
;
Structure prediction by ZEFSAII (Michael W. Deem and Ramdas Pophale) SiO2 
 PCOD9087818
Probable space group: P -1
;
_chemical_formula_sum "Si O2"
_cell_formula_units_Z 14
_cell_length_a 7.490454
_cell_length_b 12.793250
_cell_length_c 6.966778
_cell_angle_alpha 89.104866
_cell_angle_beta 125.084380
_cell_angle_gamma 76.732505
_cell_volume 522.523946
_symmetry_space_group_name_H-M "P -1"
_symmetry_group_IT_number 2
_symmetry_cell_setting 'triclinic'
loop_
_space_group_symop_operation_xyz
x,y,z
-x,-y,-z
loop_
_atom_site_type_symbol
_atom_site_label
_atom_site_fract_x
_atom_site_fract_y
_atom_site_fract_z
Si Si1 0.886211 0.221319 0.937483
Si Si2 0.466388 0.265259 0.420908
Si Si3 0.086722 0.302063 0.685791
Si Si4 0.596766 0.590631 0.960191
Si Si5 0.963996 0.392641 0.239390
Si Si6 0.807397 0.938320 0.353543
Si Si7 0.662278 0.937045 0.821861
O O1 0.658859 0.211889 0.696901
O O2 0.989508 0.281985 0.831841
O O3 0.841881 0.306164 0.080809
O O4 0.079983 0.107418 0.107911
O O5 0.421174 0.169280 0.269044
O O6 0.229879 0.337245 0.362555
O O7 0.527472 0.348036 0.305335
O O8 0.333709 0.320583 0.868361
O O9 0.097048 0.191782 0.579383
O O10 0.945498 0.396829 0.457649
O O11 0.850241 0.509723 0.073744
O O12 0.500000 0.500000 0.000000
O O13 0.585638 0.972375 0.355637
O O14 0.725594 0.957592 0.080149
O O15 0.000000 0.000000 0.500000
#
# Coordination Sequence:
#
# PCOD9087818 Si02
#       7
#     2   2   2   2   2   2   2
#     4  10  22  42  67  96 136 176 224 269 338 389
#     4  11  22  43  69  94 140 178 222 279 333 398
#     4  11  23  46  65 100 139 171 223 284 322 408
#     4  12  25  43  68 100 134 183 225 273 336 395
#     4  11  25  43  67  99 136 175 228 276 331 401
#     4  10  19  36  70 101 130 175 221 272 346 391
#     4   9  18  37  63  97 132 166 221 271 326 398
#
# _framework density 26.793028
#
# number of rings (size 3 to 8) (size 9 to 14) (size 15 to 20)
#    0.000    1.429    4.286    3.429    2.000    0.571 
#    0.000    2.857    0.000   11.143    0.000    0.000 
#    0.000    0.000    0.000    0.000    0.000    0.000 
#
# Total GULP energy -78208.278545 kJ/mol
# GULP energy per Si atom -5586.305610 kJ/mol
# Density = 2.673205 g / cm^3
# Si number density = 26.793028 Si / 1000 Ang^3
#
#
#
# Elastic Constant Matrix: (Units=GPa)
#
#
# Indices 1 2 3 4 5 6 
#
# 1 85.5291 27.5585 20.8858 13.2722 12.4403 24.6051
# 2 27.5585 103.2864 34.5621 11.1062 18.4586 12.4724
# 3 20.8858 34.5621 157.5569 5.2307 28.7804 6.0738
# 4 13.2722 11.1062 5.2307 46.0236 -0.6051 8.6189
# 5 12.4403 18.4586 28.7804 -0.6051 42.4602 -1.5433
# 6 24.6051 12.4724 6.0738 8.6189 -1.5433 39.4708
#
#
#
# Elastic Compliance Matrix: (Units=1/GPa)
#
#
# Indices 1 2 3 4 5 6 
#
# 1 0.015957 -0.002074 -0.000554 -0.002436 -0.003753 -0.008822
# 2 -0.002074 0.011814 -0.001527 -0.001759 -0.003589 -0.001961
# 3 -0.000554 -0.001527 0.007573 -0.000307 -0.004327 -0.000440
# 4 -0.002436 -0.001759 -0.000307 0.023463 0.001914 -0.002927
# 5 -0.003753 -0.003589 -0.004327 0.001914 0.029349 0.004869
# 6 -0.008822 -0.001961 -0.000440 -0.002927 0.004869 0.032351
#
#
# Mechanical properties :
#
#
# Convention : Reuss Voigt Hill
#
# Bulk Modulus (GPa) = 36.99065 56.93168 46.96117
# Shear Modulus (GPa) = 36.27700 43.14865 39.71283
#
# Velocity S-wave (km/s) = 3.68363 4.01739 3.85412
# Velocity P-wave (km/s) = 5.65050 6.54324 6.11319
#
# Compressibility (1/GPa) = 0.02703386
#
# Stress axis : x y z
#
# Youngs Moduli (GPa) = 62.66748 84.64788 132.05033
#
# Poissons Ratio (x) = 0.17560 0.07311
# Poissons Ratio (y) = 0.13000 0.20162
# Poissons Ratio (z) = 0.03470 0.12924
#
# Static dielectric constant tensor:
#      x y z
#    x 2.219060 -0.025700 0.027140 
#    y -0.025700 2.046290 -0.026040 
#    z 0.027140 -0.026040 2.157410 
# 
# From -- ./inp_files/187920.got.cif
#   From: 2010.05.17/outbox.cif.g08.bks.cpg/sg2_94_cif.got.tgz:187920.got - 2010.06.03 11:33:40.
