data_PCOD9087909
_publ_section_title
;
Structure prediction by ZEFSAII (Michael W. Deem and Ramdas Pophale) SiO2 
 PCOD9087909
Probable space group: P -1
;
_chemical_formula_sum "Si O2"
_cell_formula_units_Z 16
_cell_length_a 11.786980
_cell_length_b 8.977465
_cell_length_c 11.780294
_cell_angle_alpha 58.566687
_cell_angle_beta 80.256927
_cell_angle_gamma 56.760483
_cell_volume 877.639397
_symmetry_space_group_name_H-M "P -1"
_symmetry_group_IT_number 2
_symmetry_cell_setting 'triclinic'
loop_
_space_group_symop_operation_xyz
x,y,z
-x,-y,-z
loop_
_atom_site_type_symbol
_atom_site_label
_atom_site_fract_x
_atom_site_fract_y
_atom_site_fract_z
Si Si1 0.334566 0.559134 0.314270
Si Si2 0.932899 0.801198 0.618106
Si Si3 0.929689 0.613067 0.347409
Si Si4 0.628067 0.815566 0.394605
Si Si5 0.886755 0.110836 0.306752
Si Si6 0.967823 0.100544 0.843230
Si Si7 0.398690 0.763569 0.679381
Si Si8 0.643780 0.156197 0.611977
O O1 0.337934 0.362035 0.447033
O O2 0.190003 0.719580 0.218711
O O3 0.455703 0.449466 0.244880
O O4 0.356270 0.686056 0.360023
O O5 0.977385 0.567766 0.685907
O O6 0.066801 0.785019 0.651994
O O7 0.909643 0.912609 0.454396
O O8 0.795586 0.944670 0.658386
O O9 0.767923 0.702340 0.342702
O O10 0.000000 0.500000 0.500000
O O11 0.943933 0.801987 0.240126
O O12 0.486404 0.865920 0.340106
O O13 0.605673 0.027757 0.367735
O O14 0.729738 0.230329 0.248360
O O15 0.985591 0.060017 0.204389
O O16 0.000000 0.000000 0.000000
O O17 0.377756 0.761949 0.546867
#
# Coordination Sequence:
#
# PCOD9087909 Si02
#       8
#     2   2   2   2   2   2   2   2
#     4  11  21  35  56  85 122 159 189 236 309 347
#     4  10  20  32  61  89 121 147 193 250 290 348
#     4  12  21  36  62  89 115 153 202 247 297 336
#     4  11  20  32  56  91 124 140 198 249 294 350
#     4  10  19  37  56  89 118 148 193 248 292 341
#     4  12  25  42  60  84 122 161 201 243 293 359
#     4  10  20  31  56  90 123 145 190 250 297 344
#     4  10  20  31  51  91 127 147 183 246 310 345
#
# _framework density 18.230722
#
# number of rings (size 3 to 8) (size 9 to 14) (size 15 to 20)
#    0.000    1.250    5.000    3.750    7.000    0.000 
#    0.000    1.250    0.000    0.750    0.000    0.000 
#    0.000    0.000    0.000    0.000    0.000    0.000 
#
# Total GULP energy -89116.560800 kJ/mol
# GULP energy per Si atom -5569.785050 kJ/mol
# Density = 1.818923 g / cm^3
# Si number density = 18.230722 Si / 1000 Ang^3
#
#
#
# Elastic Constant Matrix: (Units=GPa)
#
#
# Indices 1 2 3 4 5 6 
#
# 1 118.5231 38.0675 24.1259 -4.6112 6.7114 -27.9803
# 2 38.0675 109.6427 13.3861 -4.7282 7.4796 -21.8500
# 3 24.1259 13.3861 47.0660 6.4698 0.6807 -3.5050
# 4 -4.6112 -4.7282 6.4698 8.7804 -0.6956 0.1778
# 5 6.7114 7.4796 0.6807 -0.6956 10.0158 -3.1019
# 6 -27.9803 -21.8500 -3.5050 0.1778 -3.1019 32.4810
#
#
#
# Elastic Compliance Matrix: (Units=1/GPa)
#
#
# Indices 1 2 3 4 5 6 
#
# 1 0.013103 -0.001064 -0.007188 0.011112 -0.003823 0.009370
# 2 -0.001064 0.011821 -0.003343 0.007713 -0.005459 0.006111
# 3 -0.007188 -0.003343 0.029171 -0.026816 0.001932 -0.004962
# 4 0.011112 0.007713 -0.026816 0.143575 0.002081 0.011281
# 5 -0.003823 -0.005459 0.001932 0.002081 0.107579 0.003505
# 6 0.009370 0.006111 -0.004962 0.011281 0.003505 0.042707
#
#
# Mechanical properties :
#
#
# Convention : Reuss Voigt Hill
#
# Bulk Modulus (GPa) = 32.35817 47.37675 39.86746
# Shear Modulus (GPa) = 13.10794 23.56561 18.33678
#
# Velocity S-wave (km/s) = 2.68433 3.59922 3.17490
# Velocity P-wave (km/s) = 5.23405 6.58151 5.94607
#
# Compressibility (1/GPa) = 0.03090410
#
# Stress axis : x y z
#
# Youngs Moduli (GPa) = 76.31816 84.59508 34.28084
#
# Poissons Ratio (x) = 0.09005 0.24642
# Poissons Ratio (y) = 0.08124 0.11459
# Poissons Ratio (z) = 0.54860 0.28277
#
# Static dielectric constant tensor:
#      x y z
#    x 1.706750 -0.046870 0.009410 
#    y -0.046870 1.711410 -0.010410 
#    z 0.009410 -0.010410 1.584240 
# 
# From -- ./inp_files/254793.got.cif
#   From: 2010.05.17/outbox.cif.g08.bks.cpg/sg2_128_cif.got.tgz:254793.got - 2010.06.03 11:33:40.
