data_PCOD9087311
_publ_section_title
;
Structure prediction by ZEFSAII (Michael W. Deem and Ramdas Pophale) SiO2 
 PCOD9087311
Probable space group: P -1
;
_chemical_formula_sum "Si O2"
_cell_formula_units_Z 16
_cell_length_a 9.102624
_cell_length_b 9.196513
_cell_length_c 23.880558
_cell_angle_alpha 26.739521
_cell_angle_beta 125.453007
_cell_angle_gamma 117.567861
_cell_volume 724.336443
_symmetry_space_group_name_H-M "P -1"
_symmetry_group_IT_number 2
_symmetry_cell_setting 'triclinic'
loop_
_space_group_symop_operation_xyz
x,y,z
-x,-y,-z
loop_
_atom_site_type_symbol
_atom_site_label
_atom_site_fract_x
_atom_site_fract_y
_atom_site_fract_z
Si Si1 0.944053 0.769411 0.490222
Si Si2 0.832210 0.928897 0.023872
Si Si3 0.448039 0.920033 0.679977
Si Si4 0.749786 0.739448 0.308320
Si Si5 0.466748 0.258709 0.852846
Si Si6 0.058460 0.425498 0.317359
Si Si7 0.386079 0.634988 0.874877
Si Si8 0.487617 0.256620 0.461144
O O1 0.989822 0.662522 0.600681
O O2 0.055147 0.480780 0.579070
O O3 0.726380 0.832992 0.422456
O O4 0.012326 0.118445 0.376037
O O5 0.722805 0.648349 0.072751
O O6 0.933445 0.762642 0.158034
O O7 0.677432 0.244841 0.884640
O O8 0.000000 0.000000 0.000000
O O9 0.391674 0.613561 0.738380
O O10 0.510223 0.750458 0.811818
O O11 0.540703 0.098564 0.588919
O O12 0.657252 0.825187 0.197103
O O13 0.614409 0.518838 0.382722
O O14 0.749212 0.057354 0.236320
O O15 0.500000 0.000000 0.000000
O O16 0.275266 0.420009 0.362428
O O17 0.500000 0.500000 0.000000
O O18 0.500000 0.000000 0.500000
#
# Coordination Sequence:
#
# PCOD9087311 Si02
#       8
#     2   2   2   2   2   2   2   2
#     4  10  19  37  65  98 127 169 216 281 322 389
#     4  12  25  40  68  98 126 173 226 277 318 391
#     4  11  23  42  67  99 133 173 230 267 330 403
#     4  12  23  38  68  96 136 176 216 273 346 383
#     4  12  20  39  69  97 125 185 229 263 322 398
#     4  10  19  36  62  97 130 157 227 278 316 375
#     4  12  26  46  65  97 141 177 220 272 336 405
#     4  11  21  37  67 104 129 167 222 285 322 393
#
# _framework density 22.089183999999999
#
# number of rings (size 3 to 8) (size 9 to 14) (size 15 to 20)
#    0.000    0.750    6.250    3.000    0.000    1.000 
#    0.000    0.000    5.500    2.250    0.000    0.000 
#    0.000    0.000    0.000    0.000    0.000    0.000 
#
# Total GULP energy -89306.776142 kJ/mol
# GULP energy per Si atom -5581.673509 kJ/mol
# Density = 2.203891 g / cm^3
# Si number density = 22.089184 Si / 1000 Ang^3
#
#
#
# Elastic Constant Matrix: (Units=GPa)
#
#
# Indices 1 2 3 4 5 6 
#
# 1 102.4945 21.6618 29.7745 1.4633 2.5553 -12.7512
# 2 21.6618 71.6108 29.3005 9.0304 -4.0028 -25.4637
# 3 29.7745 29.3005 85.6392 17.2530 -5.3582 -12.8444
# 4 1.4633 9.0304 17.2530 45.2490 -17.3078 -4.8014
# 5 2.5553 -4.0028 -5.3582 -17.3078 50.3394 -2.5806
# 6 -12.7512 -25.4637 -12.8444 -4.8014 -2.5806 25.8271
#
#
#
# Elastic Compliance Matrix: (Units=1/GPa)
#
#
# Indices 1 2 3 4 5 6 
#
# 1 0.011351 -0.001188 -0.003389 0.001311 -0.000430 0.002948
# 2 -0.001188 0.023671 -0.004440 0.000219 0.002614 0.020845
# 3 -0.003389 -0.004440 0.015454 -0.004891 -0.000181 0.000708
# 4 0.001311 0.000219 -0.004891 0.027901 0.009256 0.004542
# 5 -0.000430 0.002614 -0.000181 0.009256 0.023584 0.006352
# 6 0.002948 0.020845 0.000708 0.004542 0.006352 0.062558
#
#
# Mechanical properties :
#
#
# Convention : Reuss Voigt Hill
#
# Bulk Modulus (GPa) = 30.82305 46.80201 38.81253
# Shear Modulus (GPa) = 25.85761 36.21696 31.03729
#
# Velocity S-wave (km/s) = 3.42512 4.05356 3.75252
# Velocity P-wave (km/s) = 5.44299 6.56828 6.03193
#
# Compressibility (1/GPa) = 0.03244325
#
# Stress axis : x y z
#
# Youngs Moduli (GPa) = 88.09879 42.24551 64.70681
#
# Poissons Ratio (x) = 0.05019 0.21927
# Poissons Ratio (y) = 0.10466 0.28729
# Poissons Ratio (z) = 0.29854 0.18757
#
# Static dielectric constant tensor:
#      x y z
#    x 1.859640 -0.031690 -0.022660 
#    y -0.031690 1.829170 0.033750 
#    z -0.022660 0.033750 1.930890 
# 
# From -- ./inp_files/606316.got.cif
#   From: 2010.05.17/outbox.cif.g08.bks.cpg/sg2_304_cif.got.tgz:606316.got - 2010.06.03 11:33:40.
