data_PCOD9087754
_publ_section_title
;
Structure prediction by ZEFSAII (Michael W. Deem and Ramdas Pophale) SiO2 
 PCOD9087754
Probable space group: P -1
;
_chemical_formula_sum "Si O2"
_cell_formula_units_Z 16
_cell_length_a 11.470243
_cell_length_b 16.533889
_cell_length_c 9.877623
_cell_angle_alpha 145.572808
_cell_angle_beta 136.857854
_cell_angle_gamma 46.401075
_cell_volume 705.300345
_symmetry_space_group_name_H-M "P -1"
_symmetry_group_IT_number 2
_symmetry_cell_setting 'triclinic'
loop_
_space_group_symop_operation_xyz
x,y,z
-x,-y,-z
loop_
_atom_site_type_symbol
_atom_site_label
_atom_site_fract_x
_atom_site_fract_y
_atom_site_fract_z
Si Si1 0.174508 0.807019 0.271542
Si Si2 0.214023 0.488355 0.492553
Si Si3 0.000221 0.142461 0.529998
Si Si4 0.221492 0.927844 0.005217
Si Si5 0.002441 0.774188 0.807342
Si Si6 0.508602 0.679893 0.977698
Si Si7 0.448175 0.344474 0.716349
Si Si8 0.177699 0.386371 0.026643
O O1 0.111917 0.777251 0.327124
O O2 0.381059 0.754479 0.348078
O O3 0.071537 0.743052 0.976506
O O4 0.105092 0.981122 0.436409
O O5 0.040499 0.616710 0.549008
O O6 0.360481 0.584905 0.730383
O O7 0.280342 0.381627 0.527897
O O8 0.208108 0.397368 0.226910
O O9 0.872706 0.129381 0.281046
O O10 0.142711 0.232161 0.737503
O O11 0.132795 0.871160 0.984431
O O12 0.419630 0.836993 0.053751
O O13 0.177811 0.103943 0.194925
O O14 0.660704 0.589167 0.888661
O O15 0.571931 0.706407 0.218499
O O16 0.500000 0.500000 0.000000
O O17 0.000000 0.500000 0.000000
#
# Coordination Sequence:
#
# PCOD9087754 Si02
#       8
#     2   2   2   2   2   2   2   2
#     4  10  19  40  65  87 117 160 212 243 301 355
#     4  10  21  38  63  91 117 163 201 246 298 365
#     4  10  24  38  62  90 122 165 197 253 298 362
#     4   9  17  35  64  88 115 151 206 246 292 363
#     4   9  16  33  62  90 112 147 204 252 290 347
#     4  10  21  39  62  92 117 162 201 248 305 355
#     4  10  19  36  67  90 115 154 213 252 285 363
#     4  12  26  40  57  91 133 158 197 250 309 365
#
# _framework density 22.685371
#
# number of rings (size 3 to 8) (size 9 to 14) (size 15 to 20)
#    0.000    2.000    3.750    1.875    5.250    0.000 
#    0.000    5.000    0.000    0.000    0.000    0.000 
#    0.000    0.000    0.000    0.000    0.000    0.000 
#
# Total GULP energy -89415.333471 kJ/mol
# GULP energy per Si atom -5588.458342 kJ/mol
# Density = 2.263374 g / cm^3
# Si number density = 22.685371 Si / 1000 Ang^3
#
#
#
# Elastic Constant Matrix: (Units=GPa)
#
#
# Indices 1 2 3 4 5 6 
#
# 1 79.7350 38.2391 27.7784 -9.4644 -27.0828 -12.2637
# 2 38.2391 134.3745 34.4021 -17.4748 -12.0914 -20.2537
# 3 27.7784 34.4021 64.2231 -12.3973 -8.7913 0.2854
# 4 -9.4644 -17.4748 -12.3973 29.9454 2.8733 -7.2272
# 5 -27.0828 -12.0914 -8.7913 2.8733 28.3810 3.2192
# 6 -12.2637 -20.2537 0.2854 -7.2272 3.2192 30.0919
#
#
#
# Elastic Compliance Matrix: (Units=1/GPa)
#
#
# Indices 1 2 3 4 5 6 
#
# 1 0.023304 -0.001894 -0.005839 0.003819 0.018416 0.007225
# 2 -0.001894 0.011026 -0.003915 0.006171 0.000128 0.008155
# 3 -0.005839 -0.003915 0.020798 0.003507 -0.000665 -0.004298
# 4 0.003819 0.006171 0.003507 0.043400 0.001154 0.015977
# 5 0.018416 0.000128 -0.000665 0.001154 0.052282 0.002282
# 6 0.007225 0.008155 -0.004298 0.015977 0.002282 0.045299
#
#
# Mechanical properties :
#
#
# Convention : Reuss Voigt Hill
#
# Bulk Modulus (GPa) = 31.41365 53.24128 42.32747
# Shear Modulus (GPa) = 21.73774 29.54451 25.64113
#
# Velocity S-wave (km/s) = 3.09888 3.61274 3.36563
# Velocity P-wave (km/s) = 5.16543 6.39710 5.81397
#
# Compressibility (1/GPa) = 0.03183330
#
# Stress axis : x y z
#
# Youngs Moduli (GPa) = 42.91130 90.69233 48.08079
#
# Poissons Ratio (x) = 0.17176 0.28074
# Poissons Ratio (y) = 0.08127 0.18822
# Poissons Ratio (z) = 0.25056 0.35504
#
# Static dielectric constant tensor:
#      x y z
#    x 1.924540 0.009500 0.000410 
#    y 0.009500 1.869760 0.026190 
#    z 0.000410 0.026190 1.866350 
# 
# From -- ./inp_files/274760.got.cif
#   From: 2010.05.17/outbox.cif.g08.bks.cpg/sg2_138_cif.got.tgz:274760.got - 2010.06.03 11:33:40.
