data_PCOD9087374
_publ_section_title
;
Structure prediction by ZEFSAII (Michael W. Deem and Ramdas Pophale) SiO2 
 PCOD9087374
Probable space group: P -1
;
_chemical_formula_sum "Si O2"
_cell_formula_units_Z 14
_cell_length_a 12.209303
_cell_length_b 14.562838
_cell_length_c 10.690976
_cell_angle_alpha 129.879558
_cell_angle_beta 36.695244
_cell_angle_gamma 152.062468
_cell_volume 516.612385
_symmetry_space_group_name_H-M "P -1"
_symmetry_group_IT_number 2
_symmetry_cell_setting 'triclinic'
loop_
_space_group_symop_operation_xyz
x,y,z
-x,-y,-z
loop_
_atom_site_type_symbol
_atom_site_label
_atom_site_fract_x
_atom_site_fract_y
_atom_site_fract_z
Si Si1 0.133820 0.702124 0.465170
Si Si2 0.016482 0.221943 0.529422
Si Si3 0.637544 0.942485 0.851518
Si Si4 0.641088 0.361672 0.343948
Si Si5 0.969656 0.600021 0.800057
Si Si6 0.998016 0.977946 0.211082
Si Si7 0.417648 0.387569 0.852389
O O1 0.239750 0.847848 0.386445
O O2 0.164741 0.742981 0.620622
O O3 0.757934 0.515586 0.620179
O O4 0.222230 0.613121 0.271405
O O5 0.201641 0.426302 0.605823
O O6 0.911868 0.088482 0.626075
O O7 0.125410 0.178063 0.291512
O O8 0.757433 0.979972 0.911480
O O9 0.413548 0.718739 0.814673
O O10 0.500000 0.000000 0.000000
O O11 0.317390 0.201167 0.574032
O O12 0.831859 0.358822 0.239115
O O13 0.765676 0.601211 0.040314
O O14 0.845004 0.852316 0.113401
O O15 0.500000 0.500000 0.000000
#
# Coordination Sequence:
#
# PCOD9087374 Si02
#       7
#     2   2   2   2   2   2   2
#     4   9  18  37  59  91 123 162 202 250 302 369
#     4  10  21  40  64  90 121 165 211 242 318 369
#     4  11  25  41  60  92 125 158 213 261 306 367
#     4  10  20  41  65  89 124 167 200 253 313 366
#     4   9  17  33  65  86 123 164 199 244 312 355
#     4  11  22  40  62  87 124 165 202 262 308 363
#     4  10  19  36  63  88 122 166 199 252 313 357
#
# _framework density 27.099620999999999
#
# number of rings (size 3 to 8) (size 9 to 14) (size 15 to 20)
#    0.000    2.000    2.857    2.571    0.000    2.857 
#    5.143    5.714    0.000    0.000    0.000    0.000 
#    0.000    0.000    0.000    0.000    0.000    0.000 
#
# Total GULP energy -78069.779667 kJ/mol
# GULP energy per Si atom -5576.412833 kJ/mol
# Density = 2.703794 g / cm^3
# Si number density = 27.099621 Si / 1000 Ang^3
#
#
#
# Elastic Constant Matrix: (Units=GPa)
#
#
# Indices 1 2 3 4 5 6 
#
# 1 96.7349 47.8273 18.8444 -7.7236 -19.9230 10.0888
# 2 47.8273 157.7740 46.6520 39.9949 0.1415 14.7294
# 3 18.8444 46.6520 86.1185 12.4648 -29.4835 -3.9038
# 4 -7.7236 39.9949 12.4648 38.2810 -8.5976 6.8687
# 5 -19.9230 0.1415 -29.4835 -8.5976 43.3944 8.8575
# 6 10.0888 14.7294 -3.9038 6.8687 8.8575 47.2545
#
#
#
# Elastic Compliance Matrix: (Units=1/GPa)
#
#
# Indices 1 2 3 4 5 6 
#
# 1 0.022951 -0.013927 0.005915 0.023217 0.020697 -0.007325
# 2 -0.013927 0.019640 -0.010390 -0.024800 -0.019079 0.003174
# 3 0.005915 -0.010390 0.021071 0.009750 0.019266 -0.001312
# 4 0.023217 -0.024800 0.009750 0.062850 0.032183 -0.011589
# 5 0.020697 -0.019079 0.019266 0.032183 0.054477 -0.011769
# 6 -0.007325 0.003174 -0.001312 -0.011589 -0.011769 0.025519
#
#
# Mechanical properties :
#
#
# Convention : Reuss Voigt Hill
#
# Bulk Modulus (GPa) = 37.23139 63.03053 50.13096
# Shear Modulus (GPa) = 19.82059 40.93957 30.38008
#
# Velocity S-wave (km/s) = 2.70737 3.89100 3.35184
# Velocity P-wave (km/s) = 4.85198 6.59513 5.78954
#
# Compressibility (1/GPa) = 0.02685905
#
# Stress axis : x y z
#
# Youngs Moduli (GPa) = 43.57126 50.91762 47.45843
#
# Poissons Ratio (x) = 0.70911 -0.28074
# Poissons Ratio (y) = 0.60680 0.49310
# Poissons Ratio (z) = -0.25774 0.52904
#
# Static dielectric constant tensor:
#      x y z
#    x 2.205290 -0.008380 0.123160 
#    y -0.008380 2.289640 -0.037100 
#    z 0.123160 -0.037100 2.380520 
# 
# From -- ./inp_files/433173.got.cif
#   From: 2010.05.17/outbox.cif.g08.bks.cpg/sg2_217_cif.got.tgz:433173.got - 2010.06.03 11:33:40.
