data_PCOD9087211
_publ_section_title
;
Structure prediction by ZEFSAII (Michael W. Deem and Ramdas Pophale) SiO2 
 PCOD9087211
Probable space group: P -1
;
_chemical_formula_sum "Si O2"
_cell_formula_units_Z 16
_cell_length_a 15.549192
_cell_length_b 13.423560
_cell_length_c 11.345338
_cell_angle_alpha 32.441248
_cell_angle_beta 40.921892
_cell_angle_gamma 52.059228
_cell_volume 830.331032
_symmetry_space_group_name_H-M "P -1"
_symmetry_group_IT_number 2
_symmetry_cell_setting 'triclinic'
loop_
_space_group_symop_operation_xyz
x,y,z
-x,-y,-z
loop_
_atom_site_type_symbol
_atom_site_label
_atom_site_fract_x
_atom_site_fract_y
_atom_site_fract_z
Si Si1 0.871831 0.513314 0.198374
Si Si2 0.590336 0.330534 0.603017
Si Si3 0.813030 0.435855 0.593070
Si Si4 0.485534 0.785859 0.447381
Si Si5 0.118896 0.917804 0.026336
Si Si6 0.516657 0.358032 0.907713
Si Si7 0.793258 0.822601 0.133011
Si Si8 0.381602 0.036854 0.498043
O O1 0.739990 0.418279 0.370306
O O2 0.877949 0.412751 0.419556
O O3 0.846110 0.724291 0.058334
O O4 0.000000 0.500000 0.000000
O O5 0.500000 0.500000 0.500000
O O6 0.562943 0.198408 0.652252
O O7 0.543812 0.262691 0.848292
O O8 0.658767 0.367076 0.814870
O O9 0.809548 0.659192 0.377799
O O10 0.882231 0.306091 0.741883
O O11 0.480431 0.567698 0.708425
O O12 0.639649 0.849086 0.243100
O O13 0.396056 0.896805 0.514937
O O14 0.133861 0.997545 0.064766
O O15 0.248854 0.994466 0.747131
O O16 0.000000 0.000000 0.000000
O O17 0.409656 0.242459 0.210659
O O18 0.500000 0.000000 0.500000
#
# Coordination Sequence:
#
# PCOD9087211 Si02
#       8
#     2   2   2   2   2   2   2   2
#     4   9  18  35  62  85 114 150 188 226 285 360
#     4   9  16  34  59  86 116 144 180 242 286 331
#     4   8  18  38  59  80 115 150 185 233 289 335
#     4  10  19  36  62  89 115 148 189 240 292 329
#     4  12  25  41  54  80 122 152 194 242 280 335
#     4   9  18  36  60  89 115 143 192 238 287 336
#     4   9  19  37  62  81 114 157 182 230 305 328
#     4  12  23  36  60  85 110 154 204 234 269 349
#
# _framework density 19.269423
#
# number of rings (size 3 to 8) (size 9 to 14) (size 15 to 20)
#    0.750    1.500    5.000    0.000    0.000    3.500 
#    4.500    0.625    0.000    0.000    0.000    0.000 
#    0.000    0.000    0.000    0.000    0.000    0.000 
#
# Total GULP energy -89112.925706 kJ/mol
# GULP energy per Si atom -5569.557857 kJ/mol
# Density = 1.922556 g / cm^3
# Si number density = 19.269423 Si / 1000 Ang^3
#
#
#
# Elastic Constant Matrix: (Units=GPa)
#
#
# Indices 1 2 3 4 5 6 
#
# 1 37.7723 -0.7234 -6.6230 0.8292 -9.6632 -2.9986
# 2 -0.7234 51.4860 4.3544 9.3451 -9.4932 -0.1088
# 3 -6.6230 4.3544 54.5654 9.3855 -0.3144 -17.0503
# 4 0.8292 9.3451 9.3855 32.8016 -6.7283 -5.6880
# 5 -9.6632 -9.4932 -0.3144 -6.7283 16.3844 -4.6751
# 6 -2.9986 -0.1088 -17.0503 -5.6880 -4.6751 33.7630
#
#
#
# Elastic Compliance Matrix: (Units=1/GPa)
#
#
# Indices 1 2 3 4 5 6 
#
# 1 0.035987 0.004571 0.007104 0.003627 0.028749 0.011390
# 2 0.004571 0.022873 0.000003 -0.003149 0.015244 0.002062
# 3 0.007104 0.000003 0.023895 -0.003300 0.007038 0.013117
# 4 0.003627 -0.003149 -0.003300 0.037115 0.017586 0.007333
# 5 0.028749 0.015244 0.007038 0.017586 0.100762 0.023072
# 6 0.011390 0.002062 0.013117 0.007333 0.023072 0.041691
#
#
# Mechanical properties :
#
#
# Convention : Reuss Voigt Hill
#
# Bulk Modulus (GPa) = 9.42391 15.31552 12.36971
# Shear Modulus (GPa) = 18.22579 26.37752 22.30165
#
# Velocity S-wave (km/s) = 3.07879 3.70385 3.40569
# Velocity P-wave (km/s) = 4.18805 5.12413 4.67956
#
# Compressibility (1/GPa) = 0.10611309
#
# Stress axis : x y z
#
# Youngs Moduli (GPa) = 27.78779 43.71893 41.84906
#
# Poissons Ratio (x) = -0.19986 -0.29730
# Poissons Ratio (y) = -0.12703 -0.00013
# Poissons Ratio (z) = -0.19741 -0.00014
#
# Static dielectric constant tensor:
#      x y z
#    x 1.700500 0.049250 0.013770 
#    y 0.049250 1.699210 -0.040240 
#    z 0.013770 -0.040240 1.681100 
# 
# From -- ./inp_files/455359.got.cif
#   From: 2010.05.17/outbox.cif.g08.bks.cpg/sg2_228_cif.got.tgz:455359.got - 2010.06.03 11:33:40.
