data_PCOD9087432
_publ_section_title
;
Structure prediction by ZEFSAII (Michael W. Deem and Ramdas Pophale) SiO2 
 PCOD9087432
Probable space group: P -1
;
_chemical_formula_sum "Si O2"
_cell_formula_units_Z 16
_cell_length_a 6.649145
_cell_length_b 5.623063
_cell_length_c 20.752308
_cell_angle_alpha 76.771827
_cell_angle_beta 59.894835
_cell_angle_gamma 101.014625
_cell_volume 608.812768
_symmetry_space_group_name_H-M "P -1"
_symmetry_group_IT_number 2
_symmetry_cell_setting 'triclinic'
loop_
_space_group_symop_operation_xyz
x,y,z
-x,-y,-z
loop_
_atom_site_type_symbol
_atom_site_label
_atom_site_fract_x
_atom_site_fract_y
_atom_site_fract_z
Si Si1 0.569237 0.719891 0.178381
Si Si2 0.056488 0.767656 0.935551
Si Si3 0.882498 0.910015 0.594394
Si Si4 0.692858 0.275359 0.341513
Si Si5 0.466855 0.332787 0.949285
Si Si6 0.817489 0.364805 0.639654
Si Si7 0.555397 0.675467 0.416223
Si Si8 0.001852 0.537746 0.163178
O O1 0.509524 0.538062 0.134981
O O2 0.371875 0.714571 0.264835
O O3 0.801291 0.674761 0.177780
O O4 0.677599 0.008715 0.111945
O O5 0.045151 0.685790 0.868621
O O6 0.822560 0.848267 0.986378
O O7 0.000000 0.500000 0.000000
O O8 0.577715 0.792309 0.648208
O O9 0.968525 0.668930 0.611291
O O10 0.943633 0.154710 0.617206
O O11 0.000000 0.000000 0.500000
O O12 0.714410 0.538228 0.359676
O O13 0.930008 0.376131 0.250603
O O14 0.648447 0.986536 0.394547
O O15 0.716172 0.266161 0.906895
O O16 0.500000 0.500000 0.000000
O O17 0.679703 0.370344 0.592426
O O18 0.500000 0.500000 0.500000
#
# Coordination Sequence:
#
# PCOD9087432 Si02
#       8
#     2   2   2   2   2   2   2   2
#     4  12  23  45  75  94 144 196 231 304 370 427
#     4  11  23  42  71 101 138 186 237 296 368 429
#     4  10  19  37  64  96 133 173 235 295 339 426
#     4  10  21  39  62  95 129 181 229 281 357 421
#     4  10  25  45  66 109 137 179 247 294 362 441
#     4  10  22  38  66  97 130 185 239 278 362 429
#     4  10  19  36  63  92 130 171 227 285 345 422
#     4  11  23  44  71  95 145 184 237 302 358 435
#
# _framework density 26.280657999999999
#
# number of rings (size 3 to 8) (size 9 to 14) (size 15 to 20)
#    0.000    1.500    3.750    2.625    0.000    0.500 
#    4.500    7.500    0.000    0.000    0.000    0.000 
#    0.000    0.000    0.000    0.000    0.000    0.000 
#
# Total GULP energy -89346.118868 kJ/mol
# GULP energy per Si atom -5584.132429 kJ/mol
# Density = 2.622084 g / cm^3
# Si number density = 26.280658 Si / 1000 Ang^3
#
#
#
# Elastic Constant Matrix: (Units=GPa)
#
#
# Indices 1 2 3 4 5 6 
#
# 1 83.6712 31.3145 4.3602 2.5172 -4.7703 1.1138
# 2 31.3145 164.5098 29.6903 7.7083 -3.4716 4.3497
# 3 4.3602 29.6903 154.2246 15.7570 -3.7861 14.3961
# 4 2.5172 7.7083 15.7570 43.5401 -1.1464 6.2618
# 5 -4.7703 -3.4716 -3.7861 -1.1464 41.4696 6.4379
# 6 1.1138 4.3497 14.3961 6.2618 6.4379 49.1919
#
#
#
# Elastic Compliance Matrix: (Units=1/GPa)
#
#
# Indices 1 2 3 4 5 6 
#
# 1 0.012947 -0.002450 0.000195 -0.000312 0.001335 -0.000269
# 2 -0.002450 0.006791 -0.001156 -0.000615 0.000188 -0.000153
# 3 0.000195 -0.001156 0.007105 -0.002095 0.000799 -0.001819
# 4 -0.000312 -0.000615 -0.002095 0.024234 0.000781 -0.002513
# 5 0.001335 0.000188 0.000799 0.000781 0.024944 -0.003645
# 6 -0.000269 -0.000153 -0.001819 -0.002513 -0.003645 0.021677
#
#
# Mechanical properties :
#
#
# Convention : Reuss Voigt Hill
#
# Bulk Modulus (GPa) = 49.94824 59.23730 54.59277
# Shear Modulus (GPa) = 44.96678 49.30968 47.13823
#
# Velocity S-wave (km/s) = 4.14094 4.33630 4.23974
# Velocity P-wave (km/s) = 6.47380 6.90366 6.69218
#
# Compressibility (1/GPa) = 0.02002073
#
# Stress axis : x y z
#
# Youngs Moduli (GPa) = 77.23593 147.26422 140.75386
#
# Poissons Ratio (x) = 0.36078 -0.02749
# Poissons Ratio (y) = 0.18922 0.16275
# Poissons Ratio (z) = -0.01508 0.17028
#
# Static dielectric constant tensor:
#      x y z
#    x 2.268650 0.053640 0.068460 
#    y 0.053640 2.193470 0.024830 
#    z 0.068460 0.024830 2.047260 
# 
# From -- ./inp_files/585270.got.cif
#   From: 2010.05.17/outbox.cif.g08.bks.cpg/sg2_293_cif.got.tgz:585270.got - 2010.06.03 11:33:40.
