data_PCOD9087300
_publ_section_title
;
Structure prediction by ZEFSAII (Michael W. Deem and Ramdas Pophale) SiO2 
 PCOD9087300
Probable space group: P -1
;
_chemical_formula_sum "Si O2"
_cell_formula_units_Z 16
_cell_length_a 19.786827
_cell_length_b 8.143993
_cell_length_c 19.278654
_cell_angle_alpha 121.414769
_cell_angle_beta 165.673137
_cell_angle_gamma 58.778757
_cell_volume 654.754221
_symmetry_space_group_name_H-M "P -1"
_symmetry_group_IT_number 2
_symmetry_cell_setting 'triclinic'
loop_
_space_group_symop_operation_xyz
x,y,z
-x,-y,-z
loop_
_atom_site_type_symbol
_atom_site_label
_atom_site_fract_x
_atom_site_fract_y
_atom_site_fract_z
Si Si1 0.773033 0.353024 0.766438
Si Si2 0.257929 0.985406 0.701872
Si Si3 0.261821 0.379865 0.708158
Si Si4 0.264614 0.106880 0.205334
Si Si5 0.108644 0.261915 0.386428
Si Si6 0.848349 0.878658 0.066786
Si Si7 0.654194 0.288054 0.398249
Si Si8 0.386885 0.700661 0.194983
O O1 0.500000 0.500000 0.500000
O O2 0.569644 0.176691 0.527111
O O3 0.000000 0.500000 0.000000
O O4 0.026377 0.229005 0.035364
O O5 0.266834 0.167142 0.698890
O O6 0.285426 0.797550 0.637596
O O7 0.000000 0.000000 0.500000
O O8 0.500000 0.000000 0.000000
O O9 0.237592 0.380596 0.601657
O O10 0.000000 0.500000 0.500000
O O11 0.500000 0.500000 0.000000
O O12 0.286217 0.875576 0.181922
O O13 0.158559 0.136950 0.025921
O O14 0.369804 0.209099 0.587111
O O15 0.965958 0.085607 0.242484
O O16 0.864621 0.353465 0.116476
O O17 0.068299 0.725793 0.285022
O O18 0.559045 0.846949 0.806353
O O19 0.516953 0.503009 0.311954
#
# Coordination Sequence:
#
# PCOD9087300 Si02
#       8
#     2   2   2   2   2   2   2   2
#     4   9  18  33  59  98 134 162 196 245 283 331
#     4  12  28  45  61  83 118 158 204 262 323 387
#     4  12  27  42  63  84 109 151 209 252 321 379
#     4  10  19  36  62  96 124 159 207 243 292 349
#     4  11  23  42  60  85 115 153 198 264 313 372
#     4  11  22  40  65  87 121 160 200 259 304 362
#     4  12  25  42  61  89 121 159 204 257 328 371
#     4  11  24  38  65  90 123 157 200 254 317 359
#
# _framework density 24.436648999999999
#
# number of rings (size 3 to 8) (size 9 to 14) (size 15 to 20)
#    0.000    1.000    1.250    6.750    7.000    0.000 
#    0.000    0.000    0.000    0.000    0.000   61.250 
#    0.000    0.000    0.000    0.000    0.000    0.000 
#
# Total GULP energy -89074.445597 kJ/mol
# GULP energy per Si atom -5567.152850 kJ/mol
# Density = 2.438103 g / cm^3
# Si number density = 24.436649 Si / 1000 Ang^3
#
#
#
# Elastic Constant Matrix: (Units=GPa)
#
#
# Indices 1 2 3 4 5 6 
#
# 1 83.5764 19.4971 22.7069 9.9146 14.6718 12.4086
# 2 19.4971 99.7164 9.5976 -8.3509 1.8315 3.1616
# 3 22.7069 9.5976 185.3901 5.8349 7.7885 4.6815
# 4 9.9146 -8.3509 5.8349 41.9607 0.8901 -4.7638
# 5 14.6718 1.8315 7.7885 0.8901 38.4495 -1.0246
# 6 12.4086 3.1616 4.6815 -4.7638 -1.0246 10.6661
#
#
#
# Elastic Compliance Matrix: (Units=1/GPa)
#
#
# Indices 1 2 3 4 5 6 
#
# 1 0.018845 -0.003314 -0.000968 -0.007618 -0.007317 -0.024622
# 2 -0.003314 0.010894 -0.000352 0.003245 0.000804 0.002308
# 3 -0.000968 -0.000352 0.005631 -0.000798 -0.000781 -0.001673
# 4 -0.007618 0.003245 -0.000798 0.028754 0.002818 0.021364
# 5 -0.007317 0.000804 -0.000781 0.002818 0.029193 0.012679
# 6 -0.024622 0.002308 -0.001673 0.021364 0.012679 0.133209
#
#
# Mechanical properties :
#
#
# Convention : Reuss Voigt Hill
#
# Bulk Modulus (GPa) = 38.31201 52.47624 45.39412
# Shear Modulus (GPa) = 20.45025 39.34068 29.89547
#
# Velocity S-wave (km/s) = 2.89601 4.01672 3.50149
# Velocity P-wave (km/s) = 5.18600 6.55996 5.91302
#
# Compressibility (1/GPa) = 0.02610148
#
# Stress axis : x y z
#
# Youngs Moduli (GPa) = 53.06444 91.79155 177.59049
#
# Poissons Ratio (x) = 0.30424 0.17185
# Poissons Ratio (y) = 0.17588 0.06255
# Poissons Ratio (z) = 0.05135 0.03233
#
# Static dielectric constant tensor:
#      x y z
#    x 1.828040 0.208490 -0.011610 
#    y 0.208490 1.866340 -0.079550 
#    z -0.011610 -0.079550 1.905510 
# 
# From -- ./inp_files/587388.got.cif
#   From: 2010.05.17/outbox.cif.g08.bks.cpg/sg2_294_cif.got.tgz:587388.got - 2010.06.03 11:33:40.
