data_PCOD9087351
_publ_section_title
;
Structure prediction by ZEFSAII (Michael W. Deem and Ramdas Pophale) SiO2 
 PCOD9087351
Probable space group: P -1
;
_chemical_formula_sum "Si O2"
_cell_formula_units_Z 16
_cell_length_a 12.632782
_cell_length_b 8.298585
_cell_length_c 13.213516
_cell_angle_alpha 146.466464
_cell_angle_beta 114.900691
_cell_angle_gamma 75.912392
_cell_volume 677.916463
_symmetry_space_group_name_H-M "P -1"
_symmetry_group_IT_number 2
_symmetry_cell_setting 'triclinic'
loop_
_space_group_symop_operation_xyz
x,y,z
-x,-y,-z
loop_
_atom_site_type_symbol
_atom_site_label
_atom_site_fract_x
_atom_site_fract_y
_atom_site_fract_z
Si Si1 0.382406 0.004448 0.525750
Si Si2 0.976603 0.656012 0.178894
Si Si3 0.013532 0.164904 0.330766
Si Si4 0.493546 0.609646 0.939580
Si Si5 0.742929 0.768278 0.660634
Si Si6 0.567220 0.239538 0.362051
Si Si7 0.101359 0.210898 0.084739
Si Si8 0.282762 0.648359 0.129437
O O1 0.387386 0.359635 0.718007
O O2 0.500000 0.000000 0.500000
O O3 0.392541 0.885124 0.580584
O O4 0.274201 0.789951 0.311621
O O5 0.055098 0.517054 0.216117
O O6 0.834656 0.532791 0.067953
O O7 0.009549 0.006743 0.355019
O O8 0.000000 0.500000 0.000000
O O9 0.137445 0.155189 0.318789
O O10 0.000000 0.500000 0.500000
O O11 0.907210 0.957715 0.113999
O O12 0.620799 0.553961 0.923207
O O13 0.500000 0.500000 0.000000
O O14 0.494492 0.956548 0.123191
O O15 0.673246 0.431505 0.437439
O O16 0.779834 0.766071 0.791802
O O17 0.677848 0.041433 0.756069
O O18 0.500000 0.500000 0.500000
O O19 0.000000 0.000000 0.000000
#
# Coordination Sequence:
#
# PCOD9087351 Si02
#       8
#     2   2   2   2   2   2   2   2
#     4   9  20  39  63  88 117 157 203 250 305 375
#     4  10  19  36  63  86 122 165 205 242 311 359
#     4  10  22  38  57  86 127 157 207 260 294 361
#     4   9  20  40  61  88 120 153 202 253 303 378
#     4  11  22  38  62  87 124 163 203 250 311 361
#     4  11  23  40  63  91 124 157 200 261 314 365
#     4   9  18  39  59  86 117 161 205 245 304 365
#     4  11  20  38  66  89 119 166 204 251 310 364
#
# _framework density 23.601727
#
# number of rings (size 3 to 8) (size 9 to 14) (size 15 to 20)
#    0.000    2.000    3.750    2.250    5.250    0.000 
#    0.000   13.125    0.000    0.000    0.000    0.000 
#    0.000    0.000    0.000    0.000    0.000    0.000 
#
# Total GULP energy -89233.269390 kJ/mol
# GULP energy per Si atom -5577.079337 kJ/mol
# Density = 2.354801 g / cm^3
# Si number density = 23.601727 Si / 1000 Ang^3
#
#
#
# Elastic Constant Matrix: (Units=GPa)
#
#
# Indices 1 2 3 4 5 6 
#
# 1 37.2772 6.8505 17.3010 9.0427 10.4560 -1.0813
# 2 6.8505 128.3577 40.3336 30.9620 1.6739 -5.2277
# 3 17.3010 40.3336 123.7312 39.8466 -0.0335 -9.1578
# 4 9.0427 30.9620 39.8466 45.7264 1.2395 2.3728
# 5 10.4560 1.6739 -0.0335 1.2395 25.6981 9.5779
# 6 -1.0813 -5.2277 -9.1578 2.3728 9.5779 31.0216
#
#
#
# Elastic Compliance Matrix: (Units=1/GPa)
#
#
# Indices 1 2 3 4 5 6 
#
# 1 0.033739 0.000636 -0.003169 -0.004203 -0.015617 0.005491
# 2 0.000636 0.009611 -0.001257 -0.005610 -0.001412 0.002136
# 3 -0.003169 -0.001257 0.012255 -0.009414 0.000390 0.003895
# 4 -0.004203 -0.005610 -0.009414 0.035007 0.003181 -0.007531
# 5 -0.015617 -0.001412 0.000390 0.003181 0.051469 -0.016802
# 6 0.005491 0.002136 0.003895 -0.007531 -0.016802 0.039700
#
#
# Mechanical properties :
#
#
# Convention : Reuss Voigt Hill
#
# Bulk Modulus (GPa) = 20.82297 46.48181 33.65239
# Shear Modulus (GPa) = 24.34629 35.48128 29.91378
#
# Velocity S-wave (km/s) = 3.21525 3.88149 3.56398
# Velocity P-wave (km/s) = 4.75664 6.31070 5.58796
#
# Compressibility (1/GPa) = 0.04802388
#
# Stress axis : x y z
#
# Youngs Moduli (GPa) = 29.63893 104.05269 81.59845
#
# Poissons Ratio (x) = -0.06621 0.25862
# Poissons Ratio (y) = -0.01886 0.10261
# Poissons Ratio (z) = 0.09394 0.13084
#
# Static dielectric constant tensor:
#      x y z
#    x 2.134010 -0.033020 0.049280 
#    y -0.033020 1.972100 -0.029160 
#    z 0.049280 -0.029160 1.990510 
# 
# From -- ./inp_files/187912.got.cif
#   From: 2010.05.17/outbox.cif.g08.bks.cpg/sg2_94_cif.got.tgz:187912.got - 2010.06.03 11:33:40.
