data_PCOD9087343
_publ_section_title
;
Structure prediction by ZEFSAII (Michael W. Deem and Ramdas Pophale) SiO2 
 PCOD9087343
Probable space group: P -1
;
_chemical_formula_sum "Si O2"
_cell_formula_units_Z 15
_cell_length_a 6.887876
_cell_length_b 8.856696
_cell_length_c 13.809834
_cell_angle_alpha 134.236755
_cell_angle_beta 107.627718
_cell_angle_gamma 90.148614
_cell_volume 546.303306
_symmetry_space_group_name_H-M "P -1"
_symmetry_group_IT_number 2
_symmetry_cell_setting 'triclinic'
loop_
_space_group_symop_operation_xyz
x,y,z
-x,-y,-z
loop_
_atom_site_type_symbol
_atom_site_label
_atom_site_fract_x
_atom_site_fract_y
_atom_site_fract_z
Si Si1 0.620323 0.180254 0.952573
Si Si2 0.905877 0.931783 0.836796
Si Si3 0.266698 0.485068 0.245852
Si Si4 0.000000 0.000000 0.500000
Si Si5 0.510759 0.765367 0.250175
Si Si6 0.922909 0.344383 0.539392
Si Si7 0.448496 0.225978 0.439156
Si Si8 0.715353 0.224920 0.201481
O O1 0.507589 0.253909 0.878109
O O2 0.843812 0.155942 0.936236
O O3 0.494287 0.923433 0.844216
O O4 0.656169 0.286521 0.111787
O O5 0.842356 0.761749 0.842348
O O6 0.751509 0.794223 0.667072
O O7 0.149455 0.950400 0.862737
O O8 0.338838 0.555207 0.180429
O O9 0.490777 0.589994 0.386155
O O10 0.122895 0.627779 0.337148
O O11 0.248458 0.165052 0.640856
O O12 0.002648 0.134144 0.458223
O O13 0.433040 0.979285 0.361534
O O14 0.104107 0.563522 0.635296
O O15 0.679023 0.295250 0.447451
#
# Coordination Sequence:
#
# PCOD9087343 Si02
#       8
#     2   2   2   1   2   2   2   2
#     4  10  23  40  57  82 115 150 198 237 273 327
#     4  10  19  36  63  86 108 151 190 232 290 332
#     4   9  18  32  57  81 114 144 178 229 287 333
#     4  10  20  34  54  84 120 142 180 228 296 344
#     4  10  20  36  51  84 115 147 183 234 282 340
#     4   8  19  35  57  85 112 149 185 231 286 334
#     4   8  17  33  55  85 113 143 183 228 286 340
#     4  10  21  40  61  79 113 152 196 240 270 331
#
# _framework density 27.457277000000001
#
# number of rings (size 3 to 8) (size 9 to 14) (size 15 to 20)
#    0.800    1.867    0.000    1.200    1.867    1.067 
#    2.400    5.333    0.000    0.000    0.000    0.000 
#    0.000    0.000    0.000    0.000    0.000    0.000 
#
# Total GULP energy -83523.797729 kJ/mol
# GULP energy per Si atom -5568.253182 kJ/mol
# Density = 2.739478 g / cm^3
# Si number density = 27.457277 Si / 1000 Ang^3
#
#
#
# Elastic Constant Matrix: (Units=GPa)
#
#
# Indices 1 2 3 4 5 6 
#
# 1 60.8423 29.1266 5.6392 -16.5673 26.0966 2.1022
# 2 29.1266 67.2890 10.0701 -11.7969 8.4268 20.3047
# 3 5.6392 10.0701 97.6911 -37.7843 15.2733 0.2409
# 4 -16.5673 -11.7969 -37.7843 55.6680 -6.1685 0.1969
# 5 26.0966 8.4268 15.2733 -6.1685 40.8525 -0.9594
# 6 2.1022 20.3047 0.2409 0.1969 -0.9594 39.0257
#
#
#
# Elastic Compliance Matrix: (Units=1/GPa)
#
#
# Indices 1 2 3 4 5 6 
#
# 1 0.031852 -0.011982 0.005660 0.008709 -0.018583 0.003983
# 2 -0.011982 0.023469 -0.002065 0.000421 0.003379 -0.011472
# 3 0.005660 -0.002065 0.015504 0.010957 -0.007322 0.000438
# 4 0.008709 0.000421 0.010957 0.027462 -0.005624 -0.001033
# 5 -0.018583 0.003379 -0.007322 -0.005624 0.037546 0.000239
# 6 0.003983 -0.011472 0.000438 -0.001033 0.000239 0.031386
#
#
# Mechanical properties :
#
#
# Convention : Reuss Voigt Hill
#
# Bulk Modulus (GPa) = 18.50075 35.05490 26.77783
# Shear Modulus (GPa) = 24.75118 39.17503 31.96310
#
# Velocity S-wave (km/s) = 3.00566 3.78135 3.41560
# Velocity P-wave (km/s) = 4.33566 5.64443 5.03277
#
# Compressibility (1/GPa) = 0.05405187
#
# Stress axis : x y z
#
# Youngs Moduli (GPa) = 31.39518 42.60926 64.49910
#
# Poissons Ratio (x) = 0.51056 -0.36509
# Poissons Ratio (y) = 0.37619 0.13317
# Poissons Ratio (z) = -0.17771 0.08798
#
# Static dielectric constant tensor:
#      x y z
#    x 0.650380 1.317170 0.097530 
#    y 1.317170 1.035710 -0.216420 
#    z 0.097530 -0.216420 2.159530 
# 
# From -- ./inp_files/556445.got.cif
#   From: 2010.05.17/outbox.cif.g08.bks.cpg/sg2_279_cif.got.tgz:556445.got - 2010.06.03 11:33:40.
