data_PCOD9087258
_publ_section_title
;
Structure prediction by ZEFSAII (Michael W. Deem and Ramdas Pophale) SiO2 
 PCOD9087258
Probable space group: P -1
;
_chemical_formula_sum "Si O2"
_cell_formula_units_Z 15
_cell_length_a 15.841764
_cell_length_b 8.585654
_cell_length_c 8.277588
_cell_angle_alpha 116.761682
_cell_angle_beta 105.656165
_cell_angle_gamma 43.430847
_cell_volume 688.093145
_symmetry_space_group_name_H-M "P -1"
_symmetry_group_IT_number 2
_symmetry_cell_setting 'triclinic'
loop_
_space_group_symop_operation_xyz
x,y,z
-x,-y,-z
loop_
_atom_site_type_symbol
_atom_site_label
_atom_site_fract_x
_atom_site_fract_y
_atom_site_fract_z
Si Si1 0.362600 0.216886 0.195226
Si Si2 0.213380 0.148796 0.665516
Si Si3 0.754374 0.323079 0.132229
Si Si4 0.552876 0.211276 0.162725
Si Si5 0.067931 0.048085 0.665367
Si Si6 0.861988 0.411867 0.986029
Si Si7 0.647336 0.805984 0.466432
Si Si8 0.500000 0.500000 0.000000
O O1 0.464321 0.225204 0.239357
O O2 0.264932 0.391816 0.087828
O O3 0.302883 0.293616 0.374550
O O4 0.427385 0.940980 0.057064
O O5 0.124462 0.109108 0.599061
O O6 0.290685 0.107486 0.532818
O O7 0.317851 0.953783 0.760048
O O8 0.136009 0.423096 0.819146
O O9 0.682214 0.602035 0.269161
O O10 0.825974 0.169521 0.259934
O O11 0.849473 0.252522 0.009519
O O12 0.649802 0.337009 0.024629
O O13 0.493904 0.464524 0.175723
O O14 0.969987 0.264114 0.842544
O O15 0.000000 0.000000 0.500000
O O16 0.500000 0.000000 0.500000
#
# Coordination Sequence:
#
# PCOD9087258 Si02
#       8
#     2   2   2   2   2   2   2   1
#     4  10  19  37  62  92 121 167 208 260 319 376
#     4  10  22  42  66  95 125 173 223 261 315 396
#     4  11  24  41  65  96 130 167 213 269 325 387
#     4  10  19  36  62  91 127 160 207 263 319 385
#     4  12  25  46  63  94 135 172 217 273 319 371
#     4  10  22  43  68  87 126 178 222 257 310 392
#     4  11  21  39  64  96 133 163 210 266 333 387
#     4  12  20  38  62  98 128 156 208 264 330 380
#
# _framework density 21.799375999999999
#
# number of rings (size 3 to 8) (size 9 to 14) (size 15 to 20)
#    0.000    1.333    4.000    2.400    0.000    0.000 
#    4.800    8.667    0.000    0.000    0.000    0.000 
#    0.000    0.000    0.000    0.000    0.000    0.000 
#
# Total GULP energy -83520.369466 kJ/mol
# GULP energy per Si atom -5568.024631 kJ/mol
# Density = 2.174976 g / cm^3
# Si number density = 21.799376 Si / 1000 Ang^3
#
#
#
# Elastic Constant Matrix: (Units=GPa)
#
#
# Indices 1 2 3 4 5 6 
#
# 1 180.7172 22.6389 38.9303 -7.0755 -10.8401 -5.3239
# 2 22.6389 38.3801 10.1523 -0.9020 5.6334 -14.5587
# 3 38.9303 10.1523 53.7022 -12.3408 -22.2269 6.5930
# 4 -7.0755 -0.9020 -12.3408 26.4597 -4.7905 -9.7824
# 5 -10.8401 5.6334 -22.2269 -4.7905 27.4343 -6.3343
# 6 -5.3239 -14.5587 6.5930 -9.7824 -6.3343 21.1320
#
#
#
# Elastic Compliance Matrix: (Units=1/GPa)
#
#
# Indices 1 2 3 4 5 6 
#
# 1 0.006893 -0.001948 -0.005124 -0.000073 -0.000632 0.001770
# 2 -0.001948 0.047404 -0.018507 0.001678 -0.017475 0.033480
# 3 -0.005124 -0.018507 0.054931 0.032874 0.051929 -0.000396
# 4 -0.000073 0.001678 0.032874 0.077461 0.049378 0.041540
# 5 -0.000632 -0.017475 0.051929 0.049378 0.095837 0.023185
# 6 0.001770 0.033480 -0.000396 0.041540 0.023185 0.097136
#
#
# Mechanical properties :
#
#
# Convention : Reuss Voigt Hill
#
# Bulk Modulus (GPa) = 17.22096 46.24915 31.73505
# Shear Modulus (GPa) = 11.10674 28.41040 19.75857
#
# Velocity S-wave (km/s) = 2.25966 3.61399 3.01388
# Velocity P-wave (km/s) = 3.83731 6.21904 5.16727
#
# Compressibility (1/GPa) = 0.05806878
#
# Stress axis : x y z
#
# Youngs Moduli (GPa) = 145.07991 21.09526 18.20469
#
# Poissons Ratio (x) = 0.04109 0.09329
# Poissons Ratio (y) = 0.28258 0.33692
# Poissons Ratio (z) = 0.74346 0.39041
#
# Static dielectric constant tensor:
#      x y z
#    x 1.848460 0.045390 -0.007520 
#    y 0.045390 1.800700 0.010010 
#    z -0.007520 0.010010 1.809470 
# 
# From -- ./inp_files/155588.got.cif
#   From: 2010.05.17/outbox.cif.g08.bks.cpg/sg2_78_cif.got.tgz:155588.got - 2010.06.03 11:33:40.
