data_PCOD9087508
_publ_section_title
;
Structure prediction by ZEFSAII (Michael W. Deem and Ramdas Pophale) SiO2 
 PCOD9087508
Probable space group: P -1
;
_chemical_formula_sum "Si O2"
_cell_formula_units_Z 16
_cell_length_a 7.770396
_cell_length_b 8.789330
_cell_length_c 18.798974
_cell_angle_alpha 48.185116
_cell_angle_beta 46.222775
_cell_angle_gamma 63.520398
_cell_volume 690.631486
_symmetry_space_group_name_H-M "P -1"
_symmetry_group_IT_number 2
_symmetry_cell_setting 'triclinic'
loop_
_space_group_symop_operation_xyz
x,y,z
-x,-y,-z
loop_
_atom_site_type_symbol
_atom_site_label
_atom_site_fract_x
_atom_site_fract_y
_atom_site_fract_z
Si Si1 0.264836 0.356635 0.122556
Si Si2 0.807752 0.976096 0.123783
Si Si3 0.842936 0.812113 0.458790
Si Si4 0.698342 0.063377 0.799112
Si Si5 0.503148 0.180353 0.242237
Si Si6 0.821318 0.535501 0.267009
Si Si7 0.622097 0.162837 0.509537
Si Si8 0.607730 0.487317 0.715417
O O1 0.314840 0.243635 0.217763
O O2 0.031324 0.479274 0.169823
O O3 0.239378 0.173096 0.129099
O O4 0.500000 0.500000 0.000000
O O5 0.556714 0.961723 0.158450
O O6 0.858744 0.763246 0.213500
O O7 0.758312 0.150106 0.141135
O O8 0.000000 0.000000 0.000000
O O9 0.638411 0.798058 0.461078
O O10 0.825016 0.615996 0.576525
O O11 0.095507 0.854564 0.338121
O O12 0.759727 0.005815 0.468209
O O13 0.666338 0.261422 0.797135
O O14 0.501456 0.359131 0.244439
O O15 0.419859 0.963600 0.367343
O O16 0.773887 0.372598 0.393939
O O17 0.585951 0.533311 0.285814
#
# Coordination Sequence:
#
# PCOD9087508 Si02
#       8
#     2   2   2   2   2   2   2   2
#     4  11  23  40  59  83 118 166 207 243 293 352
#     4  10  22  41  60  81 119 168 209 244 296 354
#     4   9  16  33  60  92 128 155 183 238 308 371
#     4  10  19  36  64  87 113 165 201 232 298 365
#     4  10  22  40  60  89 123 148 199 263 303 340
#     4  10  19  38  62  85 121 167 196 232 305 372
#     4   9  18  33  60  94 123 151 189 251 308 357
#     4   9  20  37  62  94 122 151 197 244 302 359
#
# _framework density 23.167204999999999
#
# number of rings (size 3 to 8) (size 9 to 14) (size 15 to 20)
#    0.000    2.250    1.250    2.625    0.000    1.000 
#    4.500    6.250    0.000    0.000    0.000    0.000 
#    0.000    0.000    0.000    0.000    0.000    0.000 
#
# Total GULP energy -89260.717008 kJ/mol
# GULP energy per Si atom -5578.794813 kJ/mol
# Density = 2.311448 g / cm^3
# Si number density = 23.167205 Si / 1000 Ang^3
#
#
#
# Elastic Constant Matrix: (Units=GPa)
#
#
# Indices 1 2 3 4 5 6 
#
# 1 24.7664 -10.2714 9.6451 4.7092 -4.7525 -6.6587
# 2 -10.2714 132.4833 33.7569 4.8172 -9.0130 4.3782
# 3 9.6451 33.7569 95.4036 24.6376 -19.6013 0.6163
# 4 4.7092 4.8172 24.6376 34.7106 -10.8887 -7.1341
# 5 -4.7525 -9.0130 -19.6013 -10.8887 28.0884 7.5566
# 6 -6.6587 4.3782 0.6163 -7.1341 7.5566 16.8630
#
#
#
# Elastic Compliance Matrix: (Units=1/GPa)
#
#
# Indices 1 2 3 4 5 6 
#
# 1 0.050333 0.005114 -0.007399 0.001853 0.000499 0.019378
# 2 0.005114 0.008960 -0.003591 0.001065 0.001789 -0.000527
# 3 -0.007399 -0.003591 0.016871 -0.010036 0.008326 -0.010583
# 4 0.001853 0.001065 -0.010036 0.040339 0.005090 0.015607
# 5 0.000499 0.001789 0.008326 0.005090 0.049597 -0.020644
# 6 0.019378 -0.000527 -0.010583 0.015607 -0.020644 0.083330
#
#
# Mechanical properties :
#
#
# Convention : Reuss Voigt Hill
#
# Bulk Modulus (GPa) = 15.52534 35.43495 25.48014
# Shear Modulus (GPa) = 17.68942 30.56724 24.12833
#
# Velocity S-wave (km/s) = 2.76625 3.63632 3.23071
# Velocity P-wave (km/s) = 4.11325 5.74099 4.99388
#
# Compressibility (1/GPa) = 0.06441084
#
# Stress axis : x y z
#
# Youngs Moduli (GPa) = 19.86766 111.60618 59.27195
#
# Poissons Ratio (x) = -0.57073 0.43857
# Poissons Ratio (y) = -0.10160 0.21287
# Poissons Ratio (z) = 0.14701 0.40083
#
# Static dielectric constant tensor:
#      x y z
#    x 1.871510 0.044360 0.022000 
#    y 0.044360 2.015270 -0.021700 
#    z 0.022000 -0.021700 1.890330 
# 
# From -- ./inp_files/587205.got.cif
#   From: 2010.05.17/outbox.cif.g08.bks.cpg/sg2_294_cif.got.tgz:587205.got - 2010.06.03 11:33:40.
