data_PCOD9087953
_publ_section_title
;
Structure prediction by ZEFSAII (Michael W. Deem and Ramdas Pophale) SiO2 
 PCOD9087953
Probable space group: P -1
;
_chemical_formula_sum "Si O2"
_cell_formula_units_Z 14
_cell_length_a 14.055089
_cell_length_b 11.550747
_cell_length_c 10.245436
_cell_angle_alpha 113.665921
_cell_angle_beta 79.381711
_cell_angle_gamma 148.389191
_cell_volume 754.257564
_symmetry_space_group_name_H-M "P -1"
_symmetry_group_IT_number 2
_symmetry_cell_setting 'triclinic'
loop_
_space_group_symop_operation_xyz
x,y,z
-x,-y,-z
loop_
_atom_site_type_symbol
_atom_site_label
_atom_site_fract_x
_atom_site_fract_y
_atom_site_fract_z
Si Si1 0.173278 0.446929 0.486311
Si Si2 0.457027 0.527051 0.155466
Si Si3 0.139479 0.129840 0.403328
Si Si4 0.923465 0.014139 0.918910
Si Si5 0.450960 0.005680 0.374902
Si Si6 0.793219 0.500694 0.808709
Si Si7 0.748544 0.956028 0.487866
O O1 0.238466 0.374342 0.454659
O O2 0.154749 0.448195 0.335544
O O3 0.968434 0.228528 0.509422
O O4 0.343577 0.729434 0.620823
O O5 0.304513 0.264674 0.149288
O O6 0.351214 0.542092 0.161154
O O7 0.636467 0.764250 0.308701
O O8 0.500000 0.500000 0.000000
O O9 0.017099 0.954303 0.227609
O O10 0.260325 0.148952 0.434515
O O11 0.000000 0.000000 0.500000
O O12 0.000000 0.000000 0.000000
O O13 0.015228 0.248089 0.046973
O O14 0.313130 0.745663 0.229343
O O15 0.345822 0.018258 0.437405
O O16 0.500000 0.000000 0.500000
#
# Coordination Sequence:
#
# PCOD9087953 Si02
#       7
#     2   2   2   2   2   2   2
#     4  10  19  37  57  87 120 152 195 244 296 345
#     4  11  21  33  56  91 117 146 203 241 296 352
#     4  10  21  35  61  91 117 154 194 248 304 346
#     4  10  19  37  58  81 118 155 188 243 300 338
#     4  10  20  38  55  86 118 159 200 237 289 359
#     4  10  20  37  59  80 121 156 192 247 287 345
#     4  11  22  36  60  89 121 151 198 248 294 357
#
# _framework density 18.561299999999999
#
# number of rings (size 3 to 8) (size 9 to 14) (size 15 to 20)
#    0.000    1.714    5.714    0.857    6.000    4.571 
#    2.571    0.714    0.000    3.429    0.000    0.000 
#    0.000    0.000    0.000    0.000    0.000    0.000 
#
# Total GULP energy -78013.025226 kJ/mol
# GULP energy per Si atom -5572.358945 kJ/mol
# Density = 1.851905 g / cm^3
# Si number density = 18.561300 Si / 1000 Ang^3
#
#
#
# Elastic Constant Matrix: (Units=GPa)
#
#
# Indices 1 2 3 4 5 6 
#
# 1 71.0026 22.3251 18.5110 14.4272 6.6940 -4.8113
# 2 22.3251 136.9438 48.0299 38.3801 -6.9427 -7.8827
# 3 18.5110 48.0299 93.7323 10.0441 -7.9522 -11.6463
# 4 14.4272 38.3801 10.0441 38.1188 -9.1418 -10.4253
# 5 6.6940 -6.9427 -7.9522 -9.1418 19.0217 -1.3210
# 6 -4.8113 -7.8827 -11.6463 -10.4253 -1.3210 27.6438
#
#
#
# Elastic Compliance Matrix: (Units=1/GPa)
#
#
# Indices 1 2 3 4 5 6 
#
# 1 0.018134 0.000585 -0.004260 -0.010285 -0.013099 -0.002977
# 2 0.000585 0.012715 -0.006114 -0.013798 -0.005051 -0.004293
# 3 -0.004260 -0.006114 0.015587 0.008223 0.010268 0.007673
# 4 -0.010285 -0.013798 0.008223 0.054288 0.029474 0.019621
# 5 -0.013099 -0.005051 0.010268 0.029474 0.074858 0.015299
# 6 -0.002977 -0.004293 0.007673 0.019621 0.015299 0.045796
#
#
# Mechanical properties :
#
#
# Convention : Reuss Voigt Hill
#
# Bulk Modulus (GPa) = 37.23441 53.26786 45.25114
# Shear Modulus (GPa) = 20.00729 31.14438 25.57583
#
# Velocity S-wave (km/s) = 3.28671 4.10069 3.71605
# Velocity P-wave (km/s) = 5.87427 7.15412 6.54555
#
# Compressibility (1/GPa) = 0.02685688
#
# Stress axis : x y z
#
# Youngs Moduli (GPa) = 55.14559 78.64507 64.15777
#
# Poissons Ratio (x) = -0.04601 0.27331
# Poissons Ratio (y) = -0.03226 0.39229
# Poissons Ratio (z) = 0.23492 0.48087
#
# Static dielectric constant tensor:
#      x y z
#    x 1.746430 -0.043280 -0.040010 
#    y -0.043280 1.754660 0.047990 
#    z -0.040010 0.047990 1.682360 
# 
# From -- ./inp_files/308000.got.cif
#   From: 2010.05.17/outbox.cif.g08.bks.cpg/sg2_154_cif.got.tgz:308000.got - 2010.06.03 11:33:40.
