data_PCOD9087385
_publ_section_title
;
Structure prediction by ZEFSAII (Michael W. Deem and Ramdas Pophale) SiO2 
 PCOD9087385
Probable space group: P -1
;
_chemical_formula_sum "Si O2"
_cell_formula_units_Z 16
_cell_length_a 18.184554
_cell_length_b 5.106227
_cell_length_c 22.513497
_cell_angle_alpha 99.584506
_cell_angle_beta 158.570987
_cell_angle_gamma 78.085757
_cell_volume 745.369825
_symmetry_space_group_name_H-M "P -1"
_symmetry_group_IT_number 2
_symmetry_cell_setting 'triclinic'
loop_
_space_group_symop_operation_xyz
x,y,z
-x,-y,-z
loop_
_atom_site_type_symbol
_atom_site_label
_atom_site_fract_x
_atom_site_fract_y
_atom_site_fract_z
Si Si1 0.928031 0.243834 0.499807
Si Si2 0.124287 0.018645 0.743158
Si Si3 0.689631 0.463271 0.729437
Si Si4 0.744803 0.433802 0.091116
Si Si5 0.653950 0.741581 0.585711
Si Si6 0.115530 0.656954 0.937693
Si Si7 0.704030 0.422899 0.231673
Si Si8 0.877180 0.804690 0.976411
O O1 0.105526 0.432280 0.639716
O O2 0.733131 0.384588 0.323223
O O3 0.923180 0.128740 0.557819
O O4 0.000000 0.000000 0.500000
O O5 0.109690 0.801521 0.774934
O O6 0.268990 0.854114 0.795641
O O7 0.207445 0.274868 0.842538
O O8 0.684564 0.559156 0.660919
O O9 0.467959 0.374100 0.564122
O O10 0.735466 0.696691 0.816367
O O11 0.890307 0.239937 0.876057
O O12 0.762234 0.404833 0.032860
O O13 0.514963 0.413647 0.937736
O O14 0.885048 0.773328 0.747472
O O15 0.500000 0.000000 0.500000
O O16 0.122081 0.394604 0.973971
O O17 0.183979 0.892638 0.037755
#
# Coordination Sequence:
#
# PCOD9087385 Si02
#       8
#     2   2   2   2   2   2   2   2
#     4   9  20  37  64  89 119 149 199 256 307 346
#     4  11  22  40  63  92 114 157 207 255 293 364
#     4   9  20  34  64  93 110 153 204 259 287 346
#     4  12  25  38  63  88 126 159 203 248 311 359
#     4  10  19  36  63  89 121 151 203 249 301 349
#     4  11  24  41  58  86 127 165 192 249 306 361
#     4  10  21  39  64  92 117 157 205 257 297 365
#     4  10  21  39  62  87 118 156 207 243 296 356
#
# _framework density 21.465855000000001
#
# number of rings (size 3 to 8) (size 9 to 14) (size 15 to 20)
#    0.000    1.750    2.500    1.500    5.250    1.500 
#    0.000    1.250    5.500    0.000    0.000    0.000 
#    0.000    0.000    0.000    0.000    0.000    0.000 
#
# Total GULP energy -89253.555846 kJ/mol
# GULP energy per Si atom -5578.347240 kJ/mol
# Density = 2.141700 g / cm^3
# Si number density = 21.465855 Si / 1000 Ang^3
#
#
#
# Elastic Constant Matrix: (Units=GPa)
#
#
# Indices 1 2 3 4 5 6 
#
# 1 63.5826 12.7909 21.3351 5.9585 -16.6240 -2.9935
# 2 12.7909 81.0034 17.6667 15.1785 -3.9056 5.3850
# 3 21.3351 17.6667 84.1360 16.6056 -16.7353 -11.6533
# 4 5.9585 15.1785 16.6056 30.3720 -1.8537 -12.4979
# 5 -16.6240 -3.9056 -16.7353 -1.8537 21.6466 -1.9337
# 6 -2.9935 5.3850 -11.6533 -12.4979 -1.9337 24.8303
#
#
#
# Elastic Compliance Matrix: (Units=1/GPa)
#
#
# Indices 1 2 3 4 5 6 
#
# 1 0.020698 -0.002602 -0.001319 0.000430 0.014783 0.003808
# 2 -0.002602 0.015848 -0.002660 -0.010461 -0.003029 -0.010501
# 3 -0.001319 -0.002660 0.016939 -0.003936 0.011920 0.007315
# 4 0.000430 -0.010461 -0.003936 0.051225 0.002147 0.026424
# 5 0.014783 -0.003029 0.011920 0.002147 0.067687 0.014385
# 6 0.003808 -0.010501 0.007315 0.026424 0.014385 0.060863
#
#
# Mechanical properties :
#
#
# Convention : Reuss Voigt Hill
#
# Bulk Modulus (GPa) = 24.79952 36.92304 30.86128
# Shear Modulus (GPa) = 19.24086 27.16508 23.20297
#
# Velocity S-wave (km/s) = 2.99715 3.56125 3.29131
# Velocity P-wave (km/s) = 4.85338 5.84364 5.37138
#
# Compressibility (1/GPa) = 0.04032337
#
# Stress axis : x y z
#
# Youngs Moduli (GPa) = 48.31467 63.09782 59.03363
#
# Poissons Ratio (x) = 0.16415 0.07788
# Poissons Ratio (y) = 0.12569 0.15705
# Poissons Ratio (z) = 0.06374 0.16786
#
# Static dielectric constant tensor:
#      x y z
#    x 1.805760 0.042370 -0.017330 
#    y 0.042370 1.822020 -0.000790 
#    z -0.017330 -0.000790 1.825080 
# 
# From -- ./inp_files/613398.got.cif
#   From: 2010.05.17/outbox.cif.g08.bks.cpg/sg2_307_cif.got.tgz:613398.got - 2010.06.03 11:33:40.
