data_PCOD9087141
_publ_section_title
;
Structure prediction by ZEFSAII (Michael W. Deem and Ramdas Pophale) SiO2 
 PCOD9087141
Probable space group: P -1
;
_chemical_formula_sum "Si O2"
_cell_formula_units_Z 14
_cell_length_a 15.616840
_cell_length_b 9.338113
_cell_length_c 11.180436
_cell_angle_alpha 92.978153
_cell_angle_beta 131.861773
_cell_angle_gamma 123.765174
_cell_volume 737.359532
_symmetry_space_group_name_H-M "P -1"
_symmetry_group_IT_number 2
_symmetry_cell_setting 'triclinic'
loop_
_space_group_symop_operation_xyz
x,y,z
-x,-y,-z
loop_
_atom_site_type_symbol
_atom_site_label
_atom_site_fract_x
_atom_site_fract_y
_atom_site_fract_z
Si Si1 0.625738 0.763674 0.367446
Si Si2 0.466746 0.584793 0.574584
Si Si3 0.876632 0.554502 0.775661
Si Si4 0.815509 0.650948 0.115198
Si Si5 0.718269 0.767122 0.206354
Si Si6 0.834280 0.978465 0.074211
Si Si7 0.907865 0.251973 0.764684
O O1 0.617941 0.595868 0.405236
O O2 0.408068 0.591498 0.130774
O O3 0.746750 0.870812 0.363302
O O4 0.727434 0.973293 0.560132
O O5 0.500000 0.500000 0.500000
O O6 0.322093 0.562566 0.399284
O O7 0.662543 0.839544 0.818198
O O8 0.856357 0.367680 0.717870
O O9 0.992608 0.752392 0.789560
O O10 0.994862 0.682262 0.014333
O O11 0.826302 0.728812 0.262926
O O12 0.877932 0.850453 0.100446
O O13 0.938735 0.640189 0.188805
O O14 0.758922 0.910629 0.137590
O O15 0.500000 0.500000 0.000000
#
# Coordination Sequence:
#
# PCOD9087141 Si02
#       7
#     2   2   2   2   2   2   2
#     4  10  19  36  62  84 107 145 192 229 279 328
#     4  11  21  35  62  86 108 143 191 238 280 323
#     4  11  24  38  52  82 121 150 187 225 282 332
#     4   8  18  35  59  83 106 141 188 230 275 325
#     4   8  16  36  61  88 108 138 187 238 281 323
#     4   9  19  37  59  84 110 142 184 242 274 320
#     4  11  23  37  54  79 118 157 182 224 277 344
#
# _framework density 18.986668999999999
#
# number of rings (size 3 to 8) (size 9 to 14) (size 15 to 20)
#    0.857    1.429    1.429    3.429    0.000    3.429 
#    0.000    4.286    0.000    2.571    0.000    0.000 
#    0.000    0.000    0.000    0.000    0.000    0.000 
#
# Total GULP energy -78016.949828 kJ/mol
# GULP energy per Si atom -5572.639273 kJ/mol
# Density = 1.894345 g / cm^3
# Si number density = 18.986669 Si / 1000 Ang^3
#
#
#
# Elastic Constant Matrix: (Units=GPa)
#
#
# Indices 1 2 3 4 5 6 
#
# 1 93.2215 32.0867 13.2825 -10.8935 6.5016 -13.8746
# 2 32.0867 28.8204 8.0717 -5.8428 8.3252 -7.4734
# 3 13.2825 8.0717 48.7671 -0.9198 1.0423 -20.3261
# 4 -10.8935 -5.8428 -0.9198 22.3838 -1.4578 -1.2615
# 5 6.5016 8.3252 1.0423 -1.4578 30.7137 -2.9421
# 6 -13.8746 -7.4734 -20.3261 -1.2615 -2.9421 32.9433
#
#
#
# Elastic Compliance Matrix: (Units=1/GPa)
#
#
# Indices 1 2 3 4 5 6 
#
# 1 0.018162 -0.018899 -0.000326 0.004207 0.001823 0.003485
# 2 -0.018899 0.062334 -0.003455 0.006319 -0.012171 0.003205
# 3 -0.000326 -0.003455 0.028067 0.001138 0.001696 0.016591
# 4 0.004207 0.006319 0.001138 0.048760 0.000227 0.005795
# 5 0.001823 -0.012171 0.001696 0.000227 0.035640 0.002245
# 6 0.003485 0.003205 0.016591 0.005795 0.002245 0.043209
#
#
# Mechanical properties :
#
#
# Convention : Reuss Voigt Hill
#
# Bulk Modulus (GPa) = 15.82187 30.85453 23.33820
# Shear Modulus (GPa) = 16.52355 25.03270 20.77812
#
# Velocity S-wave (km/s) = 2.95324 3.63497 3.31169
# Velocity P-wave (km/s) = 4.46990 5.82265 5.19053
#
# Compressibility (1/GPa) = 0.06320364
#
# Stress axis : x y z
#
# Youngs Moduli (GPa) = 55.06114 16.04265 35.62944
#
# Poissons Ratio (x) = 0.30318 0.01161
# Poissons Ratio (y) = 1.04058 0.12309
# Poissons Ratio (z) = 0.01794 0.05542
#
# Static dielectric constant tensor:
#      x y z
#    x 1.698510 0.042700 -0.001510 
#    y 0.042700 1.651670 -0.009950 
#    z -0.001510 -0.009950 1.723650 
# 
# From -- ./inp_files/352854.got.cif
#   From: 2010.05.17/outbox.cif.g08.bks.cpg/sg2_177_cif.got.tgz:352854.got - 2010.06.03 11:33:40.
