data_PCOD9087165
_publ_section_title
;
Structure prediction by ZEFSAII (Michael W. Deem and Ramdas Pophale) SiO2 
 PCOD9087165
Probable space group: P -1
;
_chemical_formula_sum "Si O2"
_cell_formula_units_Z 14
_cell_length_a 8.712106
_cell_length_b 28.335019
_cell_length_c 28.123347
_cell_angle_alpha 10.116825
_cell_angle_beta 149.876606
_cell_angle_gamma 150.426700
_cell_volume 598.790662
_symmetry_space_group_name_H-M "P -1"
_symmetry_group_IT_number 2
_symmetry_cell_setting 'triclinic'
loop_
_space_group_symop_operation_xyz
x,y,z
-x,-y,-z
loop_
_atom_site_type_symbol
_atom_site_label
_atom_site_fract_x
_atom_site_fract_y
_atom_site_fract_z
Si Si1 0.811082 0.789031 0.557275
Si Si2 0.023119 0.987926 0.936483
Si Si3 0.236796 0.292503 0.275735
Si Si4 0.732862 0.622166 0.900204
Si Si5 0.541593 0.844739 0.328384
Si Si6 0.124668 0.474366 0.417524
Si Si7 0.347771 0.681745 0.175360
O O1 0.601460 0.727613 0.610074
O O2 0.653492 0.752896 0.500113
O O3 0.041096 0.084237 0.323416
O O4 0.032077 0.581426 0.832839
O O5 0.985847 0.167142 0.702038
O O6 0.362831 0.111123 0.927162
O O7 0.772128 0.047603 0.848248
O O8 0.009135 0.681208 0.218471
O O9 0.433132 0.352574 0.220258
O O10 0.000000 0.000000 0.500000
O O11 0.000000 0.500000 0.000000
O O12 0.500000 0.500000 0.000000
O O13 0.531250 0.578730 0.556118
O O14 0.753665 0.116696 0.091124
O O15 0.500000 0.500000 0.500000
O O16 0.105101 0.566378 0.266576
#
# Coordination Sequence:
#
# PCOD9087165 Si02
#       7
#     2   2   2   2   2   2   2
#     4  10  21  37  54  82 117 147 180 226 292 339
#     4  11  21  37  59  84 110 154 207 241 279 344
#     4   8  16  32  55  77 104 140 175 213 266 334
#     4  10  19  36  62  86 107 141 187 231 273 342
#     4  12  23  36  56  84 120 154 188 245 288 336
#     4  10  20  37  58  79 107 145 197 253 288 331
#     4  11  21  37  57  82 114 157 199 239 290 336
#
# _framework density 23.380458000000001
#
# number of rings (size 3 to 8) (size 9 to 14) (size 15 to 20)
#    0.000    1.714    0.000    7.286    0.000    0.000 
#    0.000    4.286    0.000    3.429    0.000    0.000 
#    0.000    0.000    0.000    0.000    0.000    0.000 
#
# Total GULP energy -78087.677552 kJ/mol
# GULP energy per Si atom -5577.691254 kJ/mol
# Density = 2.332724 g / cm^3
# Si number density = 23.380458 Si / 1000 Ang^3
#
#
#
# Elastic Constant Matrix: (Units=GPa)
#
#
# Indices 1 2 3 4 5 6 
#
# 1 126.2899 29.7195 26.7699 5.2015 -37.2194 -30.1412
# 2 29.7195 50.2792 15.1578 15.1962 -6.4924 -26.3263
# 3 26.7699 15.1578 164.0993 -6.6863 -8.1295 -11.4531
# 4 5.2015 15.1962 -6.6863 29.2562 -15.8545 -11.4502
# 5 -37.2194 -6.4924 -8.1295 -15.8545 52.6507 7.5991
# 6 -30.1412 -26.3263 -11.4531 -11.4502 7.5991 31.6754
#
#
#
# Elastic Compliance Matrix: (Units=1/GPa)
#
#
# Indices 1 2 3 4 5 6 
#
# 1 0.014456 -0.004237 -0.000244 0.009891 0.011039 0.011073
# 2 -0.004237 0.039076 -0.002108 -0.013930 -0.006180 0.024130
# 3 -0.000244 -0.002108 0.006686 0.004152 0.001627 0.001544
# 4 0.009891 -0.013930 0.004152 0.058059 0.021199 0.015237
# 5 0.011039 -0.006180 0.001627 0.021199 0.031805 0.005990
# 6 0.011073 0.024130 0.001544 0.015237 0.005990 0.066791
#
#
# Mechanical properties :
#
#
# Convention : Reuss Voigt Hill
#
# Bulk Modulus (GPa) = 21.25897 53.77363 37.51630
# Shear Modulus (GPa) = 20.34751 40.65120 30.49936
#
# Velocity S-wave (km/s) = 2.95325 4.17428 3.61568
# Velocity P-wave (km/s) = 4.55426 6.80309 5.78893
#
# Compressibility (1/GPa) = 0.04703897
#
# Stress axis : x y z
#
# Youngs Moduli (GPa) = 69.17589 25.59143 149.56697
#
# Poissons Ratio (x) = 0.10844 0.03651
# Poissons Ratio (y) = 0.29312 0.31525
# Poissons Ratio (z) = 0.01689 0.05394
#
# Static dielectric constant tensor:
#      x y z
#    x 2.239680 -0.059580 0.059000 
#    y -0.059580 1.952090 0.015890 
#    z 0.059000 0.015890 1.848410 
# 
# From -- ./inp_files/355285.got.cif
#   From: 2010.05.17/outbox.cif.g08.bks.cpg/sg2_178_cif.got.tgz:355285.got - 2010.06.03 11:33:40.
