data_PCOD9087548
_publ_section_title
;
Structure prediction by ZEFSAII (Michael W. Deem and Ramdas Pophale) SiO2 
 PCOD9087548
Probable space group: P -1
;
_chemical_formula_sum "Si O2"
_cell_formula_units_Z 14
_cell_length_a 7.828437
_cell_length_b 16.672794
_cell_length_c 16.282349
_cell_angle_alpha 29.591572
_cell_angle_beta 36.606721
_cell_angle_gamma 38.869147
_cell_volume 601.949047
_symmetry_space_group_name_H-M "P -1"
_symmetry_group_IT_number 2
_symmetry_cell_setting 'triclinic'
loop_
_space_group_symop_operation_xyz
x,y,z
-x,-y,-z
loop_
_atom_site_type_symbol
_atom_site_label
_atom_site_fract_x
_atom_site_fract_y
_atom_site_fract_z
Si Si1 0.281072 0.430739 0.203460
Si Si2 0.234768 0.259308 0.885285
Si Si3 0.727109 0.732277 0.948442
Si Si4 0.505615 0.929007 0.354713
Si Si5 0.363812 0.618998 0.723829
Si Si6 0.199969 0.091789 0.485696
Si Si7 0.885776 0.085800 0.773554
O O1 0.459235 0.361968 0.278365
O O2 0.191606 0.287107 0.314054
O O3 0.986790 0.574672 0.213331
O O4 0.500000 0.500000 0.000000
O O5 0.586685 0.234253 0.768941
O O6 0.155965 0.266161 0.005976
O O7 0.174392 0.091319 0.020579
O O8 0.013631 0.678231 0.826868
O O9 0.534653 0.918226 0.830241
O O10 0.567379 0.580668 0.142814
O O11 0.447791 0.750480 0.511199
O O12 0.829117 0.896725 0.301560
O O13 0.255169 0.004623 0.454292
O O14 0.950583 0.075180 0.660355
O O15 0.500000 0.000000 0.500000
#
# Coordination Sequence:
#
# PCOD9087548 Si02
#       7
#     2   2   2   2   2   2   2
#     4  12  20  37  66  89 123 161 211 265 308 361
#     4  11  24  40  63  94 125 166 208 262 316 375
#     4  11  24  39  61  95 134 160 207 260 322 379
#     4  11  22  42  66  94 125 167 210 262 317 378
#     4  11  22  39  61  95 125 165 208 263 316 372
#     4  10  19  36  64  91 117 154 212 262 301 359
#     4  10  22  43  64  89 123 165 218 256 313 372
#
# _framework density 23.257781000000001
#
# number of rings (size 3 to 8) (size 9 to 14) (size 15 to 20)
#    0.000    1.143    4.286    4.714    2.000    1.143 
#    0.000    0.714    0.000    0.000    0.000    0.000 
#    0.000    0.000    0.000    0.000    0.000    0.000 
#
# Total GULP energy -78273.913509 kJ/mol
# GULP energy per Si atom -5590.993822 kJ/mol
# Density = 2.320485 g / cm^3
# Si number density = 23.257781 Si / 1000 Ang^3
#
#
#
# Elastic Constant Matrix: (Units=GPa)
#
#
# Indices 1 2 3 4 5 6 
#
# 1 62.0063 5.6844 20.1421 -9.9496 -11.4647 -17.2858
# 2 5.6844 108.0335 35.1278 -10.0205 -4.3871 -28.3834
# 3 20.1421 35.1278 123.4418 -30.7857 -24.4108 -16.1101
# 4 -9.9496 -10.0205 -30.7857 26.6702 2.1750 0.3936
# 5 -11.4647 -4.3871 -24.4108 2.1750 35.3480 -3.1618
# 6 -17.2858 -28.3834 -16.1101 0.3936 -3.1618 26.3792
#
#
#
# Elastic Compliance Matrix: (Units=1/GPa)
#
#
# Indices 1 2 3 4 5 6 
#
# 1 0.027748 0.007123 0.004321 0.016387 0.014541 0.029984
# 2 0.007123 0.015608 0.000663 0.008450 0.006197 0.022484
# 3 0.004321 0.000663 0.016730 0.019878 0.013160 0.015043
# 4 0.016387 0.008450 0.019878 0.067697 0.018897 0.033225
# 5 0.014541 0.006197 0.013160 0.018897 0.044318 0.029263
# 6 0.029984 0.022484 0.015043 0.033225 0.029263 0.093947
#
#
# Mechanical properties :
#
#
# Convention : Reuss Voigt Hill
#
# Bulk Modulus (GPa) = 11.86229 46.15445 29.00837
# Shear Modulus (GPa) = 18.52302 33.18131 25.85217
#
# Velocity S-wave (km/s) = 2.82516 3.78123 3.33761
# Velocity P-wave (km/s) = 3.96906 6.24111 5.22996
#
# Compressibility (1/GPa) = 0.08430076
#
# Stress axis : x y z
#
# Youngs Moduli (GPa) = 36.03899 64.06780 59.77207
#
# Poissons Ratio (x) = -0.45637 -0.25827
# Poissons Ratio (y) = -0.25671 -0.03963
# Poissons Ratio (z) = -0.15572 -0.04248
#
# Static dielectric constant tensor:
#      x y z
#    x 1.881250 0.001110 -0.010080 
#    y 0.001110 1.853450 -0.028450 
#    z -0.010080 -0.028450 1.931970 
# 
# From -- ./inp_files/243638.got.cif
#   From: 2010.05.17/outbox.cif.g08.bks.cpg/sg2_122_cif.got.tgz:243638.got - 2010.06.03 11:33:40.
