data_PCOD9087551
_publ_section_title
;
Structure prediction by ZEFSAII (Michael W. Deem and Ramdas Pophale) SiO2 
 PCOD9087551
Probable space group: P -1
;
_chemical_formula_sum "Si O2"
_cell_formula_units_Z 12
_cell_length_a 13.537688
_cell_length_b 7.604801
_cell_length_c 8.681123
_cell_angle_alpha 58.079067
_cell_angle_beta 144.241818
_cell_angle_gamma 117.285228
_cell_volume 442.512762
_symmetry_space_group_name_H-M "P -1"
_symmetry_group_IT_number 2
_symmetry_cell_setting 'triclinic'
loop_
_space_group_symop_operation_xyz
x,y,z
-x,-y,-z
loop_
_atom_site_type_symbol
_atom_site_label
_atom_site_fract_x
_atom_site_fract_y
_atom_site_fract_z
Si Si1 0.548654 0.257288 0.677920
Si Si2 0.109884 0.976658 0.799426
Si Si3 0.835699 0.595536 0.176814
Si Si4 0.509059 0.289608 0.945758
Si Si5 0.615774 0.273903 0.414833
Si Si6 0.999358 0.303383 0.974840
O O1 0.516756 0.207877 0.477770
O O2 0.686327 0.421613 0.082134
O O3 0.743301 0.184490 0.966384
O O4 0.471292 0.185597 0.780355
O O5 0.465863 0.810583 0.808077
O O6 0.974609 0.891195 0.794618
O O7 0.000000 0.000000 0.500000
O O8 0.813409 0.241024 0.698655
O O9 0.000000 0.500000 0.500000
O O10 0.871667 0.653367 0.018611
O O11 0.617293 0.525020 0.284868
O O12 0.188822 0.195171 0.857398
O O13 0.500000 0.500000 0.500000
O O14 0.000000 0.500000 0.000000
#
# Coordination Sequence:
#
# PCOD9087551 Si02
#       6
#     2   2   2   2   2   2
#     4   9  19  39  62  88 123 170 212 266 323 385
#     4  11  24  39  61  98 132 167 221 275 326 395
#     4  12  22  38  63  95 131 170 217 268 331 388
#     4  10  19  36  64  91 120 172 212 266 328 389
#     4   9  19  35  62  91 122 164 220 256 326 385
#     4  11  22  40  64  95 129 172 215 274 332 393
#
# _framework density 27.117863
#
# number of rings (size 3 to 8) (size 9 to 14) (size 15 to 20)
#    0.000    1.667    1.667    4.500    0.000    0.000 
#    0.000    7.500    0.000   11.000    0.000    0.000 
#    0.000    0.000    0.000    0.000    0.000    0.000 
#
# Total GULP energy -67138.437714 kJ/mol
# GULP energy per Si atom -5594.869809 kJ/mol
# Density = 2.705614 g / cm^3
# Si number density = 27.117863 Si / 1000 Ang^3
#
#
#
# Elastic Constant Matrix: (Units=GPa)
#
#
# Indices 1 2 3 4 5 6 
#
# 1 216.1405 50.2855 55.4726 16.2424 -39.9334 -37.9856
# 2 50.2855 148.4696 33.2053 -15.7019 3.5775 -44.4187
# 3 55.4726 33.2053 135.9378 4.6812 -16.6555 -17.9415
# 4 16.2424 -15.7019 4.6812 27.0790 -13.5554 9.6565
# 5 -39.9334 3.5775 -16.6555 -13.5554 60.9433 14.8211
# 6 -37.9856 -44.4187 -17.9415 9.6565 14.8211 51.5707
#
#
#
# Elastic Compliance Matrix: (Units=1/GPa)
#
#
# Indices 1 2 3 4 5 6 
#
# 1 0.006715 -0.001472 -0.001498 -0.004743 0.002191 0.003416
# 2 -0.001472 0.010182 -0.001365 0.002712 -0.003185 0.007618
# 3 -0.001498 -0.001365 0.008544 -0.001049 0.001058 0.000586
# 4 -0.004743 0.002712 -0.001049 0.052677 0.011753 -0.014765
# 5 0.002191 -0.003185 0.001058 0.011753 0.023282 -0.009653
# 6 0.003416 0.007618 0.000586 -0.014765 -0.009653 0.034211
#
#
# Mechanical properties :
#
#
# Convention : Reuss Voigt Hill
#
# Bulk Modulus (GPa) = 59.62314 86.49720 73.06017
# Shear Modulus (GPa) = 33.36197 52.02423 42.69310
#
# Velocity S-wave (km/s) = 3.51131 4.38476 3.97212
# Velocity P-wave (km/s) = 6.20270 7.58952 6.93088
#
# Compressibility (1/GPa) = 0.01677201
#
# Stress axis : x y z
#
# Youngs Moduli (GPa) = 148.91676 98.21378 117.04063
#
# Poissons Ratio (x) = 0.14456 0.17534
# Poissons Ratio (y) = 0.21919 0.15971
# Poissons Ratio (z) = 0.22309 0.13402
#
# Static dielectric constant tensor:
#      x y z
#    x 2.174490 -0.033670 -0.023880 
#    y -0.033670 2.144110 -0.058750 
#    z -0.023880 -0.058750 2.134140 
# 
# From -- ./inp_files/393871.got.cif
#   From: 2010.05.17/outbox.cif.g08.bks.cpg/sg2_197_cif.got.tgz:393871.got - 2010.06.03 11:33:40.
