data_PCOD9087599
_publ_section_title
;
Structure prediction by ZEFSAII (Michael W. Deem and Ramdas Pophale) SiO2 
 PCOD9087599
Probable space group: P -1
;
_chemical_formula_sum "Si O2"
_cell_formula_units_Z 14
_cell_length_a 16.525046
_cell_length_b 7.725055
_cell_length_c 4.975555
_cell_angle_alpha 114.732043
_cell_angle_beta 65.014355
_cell_angle_gamma 96.973345
_cell_volume 521.731341
_symmetry_space_group_name_H-M "P -1"
_symmetry_group_IT_number 2
_symmetry_cell_setting 'triclinic'
loop_
_space_group_symop_operation_xyz
x,y,z
-x,-y,-z
loop_
_atom_site_type_symbol
_atom_site_label
_atom_site_fract_x
_atom_site_fract_y
_atom_site_fract_z
Si Si1 0.131408 0.102107 0.390037
Si Si2 0.236221 0.983717 0.645910
Si Si3 0.159330 0.583852 0.472865
Si Si4 0.407378 0.604693 0.803950
Si Si5 0.335609 0.416144 0.297438
Si Si6 0.051950 0.702312 0.228387
Si Si7 0.407283 0.007277 0.792642
O O1 0.212780 0.099952 0.484748
O O2 0.054822 0.271703 0.620406
O O3 0.082083 0.909633 0.416477
O O4 0.163840 0.058926 0.016649
O O5 0.329858 0.998188 0.671227
O O6 0.221454 0.763332 0.460349
O O7 0.234240 0.417761 0.329811
O O8 0.098506 0.557407 0.282805
O O9 0.095654 0.654763 0.851252
O O10 0.500000 0.500000 0.500000
O O11 0.333932 0.516701 0.654331
O O12 0.405296 0.828581 0.882303
O O13 0.390142 0.540842 0.089724
O O14 0.388111 0.210161 0.095558
O O15 0.500000 0.000000 0.500000
#
# Coordination Sequence:
#
# PCOD9087599 Si02
#       7
#     2   2   2   2   2   2   2
#     4   9  18  34  59  97 133 174 228 285 342 415
#     4  10  21  37  62  93 138 179 227 289 346 408
#     4  10  19  36  64  95 137 179 224 285 345 413
#     4  12  27  49  74 102 141 187 243 302 355 419
#     4  12  27  47  73 105 145 190 236 294 359 422
#     4   9  17  32  62  97 131 176 229 276 346 421
#     4  12  28  49  74 107 142 194 242 293 359 424
#
# _framework density 26.833731
#
# number of rings (size 3 to 8) (size 9 to 14) (size 15 to 20)
#    0.000    1.429    2.857    2.143    4.000    6.286 
#    0.000    0.000    0.000    5.143    0.000    0.000 
#    0.000    0.000    0.000    0.000    0.000    0.000 
#
# Total GULP energy -78616.794603 kJ/mol
# GULP energy per Si atom -5615.485329 kJ/mol
# Density = 2.677266 g / cm^3
# Si number density = 26.833731 Si / 1000 Ang^3
#
#
#
# Elastic Constant Matrix: (Units=GPa)
#
#
# Indices 1 2 3 4 5 6 
#
# 1 86.6110 27.8965 33.1731 4.5530 -12.1277 -4.6680
# 2 27.8965 171.3625 44.0032 22.7704 3.3742 -18.6613
# 3 33.1731 44.0032 85.5354 -9.3736 -18.5365 -15.1337
# 4 4.5530 22.7704 -9.3736 42.4492 -9.3315 3.1702
# 5 -12.1277 3.3742 -18.5365 -9.3315 58.3012 -1.2357
# 6 -4.6680 -18.6613 -15.1337 3.1702 -1.2357 33.4317
#
#
#
# Elastic Compliance Matrix: (Units=1/GPa)
#
#
# Indices 1 2 3 4 5 6 
#
# 1 0.013968 -0.000787 -0.005110 -0.001941 0.001003 -0.000581
# 2 -0.000787 0.008469 -0.004946 -0.006469 -0.003201 0.002874
# 3 -0.005110 -0.004946 0.019515 0.008673 0.006918 0.004793
# 4 -0.001941 -0.006469 0.008673 0.031026 0.007639 -0.002616
# 5 0.001003 -0.003201 0.006918 0.007639 0.021001 0.001537
# 6 -0.000581 0.002874 0.004793 -0.002616 0.001537 0.033909
#
#
# Mechanical properties :
#
#
# Convention : Reuss Voigt Hill
#
# Bulk Modulus (GPa) = 49.34399 61.51717 55.43058
# Shear Modulus (GPa) = 31.98365 42.73216 37.35791
#
# Velocity S-wave (km/s) = 3.45616 3.99492 3.73527
# Velocity P-wave (km/s) = 5.86135 6.65239 6.26936
#
# Compressibility (1/GPa) = 0.02026589
#
# Stress axis : x y z
#
# Youngs Moduli (GPa) = 71.59309 118.07318 51.24225
#
# Poissons Ratio (x) = 0.09289 0.26187
# Poissons Ratio (y) = 0.05632 0.25345
# Poissons Ratio (z) = 0.36587 0.58399
#
# Static dielectric constant tensor:
#      x y z
#    x 2.125610 0.065100 -0.017020 
#    y 0.065100 2.177040 0.031060 
#    z -0.017020 0.031060 1.967090 
# 
# From -- ./inp_files/91104.got.cif
#   From: 2010.05.17/outbox.cif.g08.bks.cpg/sg2_46_cif.got.tgz:91104.got - 2010.06.03 11:33:40.
