data_PCOD9087444
_publ_section_title
;
Structure prediction by ZEFSAII (Michael W. Deem and Ramdas Pophale) SiO2 
 PCOD9087444
Probable space group: P -1
;
_chemical_formula_sum "Si O2"
_cell_formula_units_Z 16
_cell_length_a 8.820755
_cell_length_b 12.077163
_cell_length_c 11.549524
_cell_angle_alpha 57.167435
_cell_angle_beta 83.411271
_cell_angle_gamma 123.169538
_cell_volume 701.909686
_symmetry_space_group_name_H-M "P -1"
_symmetry_group_IT_number 2
_symmetry_cell_setting 'triclinic'
loop_
_space_group_symop_operation_xyz
x,y,z
-x,-y,-z
loop_
_atom_site_type_symbol
_atom_site_label
_atom_site_fract_x
_atom_site_fract_y
_atom_site_fract_z
Si Si1 0.726886 0.960133 0.756254
Si Si2 0.408696 0.236435 0.593029
Si Si3 0.921790 0.539399 0.090193
Si Si4 0.449148 0.123275 0.435363
Si Si5 0.487257 0.410574 0.720701
Si Si6 0.678043 0.285488 0.883141
Si Si7 0.222549 0.723010 0.362518
Si Si8 0.718120 0.670282 0.967875
O O1 0.669347 0.923436 0.648233
O O2 0.840249 0.170506 0.651829
O O3 0.510369 0.828321 0.935964
O O4 0.828444 0.881015 0.813173
O O5 0.311495 0.094079 0.572663
O O6 0.354549 0.241566 0.729576
O O7 0.443698 0.406099 0.443369
O O8 0.614669 0.263298 0.581446
O O9 0.685667 0.347148 0.273238
O O10 0.888987 0.658944 0.964251
O O11 0.104392 0.634660 0.119277
O O12 0.000000 0.500000 0.000000
O O13 0.500000 0.000000 0.500000
O O14 0.678218 0.433667 0.743449
O O15 0.353452 0.362234 0.873995
O O16 0.655697 0.188367 0.822475
O O17 0.000000 0.500000 0.500000
O O18 0.500000 0.500000 0.000000
#
# Coordination Sequence:
#
# PCOD9087444 Si02
#       8
#     2   2   2   2   2   2   2   2
#     4  11  22  41  64  95 126 171 220 263 327 385
#     4  10  19  36  63  93 125 170 217 259 325 387
#     4  12  22  39  67  97 130 168 213 266 329 384
#     4  12  22  37  65  96 128 169 219 266 316 395
#     4   9  19  36  62  96 123 170 218 260 319 389
#     4  10  22  39  64  93 127 165 215 269 319 383
#     4  11  23  39  65  93 132 170 219 268 323 390
#     4  11  20  38  66  96 131 172 216 267 324 389
#
# _framework density 22.794955999999999
#
# number of rings (size 3 to 8) (size 9 to 14) (size 15 to 20)
#    0.000    1.250    5.000    1.875    0.000    0.000 
#    0.000    0.625   19.250    1.500    0.000    0.000 
#    0.000    0.000    0.000    0.000    0.000    0.000 
#
# Total GULP energy -89143.804048 kJ/mol
# GULP energy per Si atom -5571.487753 kJ/mol
# Density = 2.274307 g / cm^3
# Si number density = 22.794956 Si / 1000 Ang^3
#
#
#
# Elastic Constant Matrix: (Units=GPa)
#
#
# Indices 1 2 3 4 5 6 
#
# 1 155.2731 56.8277 42.7522 -0.5986 41.4306 -27.2216
# 2 56.8277 115.9445 55.6511 34.6991 11.4702 -27.4610
# 3 42.7522 55.6511 85.5665 9.4792 18.2206 0.0082
# 4 -0.5986 34.6991 9.4792 48.7198 -4.8824 2.1878
# 5 41.4306 11.4702 18.2206 -4.8824 42.8968 11.4573
# 6 -27.2216 -27.4610 0.0082 2.1878 11.4573 35.4040
#
#
#
# Elastic Compliance Matrix: (Units=1/GPa)
#
#
# Indices 1 2 3 4 5 6 
#
# 1 0.015743 0.002617 -0.004964 -0.003616 -0.019750 0.020750
# 2 0.002617 0.029854 -0.015232 -0.021154 -0.014799 0.031268
# 3 -0.004964 -0.015232 0.022126 0.007792 0.005102 -0.017769
# 4 -0.003616 -0.021154 0.007792 0.036978 0.017276 -0.027066
# 5 -0.019750 -0.014799 0.005102 0.017276 0.058617 -0.046702
# 6 0.020750 0.031268 -0.017769 -0.027066 -0.046702 0.085243
#
#
# Mechanical properties :
#
#
# Convention : Reuss Voigt Hill
#
# Bulk Modulus (GPa) = 30.70812 74.13845 52.42328
# Shear Modulus (GPa) = 16.97373 38.84101 27.90737
#
# Velocity S-wave (km/s) = 2.73175 4.13235 3.50276
# Velocity P-wave (km/s) = 4.84258 7.44064 6.27749
#
# Compressibility (1/GPa) = 0.03256468
#
# Stress axis : x y z
#
# Youngs Moduli (GPa) = 63.52158 33.49636 45.19623
#
# Poissons Ratio (x) = -0.08766 0.22433
# Poissons Ratio (y) = -0.16623 0.68844
# Poissons Ratio (z) = 0.31529 0.51022
#
# Static dielectric constant tensor:
#      x y z
#    x 1.904750 0.012770 0.109300 
#    y 0.012770 1.891560 -0.006350 
#    z 0.109300 -0.006350 1.916990 
# 
# From -- ./inp_files/392358.got.cif
#   From: 2010.05.17/outbox.cif.g08.bks.cpg/sg2_197_cif.got.tgz:392358.got - 2010.06.03 11:33:40.
