data_PCOD9087767
_publ_section_title
;
Structure prediction by ZEFSAII (Michael W. Deem and Ramdas Pophale) SiO2 
 PCOD9087767
Probable space group: P -1
;
_chemical_formula_sum "Si O2"
_cell_formula_units_Z 14
_cell_length_a 9.035817
_cell_length_b 9.813766
_cell_length_c 15.690518
_cell_angle_alpha 35.978985
_cell_angle_beta 61.220359
_cell_angle_gamma 86.134843
_cell_volume 558.865151
_symmetry_space_group_name_H-M "P -1"
_symmetry_group_IT_number 2
_symmetry_cell_setting 'triclinic'
loop_
_space_group_symop_operation_xyz
x,y,z
-x,-y,-z
loop_
_atom_site_type_symbol
_atom_site_label
_atom_site_fract_x
_atom_site_fract_y
_atom_site_fract_z
Si Si1 0.442822 0.982987 0.867174
Si Si2 0.719308 0.145059 0.265978
Si Si3 0.714038 0.619334 0.699644
Si Si4 0.414736 0.195997 0.220575
Si Si5 0.166265 0.434675 0.479006
Si Si6 0.100045 0.978000 0.856561
Si Si7 0.652223 0.449055 0.264869
O O1 0.591173 0.253590 0.753196
O O2 0.283739 0.017994 0.842670
O O3 0.619630 0.019915 0.734604
O O4 0.312475 0.655841 0.110409
O O5 0.620252 0.260226 0.177880
O O6 0.724291 0.261158 0.299148
O O7 0.916922 0.199259 0.135166
O O8 0.531922 0.785457 0.499584
O O9 0.759162 0.862992 0.632756
O O10 0.863041 0.731250 0.517870
O O11 0.477368 0.500321 0.790950
O O12 0.500000 0.500000 0.000000
O O13 0.147809 0.264961 0.655517
O O14 0.000000 0.500000 0.500000
O O15 0.868546 0.760535 0.076177
#
# Coordination Sequence:
#
# PCOD9087767 Si02
#       7
#     2   2   2   2   2   2   2
#     4  10  22  42  65  93 135 166 211 275 324 381
#     4   9  18  35  62  95 131 159 212 260 320 383
#     4  10  20  42  67  92 126 171 217 264 319 392
#     4   8  17  36  67  91 125 164 201 264 332 366
#     4  12  25  43  63  91 129 179 224 263 318 389
#     4  11  22  40  63  95 130 168 215 268 326 379
#     4  10  19  36  67  95 125 168 211 263 321 387
#
# _framework density 25.050765999999999
#
# number of rings (size 3 to 8) (size 9 to 14) (size 15 to 20)
#    0.000    2.000    1.429    2.143    0.000    0.000 
#    5.143    3.571    0.000    0.000    0.000    0.000 
#    0.000    0.000    0.000    0.000    0.000    0.000 
#
# Total GULP energy -78147.617171 kJ/mol
# GULP energy per Si atom -5581.972655 kJ/mol
# Density = 2.499375 g / cm^3
# Si number density = 25.050766 Si / 1000 Ang^3
#
#
#
# Elastic Constant Matrix: (Units=GPa)
#
#
# Indices 1 2 3 4 5 6 
#
# 1 123.3713 10.0991 48.9454 5.5033 34.1486 -14.3220
# 2 10.0991 105.3327 -1.7052 7.7098 -5.2442 -15.2745
# 3 48.9454 -1.7052 104.8223 11.6541 18.1425 -7.4864
# 4 5.5033 7.7098 11.6541 21.9848 -7.0299 1.7547
# 5 34.1486 -5.2442 18.1425 -7.0299 52.3829 2.5117
# 6 -14.3220 -15.2745 -7.4864 1.7547 2.5117 27.9927
#
#
#
# Elastic Compliance Matrix: (Units=1/GPa)
#
#
# Indices 1 2 3 4 5 6 
#
# 1 0.012689 -0.000468 -0.003667 -0.004090 -0.007896 0.006221
# 2 -0.000468 0.010846 0.001415 -0.004968 -0.000072 0.006375
# 3 -0.003667 0.001415 0.012884 -0.007649 -0.003105 0.003100
# 4 -0.004090 -0.004968 -0.007649 0.057417 0.013081 -0.011622
# 5 -0.007896 -0.000072 -0.003105 0.013081 0.027454 -0.008193
# 6 0.006221 0.006375 0.003100 -0.011622 -0.008193 0.044678
#
#
# Mechanical properties :
#
#
# Convention : Reuss Voigt Hill
#
# Bulk Modulus (GPa) = 32.27863 49.80055 41.03959
# Shear Modulus (GPa) = 27.51272 38.88454 33.19863
#
# Velocity S-wave (km/s) = 3.31762 3.94411 3.64435
# Velocity P-wave (km/s) = 5.25250 6.37686 5.84179
#
# Compressibility (1/GPa) = 0.03098025
#
# Stress axis : x y z
#
# Youngs Moduli (GPa) = 78.80962 92.19954 77.61304
#
# Poissons Ratio (x) = 0.04311 0.28460
# Poissons Ratio (y) = 0.03685 -0.10982
# Poissons Ratio (z) = 0.28898 -0.13045
#
# Static dielectric constant tensor:
#      x y z
#    x 1.924000 0.012640 -0.002850 
#    y 0.012640 2.132520 -0.000520 
#    z -0.002850 -0.000520 1.963610 
# 
# From -- ./inp_files/558842.got.cif
#   From: 2010.05.17/outbox.cif.g08.bks.cpg/sg2_280_cif.got.tgz:558842.got - 2010.06.03 11:33:40.
