data_PCOD9087362
_publ_section_title
;
Structure prediction by ZEFSAII (Michael W. Deem and Ramdas Pophale) SiO2 
 PCOD9087362
Probable space group: P -1
;
_chemical_formula_sum "Si O2"
_cell_formula_units_Z 16
_cell_length_a 22.833290
_cell_length_b 15.951344
_cell_length_c 18.664586
_cell_angle_alpha 30.649893
_cell_angle_beta 16.242561
_cell_angle_gamma 23.772014
_cell_volume 756.270807
_symmetry_space_group_name_H-M "P -1"
_symmetry_group_IT_number 2
_symmetry_cell_setting 'triclinic'
loop_
_space_group_symop_operation_xyz
x,y,z
-x,-y,-z
loop_
_atom_site_type_symbol
_atom_site_label
_atom_site_fract_x
_atom_site_fract_y
_atom_site_fract_z
Si Si1 0.799817 0.847011 0.668775
Si Si2 0.403075 0.555242 0.154336
Si Si3 0.689659 0.548689 0.950304
Si Si4 0.425430 0.502502 0.666281
Si Si5 0.177764 0.763611 0.491231
Si Si6 0.405828 0.862845 0.689791
Si Si7 0.764822 0.730915 0.956475
Si Si8 0.806121 0.184991 0.165484
O O1 0.788095 0.807997 0.795574
O O2 0.096036 0.770942 0.361245
O O3 0.771629 0.690177 0.772989
O O4 0.525980 0.084354 0.803630
O O5 0.617016 0.557630 0.946702
O O6 0.412162 0.369505 0.317748
O O7 0.500000 0.500000 0.000000
O O8 0.409588 0.641066 0.250496
O O9 0.869145 0.318941 0.944932
O O10 0.500000 0.500000 0.500000
O O11 0.670874 0.287749 0.574678
O O12 0.346873 0.686208 0.677462
O O13 0.193616 0.480569 0.951981
O O14 0.995751 0.693514 0.760734
O O15 0.000000 0.000000 0.500000
O O16 0.366525 0.844683 0.663803
O O17 0.500000 0.000000 0.500000
O O18 0.101346 0.977102 0.991035
#
# Coordination Sequence:
#
# PCOD9087362 Si02
#       8
#     2   2   2   2   2   2   2   2
#     4  11  20  36  63  93 121 159 214 251 307 387
#     4  11  25  39  59  93 127 158 202 273 329 362
#     4  10  19  36  63  87 121 159 203 263 308 376
#     4  11  25  40  59  94 139 169 202 270 326 374
#     4  11  19  37  64  93 119 161 216 251 303 385
#     4  10  21  40  68  85 109 167 220 257 304 381
#     4  11  21  35  65  94 120 170 210 252 311 388
#     4   9  20  39  60  87 117 159 215 254 302 376
#
# _framework density 21.156441999999998
#
# number of rings (size 3 to 8) (size 9 to 14) (size 15 to 20)
#    0.000    1.500    5.000    1.500    0.000    2.000 
#    0.000    1.250    0.000    0.000    0.000    0.000 
#    0.000    0.000    0.000    0.000    0.000    0.000 
#
# Total GULP energy -89257.090608 kJ/mol
# GULP energy per Si atom -5578.568163 kJ/mol
# Density = 2.110829 g / cm^3
# Si number density = 21.156442 Si / 1000 Ang^3
#
#
#
# Elastic Constant Matrix: (Units=GPa)
#
#
# Indices 1 2 3 4 5 6 
#
# 1 129.9029 21.7202 26.5459 -5.4397 1.3155 23.6358
# 2 21.7202 47.2929 5.9362 3.4562 -9.4221 15.2681
# 3 26.5459 5.9362 51.9581 9.0700 -8.1885 5.3860
# 4 -5.4397 3.4562 9.0700 32.8357 14.2848 -12.5843
# 5 1.3155 -9.4221 -8.1885 14.2848 35.7342 -9.5893
# 6 23.6358 15.2681 5.3860 -12.5843 -9.5893 26.4997
#
#
#
# Elastic Compliance Matrix: (Units=1/GPa)
#
#
# Indices 1 2 3 4 5 6 
#
# 1 0.011048 -0.003610 -0.006198 0.003996 -0.006219 -0.006867
# 2 -0.003610 0.032811 0.005510 -0.018983 0.011858 -0.021528
# 3 -0.006198 0.005510 0.027654 -0.017625 0.013225 -0.006851
# 4 0.003996 -0.018983 -0.017625 0.060709 -0.025233 0.030654
# 5 -0.006219 0.011858 0.013225 -0.025233 0.044497 0.000145
# 6 -0.006867 -0.021528 -0.006851 0.030654 0.000145 0.072267
#
#
# Mechanical properties :
#
#
# Convention : Reuss Voigt Hill
#
# Bulk Modulus (GPa) = 15.89379 37.50651 26.70015
# Shear Modulus (GPa) = 17.94980 30.67737 24.31358
#
# Velocity S-wave (km/s) = 2.91595 3.81205 3.39370
# Velocity P-wave (km/s) = 4.34348 6.09445 5.29188
#
# Compressibility (1/GPa) = 0.06291764
#
# Stress axis : x y z
#
# Youngs Moduli (GPa) = 90.51386 30.47740 36.16064
#
# Poissons Ratio (x) = 0.11003 0.22412
# Poissons Ratio (y) = 0.32676 -0.19924
# Poissons Ratio (z) = 0.56100 -0.16793
#
# Static dielectric constant tensor:
#      x y z
#    x 1.527350 0.344470 0.332430 
#    y 0.344470 1.382340 -0.498310 
#    z 0.332430 -0.498310 1.223040 
# 
# From -- ./inp_files/578180.got.cif
#   From: 2010.05.17/outbox.cif.g08.bks.cpg/sg2_290_cif.got.tgz:578180.got - 2010.06.03 11:33:40.
