data_PCOD9087111
_publ_section_title
;
Structure prediction by ZEFSAII (Michael W. Deem and Ramdas Pophale) SiO2 
 PCOD9087111
Probable space group: P -1
;
_chemical_formula_sum "Si O2"
_cell_formula_units_Z 14
_cell_length_a 10.192479
_cell_length_b 14.911993
_cell_length_c 7.594640
_cell_angle_alpha 98.364852
_cell_angle_beta 43.939277
_cell_angle_gamma 121.233055
_cell_volume 632.345661
_symmetry_space_group_name_H-M "P -1"
_symmetry_group_IT_number 2
_symmetry_cell_setting 'triclinic'
loop_
_space_group_symop_operation_xyz
x,y,z
-x,-y,-z
loop_
_atom_site_type_symbol
_atom_site_label
_atom_site_fract_x
_atom_site_fract_y
_atom_site_fract_z
Si Si1 0.181158 0.480694 0.910383
Si Si2 0.615048 0.312477 0.030300
Si Si3 0.161117 0.095108 0.228607
Si Si4 0.765529 0.107169 0.466648
Si Si5 0.255233 0.932795 0.937962
Si Si6 0.964592 0.691534 0.282493
Si Si7 0.952639 0.350477 0.455261
O O1 0.068880 0.410121 0.178057
O O2 0.398844 0.605097 0.805201
O O3 0.000000 0.500000 0.000000
O O4 0.195611 0.402567 0.736869
O O5 0.378084 0.204067 0.150801
O O6 0.775367 0.283927 0.968238
O O7 0.787071 0.379225 0.713330
O O8 0.001474 0.123771 0.297978
O O9 0.000000 0.000000 0.500000
O O10 0.227890 0.032872 0.013946
O O11 0.754828 0.099917 0.264343
O O12 0.784507 0.215714 0.542009
O O13 0.528933 0.994229 0.745914
O O14 0.047756 0.818249 0.206309
O O15 0.881164 0.638851 0.543565
#
# Coordination Sequence:
#
# PCOD9087111 Si02
#       7
#     2   2   2   2   2   2   2
#     4  10  19  36  61  97 122 161 216 257 311 378
#     4   9  21  36  59  91 125 160 214 254 313 373
#     4  12  24  39  62  93 129 168 210 260 316 380
#     4  11  23  37  65  91 130 167 212 261 316 375
#     4  11  21  42  61  94 128 167 213 259 317 376
#     4   9  19  33  65  88 126 161 208 257 307 374
#     4  10  19  37  61  94 123 165 208 257 317 368
#
# _framework density 22.139789
#
# number of rings (size 3 to 8) (size 9 to 14) (size 15 to 20)
#    0.857    0.857    2.857    2.571    0.000    1.714 
#    0.000    0.714    0.000    1.714    0.000    0.000 
#    0.000    0.000    0.000    0.000    0.000    0.000 
#
# Total GULP energy -78073.737423 kJ/mol
# GULP energy per Si atom -5576.695530 kJ/mol
# Density = 2.208940 g / cm^3
# Si number density = 22.139789 Si / 1000 Ang^3
#
#
#
# Elastic Constant Matrix: (Units=GPa)
#
#
# Indices 1 2 3 4 5 6 
#
# 1 71.4036 44.4509 18.0949 4.8496 11.9000 14.5003
# 2 44.4509 148.5900 20.9206 10.8826 1.8250 29.7248
# 3 18.0949 20.9206 41.5527 16.1368 15.7400 4.3758
# 4 4.8496 10.8826 16.1368 31.8976 -3.3432 7.0492
# 5 11.9000 1.8250 15.7400 -3.3432 41.9141 2.4545
# 6 14.5003 29.7248 4.3758 7.0492 2.4545 36.9308
#
#
#
# Elastic Compliance Matrix: (Units=1/GPa)
#
#
# Indices 1 2 3 4 5 6 
#
# 1 0.019158 -0.004366 -0.005367 0.001767 -0.002887 -0.003518
# 2 -0.004366 0.009644 -0.003614 0.000786 0.002587 -0.005942
# 3 -0.005367 -0.003614 0.042566 -0.022383 -0.016401 0.005335
# 4 0.001767 0.000786 -0.022383 0.045177 0.011947 -0.008091
# 5 -0.002887 0.002587 -0.016401 0.011947 0.031877 -0.003405
# 6 -0.003518 -0.005942 0.005335 -0.008091 -0.003405 0.034380
#
#
# Mechanical properties :
#
#
# Convention : Reuss Voigt Hill
#
# Bulk Modulus (GPa) = 22.38405 47.60879 34.99642
# Shear Modulus (GPa) = 22.28296 34.02050 28.15173
#
# Velocity S-wave (km/s) = 3.17593 3.92423 3.56974
# Velocity P-wave (km/s) = 4.85602 6.48716 5.72993
#
# Compressibility (1/GPa) = 0.04467466
#
# Stress axis : x y z
#
# Youngs Moduli (GPa) = 52.19668 103.69014 23.49316
#
# Poissons Ratio (x) = 0.45270 0.12608
# Poissons Ratio (y) = 0.22788 0.08490
# Poissons Ratio (z) = 0.28013 0.37474
#
# Static dielectric constant tensor:
#      x y z
#    x 1.902200 0.015550 -0.064300 
#    y 0.015550 1.853520 0.015030 
#    z -0.064300 0.015030 1.868960 
# 
# From -- ./inp_files/257341.got.cif
#   From: 2010.05.17/outbox.cif.g08.bks.cpg/sg2_129_cif.got.tgz:257341.got - 2010.06.03 11:33:40.
