data_PCOD9087015
_publ_section_title
;
Structure prediction by ZEFSAII (Michael W. Deem and Ramdas Pophale) SiO2 
 PCOD9087015
Probable space group: P -1
;
_chemical_formula_sum "Si O2"
_cell_formula_units_Z 16
_cell_length_a 12.557732
_cell_length_b 9.961973
_cell_length_c 15.401878
_cell_angle_alpha 137.992832
_cell_angle_beta 40.524529
_cell_angle_gamma 117.849235
_cell_volume 816.434610
_symmetry_space_group_name_H-M "P -1"
_symmetry_group_IT_number 2
_symmetry_cell_setting 'triclinic'
loop_
_space_group_symop_operation_xyz
x,y,z
-x,-y,-z
loop_
_atom_site_type_symbol
_atom_site_label
_atom_site_fract_x
_atom_site_fract_y
_atom_site_fract_z
Si Si1 0.514908 0.474896 0.580387
Si Si2 0.536433 0.919628 0.803913
Si Si3 0.342286 0.272722 0.979643
Si Si4 0.346852 0.888005 0.560851
Si Si5 0.932628 0.840821 0.024950
Si Si6 0.681803 0.163284 0.948634
Si Si7 0.580556 0.454660 0.790325
Si Si8 0.138047 0.616653 0.938097
O O1 0.500000 0.500000 0.500000
O O2 0.588592 0.674391 0.652073
O O3 0.617836 0.260719 0.448811
O O4 0.330595 0.495070 0.747095
O O5 0.443348 0.046546 0.841048
O O6 0.686040 0.020149 0.793281
O O7 0.391784 0.951560 0.982911
O O8 0.178347 0.264822 0.021649
O O9 0.465394 0.357684 0.879963
O O10 0.315260 0.421736 0.152867
O O11 0.330622 0.731090 0.417111
O O12 0.500000 0.000000 0.500000
O O13 0.186061 0.057042 0.772075
O O14 0.085381 0.701588 0.915752
O O15 0.000000 0.000000 0.000000
O O16 0.842305 0.223391 0.920651
O O17 0.545490 0.369679 0.103114
O O18 0.000000 0.500000 0.000000
#
# Coordination Sequence:
#
# PCOD9087015 Si02
#       8
#     2   2   2   2   2   2   2   2
#     4  11  22  38  61  89 112 150 198 247 287 337
#     4   9  17  32  57  85 109 141 196 247 277 332
#     4  10  20  35  58  88 119 152 194 245 292 342
#     4  12  22  39  62  90 117 152 205 247 283 344
#     4  12  24  38  57  88 125 156 184 238 310 357
#     4   9  17  34  58  84 107 148 197 240 281 337
#     4  10  19  36  61  89 111 150 206 249 278 334
#     4  11  21  37  59  84 116 154 188 231 296 358
#
# _framework density 19.597404999999998
#
# number of rings (size 3 to 8) (size 9 to 14) (size 15 to 20)
#    0.000    1.500    3.750    4.500    0.000    0.000 
#    0.000    0.625    2.750    0.750    0.000    0.000 
#    0.000    0.000    0.000    0.000    0.000    0.000 
#
# Total GULP energy -89118.043750 kJ/mol
# GULP energy per Si atom -5569.877734 kJ/mol
# Density = 1.955280 g / cm^3
# Si number density = 19.597405 Si / 1000 Ang^3
#
#
#
# Elastic Constant Matrix: (Units=GPa)
#
#
# Indices 1 2 3 4 5 6 
#
# 1 142.3154 26.8837 5.8287 8.9689 15.0829 15.7465
# 2 26.8837 62.0396 10.6101 7.0997 4.8642 9.2350
# 3 5.8287 10.6101 19.7001 -6.2511 12.2743 4.3677
# 4 8.9689 7.0997 -6.2511 24.5250 -4.3416 -1.2715
# 5 15.0829 4.8642 12.2743 -4.3416 28.0304 2.6478
# 6 15.7465 9.2350 4.3677 -1.2715 2.6478 41.5841
#
#
#
# Elastic Compliance Matrix: (Units=1/GPa)
#
#
# Indices 1 2 3 4 5 6 
#
# 1 0.008496 -0.002907 0.001893 -0.002816 -0.005093 -0.002532
# 2 -0.002907 0.020914 -0.014484 -0.008239 0.003235 -0.002481
# 3 0.001893 -0.014484 0.085184 0.019269 -0.032464 -0.003791
# 4 -0.002816 -0.008239 0.019269 0.049567 0.001971 0.002262
# 5 -0.005093 0.003235 -0.032464 0.001971 0.052248 0.001353
# 6 -0.002532 -0.002481 -0.003791 0.002262 0.001353 0.025939
#
#
# Mechanical properties :
#
#
# Convention : Reuss Voigt Hill
#
# Bulk Modulus (GPa) = 11.96204 34.52221 23.24213
# Shear Modulus (GPa) = 16.59983 30.87674 23.73829
#
# Velocity S-wave (km/s) = 2.91356 3.97363 3.48415
# Velocity P-wave (km/s) = 4.17559 6.22149 5.29823
#
# Compressibility (1/GPa) = 0.08359777
#
# Stress axis : x y z
#
# Youngs Moduli (GPa) = 117.70857 47.81542 11.73930
#
# Poissons Ratio (x) = 0.13898 -0.02222
# Poissons Ratio (y) = 0.34214 0.17003
# Poissons Ratio (z) = -0.22281 0.69256
#
# Static dielectric constant tensor:
#      x y z
#    x 1.767610 0.011560 0.034520 
#    y 0.011560 1.683370 0.031440 
#    z 0.034520 0.031440 1.623270 
# 
# From -- ./inp_files/516202.got.cif
#   From: 2010.05.17/outbox.cif.g08.bks.cpg/sg2_259_cif.got.tgz:516202.got - 2010.06.03 11:33:40.
