data_PCOD9087149
_publ_section_title
;
Structure prediction by ZEFSAII (Michael W. Deem and Ramdas Pophale) SiO2 
 PCOD9087149
Probable space group: P -1
;
_chemical_formula_sum "Si O2"
_cell_formula_units_Z 14
_cell_length_a 11.078506
_cell_length_b 12.004209
_cell_length_c 15.175514
_cell_angle_alpha 27.590999
_cell_angle_beta 141.687765
_cell_angle_gamma 131.089909
_cell_volume 574.339956
_symmetry_space_group_name_H-M "P -1"
_symmetry_group_IT_number 2
_symmetry_cell_setting 'triclinic'
loop_
_space_group_symop_operation_xyz
x,y,z
-x,-y,-z
loop_
_atom_site_type_symbol
_atom_site_label
_atom_site_fract_x
_atom_site_fract_y
_atom_site_fract_z
Si Si1 0.326238 0.835700 0.012925
Si Si2 0.514655 0.392146 0.342322
Si Si3 0.781131 0.036825 0.948212
Si Si4 0.877682 0.377192 0.091730
Si Si5 0.156375 0.607431 0.745773
Si Si6 0.903175 0.402053 0.618587
Si Si7 0.465699 0.134851 0.211081
O O1 0.422432 0.553090 0.259393
O O2 0.185690 0.855837 0.832353
O O3 0.500000 0.000000 0.000000
O O4 0.216781 0.882045 0.008230
O O5 0.338328 0.468217 0.121207
O O6 0.727553 0.476803 0.397099
O O7 0.544454 0.106637 0.569641
O O8 0.950645 0.814887 0.186660
O O9 0.584955 0.941626 0.864080
O O10 0.814928 0.262984 0.747257
O O11 0.956423 0.356906 0.249959
O O12 0.000000 0.500000 0.000000
O O13 0.319332 0.789196 0.709022
O O14 0.007754 0.611530 0.575706
O O15 0.292448 0.344829 0.993388
#
# Coordination Sequence:
#
# PCOD9087149 Si02
#       7
#     2   2   2   2   2   2   2
#     4  10  21  38  58  79 117 157 183 226 289 344
#     4   9  22  39  56  88 113 147 199 229 282 332
#     4   9  17  34  61  81 114 148 188 227 288 335
#     4  10  22  39  56  83 118 158 180 227 296 346
#     4  10  19  36  62  84 118 146 187 230 295 333
#     4   9  18  35  61  89 103 146 195 240 270 329
#     4   9  19  36  60  87 111 149 189 240 277 330
#
# _framework density 24.375806999999998
#
# number of rings (size 3 to 8) (size 9 to 14) (size 15 to 20)
#    0.857    1.714    0.000    2.571    0.000    2.857 
#    2.571    1.429    0.000    0.000    0.000    0.000 
#    0.000    0.000    0.000    0.000    0.000    0.000 
#
# Total GULP energy -78115.174566 kJ/mol
# GULP energy per Si atom -5579.655326 kJ/mol
# Density = 2.432033 g / cm^3
# Si number density = 24.375807 Si / 1000 Ang^3
#
#
#
# Elastic Constant Matrix: (Units=GPa)
#
#
# Indices 1 2 3 4 5 6 
#
# 1 82.1550 30.7481 -4.2414 -6.4730 -11.0401 -9.0029
# 2 30.7481 125.3607 16.8060 -6.0295 0.1032 9.3268
# 3 -4.2414 16.8060 38.3497 6.7830 -7.7772 6.8035
# 4 -6.4730 -6.0295 6.7830 31.3546 2.5915 9.8470
# 5 -11.0401 0.1032 -7.7772 2.5915 15.9712 -0.2134
# 6 -9.0029 9.3268 6.8035 9.8470 -0.2134 39.0601
#
#
#
# Elastic Compliance Matrix: (Units=1/GPa)
#
#
# Indices 1 2 3 4 5 6 
#
# 1 0.017072 -0.005564 0.006992 -0.001786 0.015593 0.004581
# 2 -0.005564 0.010784 -0.007083 0.004307 -0.008114 -0.003754
# 3 0.006992 -0.007083 0.036691 -0.009706 0.024314 -0.000508
# 4 -0.001786 0.004307 -0.009706 0.038461 -0.012356 -0.009513
# 5 0.015593 -0.008114 0.024314 -0.012356 0.087354 0.004889
# 6 0.004581 -0.003754 -0.000508 -0.009513 0.004889 0.030067
#
#
# Mechanical properties :
#
#
# Convention : Reuss Voigt Hill
#
# Bulk Modulus (GPa) = 18.78389 36.94341 27.86365
# Shear Modulus (GPa) = 20.04122 30.78070 25.41096
#
# Velocity S-wave (km/s) = 2.87047 3.55738 3.23223
# Velocity P-wave (km/s) = 4.32537 5.66233 5.03839
#
# Compressibility (1/GPa) = 0.05323710
#
# Stress axis : x y z
#
# Youngs Moduli (GPa) = 58.57409 92.72618 27.25494
#
# Poissons Ratio (x) = 0.51596 -0.19056
# Poissons Ratio (y) = 0.32593 0.19304
# Poissons Ratio (z) = -0.40955 0.65676
#
# Static dielectric constant tensor:
#      x y z
#    x 1.946300 0.029860 -0.015990 
#    y 0.029860 2.005530 0.084700 
#    z -0.015990 0.084700 2.010620 
# 
# From -- ./inp_files/198292.got.cif
#   From: 2010.05.17/outbox.cif.g08.bks.cpg/sg2_100_cif.got.tgz:198292.got - 2010.06.03 11:33:40.
