data_PCOD9087532
_publ_section_title
;
Structure prediction by ZEFSAII (Michael W. Deem and Ramdas Pophale) SiO2 
 PCOD9087532
Probable space group: P -1
;
_chemical_formula_sum "Si O2"
_cell_formula_units_Z 14
_cell_length_a 15.293919
_cell_length_b 7.675770
_cell_length_c 14.212989
_cell_angle_alpha 107.664809
_cell_angle_beta 26.858859
_cell_angle_gamma 90.365949
_cell_volume 566.933286
_symmetry_space_group_name_H-M "P -1"
_symmetry_group_IT_number 2
_symmetry_cell_setting 'triclinic'
loop_
_space_group_symop_operation_xyz
x,y,z
-x,-y,-z
loop_
_atom_site_type_symbol
_atom_site_label
_atom_site_fract_x
_atom_site_fract_y
_atom_site_fract_z
Si Si1 0.781286 0.395711 0.728878
Si Si2 0.838199 0.736819 0.982982
Si Si3 0.142062 0.845259 0.001925
Si Si4 0.964601 0.946658 0.395390
Si Si5 0.589364 0.858765 0.052207
Si Si6 0.608550 0.704935 0.585793
Si Si7 0.203380 0.226327 0.764598
O O1 0.947895 0.178444 0.461660
O O2 0.500000 0.500000 0.000000
O O3 0.758251 0.630745 0.787201
O O4 0.872752 0.251557 0.715790
O O5 0.117728 0.501255 0.679928
O O6 0.690882 0.738770 0.037676
O O7 0.702937 0.796447 0.223437
O O8 0.874746 0.929865 0.960820
O O9 0.436582 0.644282 0.697744
O O10 0.964517 0.855009 0.098934
O O11 0.040687 0.851057 0.202130
O O12 0.686156 0.041752 0.690430
O O13 0.542001 0.104661 0.154900
O O14 0.641723 0.823337 0.485253
O O15 0.000000 0.500000 0.000000
#
# Coordination Sequence:
#
# PCOD9087532 Si02
#       7
#     2   2   2   2   2   2   2
#     4   9  20  36  65  96 121 165 208 256 319 383
#     4  10  23  40  61  92 129 170 215 254 313 370
#     4  11  23  40  63  95 128 166 209 263 317 367
#     4  10  20  39  62  95 130 157 211 261 314 379
#     4  10  19  36  64  89 123 167 206 254 310 370
#     4  10  22  41  60  91 130 167 214 264 304 364
#     4  10  22  42  62  91 127 174 215 257 311 365
#
# _framework density 24.694264
#
# number of rings (size 3 to 8) (size 9 to 14) (size 15 to 20)
#    0.000    2.000    1.429    1.286    2.000    6.857 
#    2.571    2.857    0.000   32.571    0.000    0.000 
#    0.000    0.000    0.000    0.000    0.000    0.000 
#
# Total GULP energy -78014.709692 kJ/mol
# GULP energy per Si atom -5572.479264 kJ/mol
# Density = 2.463806 g / cm^3
# Si number density = 24.694264 Si / 1000 Ang^3
#
#
#
# Elastic Constant Matrix: (Units=GPa)
#
#
# Indices 1 2 3 4 5 6 
#
# 1 79.7513 -9.8693 18.1025 6.6849 -24.8335 -2.7894
# 2 -9.8693 37.9692 2.2671 10.7149 -10.2538 11.4306
# 3 18.1025 2.2671 119.1553 14.9851 -5.5028 -6.6178
# 4 6.6849 10.7149 14.9851 30.6471 -5.8154 -8.5620
# 5 -24.8335 -10.2538 -5.5028 -5.8154 33.3168 15.0175
# 6 -2.7894 11.4306 -6.6178 -8.5620 15.0175 44.1156
#
#
#
# Elastic Compliance Matrix: (Units=1/GPa)
#
#
# Indices 1 2 3 4 5 6 
#
# 1 0.027764 0.026575 -0.002575 -0.013002 0.035204 -0.020024
# 2 0.026575 0.068466 -0.001309 -0.030201 0.053583 -0.040358
# 3 -0.002575 -0.001309 0.009234 -0.003448 -0.002127 0.001616
# 4 -0.013002 -0.030201 -0.003448 0.050221 -0.021389 0.023514
# 5 0.035204 0.053583 -0.002127 -0.021389 0.089694 -0.046661
# 6 -0.020024 -0.040358 0.001616 0.023514 -0.046661 0.052549
#
#
# Mechanical properties :
#
#
# Convention : Reuss Voigt Hill
#
# Bulk Modulus (GPa) = 6.62927 28.65292 17.64109
# Shear Modulus (GPa) = 16.51109 36.70760 26.60935
#
# Velocity S-wave (km/s) = 2.58858 3.85968 3.28617
# Velocity P-wave (km/s) = 3.40950 5.61169 4.64304
#
# Compressibility (1/GPa) = 0.15084619
#
# Stress axis : x y z
#
# Youngs Moduli (GPa) = 36.01813 14.60582 108.30014
#
# Poissons Ratio (x) = -0.38815 0.27884
# Poissons Ratio (y) = -0.95718 0.14174
# Poissons Ratio (z) = 0.09274 0.01912
#
# Static dielectric constant tensor:
#      x y z
#    x 1.945750 0.003280 0.049250 
#    y 0.003280 1.965220 0.054140 
#    z 0.049250 0.054140 1.968850 
# 
# From -- ./inp_files/315624.got.cif
#   From: 2010.05.17/outbox.cif.g08.bks.cpg/sg2_158_cif.got.tgz:315624.got - 2010.06.03 11:33:40.
