data_PCOD9087672
_publ_section_title
;
Structure prediction by ZEFSAII (Michael W. Deem and Ramdas Pophale) SiO2 
 PCOD9087672
Probable space group: P -1
;
_chemical_formula_sum "Si O2"
_cell_formula_units_Z 14
_cell_length_a 9.989088
_cell_length_b 8.201901
_cell_length_c 15.907087
_cell_angle_alpha 59.911449
_cell_angle_beta 148.952504
_cell_angle_gamma 101.823987
_cell_volume 502.543474
_symmetry_space_group_name_H-M "P -1"
_symmetry_group_IT_number 2
_symmetry_cell_setting 'triclinic'
loop_
_space_group_symop_operation_xyz
x,y,z
-x,-y,-z
loop_
_atom_site_type_symbol
_atom_site_label
_atom_site_fract_x
_atom_site_fract_y
_atom_site_fract_z
Si Si1 0.570739 0.293208 0.658978
Si Si2 0.393542 0.509816 0.663944
Si Si3 0.382118 0.255916 0.385279
Si Si4 0.874839 0.236013 0.200433
Si Si5 0.714796 0.031525 0.045075
Si Si6 0.229592 0.176677 0.045205
Si Si7 0.295560 0.658668 0.742242
O O1 0.309657 0.454157 0.542120
O O2 0.527099 0.305123 0.532440
O O3 0.633155 0.052450 0.774016
O O4 0.876953 0.291951 0.850629
O O5 0.569895 0.636486 0.699668
O O6 0.594314 0.265748 0.873527
O O7 0.176042 0.642983 0.590057
O O8 0.048546 0.338432 0.220222
O O9 0.500000 0.000000 0.500000
O O10 0.926818 0.213488 0.333866
O O11 0.953583 0.023944 0.242711
O O12 0.517673 0.407308 0.955999
O O13 0.790466 0.867171 0.052838
O O14 0.500000 0.000000 0.000000
O O15 0.472262 0.252981 0.165330
#
# Coordination Sequence:
#
# PCOD9087672 Si02
#       7
#     2   2   2   2   2   2   2
#     4  10  22  38  61  92 123 166 211 267 316 376
#     4  10  23  39  62  91 127 163 213 262 312 377
#     4  12  24  42  63  90 132 174 211 255 321 385
#     4  10  22  38  64  94 127 164 207 267 319 373
#     4  10  19  37  64  94 124 159 209 269 317 365
#     4  10  19  36  65  92 120 159 221 267 311 374
#     4  10  20  38  63  95 121 160 212 267 317 368
#
# _framework density 27.858286
#
# number of rings (size 3 to 8) (size 9 to 14) (size 15 to 20)
#    0.000    1.714    1.429    3.000    0.000    7.429 
#    0.000    3.571    3.143    0.000    0.000    0.000 
#    0.000    0.000    0.000    0.000    0.000    0.000 
#
# Total GULP energy -78211.531922 kJ/mol
# GULP energy per Si atom -5586.537994 kJ/mol
# Density = 2.779488 g / cm^3
# Si number density = 27.858286 Si / 1000 Ang^3
#
#
#
# Elastic Constant Matrix: (Units=GPa)
#
#
# Indices 1 2 3 4 5 6 
#
# 1 186.5638 44.6409 33.9511 -1.4837 -36.7829 -6.5361
# 2 44.6409 119.3049 11.4385 14.9128 -12.4693 -4.0205
# 3 33.9511 11.4385 72.8029 -6.1239 -13.9152 5.6948
# 4 -1.4837 14.9128 -6.1239 32.8272 5.0846 -13.6584
# 5 -36.7829 -12.4693 -13.9152 5.0846 38.4620 15.2736
# 6 -6.5361 -4.0205 5.6948 -13.6584 15.2736 82.5490
#
#
#
# Elastic Compliance Matrix: (Units=1/GPa)
#
#
# Indices 1 2 3 4 5 6 
#
# 1 0.007322 -0.001912 -0.001967 -0.000301 0.005918 -0.000522
# 2 -0.001912 0.010060 -0.000636 -0.005534 0.002316 -0.000962
# 3 -0.001967 -0.000636 0.015822 0.001795 0.004089 -0.001738
# 4 -0.000301 -0.005534 0.001795 0.037931 -0.009469 0.007611
# 5 0.005918 0.002316 0.004089 -0.009469 0.038471 -0.008386
# 6 -0.000522 -0.000962 -0.001738 0.007611 -0.008386 0.014957
#
#
# Mechanical properties :
#
#
# Convention : Reuss Voigt Hill
#
# Bulk Modulus (GPa) = 41.37209 62.08140 51.72675
# Shear Modulus (GPa) = 35.29796 50.01038 42.65417
#
# Velocity S-wave (km/s) = 3.56343 4.24154 3.91719
# Velocity P-wave (km/s) = 5.64038 6.80593 6.25038
#
# Compressibility (1/GPa) = 0.02417088
#
# Stress axis : x y z
#
# Youngs Moduli (GPa) = 136.57943 99.40531 63.20433
#
# Poissons Ratio (x) = 0.19011 0.12435
# Poissons Ratio (y) = 0.26120 0.04022
# Poissons Ratio (z) = 0.26870 0.06326
#
# Static dielectric constant tensor:
#      x y z
#    x 2.185150 0.004720 -0.004150 
#    y 0.004720 2.288840 -0.074570 
#    z -0.004150 -0.074570 2.263790 
# 
# From -- ./inp_files/181764.got.cif
#   From: 2010.05.17/outbox.cif.g08.bks.cpg/sg2_91_cif.got.tgz:181764.got - 2010.06.03 11:33:40.
