data_PCOD9087641
_publ_section_title
;
Structure prediction by ZEFSAII (Michael W. Deem and Ramdas Pophale) SiO2 
 PCOD9087641
Probable space group: P -1
;
_chemical_formula_sum "Si O2"
_cell_formula_units_Z 15
_cell_length_a 7.673023
_cell_length_b 11.648363
_cell_length_c 12.176722
_cell_angle_alpha 103.209852
_cell_angle_beta 32.742344
_cell_angle_gamma 103.168649
_cell_volume 571.750547
_symmetry_space_group_name_H-M "P -1"
_symmetry_group_IT_number 2
_symmetry_cell_setting 'triclinic'
loop_
_space_group_symop_operation_xyz
x,y,z
-x,-y,-z
loop_
_atom_site_type_symbol
_atom_site_label
_atom_site_fract_x
_atom_site_fract_y
_atom_site_fract_z
Si Si1 0.778244 0.660820 0.570177
Si Si2 0.834219 0.278858 0.842405
Si Si3 0.815265 0.177740 0.048137
Si Si4 0.297787 0.821614 0.654135
Si Si5 0.477248 0.933902 0.155764
Si Si6 0.189864 0.962798 0.530182
Si Si7 0.500000 0.500000 0.000000
Si Si8 0.821033 0.409076 0.451494
O O1 0.513862 0.751609 0.760530
O O2 0.053645 0.645501 0.512905
O O3 0.945091 0.706900 0.379471
O O4 0.631512 0.525741 0.600885
O O5 0.560350 0.175505 0.930275
O O6 0.664503 0.400146 0.968349
O O7 0.992404 0.237577 0.862797
O O8 0.921270 0.189215 0.121687
O O9 0.757931 0.037952 0.025088
O O10 0.602080 0.912492 0.539685
O O11 0.347602 0.690714 0.557354
O O12 0.155555 0.887268 0.640860
O O13 0.161864 0.006410 0.312722
O O14 0.399075 0.896823 0.314715
O O15 0.856179 0.542507 0.771560
#
# Coordination Sequence:
#
# PCOD9087641 Si02
#       8
#     2   2   2   2   2   2   1   2
#     4  10  21  38  65  86 118 155 215 246 297 362
#     4  11  21  37  62  92 117 159 210 253 294 357
#     4  11  22  38  60  94 127 160 198 255 302 369
#     4  10  20  35  60  89 134 156 193 253 316 356
#     4  10  19  36  65  88 120 160 209 249 297 359
#     4   9  19  36  62  96 120 160 202 250 303 368
#     4  10  22  38  62  88 118 154 210 256 290 350
#     4  10  20  39  64  89 114 165 206 254 299 358
#
# _framework density 26.235219000000001
#
# number of rings (size 3 to 8) (size 9 to 14) (size 15 to 20)
#    0.000    1.867    1.333    4.400    0.000    0.533 
#    0.000    3.333   26.400    0.000    0.000    0.000 
#    0.000    0.000    0.000    0.000    0.000    0.000 
#
# Total GULP energy -83724.391536 kJ/mol
# GULP energy per Si atom -5581.626102 kJ/mol
# Density = 2.617551 g / cm^3
# Si number density = 26.235219 Si / 1000 Ang^3
#
#
#
# Elastic Constant Matrix: (Units=GPa)
#
#
# Indices 1 2 3 4 5 6 
#
# 1 68.0551 42.8152 32.9435 -15.2600 37.9232 -7.1391
# 2 42.8152 133.1639 47.7144 -6.2936 30.9049 -5.2527
# 3 32.9435 47.7144 113.2476 -18.7012 24.2588 -4.6674
# 4 -15.2600 -6.2936 -18.7012 36.4021 -12.7686 17.8394
# 5 37.9232 30.9049 24.2588 -12.7686 47.1637 -6.9626
# 6 -7.1391 -5.2527 -4.6674 17.8394 -6.9626 49.6669
#
#
#
# Elastic Compliance Matrix: (Units=1/GPa)
#
#
# Indices 1 2 3 4 5 6 
#
# 1 0.029968 -0.004246 -0.002145 0.004294 -0.019132 -0.000567
# 2 -0.004246 0.010455 -0.003070 -0.002860 -0.002501 0.000883
# 3 -0.002145 -0.003070 0.011753 0.004903 -0.001197 -0.001457
# 4 0.004294 -0.002860 0.004903 0.039102 0.004622 -0.012621
# 5 -0.019132 -0.002501 -0.001197 0.004622 0.040219 0.000851
# 6 -0.000567 0.000883 -0.001457 -0.012621 0.000851 0.024662
#
#
# Mechanical properties :
#
#
# Convention : Reuss Voigt Hill
#
# Bulk Modulus (GPa) = 30.07015 62.37921 46.22468
# Shear Modulus (GPa) = 26.85793 39.37945 33.11869
#
# Velocity S-wave (km/s) = 3.20306 3.87850 3.55685
# Velocity P-wave (km/s) = 5.01658 6.62461 5.87586
#
# Compressibility (1/GPa) = 0.03325557
#
# Stress axis : x y z
#
# Youngs Moduli (GPa) = 33.36872 95.64848 85.08129
#
# Poissons Ratio (x) = 0.40614 0.18246
# Poissons Ratio (y) = 0.14169 0.26118
# Poissons Ratio (z) = 0.07156 0.29362
#
# Static dielectric constant tensor:
#      x y z
#    x 2.094130 -0.027250 -0.002010 
#    y -0.027250 1.934060 0.003610 
#    z -0.002010 0.003610 2.078130 
# 
# From -- ./inp_files/390329.got.cif
#   From: 2010.05.17/outbox.cif.g08.bks.cpg/sg2_196_cif.got.tgz:390329.got - 2010.06.03 11:33:40.
