data_PCOD9087824
_publ_section_title
;
Structure prediction by ZEFSAII (Michael W. Deem and Ramdas Pophale) SiO2 
 PCOD9087824
Probable space group: P -1
;
_chemical_formula_sum "Si O2"
_cell_formula_units_Z 14
_cell_length_a 7.232426
_cell_length_b 22.298486
_cell_length_c 11.840192
_cell_angle_alpha 155.599558
_cell_angle_beta 49.987204
_cell_angle_gamma 133.609839
_cell_volume 570.455913
_symmetry_space_group_name_H-M "P -1"
_symmetry_group_IT_number 2
_symmetry_cell_setting 'triclinic'
loop_
_space_group_symop_operation_xyz
x,y,z
-x,-y,-z
loop_
_atom_site_type_symbol
_atom_site_label
_atom_site_fract_x
_atom_site_fract_y
_atom_site_fract_z
Si Si1 0.865335 0.378010 0.940861
Si Si2 0.720788 0.565635 0.933891
Si Si3 0.187240 0.263740 0.234440
Si Si4 0.236428 0.097285 0.500464
Si Si5 0.960683 0.074935 0.332152
Si Si6 0.594063 0.503360 0.633808
Si Si7 0.330177 0.963525 0.890942
O O1 0.603981 0.403980 0.114658
O O2 0.000000 0.500000 0.000000
O O3 0.025471 0.408084 0.046723
O O4 0.846193 0.211138 0.615042
O O5 0.695677 0.728897 0.188598
O O6 0.500000 0.500000 0.000000
O O7 0.683751 0.474483 0.673961
O O8 0.897602 0.201108 0.291583
O O9 0.422161 0.352848 0.375942
O O10 0.194241 0.382619 0.334442
O O11 0.216375 0.102873 0.904594
O O12 0.124569 0.097235 0.419434
O O13 0.475880 0.036699 0.285520
O O14 0.000000 0.000000 0.500000
O O15 0.167032 0.080755 0.161659
O O16 0.500000 0.000000 0.000000
#
# Coordination Sequence:
#
# PCOD9087824 Si02
#       7
#     2   2   2   2   2   2   2
#     4  11  23  43  72  99 143 198 253 308 362 424
#     4  11  24  41  70 107 142 190 250 299 375 444
#     4   9  21  42  70 106 151 193 238 303 380 441
#     4  10  19  36  72 111 145 180 248 310 363 438
#     4   8  19  40  67 100 140 188 246 292 368 433
#     4  11  23  43  74 103 154 193 242 305 367 460
#     4   8  17  37  69 102 151 186 234 306 364 437
#
# _framework density 24.541772999999999
#
# number of rings (size 3 to 8) (size 9 to 14) (size 15 to 20)
#    0.857    1.429    1.429    0.857    2.000    0.571 
#    0.000    3.571   12.571    2.571    0.000    0.000 
#    0.000    0.000    0.000    0.000    0.000    0.000 
#
# Total GULP energy -78211.002317 kJ/mol
# GULP energy per Si atom -5586.500166 kJ/mol
# Density = 2.448591 g / cm^3
# Si number density = 24.541773 Si / 1000 Ang^3
#
#
#
# Elastic Constant Matrix: (Units=GPa)
#
#
# Indices 1 2 3 4 5 6 
#
# 1 124.3815 -5.8338 22.7210 -10.9840 33.9513 -15.3372
# 2 -5.8338 91.7587 -11.3271 -4.3064 2.3411 26.9936
# 3 22.7210 -11.3271 87.3146 9.0545 10.2970 19.8339
# 4 -10.9840 -4.3064 9.0545 39.3823 7.7498 3.3846
# 5 33.9513 2.3411 10.2970 7.7498 50.7959 -13.5108
# 6 -15.3372 26.9936 19.8339 3.3846 -13.5108 40.2288
#
#
#
# Elastic Compliance Matrix: (Units=1/GPa)
#
#
# Indices 1 2 3 4 5 6 
#
# 1 0.011383 -0.000432 -0.003608 0.004932 -0.006605 0.003776
# 2 -0.000432 0.017308 0.006933 0.003118 -0.007139 -0.017856
# 3 -0.003608 0.006933 0.017926 -0.001823 -0.005685 -0.016621
# 4 0.004932 0.003118 -0.001823 0.029686 -0.008874 -0.004791
# 5 -0.006605 -0.007139 -0.005685 -0.008874 0.031279 0.016327
# 6 0.003776 -0.017856 -0.016621 -0.004791 0.016327 0.052360
#
#
# Mechanical properties :
#
#
# Convention : Reuss Voigt Hill
#
# Bulk Modulus (GPa) = 19.08376 34.95278 27.01827
# Shear Modulus (GPa) = 29.13335 45.94105 37.53720
#
# Velocity S-wave (km/s) = 3.44916 4.33130 3.91515
# Velocity P-wave (km/s) = 4.86366 6.26791 5.60989
#
# Compressibility (1/GPa) = 0.05240057
#
# Stress axis : x y z
#
# Youngs Moduli (GPa) = 87.85323 57.77692 55.78442
#
# Poissons Ratio (x) = 0.02499 0.20129
# Poissons Ratio (y) = 0.03799 -0.38673
# Poissons Ratio (z) = 0.31700 -0.40055
#
# Static dielectric constant tensor:
#      x y z
#    x 1.968100 -0.056760 0.030760 
#    y -0.056760 1.893910 -0.041220 
#    z 0.030760 -0.041220 1.979060 
# 
# From -- ./inp_files/405034.got.cif
#   From: 2010.05.17/outbox.cif.g08.bks.cpg/sg2_203_cif.got.tgz:405034.got - 2010.06.03 11:33:40.
