data_PCOD9087327
_publ_section_title
;
Structure prediction by ZEFSAII (Michael W. Deem and Ramdas Pophale) SiO2 
 PCOD9087327
Probable space group: P -1
;
_chemical_formula_sum "Si O2"
_cell_formula_units_Z 14
_cell_length_a 11.237347
_cell_length_b 9.108966
_cell_length_c 7.855314
_cell_angle_alpha 132.074101
_cell_angle_beta 91.413730
_cell_angle_gamma 96.039417
_cell_volume 588.580863
_symmetry_space_group_name_H-M "P -1"
_symmetry_group_IT_number 2
_symmetry_cell_setting 'triclinic'
loop_
_space_group_symop_operation_xyz
x,y,z
-x,-y,-z
loop_
_atom_site_type_symbol
_atom_site_label
_atom_site_fract_x
_atom_site_fract_y
_atom_site_fract_z
Si Si1 0.664825 0.811670 0.558417
Si Si2 0.231776 0.457241 0.883147
Si Si3 0.124964 0.841152 0.216557
Si Si4 0.483644 0.267225 0.158916
Si Si5 0.329278 0.877138 0.740806
Si Si6 0.119504 0.045995 0.741505
Si Si7 0.430493 0.664019 0.284179
O O1 0.746168 0.649092 0.375674
O O2 0.596145 0.761246 0.693050
O O3 0.560334 0.805370 0.405698
O O4 0.751215 0.022151 0.729878
O O5 0.190593 0.264495 0.854337
O O6 0.137607 0.611188 0.006974
O O7 0.357731 0.585450 0.053645
O O8 0.011258 0.913044 0.177435
O O9 0.107581 0.901389 0.461337
O O10 0.618970 0.250208 0.208842
O O11 0.460258 0.467957 0.228849
O O12 0.429656 0.077404 0.896846
O O13 0.339952 0.760753 0.475801
O O14 0.200716 0.947339 0.800959
#
# Coordination Sequence:
#
# PCOD9087327 Si02
#       7
#     2   2   2   2   2   2   2
#     4  10  23  37  56  91 122 148 192 240 298 343
#     4  11  21  37  61  89 118 152 191 244 296 338
#     4  10  22  38  59  85 121 152 193 246 286 339
#     4  10  22  39  60  87 120 154 195 235 289 355
#     4  10  19  36  63  84 111 154 198 236 283 339
#     4  10  20  39  60  87 112 155 203 235 284 346
#     4  11  21  38  62  88 117 155 193 238 292 354
#
# _framework density 23.786026
#
# number of rings (size 3 to 8) (size 9 to 14) (size 15 to 20)
#    0.000    1.714    2.857    2.571    0.000    5.143 
#    2.571    0.714    0.000    4.286    0.000    0.000 
#    0.000    0.000    0.000    0.000    0.000    0.000 
#
# Total GULP energy -78327.529958 kJ/mol
# GULP energy per Si atom -5594.823568 kJ/mol
# Density = 2.373189 g / cm^3
# Si number density = 23.786026 Si / 1000 Ang^3
#
#
#
# Elastic Constant Matrix: (Units=GPa)
#
#
# Indices 1 2 3 4 5 6 
#
# 1 107.8269 47.1861 11.8147 12.2562 -11.7444 -31.0223
# 2 47.1861 96.2313 30.7414 15.6844 -18.4011 -30.7621
# 3 11.8147 30.7414 114.7223 18.1323 -25.4878 -11.7780
# 4 12.2562 15.6844 18.1323 34.6910 -7.7496 -6.6598
# 5 -11.7444 -18.4011 -25.4878 -7.7496 33.7028 10.6228
# 6 -31.0223 -30.7621 -11.7780 -6.6598 10.6228 43.7970
#
#
#
# Elastic Compliance Matrix: (Units=1/GPa)
#
#
# Indices 1 2 3 4 5 6 
#
# 1 0.013090 -0.004367 0.000838 -0.001820 0.000491 0.006034
# 2 -0.004367 0.016390 -0.002135 -0.002784 0.003067 0.006677
# 3 0.000838 -0.002135 0.011303 -0.003727 0.006847 -0.000094
# 4 -0.001820 -0.002784 -0.003727 0.033297 0.002627 0.000179
# 5 0.000491 0.003067 0.006847 0.002627 0.038768 -0.004660
# 6 0.006034 0.006677 -0.000094 0.000179 -0.004660 0.032929
#
#
# Mechanical properties :
#
#
# Convention : Reuss Voigt Hill
#
# Bulk Modulus (GPa) = 33.94951 55.36278 44.65615
# Shear Modulus (GPa) = 29.95416 37.70737 33.83076
#
# Velocity S-wave (km/s) = 3.55254 3.98587 3.77542
# Velocity P-wave (km/s) = 5.57954 6.67149 6.14979
#
# Compressibility (1/GPa) = 0.02945550
#
# Stress axis : x y z
#
# Youngs Moduli (GPa) = 76.39649 61.01392 88.47084
#
# Poissons Ratio (x) = 0.26643 -0.07417
# Poissons Ratio (y) = 0.33360 0.18889
# Poissons Ratio (z) = -0.06404 0.13027
#
# Static dielectric constant tensor:
#      x y z
#    x 1.937380 -0.005520 -0.006740 
#    y -0.005520 1.910010 -0.003990 
#    z -0.006740 -0.003990 1.946830 
# 
# From -- ./inp_files/246055.got.cif
#   From: 2010.05.17/outbox.cif.g08.bks.cpg/sg2_124_cif.got.tgz:246055.got - 2010.06.03 11:33:40.
