data_PCOD9087941
_publ_section_title
;
Structure prediction by ZEFSAII (Michael W. Deem and Ramdas Pophale) SiO2 
 PCOD9087941
Probable space group: P -1
;
_chemical_formula_sum "Si O2"
_cell_formula_units_Z 12
_cell_length_a 5.259142
_cell_length_b 16.439639
_cell_length_c 17.013447
_cell_angle_alpha 18.220890
_cell_angle_beta 108.747386
_cell_angle_gamma 106.649018
_cell_volume 434.661681
_symmetry_space_group_name_H-M "P -1"
_symmetry_group_IT_number 2
_symmetry_cell_setting 'triclinic'
loop_
_space_group_symop_operation_xyz
x,y,z
-x,-y,-z
loop_
_atom_site_type_symbol
_atom_site_label
_atom_site_fract_x
_atom_site_fract_y
_atom_site_fract_z
Si Si1 0.982710 0.976783 0.892984
Si Si2 0.498656 0.754813 0.318446
Si Si3 0.724369 0.706475 0.850550
Si Si4 0.217164 0.302691 0.301120
Si Si5 0.607097 0.695018 0.024980
Si Si6 0.821765 0.858406 0.386871
O O1 0.291846 0.036391 0.883412
O O2 0.947091 0.125745 0.668809
O O3 0.793275 0.111675 0.815795
O O4 0.859854 0.710843 0.094761
O O5 0.500000 0.500000 0.500000
O O6 0.378598 0.327206 0.507727
O O7 0.746808 0.853632 0.633623
O O8 0.651836 0.807511 0.837648
O O9 0.500000 0.500000 0.000000
O O10 0.011660 0.548943 0.035684
O O11 0.101110 0.184377 0.476831
O O12 0.495545 0.416579 0.251511
O O13 0.364659 0.870924 0.878910
#
# Coordination Sequence:
#
# PCOD9087941 Si02
#       6
#     2   2   2   2   2   2
#     4   9  19  33  58  87 114 152 189 232 292 343
#     4   9  18  35  60  89 116 149 190 236 290 352
#     4   9  20  34  55  79 115 159 195 240 290 337
#     4  10  20  38  55  82 117 155 199 241 290 337
#     4  10  19  37  57  84 117 154 197 240 287 341
#     4   9  21  34  58  88 111 153 197 236 292 346
#
# _framework density 27.607680999999999
#
# number of rings (size 3 to 8) (size 9 to 14) (size 15 to 20)
#    1.000    1.667    0.000    1.500    0.000    6.000 
#    0.000   11.667    0.000    5.000    0.000    0.000 
#    0.000    0.000    0.000    0.000    0.000    0.000 
#
# Total GULP energy -66984.289050 kJ/mol
# GULP energy per Si atom -5582.024088 kJ/mol
# Density = 2.754484 g / cm^3
# Si number density = 27.607681 Si / 1000 Ang^3
#
#
#
# Elastic Constant Matrix: (Units=GPa)
#
#
# Indices 1 2 3 4 5 6 
#
# 1 164.3351 61.8964 24.3752 -11.5513 6.9875 -8.3251
# 2 61.8964 187.8285 27.9830 -14.8167 10.7940 -10.5426
# 3 24.3752 27.9830 58.4307 5.9048 6.0051 -4.0804
# 4 -11.5513 -14.8167 5.9048 27.3550 2.4601 -13.4844
# 5 6.9875 10.7940 6.0051 2.4601 28.1485 5.6398
# 6 -8.3251 -10.5426 -4.0804 -13.4844 5.6398 67.4613
#
#
#
# Elastic Compliance Matrix: (Units=1/GPa)
#
#
# Indices 1 2 3 4 5 6 
#
# 1 0.007443 -0.001663 -0.002444 0.003536 -0.001263 0.001323
# 2 -0.001663 0.006896 -0.002708 0.004755 -0.002443 0.001863
# 3 -0.002444 -0.002708 0.020290 -0.007077 -0.001914 -0.000752
# 4 0.003536 0.004755 -0.007077 0.048280 -0.007623 0.011039
# 5 -0.001263 -0.002443 -0.001914 -0.007623 0.038939 -0.005432
# 6 0.001323 0.001863 -0.000752 0.011039 -0.005432 0.017893
#
#
# Mechanical properties :
#
#
# Convention : Reuss Voigt Hill
#
# Bulk Modulus (GPa) = 47.62063 71.01151 59.31607
# Shear Modulus (GPa) = 31.17789 44.34893 37.76341
#
# Velocity S-wave (km/s) = 3.36418 4.01234 3.70247
# Velocity P-wave (km/s) = 5.69006 6.87333 6.30949
#
# Compressibility (1/GPa) = 0.02099930
#
# Stress axis : x y z
#
# Youngs Moduli (GPa) = 134.35077 145.02098 49.28527
#
# Poissons Ratio (x) = 0.24117 0.12044
# Poissons Ratio (y) = 0.22343 0.13346
# Poissons Ratio (z) = 0.32832 0.39272
#
# Static dielectric constant tensor:
#      x y z
#    x 2.252960 0.005730 -0.022330 
#    y 0.005730 2.200750 0.067420 
#    z -0.022330 0.067420 2.209810 
# 
# From -- ./inp_files/483204.got.cif
#   From: 2010.05.17/outbox.cif.g08.bks.cpg/sg2_242_cif.got.tgz:483204.got - 2010.06.03 11:33:40.
