data_PCOD9087795
_publ_section_title
;
Structure prediction by ZEFSAII (Michael W. Deem and Ramdas Pophale) SiO2 
 PCOD9087795
Probable space group: P -1
;
_chemical_formula_sum "Si O2"
_cell_formula_units_Z 16
_cell_length_a 18.183082
_cell_length_b 21.366444
_cell_length_c 9.600255
_cell_angle_alpha 41.834309
_cell_angle_beta 38.811592
_cell_angle_gamma 20.304132
_cell_volume 809.431092
_symmetry_space_group_name_H-M "P -1"
_symmetry_group_IT_number 2
_symmetry_cell_setting 'triclinic'
loop_
_space_group_symop_operation_xyz
x,y,z
-x,-y,-z
loop_
_atom_site_type_symbol
_atom_site_label
_atom_site_fract_x
_atom_site_fract_y
_atom_site_fract_z
Si Si1 0.937604 0.998116 0.243110
Si Si2 0.671694 0.984901 0.651406
Si Si3 0.707915 0.352089 0.544991
Si Si4 0.507170 0.579691 0.746059
Si Si5 0.742191 0.603480 0.336884
Si Si6 0.503991 0.039402 0.277143
Si Si7 0.080317 0.232984 0.077091
Si Si8 0.187584 0.409981 0.059692
O O1 0.736964 0.200158 0.269104
O O2 0.838060 0.960656 0.423902
O O3 0.161255 0.829907 0.287262
O O4 0.000000 0.000000 0.000000
O O5 0.770351 0.862761 0.842408
O O6 0.435058 0.196806 0.684815
O O7 0.626925 0.942971 0.662944
O O8 0.500000 0.500000 0.500000
O O9 0.609361 0.469882 0.633694
O O10 0.910401 0.265568 0.307603
O O11 0.675187 0.549928 0.589734
O O12 0.500000 0.500000 0.000000
O O13 0.991291 0.468366 0.225365
O O14 0.727553 0.608135 0.183343
O O15 0.500000 0.000000 0.500000
O O16 0.384882 0.221056 0.155749
O O17 0.748420 0.890437 0.097273
O O18 0.926601 0.428357 0.958511
#
# Coordination Sequence:
#
# PCOD9087795 Si02
#       8
#     2   2   2   2   2   2   2   2
#     4  10  22  41  67  96 125 170 223 267 318 382
#     4  10  20  40  67  91 125 161 216 257 307 384
#     4  11  25  45  64  96 132 173 219 271 327 384
#     4  11  22  40  67  99 131 166 221 274 320 382
#     4  10  19  36  68  97 116 165 220 259 304 379
#     4  12  26  42  57  98 136 161 202 266 334 381
#     4  11  22  44  68  88 125 170 217 260 308 393
#     4  11  21  36  67  92 121 164 211 255 317 381
#
# _framework density 19.766969
#
# number of rings (size 3 to 8) (size 9 to 14) (size 15 to 20)
#    0.000    1.250    5.000    1.875    1.750    1.000 
#    6.750    0.000    0.000    0.000    0.000    0.000 
#    0.000    0.000    0.000    0.000    0.000    0.000 
#
# Total GULP energy -89287.758760 kJ/mol
# GULP energy per Si atom -5580.484923 kJ/mol
# Density = 1.972198 g / cm^3
# Si number density = 19.766969 Si / 1000 Ang^3
#
#
#
# Elastic Constant Matrix: (Units=GPa)
#
#
# Indices 1 2 3 4 5 6 
#
# 1 26.1301 17.8172 22.5820 -0.7506 7.7630 -6.9659
# 2 17.8172 127.9510 55.8651 -19.7787 16.0019 15.3736
# 3 22.5820 55.8651 146.5372 1.1869 0.4229 -3.8178
# 4 -0.7506 -19.7787 1.1869 29.5594 8.3166 -4.9319
# 5 7.7630 16.0019 0.4229 8.3166 23.0694 -1.9006
# 6 -6.9659 15.3736 -3.8178 -4.9319 -1.9006 16.8091
#
#
#
# Elastic Compliance Matrix: (Units=1/GPa)
#
#
# Indices 1 2 3 4 5 6 
#
# 1 0.060828 -0.006164 -0.006262 0.007191 -0.016224 0.029699
# 2 -0.006164 0.017840 -0.006388 0.013676 -0.016611 -0.018187
# 3 -0.006262 -0.006388 0.010374 -0.006635 0.009126 0.004689
# 4 0.007191 0.013676 -0.006635 0.052153 -0.030519 0.000816
# 5 -0.016224 -0.016611 0.009126 -0.030519 0.071965 0.009725
# 6 0.029699 -0.018187 0.004689 0.000816 0.009725 0.090837
#
#
# Mechanical properties :
#
#
# Convention : Reuss Voigt Hill
#
# Bulk Modulus (GPa) = 19.44965 54.79413 37.12189
# Shear Modulus (GPa) = 13.93679 27.51117 20.72398
#
# Velocity S-wave (km/s) = 2.65817 3.73470 3.24144
# Velocity P-wave (km/s) = 4.39112 6.81010 5.72972
#
# Compressibility (1/GPa) = 0.05141481
#
# Stress axis : x y z
#
# Youngs Moduli (GPa) = 16.43968 56.05515 96.39519
#
# Poissons Ratio (x) = 0.34553 0.60359
# Poissons Ratio (y) = 0.10134 0.61575
# Poissons Ratio (z) = 0.10294 0.35807
#
# Static dielectric constant tensor:
#      x y z
#    x 1.708070 -0.011440 -0.033790 
#    y -0.011440 1.720760 -0.006550 
#    z -0.033790 -0.006550 1.683520 
# 
# From -- ./inp_files/338075.got.cif
#   From: 2010.05.17/outbox.cif.g08.bks.cpg/sg2_170_cif.got.tgz:338075.got - 2010.06.03 11:33:40.
