data_PCOD9087995
_publ_section_title
;
Structure prediction by ZEFSAII (Michael W. Deem and Ramdas Pophale) SiO2 
 PCOD9087995
Probable space group: P -1
;
_chemical_formula_sum "Si O2"
_cell_formula_units_Z 16
_cell_length_a 10.387571
_cell_length_b 13.147306
_cell_length_c 11.329193
_cell_angle_alpha 77.349042
_cell_angle_beta 108.616327
_cell_angle_gamma 146.652410
_cell_volume 802.646759
_symmetry_space_group_name_H-M "P -1"
_symmetry_group_IT_number 2
_symmetry_cell_setting 'triclinic'
loop_
_space_group_symop_operation_xyz
x,y,z
-x,-y,-z
loop_
_atom_site_type_symbol
_atom_site_label
_atom_site_fract_x
_atom_site_fract_y
_atom_site_fract_z
Si Si1 0.998531 0.877854 0.247256
Si Si2 0.296422 0.827719 0.712823
Si Si3 0.169419 0.546009 0.629140
Si Si4 0.213454 0.821909 0.939183
Si Si5 0.584079 0.511832 0.342716
Si Si6 0.018142 0.841552 0.523550
Si Si7 0.840800 0.219011 0.806436
Si Si8 0.023229 0.124450 0.245223
O O1 0.115532 0.933594 0.398943
O O2 0.109038 0.870927 0.185517
O O3 0.723070 0.662763 0.240700
O O4 0.012018 0.009148 0.202128
O O5 0.329848 0.738286 0.684720
O O6 0.176722 0.734725 0.830180
O O7 0.122639 0.794418 0.597969
O O8 0.553399 0.048896 0.744988
O O9 0.328856 0.553264 0.622522
O O10 0.000000 0.500000 0.500000
O O11 0.995591 0.383234 0.717560
O O12 0.127832 0.882928 0.862625
O O13 0.097209 0.716830 0.056099
O O14 0.500000 0.000000 0.000000
O O15 0.299840 0.337250 0.287624
O O16 0.729976 0.651246 0.462026
O O17 0.070098 0.944236 0.627969
#
# Coordination Sequence:
#
# PCOD9087995 Si02
#       8
#     2   2   2   2   2   2   2   2
#     4   9  20  34  52  84 111 137 185 226 276 333
#     4  10  19  37  58  81 114 154 182 228 282 322
#     4  11  20  36  58  88 117 145 185 227 279 343
#     4   9  22  41  58  81 109 146 198 233 266 334
#     4   9  20  34  51  86 112 138 182 226 271 334
#     4   9  19  35  50  84 116 135 184 233 266 340
#     4  10  21  38  56  79 118 147 189 237 267 321
#     4  11  19  36  60  74 108 153 177 225 292 316
#
# _framework density 19.934049999999999
#
# number of rings (size 3 to 8) (size 9 to 14) (size 15 to 20)
#    0.750    1.500    1.250    1.500    0.000    4.000 
#    0.000   12.500    0.000    0.000    0.000    0.000 
#    0.000    0.000    0.000    0.000    0.000    0.000 
#
# Total GULP energy -89096.563240 kJ/mol
# GULP energy per Si atom -5568.535202 kJ/mol
# Density = 1.988868 g / cm^3
# Si number density = 19.934050 Si / 1000 Ang^3
#
#
#
# Elastic Constant Matrix: (Units=GPa)
#
#
# Indices 1 2 3 4 5 6 
#
# 1 43.6220 3.4423 17.7197 4.5105 15.2882 5.8150
# 2 3.4423 28.6789 0.7627 5.4158 15.1033 4.4326
# 3 17.7197 0.7627 62.3435 -8.8303 15.7327 9.0827
# 4 4.5105 5.4158 -8.8303 18.0119 8.0460 -3.0996
# 5 15.2882 15.1033 15.7327 8.0460 26.3370 1.1334
# 6 5.8150 4.4326 9.0827 -3.0996 1.1334 25.0382
#
#
#
# Elastic Compliance Matrix: (Units=1/GPa)
#
#
# Indices 1 2 3 4 5 6 
#
# 1 0.032142 0.008437 -0.004114 -0.005320 -0.019101 -0.007260
# 2 0.008437 0.059227 0.011007 0.003603 -0.045939 -0.013912
# 3 -0.004114 0.011007 0.028220 0.022536 -0.027356 -0.007202
# 4 -0.005320 0.003603 0.022536 0.084845 -0.038562 0.004672
# 5 -0.019101 -0.045939 -0.027356 -0.038562 0.102962 0.013058
# 6 -0.007260 -0.013912 -0.007202 0.004672 0.013058 0.046687
#
#
# Mechanical properties :
#
#
# Convention : Reuss Voigt Hill
#
# Bulk Modulus (GPa) = 6.65562 19.83264 13.24413
# Shear Modulus (GPa) = 13.38669 21.39208 17.38939
#
# Velocity S-wave (km/s) = 2.59424 3.27944 2.95675
# Velocity P-wave (km/s) = 3.50991 4.93055 4.27959
#
# Compressibility (1/GPa) = 0.15024900
#
# Stress axis : x y z
#
# Youngs Moduli (GPa) = 31.11205 16.88432 35.43635
#
# Poissons Ratio (x) = -0.14246 0.14580
# Poissons Ratio (y) = -0.26250 -0.39007
# Poissons Ratio (z) = 0.12801 -0.18585
#
# Static dielectric constant tensor:
#      x y z
#    x 1.723870 0.011890 -0.042000 
#    y 0.011890 1.718790 -0.012790 
#    z -0.042000 -0.012790 1.731750 
# 
# From -- ./inp_files/431406.got.cif
#   From: 2010.05.17/outbox.cif.g08.bks.cpg/sg2_216_cif.got.tgz:431406.got - 2010.06.03 11:33:40.
