data_PCOD9087315
_publ_section_title
;
Structure prediction by ZEFSAII (Michael W. Deem and Ramdas Pophale) SiO2 
 PCOD9087315
Probable space group: P -1
;
_chemical_formula_sum "Si O2"
_cell_formula_units_Z 16
_cell_length_a 14.961257
_cell_length_b 12.768397
_cell_length_c 7.301667
_cell_angle_alpha 69.601551
_cell_angle_beta 98.577721
_cell_angle_gamma 40.365445
_cell_volume 618.334173
_symmetry_space_group_name_H-M "P -1"
_symmetry_group_IT_number 2
_symmetry_cell_setting 'triclinic'
loop_
_space_group_symop_operation_xyz
x,y,z
-x,-y,-z
loop_
_atom_site_type_symbol
_atom_site_label
_atom_site_fract_x
_atom_site_fract_y
_atom_site_fract_z
Si Si1 0.968416 0.689635 0.561497
Si Si2 0.415578 0.538584 0.261419
Si Si3 0.253504 0.283370 0.441609
Si Si4 0.981270 0.982418 0.216343
Si Si5 0.289346 0.483241 0.506983
Si Si6 0.285775 0.006098 0.051343
Si Si7 0.334912 0.204735 0.087278
Si Si8 0.196470 0.959470 0.411906
O O1 0.879526 0.866354 0.578826
O O2 0.195371 0.437642 0.795407
O O3 0.130622 0.719151 0.433881
O O4 0.862360 0.828980 0.256617
O O5 0.500000 0.500000 0.500000
O O6 0.322690 0.523318 0.309699
O O7 0.593131 0.317300 0.324662
O O8 0.242135 0.796202 0.965207
O O9 0.236230 0.420378 0.450024
O O10 0.285893 0.269534 0.246117
O O11 0.442884 0.016820 0.736248
O O12 0.086153 0.379317 0.363076
O O13 0.056441 0.006334 0.337467
O O14 0.000000 0.000000 0.000000
O O15 0.502015 0.253610 0.792237
O O16 0.306377 0.106737 0.083689
O O17 0.215771 0.998233 0.194423
#
# Coordination Sequence:
#
# PCOD9087315 Si02
#       8
#     2   2   2   2   2   2   2   2
#     4  12  25  41  69  96 132 179 214 264 329 383
#     4  10  19  36  63 100 124 162 222 267 316 387
#     4  10  22  40  65  96 136 168 220 271 312 392
#     4  10  20  36  66 101 124 170 221 262 328 390
#     4   9  20  37  63  95 129 170 216 265 327 382
#     4  10  23  43  64  99 134 170 220 268 321 387
#     4  10  22  40  61  98 129 169 223 262 318 387
#     4  11  23  41  67  98 131 171 216 270 322 383
#
# _framework density 25.875976000000001
#
# number of rings (size 3 to 8) (size 9 to 14) (size 15 to 20)
#    0.000    1.750    3.750    0.750    5.250    2.000 
#    2.250    4.375    0.000    1.500    0.000    0.000 
#    0.000    0.000    0.000    0.000    0.000    0.000 
#
# Total GULP energy -89737.905940 kJ/mol
# GULP energy per Si atom -5608.619121 kJ/mol
# Density = 2.581708 g / cm^3
# Si number density = 25.875976 Si / 1000 Ang^3
#
#
#
# Elastic Constant Matrix: (Units=GPa)
#
#
# Indices 1 2 3 4 5 6 
#
# 1 86.3770 53.7617 40.6846 2.5843 1.2146 20.0109
# 2 53.7617 130.5836 77.2474 -20.8049 5.0355 19.0348
# 3 40.6846 77.2474 142.7754 -38.3118 -0.7888 24.3282
# 4 2.5843 -20.8049 -38.3118 52.6417 6.1383 -4.7900
# 5 1.2146 5.0355 -0.7888 6.1383 42.0112 -1.8545
# 6 20.0109 19.0348 24.3282 -4.7900 -1.8545 36.0904
#
#
#
# Elastic Compliance Matrix: (Units=1/GPa)
#
#
# Indices 1 2 3 4 5 6 
#
# 1 0.017988 -0.006091 -0.002324 -0.005603 0.000725 -0.005901
# 2 -0.006091 0.013573 -0.004979 0.002238 -0.001881 -0.000224
# 3 -0.002324 -0.004979 0.012971 0.007271 -0.000326 -0.003880
# 4 -0.005603 0.002238 0.007271 0.025909 -0.003743 0.000271
# 5 0.000725 -0.001881 -0.000326 -0.003743 0.024618 0.001578
# 6 -0.005901 -0.000224 -0.003880 0.000271 0.001578 0.033831
#
#
# Mechanical properties :
#
#
# Convention : Reuss Voigt Hill
#
# Bulk Modulus (GPa) = 56.36384 78.12482 67.24433
# Shear Modulus (GPa) = 30.94184 38.68482 34.81333
#
# Velocity S-wave (km/s) = 3.46175 3.87073 3.67194
# Velocity P-wave (km/s) = 6.14881 7.08762 6.63484
#
# Compressibility (1/GPa) = 0.01774187
#
# Stress axis : x y z
#
# Youngs Moduli (GPa) = 55.59413 73.67450 77.09580
#
# Poissons Ratio (x) = 0.44877 0.17918
# Poissons Ratio (y) = 0.33864 0.38390
# Poissons Ratio (z) = 0.12921 0.36686
#
# Static dielectric constant tensor:
#      x y z
#    x 2.077100 -0.017470 -0.037660 
#    y -0.017470 1.994020 -0.041050 
#    z -0.037660 -0.041050 2.045080 
# 
# From -- ./inp_files/335731.got.cif
#   From: 2010.05.17/outbox.cif.g08.bks.cpg/sg2_168_cif.got.tgz:335731.got - 2010.06.03 11:33:40.
