data_PCOD9087267
_publ_section_title
;
Structure prediction by ZEFSAII (Michael W. Deem and Ramdas Pophale) SiO2 
 PCOD9087267
Probable space group: P -1
;
_chemical_formula_sum "Si O2"
_cell_formula_units_Z 16
_cell_length_a 16.899318
_cell_length_b 25.363267
_cell_length_c 14.427511
_cell_angle_alpha 18.393640
_cell_angle_beta 150.871815
_cell_angle_gamma 159.668269
_cell_volume 670.495269
_symmetry_space_group_name_H-M "P -1"
_symmetry_group_IT_number 2
_symmetry_cell_setting 'triclinic'
loop_
_space_group_symop_operation_xyz
x,y,z
-x,-y,-z
loop_
_atom_site_type_symbol
_atom_site_label
_atom_site_fract_x
_atom_site_fract_y
_atom_site_fract_z
Si Si1 0.412096 0.842951 0.463400
Si Si2 0.451859 0.744608 0.472659
Si Si3 0.002398 0.218966 0.903088
Si Si4 0.910897 0.080437 0.842121
Si Si5 0.441549 0.661717 0.976436
Si Si6 0.338865 0.534615 0.450732
Si Si7 0.722067 0.019837 0.121347
Si Si8 0.753221 0.390010 0.954748
O O1 0.517731 0.830532 0.502395
O O2 0.167972 0.746220 0.346220
O O3 0.376181 0.688807 0.766774
O O4 0.577636 0.110054 0.223246
O O5 0.667033 0.893610 0.374115
O O6 0.269129 0.460580 0.761528
O O7 0.302718 0.798772 0.196113
O O8 0.929821 0.053841 0.015055
O O9 0.932045 0.120075 0.101451
O O10 0.091456 0.358720 0.540871
O O11 0.656580 0.921139 0.809066
O O12 0.000000 0.000000 0.000000
O O13 0.528373 0.535721 0.266416
O O14 0.252879 0.542941 0.060535
O O15 0.496986 0.802878 0.193391
O O16 0.307692 0.513399 0.344240
O O17 0.000000 0.500000 0.000000
#
# Coordination Sequence:
#
# PCOD9087267 Si02
#       8
#     2   2   2   2   2   2   2   2
#     4  11  22  40  59  92 127 170 214 276 318 389
#     4  10  21  38  64  96 124 165 227 276 324 375
#     4  11  20  38  67  95 125 168 222 271 330 381
#     4  10  21  37  63  93 128 170 213 262 331 398
#     4  11  24  41  61  90 138 172 209 263 343 399
#     4  11  21  40  64  93 126 174 212 266 332 394
#     4  10  19  36  62  92 120 162 218 270 313 381
#     4  12  24  38  62  97 130 168 220 274 321 383
#
# _framework density 23.862957999999999
#
# number of rings (size 3 to 8) (size 9 to 14) (size 15 to 20)
#    0.000    1.250    5.000    3.000    1.750    1.000 
#    2.250    0.625    0.000    3.000    0.000    0.000 
#    0.000    0.000    0.000    0.000    0.000    0.000 
#
# Total GULP energy -89411.162922 kJ/mol
# GULP energy per Si atom -5588.197683 kJ/mol
# Density = 2.380864 g / cm^3
# Si number density = 23.862958 Si / 1000 Ang^3
#
#
#
# Elastic Constant Matrix: (Units=GPa)
#
#
# Indices 1 2 3 4 5 6 
#
# 1 182.5433 9.9660 22.8287 10.6460 -41.1401 -11.2668
# 2 9.9660 26.4740 12.5986 -4.7891 3.4579 5.7083
# 3 22.8287 12.5986 44.1754 0.9375 -14.0372 2.7508
# 4 10.6460 -4.7891 0.9375 33.8563 -5.3973 -4.6255
# 5 -41.1401 3.4579 -14.0372 -5.3973 32.7351 -2.8528
# 6 -11.2668 5.7083 2.7508 -4.6255 -2.8528 30.2348
#
#
#
# Elastic Compliance Matrix: (Units=1/GPa)
#
#
# Indices 1 2 3 4 5 6 
#
# 1 0.009039 -0.007014 0.001096 -0.001038 0.012892 0.005650
# 2 -0.007014 0.056262 -0.019105 0.005232 -0.023211 -0.012887
# 3 0.001096 -0.019105 0.032979 -0.000801 0.017628 0.002556
# 4 -0.001038 0.005232 -0.000801 0.031689 0.003361 0.003864
# 5 0.012892 -0.023211 0.017628 0.003361 0.058502 0.013617
# 6 0.005650 -0.012887 0.002556 0.003864 0.013617 0.039257
#
#
# Mechanical properties :
#
#
# Convention : Reuss Voigt Hill
#
# Bulk Modulus (GPa) = 20.73258 38.21992 29.47625
# Shear Modulus (GPa) = 17.01548 33.21853 25.11700
#
# Velocity S-wave (km/s) = 2.67320 3.73507 3.24783
# Velocity P-wave (km/s) = 4.27025 5.88661 5.14234
#
# Compressibility (1/GPa) = 0.04823326
#
# Stress axis : x y z
#
# Youngs Moduli (GPa) = 110.63525 17.77400 30.32275
#
# Poissons Ratio (x) = 0.12467 -0.03323
# Poissons Ratio (y) = 0.77600 0.57932
# Poissons Ratio (z) = -0.12126 0.33957
#
# Static dielectric constant tensor:
#      x y z
#    x 1.969040 0.014680 -0.042130 
#    y 0.014680 1.905170 -0.042200 
#    z -0.042130 -0.042200 1.956670 
# 
# From -- ./inp_files/539382.got.cif
#   From: 2010.05.17/outbox.cif.g08.bks.cpg/sg2_270_cif.got.tgz:539382.got - 2010.06.03 11:33:40.
