data_PCOD9087028
_publ_section_title
;
Structure prediction by ZEFSAII (Michael W. Deem and Ramdas Pophale) SiO2 
 PCOD9087028
Probable space group: P -1
;
_chemical_formula_sum "Si O2"
_cell_formula_units_Z 14
_cell_length_a 24.171020
_cell_length_b 8.780979
_cell_length_c 19.255465
_cell_angle_alpha 137.423682
_cell_angle_beta 12.762803
_cell_angle_gamma 139.752913
_cell_volume 582.397033
_symmetry_space_group_name_H-M "P -1"
_symmetry_group_IT_number 2
_symmetry_cell_setting 'triclinic'
loop_
_space_group_symop_operation_xyz
x,y,z
-x,-y,-z
loop_
_atom_site_type_symbol
_atom_site_label
_atom_site_fract_x
_atom_site_fract_y
_atom_site_fract_z
Si Si1 0.438190 0.745690 0.862680
Si Si2 0.952817 0.617916 0.190452
Si Si3 0.197447 0.878673 0.846608
Si Si4 0.782749 0.185887 0.654100
Si Si5 0.952185 0.098437 0.687808
Si Si6 0.582833 0.543214 0.833309
Si Si7 0.951643 0.276817 0.317007
O O1 0.676226 0.652481 0.515671
O O2 0.558903 0.930010 0.838110
O O3 0.195636 0.516820 0.098118
O O4 0.328545 0.901934 0.996330
O O5 0.923932 0.342963 0.129728
O O6 0.999741 0.729805 0.246430
O O7 0.165288 0.762801 0.924063
O O8 0.500000 0.000000 0.500000
O O9 0.041904 0.070511 0.102549
O O10 0.885278 0.215320 0.458674
O O11 0.997378 0.140850 0.428055
O O12 0.656770 0.396161 0.891478
O O13 0.171985 0.223152 0.403717
O O14 0.710958 0.335529 0.591508
O O15 0.500000 0.500000 0.000000
#
# Coordination Sequence:
#
# PCOD9087028 Si02
#       7
#     2   2   2   2   2   2   2
#     4  10  20  37  62  87 126 157 199 251 301 356
#     4  10  22  39  63  89 120 163 200 250 307 356
#     4  11  20  38  67  86 119 165 201 246 312 360
#     4  10  20  40  62  87 124 168 198 248 305 352
#     4  10  20  37  63  93 121 158 210 246 297 367
#     4   9  20  37  62  90 125 161 202 248 303 359
#     4  10  19  36  61  89 120 161 202 249 302 355
#
# _framework density 24.038582000000002
#
# number of rings (size 3 to 8) (size 9 to 14) (size 15 to 20)
#    0.000    2.000    4.286    0.429    0.000    2.286 
#    0.000   18.571    0.000   22.286    0.000    0.000 
#    0.000    0.000    0.000    0.000    0.000    0.000 
#
# Total GULP energy -78317.756933 kJ/mol
# GULP energy per Si atom -5594.125495 kJ/mol
# Density = 2.398387 g / cm^3
# Si number density = 24.038582 Si / 1000 Ang^3
#
#
#
# Elastic Constant Matrix: (Units=GPa)
#
#
# Indices 1 2 3 4 5 6 
#
# 1 85.8922 38.8643 54.6707 5.7976 -9.9792 -8.9804
# 2 38.8643 170.8578 72.3588 18.3935 2.6915 -3.2776
# 3 54.6707 72.3588 145.4137 41.0161 5.0767 -4.9012
# 4 5.7976 18.3935 41.0161 62.3006 -15.7620 4.7568
# 5 -9.9792 2.6915 5.0767 -15.7620 34.2944 3.9748
# 6 -8.9804 -3.2776 -4.9012 4.7568 3.9748 40.0214
#
#
#
# Elastic Compliance Matrix: (Units=1/GPa)
#
#
# Indices 1 2 3 4 5 6 
#
# 1 0.018408 -0.001498 -0.008304 0.006516 0.009551 0.001268
# 2 -0.001498 0.007543 -0.003109 -0.000208 -0.000662 -0.000009
# 3 -0.008304 -0.003109 0.014970 -0.010728 -0.009544 0.001938
# 4 0.006516 -0.000208 -0.010728 0.027106 0.016507 -0.004730
# 5 0.009551 -0.000662 -0.009544 0.016507 0.041589 -0.005172
# 6 0.001268 -0.000009 0.001938 -0.004730 -0.005172 0.026584
#
#
# Mechanical properties :
#
#
# Convention : Reuss Voigt Hill
#
# Bulk Modulus (GPa) = 66.22619 81.55015 73.88817
# Shear Modulus (GPa) = 29.93008 43.07461 36.50235
#
# Velocity S-wave (km/s) = 3.53240 4.23767 3.90101
# Velocity P-wave (km/s) = 6.65184 7.61197 7.14804
#
# Compressibility (1/GPa) = 0.01509977
#
# Stress axis : x y z
#
# Youngs Moduli (GPa) = 54.32307 132.57788 66.79849
#
# Poissons Ratio (x) = 0.19861 0.55470
# Poissons Ratio (y) = 0.08138 0.20766
# Poissons Ratio (z) = 0.45111 0.41214
#
# Static dielectric constant tensor:
#      x y z
#    x 1.902640 -0.013160 0.005620 
#    y -0.013160 1.949350 -0.014580 
#    z 0.005620 -0.014580 1.949780 
# 
# From -- ./inp_files/614483.got.cif
#   From: 2010.05.17/outbox.cif.g08.bks.cpg/sg2_308_cif.got.tgz:614483.got - 2010.06.03 11:33:40.
