data_PCOD9087920
_publ_section_title
;
Structure prediction by ZEFSAII (Michael W. Deem and Ramdas Pophale) SiO2 
 PCOD9087920
Probable space group: P -1
;
_chemical_formula_sum "Si O2"
_cell_formula_units_Z 14
_cell_length_a 11.447918
_cell_length_b 7.065142
_cell_length_c 13.607193
_cell_angle_alpha 96.668114
_cell_angle_beta 68.339119
_cell_angle_gamma 55.286337
_cell_volume 760.230560
_symmetry_space_group_name_H-M "P -1"
_symmetry_group_IT_number 2
_symmetry_cell_setting 'triclinic'
loop_
_space_group_symop_operation_xyz
x,y,z
-x,-y,-z
loop_
_atom_site_type_symbol
_atom_site_label
_atom_site_fract_x
_atom_site_fract_y
_atom_site_fract_z
Si Si1 0.118835 0.427200 0.255334
Si Si2 0.014077 0.818944 0.626275
Si Si3 0.929817 0.922319 0.216024
Si Si4 0.142905 0.602233 0.944575
Si Si5 0.635756 0.286557 0.193803
Si Si6 0.789716 0.835122 0.984742
Si Si7 0.247920 0.636481 0.360270
O O1 0.218079 0.478164 0.293965
O O2 0.034285 0.346301 0.340156
O O3 0.983383 0.691915 0.253960
O O4 0.229543 0.214333 0.123560
O O5 0.167081 0.677736 0.493895
O O6 0.055320 0.901965 0.714663
O O7 0.858649 0.084534 0.638509
O O8 0.058385 0.792962 0.076177
O O9 0.747583 0.084756 0.234300
O O10 0.275874 0.601554 0.850335
O O11 0.224309 0.330733 0.947789
O O12 0.016364 0.292319 0.067296
O O13 0.442564 0.491361 0.292421
O O14 0.668534 0.121363 0.078210
#
# Coordination Sequence:
#
# PCOD9087920 Si02
#       7
#     2   2   2   2   2   2   2
#     4  10  19  37  57  75 102 144 178 210 258 316
#     4  10  20  41  57  69 102 147 181 216 258 306
#     4   9  19  34  58  82 101 135 180 211 257 319
#     4   9  17  32  54  81 110 139 165 208 264 316
#     4  11  20  34  53  84 113 131 168 224 263 303
#     4   9  18  32  54  80 107 139 174 204 257 322
#     4  10  24  36  53  79 104 139 183 215 258 315
#
# _framework density 18.415468000000001
#
# number of rings (size 3 to 8) (size 9 to 14) (size 15 to 20)
#    0.000    2.286    0.000    4.714    0.000    2.286 
#    0.000   10.714    0.000    0.000    0.000    0.000 
#    0.000    0.000    0.000    0.000    0.000    0.000 
#
# Total GULP energy -78160.936228 kJ/mol
# GULP energy per Si atom -5582.924016 kJ/mol
# Density = 1.837355 g / cm^3
# Si number density = 18.415468 Si / 1000 Ang^3
#
#
#
# Elastic Constant Matrix: (Units=GPa)
#
#
# Indices 1 2 3 4 5 6 
#
# 1 62.3583 26.4785 18.7512 -2.6234 -9.5952 2.3720
# 2 26.4785 53.0549 12.3336 -14.3270 -18.2053 14.3888
# 3 18.7512 12.3336 2.9230 -9.1474 -13.7077 -10.8014
# 4 -2.6234 -14.3270 -9.1474 21.4563 -3.8638 -5.4733
# 5 -9.5952 -18.2053 -13.7077 -3.8638 30.5867 2.5555
# 6 2.3720 14.3888 -10.8014 -5.4733 2.5555 21.9550
#
#
#
# Elastic Compliance Matrix: (Units=1/GPa)
#
#
# Indices 1 2 3 4 5 6 
#
# 1 0.018294 -0.015108 0.013031 0.001708 0.001584 0.014577
# 2 -0.015108 0.056642 -0.003526 0.032169 0.034231 -0.033189
# 3 0.013031 -0.003526 -0.050931 -0.034218 -0.022648 -0.030048
# 4 0.001708 0.032169 -0.034218 0.049036 0.012829 -0.027371
# 5 0.001584 0.034231 -0.022648 0.012829 0.048055 -0.036143
# 6 0.014577 -0.033189 -0.030048 -0.027371 -0.036143 0.048324
#
#
# Mechanical properties :
#
#
# Convention : Reuss Voigt Hill
#
# Bulk Modulus (GPa) = 78.13195 25.94028 52.03612
# Shear Modulus (GPa) = 27.04239 18.85115 22.94677
#
# Velocity S-wave (km/s) = 3.83621 3.20294 3.53379
# Velocity P-wave (km/s) = 7.88298 5.27211 6.70584
#
# Compressibility (1/GPa) = 0.01279886
#
# Stress axis : x y z
#
# Youngs Moduli (GPa) = 54.66163 17.65466 -19.63452
#
# Poissons Ratio (x) = 0.26673 0.25585
# Poissons Ratio (y) = 0.82584 -0.06923
# Poissons Ratio (z) = -0.71228 0.06225
#
# Static dielectric constant tensor:
#      x y z
#    x 1.621460 0.013230 0.031350 
#    y 0.013230 1.649080 -0.002170 
#    z 0.031350 -0.002170 1.627150 
# 
# From -- ./inp_files/476813.got.cif
#   From: 2010.05.17/outbox.cif.g08.bks.cpg/sg2_239_cif.got.tgz:476813.got - 2010.06.03 11:33:40.
