data_PCOD9087929
_publ_section_title
;
Structure prediction by ZEFSAII (Michael W. Deem and Ramdas Pophale) SiO2 
 PCOD9087929
Probable space group: P -1
;
_chemical_formula_sum "Si O2"
_cell_formula_units_Z 16
_cell_length_a 19.257195
_cell_length_b 6.997688
_cell_length_c 7.839117
_cell_angle_alpha 58.112716
_cell_angle_beta 134.787828
_cell_angle_gamma 126.375096
_cell_volume 592.260705
_symmetry_space_group_name_H-M "P -1"
_symmetry_group_IT_number 2
_symmetry_cell_setting 'triclinic'
loop_
_space_group_symop_operation_xyz
x,y,z
-x,-y,-z
loop_
_atom_site_type_symbol
_atom_site_label
_atom_site_fract_x
_atom_site_fract_y
_atom_site_fract_z
Si Si1 0.701153 0.328153 0.291106
Si Si2 0.188277 0.472924 0.271704
Si Si3 0.661313 0.041072 0.044714
Si Si4 0.062448 0.459558 0.465917
Si Si5 0.650953 0.560858 0.660920
Si Si6 0.863483 0.098877 0.182238
Si Si7 0.032596 0.855680 0.981303
Si Si8 0.436020 0.370600 0.182783
O O1 0.733124 0.361634 0.528829
O O2 0.663004 0.077831 0.235475
O O3 0.814201 0.489724 0.322522
O O4 0.423594 0.163620 0.119872
O O5 0.244060 0.334678 0.316723
O O6 0.154509 0.652926 0.012272
O O7 0.078787 0.285724 0.239544
O O8 0.765899 0.986267 0.192818
O O9 0.652471 0.297614 0.850364
O O10 0.613231 0.444208 0.065561
O O11 0.978818 0.193581 0.413697
O O12 0.065021 0.659300 0.233368
O O13 0.000000 0.500000 0.500000
O O14 0.553335 0.499252 0.392280
O O15 0.630735 0.705984 0.718708
O O16 0.877528 0.004614 0.063399
O O17 0.000000 0.000000 0.000000
#
# Coordination Sequence:
#
# PCOD9087929 Si02
#       8
#     2   2   2   2   2   2   2   2
#     4  11  21  37  57  85 120 154 190 242 301 348
#     4  10  20  39  58  79 117 159 193 231 303 354
#     4  10  21  36  62  86 115 150 198 242 296 350
#     4  11  20  38  57  79 122 162 188 235 302 347
#     4   9  21  41  62  81 112 157 191 246 302 349
#     4  10  19  37  57  81 113 161 192 229 292 358
#     4  11  23  35  58  89 120 155 204 243 285 362
#     4  10  22  39  60  87 114 145 203 249 291 355
#
# _framework density 27.015129999999999
#
# number of rings (size 3 to 8) (size 9 to 14) (size 15 to 20)
#    0.000    1.750    3.750    1.125    3.500    1.500 
#    0.000    1.875    0.000    0.000    0.000    0.000 
#    0.000    0.000    0.000    0.000    0.000    0.000 
#
# Total GULP energy -89399.833851 kJ/mol
# GULP energy per Si atom -5587.489616 kJ/mol
# Density = 2.695364 g / cm^3
# Si number density = 27.015130 Si / 1000 Ang^3
#
#
#
# Elastic Constant Matrix: (Units=GPa)
#
#
# Indices 1 2 3 4 5 6 
#
# 1 65.5570 0.2332 14.8339 -3.2955 5.7091 -5.4128
# 2 0.2332 99.5456 53.6311 14.9054 -7.6898 -19.8868
# 3 14.8339 53.6311 122.3697 9.6606 14.8978 -6.0818
# 4 -3.2955 14.9054 9.6606 47.2021 -14.6897 -3.7839
# 5 5.7091 -7.6898 14.8978 -14.6897 38.2593 5.7465
# 6 -5.4128 -19.8868 -6.0818 -3.7839 5.7465 32.1142
#
#
#
# Elastic Compliance Matrix: (Units=1/GPa)
#
#
# Indices 1 2 3 4 5 6 
#
# 1 0.016283 0.001812 -0.002505 0.000980 -0.001275 0.003736
# 2 0.001812 0.016076 -0.007224 -0.001598 0.003959 0.007996
# 3 -0.002505 -0.007224 0.012601 -0.002714 -0.006784 -0.001615
# 4 0.000980 -0.001598 -0.002714 0.025543 0.010426 -0.000195
# 5 -0.001275 0.003959 -0.006784 0.010426 0.034364 -0.003969
# 6 0.003736 0.007996 -0.001615 -0.000195 -0.003969 0.037101
#
#
# Mechanical properties :
#
#
# Convention : Reuss Voigt Hill
#
# Bulk Modulus (GPa) = 34.33065 47.20763 40.76914
# Shear Modulus (GPa) = 29.84903 38.10006 33.97454
#
# Velocity S-wave (km/s) = 3.32761 3.75950 3.55013
# Velocity P-wave (km/s) = 5.24400 6.02972 5.65053
#
# Compressibility (1/GPa) = 0.02912849
#
# Stress axis : x y z
#
# Youngs Moduli (GPa) = 61.41388 62.20586 79.35628
#
# Poissons Ratio (x) = -0.11274 0.19875
# Poissons Ratio (y) = -0.11131 0.57324
# Poissons Ratio (z) = 0.15382 0.44935
#
# Static dielectric constant tensor:
#      x y z
#    x 2.180320 -0.019860 -0.054480 
#    y -0.019860 2.202010 0.060750 
#    z -0.054480 0.060750 2.143560 
# 
# From -- ./inp_files/341109.got.cif
#   From: 2010.05.17/outbox.cif.g08.bks.cpg/sg2_171_cif.got.tgz:341109.got - 2010.06.03 11:33:40.
