data_PCOD9087653
_publ_section_title
;
Structure prediction by ZEFSAII (Michael W. Deem and Ramdas Pophale) SiO2 
 PCOD9087653
Probable space group: P -1
;
_chemical_formula_sum "Si O2"
_cell_formula_units_Z 16
_cell_length_a 9.980590
_cell_length_b 22.650950
_cell_length_c 8.296333
_cell_angle_alpha 62.121406
_cell_angle_beta 61.363561
_cell_angle_gamma 25.057568
_cell_volume 694.353983
_symmetry_space_group_name_H-M "P -1"
_symmetry_group_IT_number 2
_symmetry_cell_setting 'triclinic'
loop_
_space_group_symop_operation_xyz
x,y,z
-x,-y,-z
loop_
_atom_site_type_symbol
_atom_site_label
_atom_site_fract_x
_atom_site_fract_y
_atom_site_fract_z
Si Si1 0.688652 0.308660 0.055723
Si Si2 0.515327 0.201050 0.462446
Si Si3 0.855606 0.871924 0.706630
Si Si4 0.097654 0.478371 0.287338
Si Si5 0.255462 0.651044 0.513798
Si Si6 0.950725 0.078586 0.652606
Si Si7 0.508858 0.307626 0.827826
Si Si8 0.795161 0.820359 0.267651
O O1 0.357187 0.438408 0.179799
O O2 0.940656 0.177616 0.198239
O O3 0.574287 0.313705 0.955563
O O4 0.912888 0.282135 0.895111
O O5 0.275331 0.340017 0.326907
O O6 0.664783 0.179496 0.559585
O O7 0.360881 0.192559 0.630889
O O8 0.798576 0.074087 0.339103
O O9 0.070566 0.727877 0.695552
O O10 0.868131 0.922308 0.494120
O O11 0.484176 0.015506 0.790465
O O12 0.000000 0.500000 0.500000
O O13 0.826789 0.593075 0.163095
O O14 0.500000 0.500000 0.500000
O O15 0.443512 0.648037 0.379987
O O16 0.961396 0.762339 0.418091
O O17 0.788117 0.148167 0.828789
#
# Coordination Sequence:
#
# PCOD9087653 Si02
#       8
#     2   2   2   2   2   2   2   2
#     4  11  23  39  60  90 123 156 197 252 306 359
#     4  10  19  36  65  89 116 153 209 241 289 352
#     4  10  19  39  64  87 118 166 202 237 304 359
#     4  12  21  39  65  87 111 163 206 243 295 365
#     4  10  20  38  62  92 122 155 203 250 292 359
#     4   9  18  37  64  88 114 157 205 248 281 356
#     4  10  21  38  60  89 122 156 198 249 303 349
#     4  10  22  37  62  91 122 155 195 255 301 350
#
# _framework density 23.043004
#
# number of rings (size 3 to 8) (size 9 to 14) (size 15 to 20)
#    0.000    1.750    2.500    2.625    0.000    1.000 
#    0.000    6.250    2.750    0.000    0.000    0.000 
#    0.000    0.000    0.000    0.000    0.000    0.000 
#
# Total GULP energy -89112.528686 kJ/mol
# GULP energy per Si atom -5569.533043 kJ/mol
# Density = 2.299056 g / cm^3
# Si number density = 23.043004 Si / 1000 Ang^3
#
#
#
# Elastic Constant Matrix: (Units=GPa)
#
#
# Indices 1 2 3 4 5 6 
#
# 1 59.5670 31.0085 15.7590 10.9853 -8.0230 -9.3049
# 2 31.0085 117.3860 23.7439 8.4482 5.7981 -6.9658
# 3 15.7590 23.7439 66.2357 19.9442 -1.8272 -7.3432
# 4 10.9853 8.4482 19.9442 25.5692 -12.7472 -2.0038
# 5 -8.0230 5.7981 -1.8272 -12.7472 29.7055 -1.2123
# 6 -9.3049 -6.9658 -7.3432 -2.0038 -1.2123 42.6656
#
#
#
# Elastic Compliance Matrix: (Units=1/GPa)
#
#
# Indices 1 2 3 4 5 6 
#
# 1 0.021911 -0.005255 -0.001817 -0.003177 0.005616 0.003618
# 2 -0.005255 0.010692 -0.002167 -0.001778 -0.004402 0.000018
# 3 -0.001817 -0.002167 0.022026 -0.018890 -0.006739 0.001962
# 4 -0.003177 -0.001778 -0.018890 0.069902 0.028317 -0.000147
# 5 0.005616 -0.004402 -0.006739 0.028317 0.047860 0.002036
# 6 0.003618 0.000018 0.001962 -0.000147 0.002036 0.024619
#
#
# Mechanical properties :
#
#
# Convention : Reuss Voigt Hill
#
# Bulk Modulus (GPa) = 27.66007 42.69014 35.17511
# Shear Modulus (GPa) = 21.97449 31.09988 26.53719
#
# Velocity S-wave (km/s) = 3.09144 3.67774 3.39726
# Velocity P-wave (km/s) = 4.97719 6.04986 5.53955
#
# Compressibility (1/GPa) = 0.03615320
#
# Stress axis : x y z
#
# Youngs Moduli (GPa) = 45.63830 93.53110 45.40075
#
# Poissons Ratio (x) = 0.49147 0.08249
# Poissons Ratio (y) = 0.23981 0.09836
# Poissons Ratio (z) = 0.08292 0.20264
#
# Static dielectric constant tensor:
#      x y z
#    x 1.874050 0.033030 -0.005640 
#    y 0.033030 1.982970 0.093930 
#    z -0.005640 0.093930 1.965820 
# 
# From -- ./inp_files/285817.got.cif
#   From: 2010.05.17/outbox.cif.g08.bks.cpg/sg2_143_cif.got.tgz:285817.got - 2010.06.03 11:33:40.
