data_PCOD9087740
_publ_section_title
;
Structure prediction by ZEFSAII (Michael W. Deem and Ramdas Pophale) SiO2 
 PCOD9087740
Probable space group: P -1
;
_chemical_formula_sum "Si O2"
_cell_formula_units_Z 12
_cell_length_a 7.095932
_cell_length_b 10.064254
_cell_length_c 9.686066
_cell_angle_alpha 95.416590
_cell_angle_beta 83.389577
_cell_angle_gamma 135.789285
_cell_volume 479.067589
_symmetry_space_group_name_H-M "P -1"
_symmetry_group_IT_number 2
_symmetry_cell_setting 'triclinic'
loop_
_space_group_symop_operation_xyz
x,y,z
-x,-y,-z
loop_
_atom_site_type_symbol
_atom_site_label
_atom_site_fract_x
_atom_site_fract_y
_atom_site_fract_z
Si Si1 0.072998 0.756816 0.194795
Si Si2 0.714682 0.487512 0.954561
Si Si3 0.225626 0.223827 0.551998
Si Si4 0.111353 0.257816 0.280989
Si Si5 0.490548 0.113898 0.623303
Si Si6 0.279007 0.108507 0.065910
O O1 0.248172 0.768866 0.293265
O O2 0.865336 0.745668 0.299172
O O3 0.263308 0.955649 0.116009
O O4 0.916238 0.594194 0.077486
O O5 0.850712 0.598580 0.810553
O O6 0.500000 0.500000 0.000000
O O7 0.528994 0.264445 0.960943
O O8 0.223873 0.324157 0.433429
O O9 0.471250 0.248707 0.567351
O O10 0.000000 0.000000 0.500000
O O11 0.277469 0.216096 0.199535
O O12 0.795137 0.056958 0.291246
O O13 0.500000 0.000000 0.500000
O O14 0.000000 0.000000 0.000000
#
# Coordination Sequence:
#
# PCOD9087740 Si02
#       6
#     2   2   2   2   2   2
#     4  12  21  40  72  95 134 173 211 280 323 379
#     4  10  23  39  67 101 130 170 223 264 333 393
#     4  10  19  36  66  98 125 177 220 259 327 383
#     4  10  19  38  63  97 135 166 219 266 320 388
#     4  11  20  35  67 102 132 172 224 262 322 394
#     4  11  20  41  70  94 129 173 214 270 330 389
#
# _framework density 25.048659000000001
#
# number of rings (size 3 to 8) (size 9 to 14) (size 15 to 20)
#    0.000    1.333   10.000    0.000    0.000    0.667 
#    0.000    4.167   11.000    5.000    0.000    0.000 
#    0.000    0.000    0.000    0.000    0.000    0.000 
#
# Total GULP energy -67229.767989 kJ/mol
# GULP energy per Si atom -5602.480666 kJ/mol
# Density = 2.499165 g / cm^3
# Si number density = 25.048659 Si / 1000 Ang^3
#
#
#
# Elastic Constant Matrix: (Units=GPa)
#
#
# Indices 1 2 3 4 5 6 
#
# 1 121.1919 25.6290 51.7853 16.9788 25.2178 3.3027
# 2 25.6290 117.1888 63.7090 -2.5227 15.6718 -7.4988
# 3 51.7853 63.7090 155.3545 2.8003 24.8232 -5.6677
# 4 16.9788 -2.5227 2.8003 36.9751 5.4889 1.0650
# 5 25.2178 15.6718 24.8232 5.4889 66.6222 9.2549
# 6 3.3027 -7.4988 -5.6677 1.0650 9.2549 28.1090
#
#
#
# Elastic Compliance Matrix: (Units=1/GPa)
#
#
# Indices 1 2 3 4 5 6 
#
# 1 0.010758 -0.000617 -0.002922 -0.004384 -0.002326 -0.001086
# 2 -0.000617 0.011305 -0.004141 0.001496 -0.001374 0.002649
# 3 -0.002922 -0.004141 0.009435 0.000551 -0.001715 0.001685
# 4 -0.004384 0.001496 0.000551 0.029311 -0.001363 0.000364
# 5 -0.002326 -0.001374 -0.001715 -0.001363 0.017834 -0.006259
# 6 -0.001086 0.002649 0.001685 0.000364 -0.006259 0.038797
#
#
# Mechanical properties :
#
#
# Convention : Reuss Voigt Hill
#
# Bulk Modulus (GPa) = 61.96718 75.10908 68.53813
# Shear Modulus (GPa) = 36.18487 43.18206 39.68346
#
# Velocity S-wave (km/s) = 3.80489 4.15652 3.98459
# Velocity P-wave (km/s) = 6.64043 7.28601 6.97070
#
# Compressibility (1/GPa) = 0.01613757
#
# Stress axis : x y z
#
# Youngs Moduli (GPa) = 92.95129 88.45691 105.99304
#
# Poissons Ratio (x) = 0.05459 0.30971
# Poissons Ratio (y) = 0.05736 0.43893
# Poissons Ratio (z) = 0.27160 0.36631
#
# Static dielectric constant tensor:
#      x y z
#    x 2.028750 -0.028960 -0.001540 
#    y -0.028960 2.059250 -0.034140 
#    z -0.001540 -0.034140 2.027470 
# 
# From -- ./inp_files/164160.got.cif
#   From: 2010.05.17/outbox.cif.g08.bks.cpg/sg2_83_cif.got.tgz:164160.got - 2010.06.03 11:33:40.
