data_PCOD9087670
_publ_section_title
;
Structure prediction by ZEFSAII (Michael W. Deem and Ramdas Pophale) SiO2 
 PCOD9087670
Probable space group: P -1
;
_chemical_formula_sum "Si O2"
_cell_formula_units_Z 14
_cell_length_a 9.935473
_cell_length_b 9.220405
_cell_length_c 12.785202
_cell_angle_alpha 49.252718
_cell_angle_beta 134.553492
_cell_angle_gamma 113.896646
_cell_volume 629.268809
_symmetry_space_group_name_H-M "P -1"
_symmetry_group_IT_number 2
_symmetry_cell_setting 'triclinic'
loop_
_space_group_symop_operation_xyz
x,y,z
-x,-y,-z
loop_
_atom_site_type_symbol
_atom_site_label
_atom_site_fract_x
_atom_site_fract_y
_atom_site_fract_z
Si Si1 0.818970 0.222017 0.144953
Si Si2 0.408804 0.819007 0.147799
Si Si3 0.391058 0.892129 0.726722
Si Si4 0.434783 0.570961 0.546430
Si Si5 0.747090 0.845500 0.655509
Si Si6 0.906712 0.219414 0.841868
Si Si7 0.267859 0.347896 0.052854
O O1 0.783546 0.152332 0.275521
O O2 0.037381 0.203910 0.240445
O O3 0.686358 0.110319 0.046794
O O4 0.744581 0.447295 0.994725
O O5 0.559094 0.633559 0.295787
O O6 0.222620 0.753859 0.137177
O O7 0.497349 0.957653 0.214556
O O8 0.540223 0.707687 0.878251
O O9 0.327737 0.970549 0.541039
O O10 0.500000 0.500000 0.500000
O O11 0.598394 0.694607 0.615968
O O12 0.237771 0.704835 0.364620
O O13 0.747556 0.825931 0.790087
O O14 0.081653 0.347281 0.880703
O O15 0.000000 0.000000 0.000000
#
# Coordination Sequence:
#
# PCOD9087670 Si02
#       7
#     2   2   2   2   2   2   2
#     4  12  25  42  64  93 128 166 209 251 315 374
#     4  11  21  41  63  89 122 168 209 249 303 377
#     4  12  26  42  61  94 134 164 197 263 320 366
#     4  10  19  36  65  92 118 158 216 259 297 357
#     4  12  22  41  67  94 119 166 214 257 300 370
#     4  11  20  38  65  95 122 158 213 261 304 357
#     4  12  24  41  67  93 125 163 210 259 311 362
#
# _framework density 22.248044
#
# number of rings (size 3 to 8) (size 9 to 14) (size 15 to 20)
#    0.000    0.571    7.143    3.857    0.000    0.000 
#    0.000    0.000    0.000    0.857    0.000    0.000 
#    0.000    0.000    0.000    0.000    0.000    0.000 
#
# Total GULP energy -78134.720981 kJ/mol
# GULP energy per Si atom -5581.051499 kJ/mol
# Density = 2.219741 g / cm^3
# Si number density = 22.248044 Si / 1000 Ang^3
#
#
#
# Elastic Constant Matrix: (Units=GPa)
#
#
# Indices 1 2 3 4 5 6 
#
# 1 57.5738 -2.8715 24.1022 -4.4688 11.4115 -4.2689
# 2 -2.8715 60.2277 39.6963 6.8127 23.7101 2.2475
# 3 24.1022 39.6963 116.0622 1.6936 27.8438 4.4400
# 4 -4.4688 6.8127 1.6936 35.9314 -0.6772 6.7181
# 5 11.4115 23.7101 27.8438 -0.6772 33.6428 -8.3142
# 6 -4.2689 2.2475 4.4400 6.7181 -8.3142 9.1846
#
#
#
# Elastic Compliance Matrix: (Units=1/GPa)
#
#
# Indices 1 2 3 4 5 6 
#
# 1 0.021730 0.007031 -0.005515 0.000648 -0.006616 0.004582
# 2 0.007031 0.032041 -0.004710 -0.000430 -0.027781 -0.027130
# 3 -0.005515 -0.004710 0.015419 0.003640 -0.013329 -0.023593
# 4 0.000648 -0.000430 0.003640 0.034498 -0.011343 -0.036856
# 5 -0.006616 -0.027781 -0.013329 -0.011343 0.086196 0.096490
# 6 0.004582 -0.027130 -0.023593 -0.036856 0.096490 0.243354
#
#
# Mechanical properties :
#
#
# Convention : Reuss Voigt Hill
#
# Bulk Modulus (GPa) = 15.92281 39.52418 27.72349
# Shear Modulus (GPa) = 10.85634 27.28088 19.06861
#
# Velocity S-wave (km/s) = 2.21140 3.50553 2.93079
# Velocity P-wave (km/s) = 3.70039 5.84712 4.89294
#
# Compressibility (1/GPa) = 0.06280299
#
# Stress axis : x y z
#
# Youngs Moduli (GPa) = 46.01964 31.20989 64.85379
#
# Poissons Ratio (x) = -0.21945 0.35766
# Poissons Ratio (y) = -0.32358 0.30547
# Poissons Ratio (z) = 0.25379 0.14700
#
# Static dielectric constant tensor:
#      x y z
#    x 1.812070 0.023450 -0.053740 
#    y 0.023450 1.841290 0.004080 
#    z -0.053740 0.004080 1.940610 
# 
# From -- ./inp_files/159720.got.cif
#   From: 2010.05.17/outbox.cif.g08.bks.cpg/sg2_80_cif.got.tgz:159720.got - 2010.06.03 11:33:40.
