data_PCOD9087842
_publ_section_title
;
Structure prediction by ZEFSAII (Michael W. Deem and Ramdas Pophale) SiO2 
 PCOD9087842
Probable space group: P -1
;
_chemical_formula_sum "Si O2"
_cell_formula_units_Z 16
_cell_length_a 5.354512
_cell_length_b 21.065659
_cell_length_c 8.838681
_cell_angle_alpha 55.431506
_cell_angle_beta 102.693010
_cell_angle_gamma 82.833086
_cell_volume 761.305936
_symmetry_space_group_name_H-M "P -1"
_symmetry_group_IT_number 2
_symmetry_cell_setting 'triclinic'
loop_
_space_group_symop_operation_xyz
x,y,z
-x,-y,-z
loop_
_atom_site_type_symbol
_atom_site_label
_atom_site_fract_x
_atom_site_fract_y
_atom_site_fract_z
Si Si1 0.864356 0.731622 0.049163
Si Si2 0.639887 0.123819 0.183943
Si Si3 0.338786 0.659185 0.423420
Si Si4 0.881768 0.587893 0.437503
Si Si5 0.978281 0.802788 0.686438
Si Si6 0.204773 0.804559 0.408718
Si Si7 0.446164 0.933937 0.431754
Si Si8 0.036974 0.066315 0.032575
O O1 0.660908 0.816487 0.966863
O O2 0.862495 0.745380 0.851120
O O3 0.780960 0.655800 0.200184
O O4 0.163046 0.709839 0.190752
O O5 0.782833 0.184051 0.200855
O O6 0.643368 0.064330 0.407462
O O7 0.811769 0.087360 0.107294
O O8 0.622317 0.598660 0.491667
O O9 0.385112 0.725714 0.452938
O O10 0.126034 0.613929 0.511540
O O11 0.000000 0.500000 0.500000
O O12 0.059842 0.775084 0.566613
O O13 0.763894 0.892523 0.524406
O O14 0.343684 0.865996 0.421612
O O15 0.001391 0.857351 0.184930
O O16 0.317525 0.018563 0.215542
O O17 0.000000 0.000000 0.000000
#
# Coordination Sequence:
#
# PCOD9087842 Si02
#       8
#     2   2   2   2   2   2   2   2
#     4   9  20  34  63  83 114 154 200 241 290 357
#     4  10  19  37  54  79 113 152 213 243 303 355
#     4  10  22  37  65  94 121 161 191 248 295 354
#     4  10  21  38  64  97 126 152 193 241 297 357
#     4  10  20  35  54  82 110 160 202 251 295 359
#     4  10  21  35  55  82 119 152 204 247 301 362
#     4   9  21  35  54  77 111 160 202 260 299 355
#     4  10  20  34  53  78 117 155 203 261 311 346
#
# _framework density 21.016517
#
# number of rings (size 3 to 8) (size 9 to 14) (size 15 to 20)
#    0.750    1.500    0.000    3.000    1.750    2.000 
#    0.000    5.000    0.000    1.500    0.000    0.000 
#    0.000    0.000    0.000    0.000    0.000    0.000 
#
# Total GULP energy -89222.002364 kJ/mol
# GULP energy per Si atom -5576.375148 kJ/mol
# Density = 2.096868 g / cm^3
# Si number density = 21.016517 Si / 1000 Ang^3
#
#
#
# Elastic Constant Matrix: (Units=GPa)
#
#
# Indices 1 2 3 4 5 6 
#
# 1 67.2291 16.6357 9.6389 9.2657 18.8091 -12.0917
# 2 16.6357 105.6004 35.2994 5.4970 10.9005 -14.2963
# 3 9.6389 35.2994 50.6490 13.2822 4.3403 -4.0252
# 4 9.2657 5.4970 13.2822 33.0998 -0.7185 -2.1726
# 5 18.8091 10.9005 4.3403 -0.7185 24.1860 -0.1532
# 6 -12.0917 -14.2963 -4.0252 -2.1726 -0.1532 36.6333
#
#
#
# Elastic Compliance Matrix: (Units=1/GPa)
#
#
# Indices 1 2 3 4 5 6 
#
# 1 0.021688 -0.000364 -0.000400 -0.005784 -0.016761 0.006560
# 2 -0.000364 0.013465 -0.009074 0.001696 -0.004080 0.004221
# 3 -0.000400 -0.009074 0.028776 -0.010024 -0.001068 -0.001110
# 4 -0.005784 0.001696 -0.010024 0.035701 0.006592 -0.000204
# 5 -0.016761 -0.004080 -0.001068 0.006592 0.056566 -0.006615
# 6 0.006560 0.004221 -0.001110 -0.000204 -0.006615 0.030948
#
#
# Mechanical properties :
#
#
# Convention : Reuss Voigt Hill
#
# Bulk Modulus (GPa) = 22.59706 38.51409 30.55557
# Shear Modulus (GPa) = 22.56613 29.57745 26.07179
#
# Velocity S-wave (km/s) = 3.28034 3.75553 3.52595
# Velocity P-wave (km/s) = 5.01228 6.09678 5.58093
#
# Compressibility (1/GPa) = 0.04425355
#
# Stress axis : x y z
#
# Youngs Moduli (GPa) = 46.10813 74.26867 34.75091
#
# Poissons Ratio (x) = 0.02702 0.01388
# Poissons Ratio (y) = 0.01677 0.31534
# Poissons Ratio (z) = 0.01842 0.67394
#
# Static dielectric constant tensor:
#      x y z
#    x 1.855470 0.030200 -0.009060 
#    y 0.030200 1.736490 0.006440 
#    z -0.009060 0.006440 1.743220 
# 
# From -- ./inp_files/104883.got.cif
#   From: 2010.05.17/outbox.cif.g08.bks.cpg/sg2_53_cif.got.tgz:104883.got - 2010.06.03 11:33:40.
