data_PCOD9087026
_publ_section_title
;
Structure prediction by ZEFSAII (Michael W. Deem and Ramdas Pophale) SiO2 
 PCOD9087026
Probable space group: P -1
;
_chemical_formula_sum "Si O2"
_cell_formula_units_Z 16
_cell_length_a 27.368946
_cell_length_b 20.616691
_cell_length_c 9.200326
_cell_angle_alpha 138.725101
_cell_angle_beta 150.486835
_cell_angle_gamma 20.468885
_cell_volume 830.835892
_symmetry_space_group_name_H-M "P -1"
_symmetry_group_IT_number 2
_symmetry_cell_setting 'triclinic'
loop_
_space_group_symop_operation_xyz
x,y,z
-x,-y,-z
loop_
_atom_site_type_symbol
_atom_site_label
_atom_site_fract_x
_atom_site_fract_y
_atom_site_fract_z
Si Si1 0.603902 0.743701 0.211761
Si Si2 0.190610 0.843342 0.836224
Si Si3 0.134578 0.184039 0.672103
Si Si4 0.569256 0.563377 0.156316
Si Si5 0.891274 0.006187 0.813649
Si Si6 0.835143 0.519637 0.707269
Si Si7 0.501589 0.382421 0.268009
Si Si8 0.016928 0.512687 0.396897
O O1 0.683387 0.704520 0.512474
O O2 0.751051 0.668109 0.351124
O O3 0.639638 0.593564 0.044841
O O4 0.370325 0.968792 0.959872
O O5 0.283125 0.657647 0.810795
O O6 0.386063 0.723736 0.065774
O O7 0.000000 0.000000 0.500000
O O8 0.109665 0.972089 0.982517
O O9 0.043231 0.157203 0.344045
O O10 0.099621 0.288683 0.624285
O O11 0.014872 0.327331 0.743725
O O12 0.708982 0.538277 0.477489
O O13 0.465420 0.645196 0.866574
O O14 0.666506 0.206540 0.512777
O O15 0.000000 0.000000 0.000000
O O16 0.924845 0.508533 0.047261
O O17 0.500000 0.500000 0.500000
O O18 0.000000 0.500000 0.500000
#
# Coordination Sequence:
#
# PCOD9087026 Si02
#       8
#     2   2   2   2   2   2   2   2
#     4   9  21  40  64  90 119 158 207 258 308 360
#     4  11  23  39  55  88 128 164 202 246 314 371
#     4  10  22  41  63  91 121 155 210 261 303 365
#     4  10  22  40  60  86 125 163 200 256 309 366
#     4  11  22  36  63  91 120 160 206 253 304 369
#     4  10  22  41  65  88 118 160 209 256 308 366
#     4  10  19  36  61  89 117 156 204 249 301 365
#     4  11  25  42  61  91 124 166 209 252 314 370
#
# _framework density 19.257714
#
# number of rings (size 3 to 8) (size 9 to 14) (size 15 to 20)
#    0.000    1.750    1.250    3.000    3.500    7.500 
#    0.000    0.000    0.000    0.000    0.000    0.000 
#    0.000    0.000    0.000    0.000    0.000    0.000 
#
# Total GULP energy -89126.708850 kJ/mol
# GULP energy per Si atom -5570.419303 kJ/mol
# Density = 1.921388 g / cm^3
# Si number density = 19.257714 Si / 1000 Ang^3
#
#
#
# Elastic Constant Matrix: (Units=GPa)
#
#
# Indices 1 2 3 4 5 6 
#
# 1 141.2743 32.5571 70.9982 16.0397 -1.2147 -4.3596
# 2 32.5571 70.6242 44.1564 -2.5774 -12.9999 8.1429
# 3 70.9982 44.1564 130.4993 12.5798 -12.3867 -8.6520
# 4 16.0397 -2.5774 12.5798 42.4761 2.0551 0.8255
# 5 -1.2147 -12.9999 -12.3867 2.0551 39.7477 -0.6729
# 6 -4.3596 8.1429 -8.6520 0.8255 -0.6729 18.7997
#
#
#
# Elastic Compliance Matrix: (Units=1/GPa)
#
#
# Indices 1 2 3 4 5 6 
#
# 1 0.010269 -0.002447 -0.004582 -0.002611 -0.001756 0.001384
# 2 -0.002447 0.022283 -0.007099 0.004422 0.004543 -0.013518
# 3 -0.004582 -0.007099 0.013606 -0.002995 0.002077 0.008480
# 4 -0.002611 0.004422 -0.002995 0.025830 -0.000988 -0.005069
# 5 -0.001756 0.004543 0.002077 -0.000988 0.027282 -0.000399
# 6 0.001384 -0.013518 0.008480 -0.005069 -0.000399 0.063480
#
#
# Mechanical properties :
#
#
# Convention : Reuss Voigt Hill
#
# Bulk Modulus (GPa) = 55.86519 70.86902 63.36711
# Shear Modulus (GPa) = 25.38394 33.18378 29.28386
#
# Velocity S-wave (km/s) = 3.63453 4.15558 3.90376
# Velocity P-wave (km/s) = 6.83266 7.73985 7.30036
#
# Compressibility (1/GPa) = 0.01790023
#
# Stress axis : x y z
#
# Youngs Moduli (GPa) = 97.37787 44.87787 73.49676
#
# Poissons Ratio (x) = 0.10983 0.33677
# Poissons Ratio (y) = 0.23832 0.52179
# Poissons Ratio (z) = 0.44619 0.31861
#
# Static dielectric constant tensor:
#      x y z
#    x 1.658950 0.021130 0.032390 
#    y 0.021130 1.716990 0.030170 
#    z 0.032390 0.030170 1.718780 
# 
# From -- ./inp_files/349627.got.cif
#   From: 2010.05.17/outbox.cif.g08.bks.cpg/sg2_175_cif.got.tgz:349627.got - 2010.06.03 11:33:40.
