data_PCOD9087601
_publ_section_title
;
Structure prediction by ZEFSAII (Michael W. Deem and Ramdas Pophale) SiO2 
 PCOD9087601
Probable space group: P -1
;
_chemical_formula_sum "Si O2"
_cell_formula_units_Z 14
_cell_length_a 9.158208
_cell_length_b 5.485890
_cell_length_c 16.159271
_cell_angle_alpha 112.248445
_cell_angle_beta 50.835415
_cell_angle_gamma 106.788976
_cell_volume 581.197526
_symmetry_space_group_name_H-M "P -1"
_symmetry_group_IT_number 2
_symmetry_cell_setting 'triclinic'
loop_
_space_group_symop_operation_xyz
x,y,z
-x,-y,-z
loop_
_atom_site_type_symbol
_atom_site_label
_atom_site_fract_x
_atom_site_fract_y
_atom_site_fract_z
Si Si1 0.714207 0.110439 0.453128
Si Si2 0.501135 0.589288 0.113749
Si Si3 0.841517 0.166469 0.039796
Si Si4 0.738393 0.432216 0.654743
Si Si5 0.407812 0.096104 0.167909
Si Si6 0.088876 0.552050 0.097506
Si Si7 0.075021 0.424362 0.660644
O O1 0.824713 0.846997 0.394944
O O2 0.500000 0.000000 0.500000
O O3 0.732436 0.292341 0.552013
O O4 0.794978 0.313656 0.378959
O O5 0.447357 0.662779 0.236661
O O6 0.417308 0.284121 0.108457
O O7 0.380616 0.784261 0.128533
O O8 0.719477 0.592464 0.012207
O O9 0.621328 0.114352 0.128890
O O10 0.903933 0.442613 0.097482
O O11 0.866121 0.173097 0.932304
O O12 0.000000 0.000000 0.000000
O O13 0.725142 0.752263 0.703088
O O14 0.079481 0.619734 0.362746
O O15 0.026216 0.524596 0.209919
#
# Coordination Sequence:
#
# PCOD9087601 Si02
#       7
#     2   2   2   2   2   2   2
#     4  12  30  51  77 106 141 192 250 311 362 428
#     4   9  20  37  65 101 138 188 224 294 342 433
#     4  10  19  36  64  95 149 197 229 289 350 433
#     4  10  26  47  77 102 149 192 249 288 374 427
#     4   9  20  35  63  99 132 187 234 280 349 413
#     4  10  23  39  63 108 146 185 244 285 366 428
#     4  12  29  48  76 108 147 193 239 310 362 440
#
# _framework density 24.088197000000001
#
# number of rings (size 3 to 8) (size 9 to 14) (size 15 to 20)
#    0.857    0.857    1.429    1.286    8.000    1.714 
#    0.000    0.714    0.000    0.000    0.000    0.000 
#    0.000    0.000    0.000    0.000    0.000    0.000 
#
# Total GULP energy -78059.032616 kJ/mol
# GULP energy per Si atom -5575.645187 kJ/mol
# Density = 2.403337 g / cm^3
# Si number density = 24.088197 Si / 1000 Ang^3
#
#
#
# Elastic Constant Matrix: (Units=GPa)
#
#
# Indices 1 2 3 4 5 6 
#
# 1 109.5164 59.9894 58.4749 -8.5113 -11.5286 -3.8264
# 2 59.9894 183.5627 65.2326 -0.1080 -16.4555 -35.9129
# 3 58.4749 65.2326 148.4836 -19.8381 -4.9813 -6.8476
# 4 -8.5113 -0.1080 -19.8381 35.8489 -9.1261 -13.8130
# 5 -11.5286 -16.4555 -4.9813 -9.1261 34.9689 -1.8303
# 6 -3.8264 -35.9129 -6.8476 -13.8130 -1.8303 48.5430
#
#
#
# Elastic Compliance Matrix: (Units=1/GPa)
#
#
# Indices 1 2 3 4 5 6 
#
# 1 0.013028 -0.002970 -0.003621 0.001289 0.002655 -0.001214
# 2 -0.002970 0.008748 -0.002030 0.001646 0.003621 0.006556
# 3 -0.003621 -0.002030 0.009812 0.005148 0.000649 0.001086
# 4 0.001289 0.001646 0.005148 0.039698 0.013017 0.013832
# 5 0.002655 0.003621 0.000649 0.013017 0.035085 0.008007
# 6 -0.001214 0.006556 0.001086 0.013832 0.008007 0.029746
#
#
# Mechanical properties :
#
#
# Convention : Reuss Voigt Hill
#
# Bulk Modulus (GPa) = 69.69936 89.88406 79.79171
# Shear Modulus (GPa) = 31.61741 41.06320 36.34031
#
# Velocity S-wave (km/s) = 3.62687 4.13328 3.88833
# Velocity P-wave (km/s) = 6.82179 7.75721 7.30449
#
# Compressibility (1/GPa) = 0.01434733
#
# Stress axis : x y z
#
# Youngs Moduli (GPa) = 76.75627 114.31286 101.91506
#
# Poissons Ratio (x) = 0.33949 0.36901
# Poissons Ratio (y) = 0.22795 0.20688
# Poissons Ratio (z) = 0.27792 0.23204
#
# Static dielectric constant tensor:
#      x y z
#    x 1.894470 0.033650 -0.005340 
#    y 0.033650 2.197600 -0.045630 
#    z -0.005340 -0.045630 1.926140 
# 
# From -- ./inp_files/596581.got.cif
#   From: 2010.05.17/outbox.cif.g08.bks.cpg/sg2_299_cif.got.tgz:596581.got - 2010.06.03 11:33:40.
