data_PCOD9087533
_publ_section_title
;
Structure prediction by ZEFSAII (Michael W. Deem and Ramdas Pophale) SiO2 
 PCOD9087533
Probable space group: P -1
;
_chemical_formula_sum "Si O2"
_cell_formula_units_Z 16
_cell_length_a 8.378016
_cell_length_b 14.788280
_cell_length_c 10.279863
_cell_angle_alpha 117.812975
_cell_angle_beta 122.284173
_cell_angle_gamma 36.617895
_cell_volume 640.437419
_symmetry_space_group_name_H-M "P -1"
_symmetry_group_IT_number 2
_symmetry_cell_setting 'triclinic'
loop_
_space_group_symop_operation_xyz
x,y,z
-x,-y,-z
loop_
_atom_site_type_symbol
_atom_site_label
_atom_site_fract_x
_atom_site_fract_y
_atom_site_fract_z
Si Si1 0.800370 0.235961 0.372067
Si Si2 0.914220 0.777523 0.259004
Si Si3 0.497760 0.473409 0.694512
Si Si4 0.170407 0.617863 0.901318
Si Si5 0.319750 0.336665 0.541027
Si Si6 0.088024 0.848769 0.914563
Si Si7 0.706832 0.074825 0.356925
Si Si8 0.310777 0.352687 0.852094
O O1 0.552662 0.413437 0.346381
O O2 0.987411 0.148731 0.264460
O O3 0.682003 0.169408 0.298194
O O4 0.976073 0.222610 0.553005
O O5 0.787309 0.717382 0.186666
O O6 0.185195 0.650277 0.199275
O O7 0.741096 0.943641 0.244009
O O8 0.236628 0.578253 0.748846
O O9 0.483647 0.364460 0.561456
O O10 0.003463 0.791911 0.940943
O O11 0.094982 0.536130 0.870223
O O12 0.500000 0.500000 0.000000
O O13 0.447269 0.190219 0.421249
O O14 0.399113 0.300946 0.704019
O O15 0.000000 0.500000 0.500000
O O16 0.426749 0.717343 0.993838
O O17 0.000000 0.000000 0.000000
O O18 0.000000 0.000000 0.500000
#
# Coordination Sequence:
#
# PCOD9087533 Si02
#       8
#     2   2   2   2   2   2   2   2
#     4  10  21  38  65  91 125 173 223 253 327 407
#     4  11  22  39  64  98 132 164 214 283 335 377
#     4  10  19  36  64  89 124 170 213 263 330 390
#     4   8  18  39  61  88 121 168 217 251 316 398
#     4  11  22  38  64  97 130 172 220 272 321 392
#     4  10  22  41  65  91 132 180 215 264 334 399
#     4  10  22  38  61  93 133 171 216 265 337 387
#     4  10  23  40  64  96 132 160 223 269 329 381
#
# _framework density 24.982925999999999
#
# number of rings (size 3 to 8) (size 9 to 14) (size 15 to 20)
#    0.000    2.000    2.500    1.125    5.250    1.500 
#    6.750    6.250    0.000    0.000    0.000    0.000 
#    0.000    0.000    0.000    0.000    0.000    0.000 
#
# Total GULP energy -89130.870906 kJ/mol
# GULP energy per Si atom -5570.679432 kJ/mol
# Density = 2.492606 g / cm^3
# Si number density = 24.982926 Si / 1000 Ang^3
#
#
#
# Elastic Constant Matrix: (Units=GPa)
#
#
# Indices 1 2 3 4 5 6 
#
# 1 104.1125 45.0279 8.3113 12.0457 30.9498 32.9784
# 2 45.0279 122.7997 -0.3587 35.2180 13.2912 34.2754
# 3 8.3113 -0.3587 53.6592 7.3996 6.1980 0.1798
# 4 12.0457 35.2180 7.3996 36.7706 8.3981 16.3340
# 5 30.9498 13.2912 6.1980 8.3981 33.1715 16.2761
# 6 32.9784 34.2754 0.1798 16.3340 16.2761 54.0647
#
#
#
# Elastic Compliance Matrix: (Units=1/GPa)
#
#
# Indices 1 2 3 4 5 6 
#
# 1 0.016214 -0.004563 -0.001751 0.004188 -0.011711 -0.004731
# 2 -0.004563 0.013648 0.002012 -0.011141 0.002893 -0.003381
# 3 -0.001751 0.002012 0.020006 -0.005794 -0.002544 0.002243
# 4 0.004188 -0.011141 -0.005794 0.041812 -0.005831 -0.006349
# 5 -0.011711 0.002893 -0.002544 -0.005831 0.045046 -0.006481
# 6 -0.004731 -0.003381 0.002243 -0.006349 -0.006481 0.027387
#
#
# Mechanical properties :
#
#
# Convention : Reuss Voigt Hill
#
# Bulk Modulus (GPa) = 24.23490 42.94806 33.59148
# Shear Modulus (GPa) = 26.81363 39.97408 33.39386
#
# Velocity S-wave (km/s) = 3.27965 4.00441 3.66001
# Velocity P-wave (km/s) = 4.90541 6.21359 5.59785
#
# Compressibility (1/GPa) = 0.04126282
#
# Stress axis : x y z
#
# Youngs Moduli (GPa) = 61.67590 73.27072 49.98469
#
# Poissons Ratio (x) = 0.33436 0.08751
# Poissons Ratio (y) = 0.28145 -0.10055
# Poissons Ratio (z) = 0.10798 -0.14739
#
# Static dielectric constant tensor:
#      x y z
#    x 2.048120 0.032160 -0.053070 
#    y 0.032160 2.068520 0.038630 
#    z -0.053070 0.038630 2.164100 
# 
# From -- ./inp_files/399469.got.cif
#   From: 2010.05.17/outbox.cif.g08.bks.cpg/sg2_200_cif.got.tgz:399469.got - 2010.06.03 11:33:40.
