data_PCOD9087424
_publ_section_title
;
Structure prediction by ZEFSAII (Michael W. Deem and Ramdas Pophale) SiO2 
 PCOD9087424
Probable space group: P -1
;
_chemical_formula_sum "Si O2"
_cell_formula_units_Z 16
_cell_length_a 18.861630
_cell_length_b 8.837491
_cell_length_c 11.919583
_cell_angle_alpha 76.862657
_cell_angle_beta 129.931474
_cell_angle_gamma 60.140286
_cell_volume 751.842804
_symmetry_space_group_name_H-M "P -1"
_symmetry_group_IT_number 2
_symmetry_cell_setting 'triclinic'
loop_
_space_group_symop_operation_xyz
x,y,z
-x,-y,-z
loop_
_atom_site_type_symbol
_atom_site_label
_atom_site_fract_x
_atom_site_fract_y
_atom_site_fract_z
Si Si1 0.880611 0.016643 0.997085
Si Si2 0.660791 0.444491 0.124987
Si Si3 0.699569 0.208498 0.998780
Si Si4 0.883935 0.836369 0.564935
Si Si5 0.456818 0.292474 0.802240
Si Si6 0.096937 0.605401 0.614808
Si Si7 0.763069 0.679146 0.428913
Si Si8 0.105410 0.993249 0.238264
O O1 0.057969 0.667068 0.280993
O O2 0.939180 0.112544 0.039200
O O3 0.719383 0.227127 0.887026
O O4 0.845820 0.017886 0.833931
O O5 0.590291 0.479492 0.928621
O O6 0.539755 0.686812 0.063164
O O7 0.803346 0.377316 0.259044
O O8 0.758092 0.154613 0.330473
O O9 0.621503 0.148832 0.940540
O O10 0.904103 0.919534 0.305370
O O11 0.778924 0.827518 0.467465
O O12 0.046912 0.587371 0.680686
O O13 0.941456 0.811762 0.749212
O O14 0.408517 0.184287 0.743068
O O15 0.277594 0.645796 0.517539
O O16 0.210461 0.357154 0.673613
#
# Coordination Sequence:
#
# PCOD9087424 Si02
#       8
#     2   2   2   2   2   2   2   2
#     4   9  18  32  48  67  89 114 149 189 223 258
#     4   9  17  30  47  70  94 114 144 184 222 262
#     4  10  16  27  49  68  88 118 149 180 220 262
#     4  10  16  27  49  68  88 118 149 180 220 262
#     4   9  18  30  45  66  92 119 147 181 220 264
#     4   9  17  30  47  70  94 114 144 184 222 262
#     4   9  18  30  45  66  92 119 147 181 220 264
#     4   9  18  32  48  67  89 114 149 189 223 258
#
# _framework density 21.281043
#
# number of rings (size 3 to 8) (size 9 to 14) (size 15 to 20)
#    0.000    2.750    0.000    5.250    0.000    1.000 
#    0.000    2.500    0.000   18.750    0.000    0.000 
#    0.000    0.000    0.000    0.000    0.000    0.000 
#
# Total GULP energy -89307.502099 kJ/mol
# GULP energy per Si atom -5581.718881 kJ/mol
# Density = 2.123261 g / cm^3
# Si number density = 21.281043 Si / 1000 Ang^3
#
#
#
# Elastic Constant Matrix: (Units=GPa)
#
#
# Indices 1 2 3 4 5 6 
#
# 1 136.3964 60.9443 20.8814 26.2851 9.5275 -13.8637
# 2 60.9443 108.3906 20.6621 26.8105 -0.0580 -6.3104
# 3 20.8814 20.6621 24.1289 10.0034 -1.9638 0.5292
# 4 26.2851 26.8105 10.0034 29.9952 -4.9016 -2.7640
# 5 9.5275 -0.0580 -1.9638 -4.9016 25.1323 17.9579
# 6 -13.8637 -6.3104 0.5292 -2.7640 17.9579 41.9681
#
#
#
# Elastic Compliance Matrix: (Units=1/GPa)
#
#
# Indices 1 2 3 4 5 6 
#
# 1 0.013419 -0.003930 -0.006469 -0.007471 -0.013699 0.009293
# 2 -0.003930 0.014515 -0.005974 -0.007631 -0.001092 0.000924
# 3 -0.006469 -0.005974 0.056083 -0.006558 0.012279 -0.009428
# 4 -0.007471 -0.007631 -0.006558 0.051090 0.017842 -0.007802
# 5 -0.013699 -0.001092 0.012279 0.017842 0.074960 -0.035744
# 6 0.009293 0.000924 -0.009428 -0.007802 -0.035744 0.041936
#
#
# Mechanical properties :
#
#
# Convention : Reuss Voigt Hill
#
# Bulk Modulus (GPa) = 19.50413 52.65459 36.07936
# Shear Modulus (GPa) = 16.56501 30.51433 23.53967
#
# Velocity S-wave (km/s) = 2.79300 3.79076 3.32947
# Velocity P-wave (km/s) = 4.42561 6.62993 5.63658
#
# Compressibility (1/GPa) = 0.05127120
#
# Stress axis : x y z
#
# Youngs Moduli (GPa) = 74.51888 68.89274 17.83080
#
# Poissons Ratio (x) = 0.27077 0.11535
# Poissons Ratio (y) = 0.29288 0.10652
# Poissons Ratio (z) = 0.48206 0.41156
#
# Static dielectric constant tensor:
#      x y z
#    x 1.775820 -0.025570 0.012060 
#    y -0.025570 1.834310 -0.074890 
#    z 0.012060 -0.074890 1.837340 
# 
# From -- ./inp_files/171558.got.cif
#   From: 2010.05.17/outbox.cif.g08.bks.cpg/sg2_86_cif.got.tgz:171558.got - 2010.06.03 11:33:40.
