data_PCOD9087544
_publ_section_title
;
Structure prediction by ZEFSAII (Michael W. Deem and Ramdas Pophale) SiO2 
 PCOD9087544
Probable space group: P -1
;
_chemical_formula_sum "Si O2"
_cell_formula_units_Z 16
_cell_length_a 10.262743
_cell_length_b 11.603111
_cell_length_c 14.633388
_cell_angle_alpha 64.577777
_cell_angle_beta 41.493135
_cell_angle_gamma 41.562843
_cell_volume 731.036785
_symmetry_space_group_name_H-M "P -1"
_symmetry_group_IT_number 2
_symmetry_cell_setting 'triclinic'
loop_
_space_group_symop_operation_xyz
x,y,z
-x,-y,-z
loop_
_atom_site_type_symbol
_atom_site_label
_atom_site_fract_x
_atom_site_fract_y
_atom_site_fract_z
Si Si1 0.752745 0.181441 0.816088
Si Si2 0.178283 0.536725 0.731096
Si Si3 0.263241 0.556744 0.480039
Si Si4 0.868572 0.188965 0.961291
Si Si5 0.822191 0.867594 0.929467
Si Si6 0.873775 0.961934 0.504353
Si Si7 0.565005 0.417759 0.200467
Si Si8 0.278244 0.213285 0.811148
O O1 0.831716 0.190778 0.872683
O O2 0.530089 0.389351 0.824808
O O3 0.008349 0.060776 0.650007
O O4 0.684329 0.064327 0.906166
O O5 0.197028 0.510473 0.621374
O O6 0.469761 0.473512 0.626528
O O7 0.152613 0.409972 0.831294
O O8 0.924946 0.740112 0.831466
O O9 0.356170 0.450772 0.372182
O O10 0.997614 0.767075 0.528893
O O11 0.067484 0.216784 0.869279
O O12 0.584564 0.348622 0.113292
O O13 0.000000 0.000000 0.000000
O O14 0.125430 0.744634 0.863699
O O15 0.648277 0.881488 0.096993
O O16 0.545558 0.113062 0.641462
O O17 0.000000 0.000000 0.500000
#
# Coordination Sequence:
#
# PCOD9087544 Si02
#       8
#     2   2   2   2   2   2   2   2
#     4  11  22  41  71  91 126 178 210 256 330 369
#     4  10  19  36  64  90 128 168 208 255 327 376
#     4   9  19  36  60  91 124 167 201 259 319 382
#     4  11  22  44  66  91 127 173 215 265 315 374
#     4  10  21  40  61  96 129 167 211 265 317 381
#     4  11  22  40  61  96 131 162 211 264 316 385
#     4   9  20  37  66  92 119 165 218 256 312 378
#     4  11  23  38  64  93 131 167 213 262 318 377
#
# _framework density 21.886723
#
# number of rings (size 3 to 8) (size 9 to 14) (size 15 to 20)
#    0.000    1.750    3.750    1.500    3.500    0.500 
#    4.500    1.250    0.000    3.000    0.000    0.000 
#    0.000    0.000    0.000    0.000    0.000    0.000 
#
# Total GULP energy -89319.372871 kJ/mol
# GULP energy per Si atom -5582.460804 kJ/mol
# Density = 2.183691 g / cm^3
# Si number density = 21.886723 Si / 1000 Ang^3
#
#
#
# Elastic Constant Matrix: (Units=GPa)
#
#
# Indices 1 2 3 4 5 6 
#
# 1 52.5655 2.2166 33.1121 14.1678 27.8605 1.6310
# 2 2.2166 88.2864 25.5725 -1.3664 12.2441 7.6753
# 3 33.1121 25.5725 115.9870 5.2751 52.5540 13.4156
# 4 14.1678 -1.3664 5.2751 38.5077 3.0266 9.7829
# 5 27.8605 12.2441 52.5540 3.0266 39.8055 -0.7139
# 6 1.6310 7.6753 13.4156 9.7829 -0.7139 27.3849
#
#
#
# Elastic Compliance Matrix: (Units=1/GPa)
#
#
# Indices 1 2 3 4 5 6 
#
# 1 0.034941 0.002104 0.002936 -0.010709 -0.028183 -0.001018
# 2 0.002104 0.012485 -0.001324 0.001014 -0.003703 -0.003435
# 3 0.002936 -0.001324 0.026311 0.001790 -0.036778 -0.014292
# 4 -0.010709 0.001014 0.001790 0.032611 0.002124 -0.012118
# 5 -0.028183 -0.003703 -0.036778 0.002124 0.094785 0.022446
# 6 -0.001018 -0.003435 -0.014292 -0.012118 0.022446 0.049455
#
#
# Mechanical properties :
#
#
# Convention : Reuss Voigt Hill
#
# Bulk Modulus (GPa) = 12.32002 42.07124 27.19563
# Shear Modulus (GPa) = 18.50374 34.20213 26.35294
#
# Velocity S-wave (km/s) = 2.91079 3.95737 3.47372
# Velocity P-wave (km/s) = 4.11559 6.33601 5.34243
#
# Compressibility (1/GPa) = 0.08116869
#
# Stress axis : x y z
#
# Youngs Moduli (GPa) = 28.61933 80.09348 38.00643
#
# Poissons Ratio (x) = -0.16850 -0.11157
# Poissons Ratio (y) = -0.06021 0.05032
# Poissons Ratio (z) = -0.08401 0.10605
#
# Static dielectric constant tensor:
#      x y z
#    x 1.849960 0.008470 0.025460 
#    y 0.008470 1.813780 -0.039920 
#    z 0.025460 -0.039920 1.909590 
# 
# From -- ./inp_files/495734.got.cif
#   From: 2010.05.17/outbox.cif.g08.bks.cpg/sg2_248_cif.got.tgz:495734.got - 2010.06.03 11:33:40.
