data_PCOD9087378
_publ_section_title
;
Structure prediction by ZEFSAII (Michael W. Deem and Ramdas Pophale) SiO2 
 PCOD9087378
Probable space group: P -1
;
_chemical_formula_sum "Si O2"
_cell_formula_units_Z 12
_cell_length_a 9.714134
_cell_length_b 17.625541
_cell_length_c 7.127420
_cell_angle_alpha 57.459817
_cell_angle_beta 36.436069
_cell_angle_gamma 41.174941
_cell_volume 469.970681
_symmetry_space_group_name_H-M "P -1"
_symmetry_group_IT_number 2
_symmetry_cell_setting 'triclinic'
loop_
_space_group_symop_operation_xyz
x,y,z
-x,-y,-z
loop_
_atom_site_type_symbol
_atom_site_label
_atom_site_fract_x
_atom_site_fract_y
_atom_site_fract_z
Si Si1 0.316359 0.435613 0.137471
Si Si2 0.278274 0.957147 0.620708
Si Si3 0.600177 0.197941 0.653656
Si Si4 0.680226 0.847391 0.672484
Si Si5 0.569248 0.390235 0.316021
Si Si6 0.064652 0.378112 0.185772
O O1 0.536947 0.369185 0.161080
O O2 0.308083 0.366249 0.071518
O O3 0.000000 0.500000 0.500000
O O4 0.318731 0.535617 0.921132
O O5 0.295962 0.887088 0.519215
O O6 0.573255 0.875360 0.538514
O O7 0.264452 0.065448 0.436404
O O8 0.000000 0.000000 0.000000
O O9 0.733331 0.266206 0.403862
O O10 0.581520 0.137345 0.936210
O O11 0.240320 0.311536 0.890778
O O12 0.970042 0.711907 0.564263
O O13 0.242600 0.491712 0.638543
#
# Coordination Sequence:
#
# PCOD9087378 Si02
#       6
#     2   2   2   2   2   2
#     4   9  19  34  54  86 127 164 203 243 289 363
#     4  11  23  43  66  87 122 166 207 259 316 362
#     4  10  22  40  64  93 125 160 209 256 306 368
#     4   9  23  42  62  90 124 154 212 262 303 363
#     4  10  19  36  63  88 125 169 199 241 315 369
#     4   9  20  37  58  90 124 157 201 252 302 365
#
# _framework density 25.533507
#
# number of rings (size 3 to 8) (size 9 to 14) (size 15 to 20)
#    1.000    1.333    0.000    2.000    0.000    6.667 
#    0.000    8.333    0.000    0.000    0.000    0.000 
#    0.000    0.000    0.000    0.000    0.000    0.000 
#
# Total GULP energy -66966.061740 kJ/mol
# GULP energy per Si atom -5580.505145 kJ/mol
# Density = 2.547539 g / cm^3
# Si number density = 25.533507 Si / 1000 Ang^3
#
#
#
# Elastic Constant Matrix: (Units=GPa)
#
#
# Indices 1 2 3 4 5 6 
#
# 1 77.7680 35.4286 14.2208 1.2151 16.5043 17.5879
# 2 35.4286 165.7943 35.2920 -45.6134 12.8482 20.3532
# 3 14.2208 35.2920 103.4622 -20.4848 16.0482 23.4751
# 4 1.2151 -45.6134 -20.4848 54.8075 10.8109 2.7610
# 5 16.5043 12.8482 16.0482 10.8109 31.2734 1.6263
# 6 17.5879 20.3532 23.4751 2.7610 1.6263 36.1478
#
#
#
# Elastic Compliance Matrix: (Units=1/GPa)
#
#
# Indices 1 2 3 4 5 6 
#
# 1 0.017201 -0.002262 0.001619 0.000456 -0.008732 -0.007789
# 2 -0.002262 0.010683 0.001549 0.011339 -0.007575 -0.006446
# 3 0.001619 0.001549 0.015544 0.010100 -0.012336 -0.011971
# 4 0.000456 0.011339 0.010100 0.036527 -0.021931 -0.014969
# 5 -0.008732 -0.007575 -0.012336 -0.021931 0.052785 0.015825
# 6 -0.007789 -0.006446 -0.011971 -0.014969 0.015825 0.043289
#
#
# Mechanical properties :
#
#
# Convention : Reuss Voigt Hill
#
# Bulk Modulus (GPa) = 22.10373 57.43415 39.76894
# Shear Modulus (GPa) = 26.41373 41.91795 34.16584
#
# Velocity S-wave (km/s) = 3.21981 4.05617 3.66194
# Velocity P-wave (km/s) = 4.74326 6.66927 5.78695
#
# Compressibility (1/GPa) = 0.04524122
#
# Stress axis : x y z
#
# Youngs Moduli (GPa) = 58.13720 93.60579 64.33521
#
# Poissons Ratio (x) = 0.21173 -0.10419
# Poissons Ratio (y) = 0.13150 -0.09968
# Poissons Ratio (z) = -0.09415 -0.14504
#
# Static dielectric constant tensor:
#      x y z
#    x 2.121760 -0.094660 -0.018890 
#    y -0.094660 2.064270 -0.038460 
#    z -0.018890 -0.038460 2.107330 
# 
# From -- ./inp_files/221779.got.cif
#   From: 2010.05.17/outbox.cif.g08.bks.cpg/sg2_111_cif.got.tgz:221779.got - 2010.06.03 11:33:40.
