data_PCOD9087156
_publ_section_title
;
Structure prediction by ZEFSAII (Michael W. Deem and Ramdas Pophale) SiO2 
 PCOD9087156
Probable space group: P -1
;
_chemical_formula_sum "Si O2"
_cell_formula_units_Z 14
_cell_length_a 9.706099
_cell_length_b 15.042934
_cell_length_c 9.383954
_cell_angle_alpha 126.837983
_cell_angle_beta 136.396632
_cell_angle_gamma 60.109470
_cell_volume 751.128308
_symmetry_space_group_name_H-M "P -1"
_symmetry_group_IT_number 2
_symmetry_cell_setting 'triclinic'
loop_
_space_group_symop_operation_xyz
x,y,z
-x,-y,-z
loop_
_atom_site_type_symbol
_atom_site_label
_atom_site_fract_x
_atom_site_fract_y
_atom_site_fract_z
Si Si1 0.423967 0.882731 0.783271
Si Si2 0.091050 0.379022 0.501568
Si Si3 0.189463 0.196022 0.149817
Si Si4 0.529772 0.737610 0.228099
Si Si5 0.202996 0.074175 0.316791
Si Si6 0.231519 0.857584 0.318182
Si Si7 0.201842 0.781877 0.780888
O O1 0.286272 0.896973 0.552695
O O2 0.301265 0.826752 0.759015
O O3 0.622305 0.800620 0.808087
O O4 0.500000 0.000000 0.000000
O O5 0.305415 0.369529 0.733498
O O6 0.000000 0.500000 0.500000
O O7 0.930327 0.322267 0.423320
O O8 0.134432 0.298571 0.316913
O O9 0.991622 0.175602 0.895777
O O10 0.751417 0.043880 0.688644
O O11 0.667843 0.839569 0.423277
O O12 0.393502 0.757837 0.287373
O O13 0.376013 0.746952 0.992250
O O14 0.967461 0.119325 0.198236
O O15 0.251537 0.091086 0.203417
#
# Coordination Sequence:
#
# PCOD9087156 Si02
#       7
#     2   2   2   2   2   2   2
#     4  12  25  36  55  91 134 164 185 232 295 358
#     4  10  22  43  67  89 107 147 212 265 294 340
#     4  10  22  37  57  87 119 154 203 248 283 357
#     4  10  19  36  62  85 112 155 198 247 289 353
#     4  10  20  32  58  85 117 159 204 233 273 356
#     4  12  20  35  60  84 123 167 196 230 293 348
#     4  10  22  39  56  91 122 151 201 247 288 351
#
# _framework density 18.638625999999999
#
# number of rings (size 3 to 8) (size 9 to 14) (size 15 to 20)
#    0.000    1.714    5.714    2.571    2.000    5.143 
#    0.000    0.714    0.000    1.714    0.000    0.000 
#    0.000    0.000    0.000    0.000    0.000    0.000 
#
# Total GULP energy -78113.785216 kJ/mol
# GULP energy per Si atom -5579.556087 kJ/mol
# Density = 1.859620 g / cm^3
# Si number density = 18.638626 Si / 1000 Ang^3
#
#
#
# Elastic Constant Matrix: (Units=GPa)
#
#
# Indices 1 2 3 4 5 6 
#
# 1 120.9009 33.3758 25.4904 -12.6987 5.5329 10.3577
# 2 33.3758 90.4111 20.5508 -17.1407 5.1440 -3.8885
# 3 25.4904 20.5508 91.0172 -36.0429 2.0597 -4.3287
# 4 -12.6987 -17.1407 -36.0429 30.4910 -5.0968 5.9599
# 5 5.5329 5.1440 2.0597 -5.0968 28.8127 -7.5446
# 6 10.3577 -3.8885 -4.3287 5.9599 -7.5446 22.2524
#
#
#
# Elastic Compliance Matrix: (Units=1/GPa)
#
#
# Indices 1 2 3 4 5 6 
#
# 1 0.010480 -0.003360 -0.002092 0.000898 -0.002968 -0.007119
# 2 -0.003360 0.013487 0.000511 0.006324 -0.000078 0.002300
# 3 -0.002092 0.000511 0.021390 0.025321 0.003131 -0.000496
# 4 0.000898 0.006324 0.025321 0.069862 0.006383 -0.010934
# 5 -0.002968 -0.000078 0.003131 0.006383 0.039800 0.013761
# 6 -0.007119 0.002300 -0.000496 -0.010934 0.013761 0.056152
#
#
# Mechanical properties :
#
#
# Convention : Reuss Voigt Hill
#
# Bulk Modulus (GPa) = 28.18863 51.24036 39.71450
# Shear Modulus (GPa) = 21.47041 31.17204 26.32122
#
# Velocity S-wave (km/s) = 3.39769 4.09399 3.76198
# Velocity P-wave (km/s) = 5.52712 7.06391 6.34223
#
# Compressibility (1/GPa) = 0.03547530
#
# Stress axis : x y z
#
# Youngs Moduli (GPa) = 95.41946 74.14450 46.75020
#
# Poissons Ratio (x) = 0.24915 0.09781
# Poissons Ratio (y) = 0.32064 -0.02391
# Poissons Ratio (z) = 0.19963 -0.03791
#
# Static dielectric constant tensor:
#      x y z
#    x 1.659250 -0.024580 0.018240 
#    y -0.024580 1.656620 0.001870 
#    z 0.018240 0.001870 1.690240 
# 
# From -- ./inp_files/194235.got.cif
#   From: 2010.05.17/outbox.cif.g08.bks.cpg/sg2_98_cif.got.tgz:194235.got - 2010.06.03 11:33:40.
