data_PCOD9087748
_publ_section_title
;
Structure prediction by ZEFSAII (Michael W. Deem and Ramdas Pophale) SiO2 
 PCOD9087748
Probable space group: P -1
;
_chemical_formula_sum "Si O2"
_cell_formula_units_Z 16
_cell_length_a 9.528114
_cell_length_b 15.402354
_cell_length_c 9.221900
_cell_angle_alpha 41.565163
_cell_angle_beta 60.965838
_cell_angle_gamma 63.567519
_cell_volume 777.190543
_symmetry_space_group_name_H-M "P -1"
_symmetry_group_IT_number 2
_symmetry_cell_setting 'triclinic'
loop_
_space_group_symop_operation_xyz
x,y,z
-x,-y,-z
loop_
_atom_site_type_symbol
_atom_site_label
_atom_site_fract_x
_atom_site_fract_y
_atom_site_fract_z
Si Si1 0.161254 0.529371 0.300233
Si Si2 0.907026 0.669060 0.066979
Si Si3 0.345207 0.743901 0.097549
Si Si4 0.999250 0.121116 0.456475
Si Si5 0.348412 0.748902 0.437753
Si Si6 0.294624 0.240150 0.661894
Si Si7 0.379797 0.462815 0.735027
Si Si8 0.841107 0.973788 0.202930
O O1 0.241031 0.637738 0.214491
O O2 0.270876 0.387337 0.418887
O O3 0.000000 0.500000 0.500000
O O4 0.085257 0.595997 0.109044
O O5 0.822588 0.746186 0.154046
O O6 0.787085 0.565243 0.215380
O O7 0.921813 0.766410 0.806594
O O8 0.326772 0.755806 0.265701
O O9 0.529048 0.671360 0.072320
O O10 0.280475 0.888989 0.889860
O O11 0.810993 0.169313 0.521679
O O12 0.094297 0.081132 0.606278
O O13 0.000000 0.000000 0.500000
O O14 0.519661 0.793025 0.338634
O O15 0.355634 0.595683 0.673072
O O16 0.242156 0.132929 0.712872
O O17 0.500000 0.500000 0.500000
O O18 0.000000 0.000000 0.000000
#
# Coordination Sequence:
#
# PCOD9087748 Si02
#       8
#     2   2   2   2   2   2   2   2
#     4  10  19  36  67 101 133 165 226 279 334 394
#     4  11  23  40  71 101 138 179 223 288 349 393
#     4  11  20  39  68  98 132 173 229 282 325 396
#     4  12  28  47  64  97 149 181 222 282 356 405
#     4  11  22  42  71  99 134 181 227 282 336 415
#     4  11  22  42  73 103 127 175 243 278 329 414
#     4  10  19  40  68 105 130 172 228 286 335 405
#     4  12  25  43  68 101 133 184 236 279 332 413
#
# _framework density 20.586973
#
# number of rings (size 3 to 8) (size 9 to 14) (size 15 to 20)
#    0.000    1.000    5.000    5.250    1.750    2.000 
#    0.000    4.375    0.000    0.000    0.000    0.000 
#    0.000    0.000    0.000    0.000    0.000    0.000 
#
# Total GULP energy -89385.081873 kJ/mol
# GULP energy per Si atom -5586.567617 kJ/mol
# Density = 2.054012 g / cm^3
# Si number density = 20.586973 Si / 1000 Ang^3
#
#
#
# Elastic Constant Matrix: (Units=GPa)
#
#
# Indices 1 2 3 4 5 6 
#
# 1 171.0115 68.3701 58.1334 -14.7931 8.2261 15.7337
# 2 68.3701 92.3932 40.4745 -25.6385 9.5586 -3.3597
# 3 58.1334 40.4745 115.5410 -8.4499 25.6156 8.6306
# 4 -14.7931 -25.6385 -8.4499 26.8683 -0.5763 0.3184
# 5 8.2261 9.5586 25.6156 -0.5763 30.7247 -15.9094
# 6 15.7337 -3.3597 8.6306 0.3184 -15.9094 42.6925
#
#
#
# Elastic Compliance Matrix: (Units=1/GPa)
#
#
# Indices 1 2 3 4 5 6 
#
# 1 0.009447 -0.006611 -0.002119 -0.001743 -0.000722 -0.003829
# 2 -0.006611 0.021909 -0.003826 0.016026 0.001161 0.005247
# 3 -0.002119 -0.003826 0.014943 -0.000342 -0.014896 -0.008089
# 4 -0.001743 0.016026 -0.000342 0.051373 -0.003033 0.000460
# 5 -0.000722 0.001161 -0.014896 -0.003033 0.057614 0.024861
# 6 -0.003829 0.005247 -0.008089 0.000460 0.024861 0.036144
#
#
# Mechanical properties :
#
#
# Convention : Reuss Voigt Hill
#
# Bulk Modulus (GPa) = 47.19747 79.21131 63.20439
# Shear Modulus (GPa) = 22.36085 34.18826 28.27456
#
# Velocity S-wave (km/s) = 3.29928 4.07956 3.70999
# Velocity P-wave (km/s) = 6.12285 7.79425 7.00855
#
# Compressibility (1/GPa) = 0.02118758
#
# Stress axis : x y z
#
# Youngs Moduli (GPa) = 105.85246 45.64294 66.92116
#
# Poissons Ratio (x) = 0.30174 0.14179
# Poissons Ratio (y) = 0.69979 0.25604
# Poissons Ratio (z) = 0.22428 0.17463
#
# Static dielectric constant tensor:
#      x y z
#    x 1.744270 -0.015090 0.040790 
#    y -0.015090 1.714970 -0.021220 
#    z 0.040790 -0.021220 1.789470 
# 
# From -- ./inp_files/205027.got.cif
#   From: 2010.05.17/outbox.cif.g08.bks.cpg/sg2_103_cif.got.tgz:205027.got - 2010.06.03 11:33:40.
