data_PCOD9087793
_publ_section_title
;
Structure prediction by ZEFSAII (Michael W. Deem and Ramdas Pophale) SiO2 
 PCOD9087793
Probable space group: P -1
;
_chemical_formula_sum "Si O2"
_cell_formula_units_Z 14
_cell_length_a 10.070995
_cell_length_b 11.777355
_cell_length_c 8.218637
_cell_angle_alpha 109.183352
_cell_angle_beta 57.232189
_cell_angle_gamma 130.839132
_cell_volume 619.642480
_symmetry_space_group_name_H-M "P -1"
_symmetry_group_IT_number 2
_symmetry_cell_setting 'triclinic'
loop_
_space_group_symop_operation_xyz
x,y,z
-x,-y,-z
loop_
_atom_site_type_symbol
_atom_site_label
_atom_site_fract_x
_atom_site_fract_y
_atom_site_fract_z
Si Si1 0.803887 0.970877 0.454340
Si Si2 0.464179 0.365025 0.560573
Si Si3 0.453964 0.685293 0.034379
Si Si4 0.255726 0.362439 0.001309
Si Si5 0.222576 0.635413 0.471776
Si Si6 0.191436 0.867946 0.775441
Si Si7 0.209504 0.003435 0.174489
O O1 0.641958 0.796250 0.525911
O O2 0.017313 0.005023 0.295990
O O3 0.734123 0.005128 0.352011
O O4 0.810663 0.055163 0.654265
O O5 0.500000 0.500000 0.500000
O O6 0.302908 0.320647 0.782709
O O7 0.669931 0.425648 0.538063
O O8 0.603045 0.647049 0.975150
O O9 0.357649 0.714807 0.259816
O O10 0.280028 0.515403 0.017548
O O11 0.585089 0.831200 0.908019
O O12 0.041808 0.240101 0.149497
O O13 0.247836 0.759778 0.633368
O O14 0.000000 0.500000 0.500000
O O15 0.213544 0.918106 0.972701
#
# Coordination Sequence:
#
# PCOD9087793 Si02
#       7
#     2   2   2   2   2   2   2
#     4  11  24  41  71 107 138 185 239 299 351 418
#     4  11  24  44  70 101 143 186 244 297 349 427
#     4  10  20  38  64  99 135 184 238 287 341 427
#     4  10  19  36  68  95 130 185 238 284 343 416
#     4  11  25  43  70 106 145 190 234 292 369 420
#     4  12  22  44  69 100 143 186 230 293 357 425
#     4  11  23  40  69 104 141 183 242 291 350 424
#
# _framework density 22.593675000000001
#
# number of rings (size 3 to 8) (size 9 to 14) (size 15 to 20)
#    0.000    1.143    4.286    3.000    0.000    4.571 
#    0.000    5.000    0.000    0.000    0.000    0.000 
#    0.000    0.000    0.000    0.000    0.000    0.000 
#
# Total GULP energy -78019.554687 kJ/mol
# GULP energy per Si atom -5572.825335 kJ/mol
# Density = 2.254225 g / cm^3
# Si number density = 22.593675 Si / 1000 Ang^3
#
#
#
# Elastic Constant Matrix: (Units=GPa)
#
#
# Indices 1 2 3 4 5 6 
#
# 1 86.1743 34.5128 4.4333 2.2210 0.3123 -20.2062
# 2 34.5128 99.0689 27.8426 4.9189 -0.3254 -2.1161
# 3 4.4333 27.8426 185.2528 10.6491 0.0470 20.5663
# 4 2.2210 4.9189 10.6491 50.7724 16.0121 -11.0703
# 5 0.3123 -0.3254 0.0470 16.0121 24.2361 -0.3419
# 6 -20.2062 -2.1161 20.5663 -11.0703 -0.3419 27.1387
#
#
#
# Elastic Compliance Matrix: (Units=1/GPa)
#
#
# Indices 1 2 3 4 5 6 
#
# 1 0.017431 -0.005533 -0.001560 0.004426 -0.003001 0.015496
# 2 -0.005533 0.012422 -0.001321 -0.001726 0.001341 -0.002837
# 3 -0.001560 -0.001321 0.006708 -0.003629 0.002277 -0.007799
# 4 0.004426 -0.001726 -0.003629 0.030747 -0.020130 0.018200
# 5 -0.003001 0.001341 0.002277 -0.020130 0.054452 -0.011381
# 6 0.015496 -0.002837 -0.007799 0.018200 -0.011381 0.061355
#
#
# Mechanical properties :
#
#
# Convention : Reuss Voigt Hill
#
# Bulk Modulus (GPa) = 50.67249 56.00816 53.34032
# Shear Modulus (GPa) = 24.21076 40.67659 32.44367
#
# Velocity S-wave (km/s) = 3.27704 4.24766 3.79352
# Velocity P-wave (km/s) = 6.06589 6.99285 6.54580
#
# Compressibility (1/GPa) = 0.01973457
#
# Stress axis : x y z
#
# Youngs Moduli (GPa) = 57.36965 80.50168 149.08076
#
# Poissons Ratio (x) = 0.44539 0.23251
# Poissons Ratio (y) = 0.31741 0.19690
# Poissons Ratio (z) = 0.08947 0.10632
#
# Static dielectric constant tensor:
#      x y z
#    x 1.881980 0.095580 0.019960 
#    y 0.095580 1.968310 0.022470 
#    z 0.019960 0.022470 1.865760 
# 
# From -- ./inp_files/262765.got.cif
#   From: 2010.05.17/outbox.cif.g08.bks.cpg/sg2_132_cif.got.tgz:262765.got - 2010.06.03 11:33:40.
