data_PCOD9087598
_publ_section_title
;
Structure prediction by ZEFSAII (Michael W. Deem and Ramdas Pophale) SiO2 
 PCOD9087598
Probable space group: P -1
;
_chemical_formula_sum "Si O2"
_cell_formula_units_Z 14
_cell_length_a 8.505086
_cell_length_b 14.264507
_cell_length_c 5.339355
_cell_angle_alpha 65.811928
_cell_angle_beta 111.386556
_cell_angle_gamma 107.500882
_cell_volume 541.414906
_symmetry_space_group_name_H-M "P -1"
_symmetry_group_IT_number 2
_symmetry_cell_setting 'triclinic'
loop_
_space_group_symop_operation_xyz
x,y,z
-x,-y,-z
loop_
_atom_site_type_symbol
_atom_site_label
_atom_site_fract_x
_atom_site_fract_y
_atom_site_fract_z
Si Si1 0.189038 0.262661 0.691674
Si Si2 0.107700 0.781361 0.806153
Si Si3 0.883273 0.919869 0.832596
Si Si4 0.487257 0.621435 0.424386
Si Si5 0.935290 0.580517 0.188456
Si Si6 0.365682 0.575498 0.908231
Si Si7 0.613113 0.028640 0.286109
O O1 0.325693 0.308736 0.509011
O O2 0.179729 0.354639 0.782211
O O3 0.999155 0.232724 0.498923
O O4 0.235522 0.162511 0.965882
O O5 0.293340 0.850885 0.807135
O O6 0.005155 0.851250 0.843082
O O7 0.070127 0.666576 0.032154
O O8 0.773316 0.968504 0.507699
O O9 0.000000 0.000000 0.000000
O O10 0.500000 0.500000 0.500000
O O11 0.366262 0.630835 0.578807
O O12 0.425915 0.652261 0.083746
O O13 0.806591 0.501705 0.027052
O O14 0.000000 0.500000 0.500000
O O15 0.500000 0.500000 0.000000
O O16 0.500000 0.000000 0.500000
O O17 0.500000 0.000000 0.000000
#
# Coordination Sequence:
#
# PCOD9087598 Si02
#       7
#     2   2   2   2   2   2   2
#     4  11  23  41  76 103 137 195 259 298 361 457
#     4  11  25  47  79 103 144 205 262 295 379 473
#     4  11  24  48  80 110 142 200 261 308 370 478
#     4  10  19  36  64  95 133 172 233 293 344 404
#     4  11  25  44  67 102 147 194 247 306 370 444
#     4  10  19  39  63  91 131 181 228 291 345 416
#     4  12  28  50  76 114 161 189 240 334 400 442
#
# _framework density 25.858170000000001
#
# number of rings (size 3 to 8) (size 9 to 14) (size 15 to 20)
#    0.000    1.143    4.286    3.000    6.000    0.571 
#    5.143    0.000    0.000    0.000    0.000    0.000 
#    0.000    0.000    0.000    0.000    0.000    0.000 
#
# Total GULP energy -78336.554516 kJ/mol
# GULP energy per Si atom -5595.468180 kJ/mol
# Density = 2.579932 g / cm^3
# Si number density = 25.858170 Si / 1000 Ang^3
#
#
#
# Elastic Constant Matrix: (Units=GPa)
#
#
# Indices 1 2 3 4 5 6 
#
# 1 102.2424 62.8838 41.7472 -11.9365 -17.3189 29.5201
# 2 62.8838 146.2138 73.3678 -3.6122 1.7013 27.8865
# 3 41.7472 73.3678 186.1923 -1.7562 -4.7222 16.7650
# 4 -11.9365 -3.6122 -1.7562 65.2268 4.8741 -5.1997
# 5 -17.3189 1.7013 -4.7222 4.8741 48.2945 -6.1605
# 6 29.5201 27.8865 16.7650 -5.1997 -6.1605 61.8009
#
#
#
# Elastic Compliance Matrix: (Units=1/GPa)
#
#
# Indices 1 2 3 4 5 6 
#
# 1 0.015853 -0.005631 -0.000816 0.001857 0.005087 -0.004147
# 2 -0.005631 0.011167 -0.003049 -0.000424 -0.002904 -0.001847
# 3 -0.000816 -0.003049 0.006769 -0.000175 0.000490 -0.000037
# 4 0.001857 -0.000424 -0.000175 0.015753 -0.000851 0.000593
# 5 0.005087 -0.002904 0.000490 -0.000851 0.022889 0.000957
# 6 -0.004147 -0.001847 -0.000037 0.000593 0.000957 0.019151
#
#
# Mechanical properties :
#
#
# Convention : Reuss Voigt Hill
#
# Bulk Modulus (GPa) = 67.57982 87.84955 77.71469
# Shear Modulus (GPa) = 43.28802 52.17442 47.73122
#
# Velocity S-wave (km/s) = 4.09596 4.49677 4.30104
# Velocity P-wave (km/s) = 6.96855 7.81080 7.40167
#
# Compressibility (1/GPa) = 0.01479732
#
# Stress axis : x y z
#
# Youngs Moduli (GPa) = 63.07967 89.55265 147.72937
#
# Poissons Ratio (x) = 0.50429 0.12049
# Poissons Ratio (y) = 0.35522 0.45041
# Poissons Ratio (z) = 0.05145 0.27303
#
# Static dielectric constant tensor:
#      x y z
#    x 2.150770 0.012470 0.016160 
#    y 0.012470 2.006610 0.020470 
#    z 0.016160 0.020470 2.298840 
# 
# From -- ./inp_files/37035.got.cif
#   From: 2010.05.17/outbox.cif.g08.bks.cpg/sg2_19_cif.got.tgz:37035.got - 2010.06.03 11:33:40.
