data_PCOD9087024
_publ_section_title
;
Structure prediction by ZEFSAII (Michael W. Deem and Ramdas Pophale) SiO2 
 PCOD9087024
Probable space group: P -1
;
_chemical_formula_sum "Si O2"
_cell_formula_units_Z 16
_cell_length_a 7.446521
_cell_length_b 19.923659
_cell_length_c 11.252489
_cell_angle_alpha 134.339709
_cell_angle_beta 44.365238
_cell_angle_gamma 146.787487
_cell_volume 616.856366
_symmetry_space_group_name_H-M "P -1"
_symmetry_group_IT_number 2
_symmetry_cell_setting 'triclinic'
loop_
_space_group_symop_operation_xyz
x,y,z
-x,-y,-z
loop_
_atom_site_type_symbol
_atom_site_label
_atom_site_fract_x
_atom_site_fract_y
_atom_site_fract_z
Si Si1 0.859018 0.998984 0.915789
Si Si2 0.947022 0.161328 0.362207
Si Si3 0.737149 0.363279 0.801027
Si Si4 0.782679 0.922726 0.392419
Si Si5 0.199607 0.763063 0.026141
Si Si6 0.772967 0.669072 0.345121
Si Si7 0.220248 0.472226 0.193852
Si Si8 0.650709 0.716456 0.887480
O O1 0.473011 0.906580 0.032787
O O2 0.023110 0.940840 0.814711
O O3 0.920937 0.997669 0.747530
O O4 0.069818 0.144567 0.016938
O O5 0.544509 0.086755 0.478976
O O6 0.169889 0.235465 0.467777
O O7 0.125020 0.271251 0.311697
O O8 0.430548 0.226870 0.715458
O O9 0.900463 0.466781 0.748762
O O10 0.565229 0.375794 0.011711
O O11 0.017131 0.363371 0.729095
O O12 0.000000 0.000000 0.500000
O O13 0.050775 0.678962 0.872489
O O14 0.385507 0.720389 0.949370
O O15 0.957258 0.738150 0.217290
O O16 0.392655 0.544133 0.325220
O O17 0.500000 0.500000 0.000000
#
# Coordination Sequence:
#
# PCOD9087024 Si02
#       8
#     2   2   2   2   2   2   2   2
#     4  10  20  37  60  87 122 156 196 250 299 363
#     4  10  19  36  61  89 116 160 197 241 307 366
#     4   9  20  41  62  85 127 155 198 260 289 359
#     4  10  22  38  57  90 121 157 192 246 315 353
#     4   9  18  35  58  86 117 150 201 247 290 352
#     4   9  20  36  62  89 117 160 205 242 305 353
#     4  10  21  38  63  93 112 161 213 243 300 352
#     4   9  19  37  60  91 120 158 197 244 312 352
#
# _framework density 25.937964000000001
#
# number of rings (size 3 to 8) (size 9 to 14) (size 15 to 20)
#    0.000    2.500    0.000    2.625    1.750    5.500 
#    9.000    3.750    0.000   12.000    0.000    0.000 
#    0.000    0.000    0.000    0.000    0.000    0.000 
#
# Total GULP energy -89309.442815 kJ/mol
# GULP energy per Si atom -5581.840176 kJ/mol
# Density = 2.587893 g / cm^3
# Si number density = 25.937964 Si / 1000 Ang^3
#
#
#
# Elastic Constant Matrix: (Units=GPa)
#
#
# Indices 1 2 3 4 5 6 
#
# 1 99.9212 23.7605 20.9106 -1.8630 16.3403 2.6527
# 2 23.7605 81.1044 38.5621 34.2022 24.8515 16.1564
# 3 20.9106 38.5621 102.5198 9.7172 29.6822 8.8819
# 4 -1.8630 34.2022 9.7172 28.2124 3.5198 6.6533
# 5 16.3403 24.8515 29.6822 3.5198 44.8992 13.8278
# 6 2.6527 16.1564 8.8819 6.6533 13.8278 28.3488
#
#
#
# Elastic Compliance Matrix: (Units=1/GPa)
#
#
# Indices 1 2 3 4 5 6 
#
# 1 0.012199 -0.007371 -0.000377 0.009670 -0.001352 0.001567
# 2 -0.007371 0.040710 -0.005944 -0.045325 -0.010925 -0.004683
# 3 -0.000377 -0.005944 0.013437 0.002963 -0.006156 0.001521
# 4 0.009670 -0.045325 0.002963 0.089152 0.013737 -0.003626
# 5 -0.001352 -0.010925 -0.006156 0.013737 0.035593 -0.012304
# 6 0.001567 -0.004683 0.001521 -0.003626 -0.012304 0.044173
#
#
# Mechanical properties :
#
#
# Convention : Reuss Voigt Hill
#
# Bulk Modulus (GPa) = 25.66612 50.00132 37.83372
# Shear Modulus (GPa) = 18.13997 33.64624 25.89310
#
# Velocity S-wave (km/s) = 2.64741 3.60555 3.16297
# Velocity P-wave (km/s) = 4.38882 6.05412 5.28744
#
# Compressibility (1/GPa) = 0.03896186
#
# Stress axis : x y z
#
# Youngs Moduli (GPa) = 81.97312 24.56425 74.42252
#
# Poissons Ratio (x) = 0.18105 0.02804
# Poissons Ratio (y) = 0.60419 0.44240
# Poissons Ratio (z) = 0.03089 0.14602
#
# Static dielectric constant tensor:
#      x y z
#    x 2.137940 -0.020360 -0.001710 
#    y -0.020360 2.140660 -0.015050 
#    z -0.001710 -0.015050 2.091670 
# 
# From -- ./inp_files/406286.got.cif
#   From: 2010.05.17/outbox.cif.g08.bks.cpg/sg2_204_cif.got.tgz:406286.got - 2010.06.03 11:33:40.
