data_PCOD9087815
_publ_section_title
;
Structure prediction by ZEFSAII (Michael W. Deem and Ramdas Pophale) SiO2 
 PCOD9087815
Probable space group: P -1
;
_chemical_formula_sum "Si O2"
_cell_formula_units_Z 16
_cell_length_a 16.052878
_cell_length_b 15.177714
_cell_length_c 8.283201
_cell_angle_alpha 63.792507
_cell_angle_beta 124.347727
_cell_angle_gamma 154.836871
_cell_volume 694.648548
_symmetry_space_group_name_H-M "P -1"
_symmetry_group_IT_number 2
_symmetry_cell_setting 'triclinic'
loop_
_space_group_symop_operation_xyz
x,y,z
-x,-y,-z
loop_
_atom_site_type_symbol
_atom_site_label
_atom_site_fract_x
_atom_site_fract_y
_atom_site_fract_z
Si Si1 0.124900 0.890378 0.833727
Si Si2 0.856277 0.463489 0.294099
Si Si3 0.135907 0.307579 0.976417
Si Si4 0.495176 0.864536 0.549486
Si Si5 0.813387 0.248411 0.815398
Si Si6 0.394813 0.309268 0.922159
Si Si7 0.708306 0.848301 0.731391
Si Si8 0.984379 0.062899 0.577285
O O1 0.299591 0.123509 0.894874
O O2 0.049606 0.859155 0.600200
O O3 0.201011 0.844306 0.983710
O O4 0.930222 0.733882 0.876423
O O5 0.876608 0.599695 0.207665
O O6 0.638338 0.264251 0.324437
O O7 0.000000 0.500000 0.500000
O O8 0.936383 0.514646 0.152974
O O9 0.945417 0.076394 0.883718
O O10 0.377966 0.477964 0.087018
O O11 0.340756 0.790046 0.317004
O O12 0.705728 0.103701 0.654103
O O13 0.580736 0.840189 0.580788
O O14 0.213129 0.236336 0.767402
O O15 0.419835 0.315176 0.135304
O O16 0.779296 0.863349 0.628374
O O17 0.000000 0.000000 0.500000
#
# Coordination Sequence:
#
# PCOD9087815 Si02
#       8
#     2   2   2   2   2   2   2   2
#     4   9  18  36  53  77 111 141 174 212 260 326
#     4   9  15  25  46  80 108 131 163 205 262 311
#     4  10  18  32  56  81 107 132 176 227 263 306
#     4  10  16  27  52  82 104 134 169 217 265 300
#     4   9  16  28  50  80 110 132 168 211 260 319
#     4  10  19  36  57  78 102 137 181 226 269 303
#     4  11  20  35  54  82 109 133 180 230 261 305
#     4  10  23  39  56  72 105 150 180 217 271 321
#
# _framework density 23.033231000000001
#
# number of rings (size 3 to 8) (size 9 to 14) (size 15 to 20)
#    0.000    2.250    5.000    0.375    0.000    1.000 
#    0.000    3.125    0.000    0.000    0.000    2.625 
#    0.000    0.000    0.000    0.000    0.000    0.000 
#
# Total GULP energy -89089.513285 kJ/mol
# GULP energy per Si atom -5568.094580 kJ/mol
# Density = 2.298081 g / cm^3
# Si number density = 23.033231 Si / 1000 Ang^3
#
#
#
# Elastic Constant Matrix: (Units=GPa)
#
#
# Indices 1 2 3 4 5 6 
#
# 1 48.3238 22.1635 19.3369 14.9119 8.6024 22.4470
# 2 22.1635 97.4169 8.6532 -10.3818 10.3070 28.7886
# 3 19.3369 8.6532 102.2613 -9.7975 33.8777 8.9397
# 4 14.9119 -10.3818 -9.7975 22.0725 11.4337 13.6536
# 5 8.6024 10.3070 33.8777 11.4337 24.5015 -3.1559
# 6 22.4470 28.7886 8.9397 13.6536 -3.1559 34.4358
#
#
#
# Elastic Compliance Matrix: (Units=1/GPa)
#
#
# Indices 1 2 3 4 5 6 
#
# 1 0.034502 0.000025 -0.000352 -0.002507 -0.013386 -0.022653
# 2 0.000025 0.004546 -0.009958 -0.018373 0.021454 0.008019
# 3 -0.000352 -0.009958 0.001408 -0.023974 0.016021 0.019163
# 4 -0.002507 -0.018373 -0.023974 -0.027930 0.059916 0.039783
# 5 -0.013386 0.021454 0.016021 0.059916 -0.018626 -0.038833
# 6 -0.022653 0.008019 0.019163 0.039783 -0.038833 0.012794
#
#
# Mechanical properties :
#
#
# Convention : Reuss Voigt Hill
#
# Bulk Modulus (GPa) = 50.28415 38.70103 44.49259
# Shear Modulus (GPa) = 147.52439 29.39183 88.45811
#
# Velocity S-wave (km/s) = 8.01171 3.57608 6.20386
# Velocity P-wave (km/s) = 10.36638 5.82150 8.40689
#
# Compressibility (1/GPa) = 0.01988698
#
# Stress axis : x y z
#
# Youngs Moduli (GPa) = 28.98409 219.95636 710.15088
#
# Poissons Ratio (x) = -0.00551 0.24962
# Poissons Ratio (y) = -0.00073 7.07179
# Poissons Ratio (z) = 0.01019 2.19036
#
# Static dielectric constant tensor:
#      x y z
#    x 1.936260 -0.026930 0.027620 
#    y -0.026930 1.908730 -0.004070 
#    z 0.027620 -0.004070 1.942890 
# 
# From -- ./inp_files/338132.got.cif
#   From: 2010.05.17/outbox.cif.g08.bks.cpg/sg2_170_cif.got.tgz:338132.got - 2010.06.03 11:33:40.
