data_PCOD9087307
_publ_section_title
;
Structure prediction by ZEFSAII (Michael W. Deem and Ramdas Pophale) SiO2 
 PCOD9087307
Probable space group: P -1
;
_chemical_formula_sum "Si O2"
_cell_formula_units_Z 14
_cell_length_a 7.759880
_cell_length_b 9.366656
_cell_length_c 9.690393
_cell_angle_alpha 68.446287
_cell_angle_beta 74.832568
_cell_angle_gamma 108.242342
_cell_volume 562.770229
_symmetry_space_group_name_H-M "P -1"
_symmetry_group_IT_number 2
_symmetry_cell_setting 'triclinic'
loop_
_space_group_symop_operation_xyz
x,y,z
-x,-y,-z
loop_
_atom_site_type_symbol
_atom_site_label
_atom_site_fract_x
_atom_site_fract_y
_atom_site_fract_z
Si Si1 0.233470 0.278463 0.891401
Si Si2 0.978648 0.513211 0.260704
Si Si3 0.683425 0.997643 0.134925
Si Si4 0.273062 0.871466 0.630670
Si Si5 0.881536 0.896633 0.717364
Si Si6 0.772931 0.172645 0.751461
Si Si7 0.367089 0.462411 0.177326
O O1 0.110835 0.382984 0.847349
O O2 0.206467 0.124843 0.846498
O O3 0.469296 0.414854 0.792496
O O4 0.170637 0.192352 0.086413
O O5 0.812302 0.314333 0.358736
O O6 0.056691 0.633141 0.337818
O O7 0.184086 0.507876 0.174573
O O8 0.447306 0.867460 0.237262
O O9 0.728235 0.133243 0.199782
O O10 0.732204 0.093874 0.943833
O O11 0.106518 0.938049 0.618650
O O12 0.500000 0.000000 0.500000
O O13 0.731622 0.741752 0.706062
O O14 0.842260 0.059250 0.684400
O O15 0.500000 0.500000 0.000000
#
# Coordination Sequence:
#
# PCOD9087307 Si02
#       7
#     2   2   2   2   2   2   2
#     4  10  19  36  62  97 120 154 196 255 324 354
#     4  11  22  37  62  88 121 161 207 248 306 368
#     4  10  21  37  63  93 131 155 192 258 311 370
#     4  11  25  43  58  84 124 170 213 249 293 363
#     4   9  20  36  59  87 129 155 195 256 303 372
#     4  10  20  37  64  99 121 152 199 256 327 356
#     4   9  19  32  51  90 127 150 186 251 306 371
#
# _framework density 24.876937000000002
#
# number of rings (size 3 to 8) (size 9 to 14) (size 15 to 20)
#    0.000    2.000    1.429    1.714    4.000   10.286 
#    0.000    4.286    0.000    0.000    0.000    0.000 
#    0.000    0.000    0.000    0.000    0.000    0.000 
#
# Total GULP energy -78296.431611 kJ/mol
# GULP energy per Si atom -5592.602258 kJ/mol
# Density = 2.482032 g / cm^3
# Si number density = 24.876937 Si / 1000 Ang^3
#
#
#
# Elastic Constant Matrix: (Units=GPa)
#
#
# Indices 1 2 3 4 5 6 
#
# 1 118.2099 79.2739 50.0048 -19.2612 -42.3270 -1.6273
# 2 79.2739 209.0666 51.9925 -23.5244 -26.0110 -1.8259
# 3 50.0048 51.9925 98.8174 -12.5865 -15.8068 -4.1882
# 4 -19.2612 -23.5244 -12.5865 28.1218 9.8111 -7.9978
# 5 -42.3270 -26.0110 -15.8068 9.8111 38.9298 -7.6868
# 6 -1.6273 -1.8259 -4.1882 -7.9978 -7.6868 51.9319
#
#
#
# Elastic Compliance Matrix: (Units=1/GPa)
#
#
# Indices 1 2 3 4 5 6 
#
# 1 0.019439 -0.003769 -0.004680 0.003166 0.016517 0.003032
# 2 -0.003769 0.006788 -0.001416 0.002830 -0.000787 0.000326
# 3 -0.004680 -0.001416 0.013416 0.002254 -0.000939 0.001094
# 4 0.003166 0.002830 0.002254 0.044251 -0.003588 0.006664
# 5 0.016517 -0.000787 -0.000939 -0.003588 0.044929 0.006512
# 6 0.003032 0.000326 0.001094 0.006664 0.006512 0.021441
#
#
# Mechanical properties :
#
#
# Convention : Reuss Voigt Hill
#
# Bulk Modulus (GPa) = 50.21724 87.62624 68.92174
# Shear Modulus (GPa) = 28.30766 40.11821 34.21293
#
# Velocity S-wave (km/s) = 3.37695 4.02016 3.71251
# Velocity P-wave (km/s) = 5.95274 7.53984 6.79280
#
# Compressibility (1/GPa) = 0.01991348
#
# Stress axis : x y z
#
# Youngs Moduli (GPa) = 51.44371 147.32165 74.53916
#
# Poissons Ratio (x) = 0.55530 0.34881
# Poissons Ratio (y) = 0.19391 0.10552
# Poissons Ratio (z) = 0.24073 0.20854
#
# Static dielectric constant tensor:
#      x y z
#    x 1.992920 0.053790 0.038370 
#    y 0.053790 1.991090 -0.003930 
#    z 0.038370 -0.003930 2.004860 
# 
# From -- ./inp_files/378598.got.cif
#   From: 2010.05.17/outbox.cif.g08.bks.cpg/sg2_190_cif.got.tgz:378598.got - 2010.06.03 11:33:40.
