data_PCOD9087299
_publ_section_title
;
Structure prediction by ZEFSAII (Michael W. Deem and Ramdas Pophale) SiO2 
 PCOD9087299
Probable space group: P -1
;
_chemical_formula_sum "Si O2"
_cell_formula_units_Z 16
_cell_length_a 11.575091
_cell_length_b 14.279889
_cell_length_c 8.245089
_cell_angle_alpha 123.314977
_cell_angle_beta 41.381752
_cell_angle_gamma 104.721503
_cell_volume 721.435519
_symmetry_space_group_name_H-M "P -1"
_symmetry_group_IT_number 2
_symmetry_cell_setting 'triclinic'
loop_
_space_group_symop_operation_xyz
x,y,z
-x,-y,-z
loop_
_atom_site_type_symbol
_atom_site_label
_atom_site_fract_x
_atom_site_fract_y
_atom_site_fract_z
Si Si1 0.905908 0.593778 0.825041
Si Si2 0.462718 0.012400 0.858085
Si Si3 0.857948 0.095940 0.853064
Si Si4 0.228513 0.246603 0.406572
Si Si5 0.177120 0.702217 0.163742
Si Si6 0.227021 0.511651 0.664900
Si Si7 0.828284 0.838100 0.246787
Si Si8 0.417545 0.513938 0.921779
O O1 0.000000 0.500000 0.500000
O O2 0.053969 0.565854 0.785454
O O3 0.858850 0.733097 0.986868
O O4 0.717814 0.565191 0.028463
O O5 0.649014 0.946143 0.508454
O O6 0.299375 0.952658 0.953136
O O7 0.500000 0.000000 0.000000
O O8 0.384215 0.151625 0.055973
O O9 0.776046 0.205026 0.919878
O O10 0.984983 0.129177 0.887130
O O11 0.000000 0.000000 0.500000
O O12 0.253847 0.374113 0.510230
O O13 0.211010 0.208656 0.576380
O O14 0.036563 0.249412 0.527387
O O15 0.188586 0.584813 0.937973
O O16 0.307537 0.648836 0.124536
O O17 0.412385 0.527901 0.415760
O O18 0.500000 0.500000 0.000000
#
# Coordination Sequence:
#
# PCOD9087299 Si02
#       8
#     2   2   2   2   2   2   2   2
#     4  12  24  44  64  86 132 171 222 270 330 392
#     4  10  20  34  57  95 137 166 206 261 330 390
#     4  11  19  35  58  98 137 164 209 265 326 387
#     4  10  19  36  62  95 134 164 205 267 327 382
#     4  11  22  38  64  98 137 168 216 275 329 389
#     4  12  23  41  63  98 130 168 219 280 331 387
#     4  10  22  36  61  93 127 170 209 264 324 382
#     4  12  27  40  60  95 128 179 219 260 336 398
#
# _framework density 22.178004000000001
#
# number of rings (size 3 to 8) (size 9 to 14) (size 15 to 20)
#    0.000    1.000    8.750    1.500    5.250    0.000 
#    0.000    0.000    0.000    0.750    0.000    4.375 
#    0.000    0.000    0.000    0.000    0.000    0.000 
#
# Total GULP energy -89412.754848 kJ/mol
# GULP energy per Si atom -5588.297178 kJ/mol
# Density = 2.212753 g / cm^3
# Si number density = 22.178004 Si / 1000 Ang^3
#
#
#
# Elastic Constant Matrix: (Units=GPa)
#
#
# Indices 1 2 3 4 5 6 
#
# 1 67.9000 14.6048 33.1251 3.3328 -16.8820 2.2960
# 2 14.6048 66.4739 28.5595 20.7495 -10.8470 21.3201
# 3 33.1251 28.5595 105.4432 26.8713 -17.0981 3.0082
# 4 3.3328 20.7495 26.8713 42.9507 4.8022 -13.2007
# 5 -16.8820 -10.8470 -17.0981 4.8022 29.5744 0.8603
# 6 2.2960 21.3201 3.0082 -13.2007 0.8603 35.4846
#
#
#
# Elastic Compliance Matrix: (Units=1/GPa)
#
#
# Indices 1 2 3 4 5 6 
#
# 1 0.019143 -0.001761 -0.004868 0.001841 0.007146 0.000744
# 2 -0.001761 0.042556 0.003745 -0.037893 0.024098 -0.040453
# 3 -0.004868 0.003745 0.015904 -0.015412 0.010562 -0.009273
# 4 0.001841 -0.037893 -0.015412 0.070671 -0.034719 0.051087
# 5 0.007146 0.024098 0.010562 -0.034719 0.059353 -0.030191
# 6 0.000744 -0.040453 -0.009273 0.051087 -0.030191 0.072962
#
#
# Mechanical properties :
#
#
# Convention : Reuss Voigt Hill
#
# Bulk Modulus (GPa) = 13.92103 43.59955 28.76029
# Shear Modulus (GPa) = 16.11340 32.50378 24.30859
#
# Velocity S-wave (km/s) = 2.69838 3.83245 3.31428
# Velocity P-wave (km/s) = 3.99987 6.26779 5.25757
#
# Compressibility (1/GPa) = 0.07183378
#
# Stress axis : x y z
#
# Youngs Moduli (GPa) = 52.23959 23.49837 62.87903
#
# Poissons Ratio (x) = 0.04139 0.30611
# Poissons Ratio (y) = 0.09201 -0.23550
# Poissons Ratio (z) = 0.25431 -0.08801
#
# Static dielectric constant tensor:
#      x y z
#    x 1.911890 0.001950 -0.025380 
#    y 0.001950 1.866580 0.006840 
#    z -0.025380 0.006840 1.869200 
# 
# From -- ./inp_files/274210.got.cif
#   From: 2010.05.17/outbox.cif.g08.bks.cpg/sg2_138_cif.got.tgz:274210.got - 2010.06.03 11:33:40.
