data_PCOD9087110
_publ_section_title
;
Structure prediction by ZEFSAII (Michael W. Deem and Ramdas Pophale) SiO2 
 PCOD9087110
Probable space group: P -1
;
_chemical_formula_sum "Si O2"
_cell_formula_units_Z 15
_cell_length_a 13.836516
_cell_length_b 7.197307
_cell_length_c 7.350826
_cell_angle_alpha 85.377648
_cell_angle_beta 97.920275
_cell_angle_gamma 122.655461
_cell_volume 610.427780
_symmetry_space_group_name_H-M "P -1"
_symmetry_group_IT_number 2
_symmetry_cell_setting 'triclinic'
loop_
_space_group_symop_operation_xyz
x,y,z
-x,-y,-z
loop_
_atom_site_type_symbol
_atom_site_label
_atom_site_fract_x
_atom_site_fract_y
_atom_site_fract_z
Si Si1 0.618632 0.883176 0.121612
Si Si2 0.000000 0.500000 0.500000
Si Si3 0.884240 0.077661 0.735769
Si Si4 0.361034 0.684112 0.998312
Si Si5 0.357350 0.046186 0.459793
Si Si6 0.391966 0.660547 0.572734
Si Si7 0.852592 0.723565 0.479682
Si Si8 0.801830 0.781395 0.055262
O O1 0.668155 0.955246 0.332118
O O2 0.684265 0.778354 0.059987
O O3 0.643406 0.097823 0.998856
O O4 0.479879 0.729783 0.110839
O O5 0.909724 0.579534 0.526354
O O6 0.958589 0.330593 0.677841
O O7 0.751272 0.999822 0.676091
O O8 0.903781 0.933880 0.605206
O O9 0.887147 0.993866 0.942388
O O10 0.375289 0.673393 0.783818
O O11 0.245842 0.453979 0.036233
O O12 0.477383 0.269424 0.427271
O O13 0.378567 0.846912 0.457015
O O14 0.285113 0.428759 0.499851
O O15 0.853627 0.784063 0.263293
#
# Coordination Sequence:
#
# PCOD9087110 Si02
#       8
#     2   1   2   2   2   2   2   2
#     4  10  19  36  61  96 148 190 214 268 330 407
#     4  12  28  54  76  94 134 180 234 304 344 404
#     4  12  26  46  73 104 133 181 231 282 350 410
#     4   9  20  35  55  95 144 188 223 258 328 407
#     4  10  19  36  66 100 142 181 220 264 336 408
#     4   9  19  37  64  99 140 184 214 271 332 409
#     4  11  25  48  73 100 139 176 231 286 348 404
#     4  11  24  41  68 103 138 172 230 284 336 406
#
# _framework density 24.572929999999999
#
# number of rings (size 3 to 8) (size 9 to 14) (size 15 to 20)
#    0.000    1.600    2.667    1.600    1.867    4.267 
#    0.000    1.333    0.000    0.000    0.000    0.000 
#    0.000    0.000    0.000    0.000    0.000    0.000 
#
# Total GULP energy -83722.373769 kJ/mol
# GULP energy per Si atom -5581.491585 kJ/mol
# Density = 2.451700 g / cm^3
# Si number density = 24.572930 Si / 1000 Ang^3
#
#
#
# Elastic Constant Matrix: (Units=GPa)
#
#
# Indices 1 2 3 4 5 6 
#
# 1 99.7798 4.8922 9.4992 -11.5012 23.6203 -1.4302
# 2 4.8922 83.0118 20.2820 -31.3988 4.5520 -0.9018
# 3 9.4992 20.2820 86.5240 -25.4892 5.4614 -3.2160
# 4 -11.5012 -31.3988 -25.4892 42.2431 5.1848 0.0553
# 5 23.6203 4.5520 5.4614 5.1848 30.6686 -3.9289
# 6 -1.4302 -0.9018 -3.2160 0.0553 -3.9289 26.8983
#
#
#
# Elastic Compliance Matrix: (Units=1/GPa)
#
#
# Indices 1 2 3 4 5 6 
#
# 1 0.013634 0.002557 0.000925 0.007702 -0.012464 -0.000915
# 2 0.002557 0.017931 0.000441 0.015188 -0.007317 -0.000310
# 3 0.000925 0.000441 0.014660 0.010031 -0.004947 0.001074
# 4 0.007702 0.015188 0.010031 0.045285 -0.017700 -0.000560
# 5 -0.012464 -0.007317 -0.004947 -0.017700 0.047874 0.005530
# 6 -0.000915 -0.000310 0.001074 -0.000560 0.005530 0.038055
#
#
# Mechanical properties :
#
#
# Convention : Reuss Voigt Hill
#
# Bulk Modulus (GPa) = 18.49403 37.62916 28.06160
# Shear Modulus (GPa) = 26.65026 35.60480 31.12753
#
# Velocity S-wave (km/s) = 3.29680 3.81063 3.56299
# Velocity P-wave (km/s) = 4.69408 5.89132 5.32645
#
# Compressibility (1/GPa) = 0.05407150
#
# Stress axis : x y z
#
# Youngs Moduli (GPa) = 73.34687 55.76963 68.21400
#
# Poissons Ratio (x) = -0.14262 -0.06313
# Poissons Ratio (y) = -0.18757 -0.03007
# Poissons Ratio (z) = -0.06788 -0.02458
#
# Static dielectric constant tensor:
#      x y z
#    x 2.134830 0.055750 -0.006420 
#    y 0.055750 1.992760 -0.028190 
#    z -0.006420 -0.028190 1.928020 
# 
# From -- ./inp_files/294926.got.cif
#   From: 2010.05.17/outbox.cif.g08.bks.cpg/sg2_148_cif.got.tgz:294926.got - 2010.06.03 11:33:40.
