data_PCOD9087688
_publ_section_title
;
Structure prediction by ZEFSAII (Michael W. Deem and Ramdas Pophale) SiO2 
 PCOD9087688
Probable space group: P -1
;
_chemical_formula_sum "Si O2"
_cell_formula_units_Z 15
_cell_length_a 11.701135
_cell_length_b 18.098560
_cell_length_c 11.736903
_cell_angle_alpha 50.656038
_cell_angle_beta 141.900340
_cell_angle_gamma 156.753033
_cell_volume 563.391730
_symmetry_space_group_name_H-M "P -1"
_symmetry_group_IT_number 2
_symmetry_cell_setting 'triclinic'
loop_
_space_group_symop_operation_xyz
x,y,z
-x,-y,-z
loop_
_atom_site_type_symbol
_atom_site_label
_atom_site_fract_x
_atom_site_fract_y
_atom_site_fract_z
Si Si1 0.847561 0.578886 0.071699
Si Si2 0.996086 0.692874 0.533756
Si Si3 0.814982 0.754114 0.764963
Si Si4 0.895906 0.865157 0.360422
Si Si5 0.944809 0.222297 0.741946
Si Si6 0.918161 0.023067 0.028130
Si Si7 0.110393 0.523036 0.191833
Si Si8 0.000000 0.000000 0.500000
O O1 0.991430 0.667891 0.222841
O O2 0.954566 0.527042 0.155070
O O3 0.988883 0.728798 0.954117
O O4 0.374699 0.374827 0.903177
O O5 0.599464 0.458129 0.409014
O O6 0.912830 0.763262 0.440513
O O7 0.205821 0.799417 0.471080
O O8 0.061479 0.656375 0.731449
O O9 0.782644 0.790280 0.829267
O O10 0.065009 0.932035 0.703013
O O11 0.585863 0.743669 0.341512
O O12 0.785271 0.878856 0.152329
O O13 0.245569 0.061550 0.519521
O O14 0.725098 0.033311 0.814855
O O15 0.000000 0.000000 0.000000
O O16 0.000000 0.500000 0.000000
#
# Coordination Sequence:
#
# PCOD9087688 Si02
#       8
#     2   2   2   2   2   2   2   1
#     4   9  20  37  62  89 122 158 205 264 302 362
#     4  11  21  39  66  88 120 167 218 256 295 375
#     4   9  19  36  61  90 117 160 211 252 295 373
#     4  11  23  40  67  94 123 167 210 258 308 383
#     4   9  18  39  65  89 112 164 216 248 302 371
#     4  10  19  36  65  96 120 154 213 257 305 364
#     4  12  25  37  59  95 132 161 205 266 322 353
#     4  10  20  36  62  88 122 162 214 242 306 378
#
# _framework density 26.624459999999999
#
# number of rings (size 3 to 8) (size 9 to 14) (size 15 to 20)
#    0.000    1.867    2.667    2.800    1.867    0.533 
#    0.000    6.000    0.000    1.600    0.000    0.000 
#    0.000    0.000    0.000    0.000    0.000    0.000 
#
# Total GULP energy -83599.776832 kJ/mol
# GULP energy per Si atom -5573.318455 kJ/mol
# Density = 2.656386 g / cm^3
# Si number density = 26.624460 Si / 1000 Ang^3
#
#
#
# Elastic Constant Matrix: (Units=GPa)
#
#
# Indices 1 2 3 4 5 6 
#
# 1 101.6741 6.0892 52.7092 -10.3457 -24.2483 -17.6196
# 2 6.0892 104.4373 49.6928 -60.7312 -11.8348 0.9072
# 3 52.7092 49.6928 167.7173 -45.8528 -54.0765 0.6330
# 4 -10.3457 -60.7312 -45.8528 54.8714 3.3415 -10.8194
# 5 -24.2483 -11.8348 -54.0765 3.3415 60.7134 -3.1710
# 6 -17.6196 0.9072 0.6330 -10.8194 -3.1710 52.3746
#
#
#
# Elastic Compliance Matrix: (Units=1/GPa)
#
#
# Indices 1 2 3 4 5 6 
#
# 1 0.013559 0.004539 -0.002631 0.006337 0.003924 0.006061
# 2 0.004539 0.032525 0.002952 0.040719 0.009058 0.009888
# 3 -0.002631 0.002952 0.012929 0.013395 0.010423 0.002306
# 4 0.006337 0.040719 0.013395 0.078181 0.019066 0.018569
# 5 0.003924 0.009058 0.010423 0.019066 0.028388 0.006695
# 6 0.006061 0.009888 0.002306 0.018569 0.006695 0.025175
#
#
# Mechanical properties :
#
#
# Convention : Reuss Voigt Hill
#
# Bulk Modulus (GPa) = 14.54923 65.64570 40.09747
# Shear Modulus (GPa) = 24.51632 51.28104 37.89868
#
# Velocity S-wave (km/s) = 3.03779 4.39348 3.77696
# Velocity P-wave (km/s) = 4.21672 7.10258 5.84069
#
# Compressibility (1/GPa) = 0.06873216
#
# Stress axis : x y z
#
# Youngs Moduli (GPa) = 73.75431 30.74587 77.34732
#
# Poissons Ratio (x) = -0.13954 0.20348
# Poissons Ratio (y) = -0.33474 -0.22835
# Poissons Ratio (z) = 0.19403 -0.09077
#
# Static dielectric constant tensor:
#      x y z
#    x 2.110460 -0.024030 0.043280 
#    y -0.024030 2.744520 0.386380 
#    z 0.043280 0.386380 2.428160 
# 
# From -- ./inp_files/435638.got.cif
#   From: 2010.05.17/outbox.cif.g08.bks.cpg/sg2_218_cif.got.tgz:435638.got - 2010.06.03 11:33:40.
