data_PCOD9087808
_publ_section_title
;
Structure prediction by ZEFSAII (Michael W. Deem and Ramdas Pophale) SiO2 
 PCOD9087808
Probable space group: P -1
;
_chemical_formula_sum "Si O2"
_cell_formula_units_Z 14
_cell_length_a 8.008257
_cell_length_b 11.336486
_cell_length_c 8.428365
_cell_angle_alpha 68.315261
_cell_angle_beta 111.209908
_cell_angle_gamma 97.713021
_cell_volume 662.858829
_symmetry_space_group_name_H-M "P -1"
_symmetry_group_IT_number 2
_symmetry_cell_setting 'triclinic'
loop_
_space_group_symop_operation_xyz
x,y,z
-x,-y,-z
loop_
_atom_site_type_symbol
_atom_site_label
_atom_site_fract_x
_atom_site_fract_y
_atom_site_fract_z
Si Si1 0.503748 0.021322 0.740409
Si Si2 0.618821 0.353462 0.448216
Si Si3 0.389216 0.352317 0.696176
Si Si4 0.344395 0.182114 0.322069
Si Si5 0.338184 0.820121 0.997650
Si Si6 0.016480 0.352268 0.022226
Si Si7 0.015136 0.356705 0.641845
O O1 0.391578 0.107993 0.537797
O O2 0.643530 0.928905 0.746795
O O3 0.361512 0.930013 0.823234
O O4 0.618313 0.105354 0.860300
O O5 0.502633 0.350332 0.573122
O O6 0.625353 0.501053 0.333710
O O7 0.515857 0.274296 0.321105
O O8 0.818096 0.301394 0.570876
O O9 0.187450 0.299771 0.640957
O O10 0.494457 0.275567 0.902750
O O11 0.173674 0.273447 0.202908
O O12 0.163356 0.732287 0.975909
O O13 0.000000 0.500000 0.000000
O O14 0.049975 0.356324 0.842133
O O15 0.000000 0.500000 0.500000
#
# Coordination Sequence:
#
# PCOD9087808 Si02
#       7
#     2   2   2   2   2   2   2
#     4  10  24  43  67  89 129 188 227 268 324 391
#     4  10  20  39  66  94 131 175 216 279 340 390
#     4  10  19  36  69  91 127 172 223 271 330 397
#     4  11  23  43  64  97 134 170 223 283 329 387
#     4  11  22  44  66  93 131 181 226 267 326 407
#     4  12  26  41  67 103 138 166 216 288 345 391
#     4  10  22  38  63  95 127 177 215 252 335 419
#
# _framework density 21.120636000000001
#
# number of rings (size 3 to 8) (size 9 to 14) (size 15 to 20)
#    0.000    1.429    2.857    1.714    4.000    3.429 
#    0.000   10.714    0.000    0.000    0.000    0.000 
#    0.000    0.000    0.000    0.000    0.000    0.000 
#
# Total GULP energy -78086.211833 kJ/mol
# GULP energy per Si atom -5577.586559 kJ/mol
# Density = 2.107256 g / cm^3
# Si number density = 21.120636 Si / 1000 Ang^3
#
#
#
# Elastic Constant Matrix: (Units=GPa)
#
#
# Indices 1 2 3 4 5 6 
#
# 1 135.5968 50.3691 40.5764 -2.2574 37.6601 14.4204
# 2 50.3691 133.0397 59.3402 -13.6822 8.2224 13.3693
# 3 40.5764 59.3402 83.3614 -12.0485 27.5259 -10.9489
# 4 -2.2574 -13.6822 -12.0485 28.5115 0.7713 9.9629
# 5 37.6601 8.2224 27.5259 0.7713 32.5826 -0.4013
# 6 14.4204 13.3693 -10.9489 9.9629 -0.4013 21.8929
#
#
#
# Elastic Compliance Matrix: (Units=1/GPa)
#
#
# Indices 1 2 3 4 5 6 
#
# 1 0.013773 -0.002748 -0.000597 0.003218 -0.014913 -0.009430
# 2 -0.002748 0.019194 -0.018516 0.008819 0.013483 -0.022938
# 3 -0.000597 -0.018516 0.037741 -0.003325 -0.026053 0.031611
# 4 0.003218 0.008819 -0.003325 0.049367 -0.004696 -0.031720
# 5 -0.014913 0.013483 -0.026053 -0.004696 0.066547 -0.008083
# 6 -0.009430 -0.022938 0.031611 -0.031720 -0.008083 0.095991
#
#
# Mechanical properties :
#
#
# Convention : Reuss Voigt Hill
#
# Bulk Modulus (GPa) = 37.05571 72.50772 54.78171
# Shear Modulus (GPa) = 14.91069 30.04489 22.47779
#
# Velocity S-wave (km/s) = 2.65991 3.77575 3.26583
# Velocity P-wave (km/s) = 5.19772 7.30843 6.34151
#
# Compressibility (1/GPa) = 0.02698640
#
# Stress axis : x y z
#
# Youngs Moduli (GPa) = 72.60820 52.09854 26.49646
#
# Poissons Ratio (x) = 0.14315 0.01582
# Poissons Ratio (y) = 0.19951 0.49061
# Poissons Ratio (z) = 0.04334 0.96466
#
# Static dielectric constant tensor:
#      x y z
#    x 1.816190 -0.007160 -0.019570 
#    y -0.007160 1.774530 0.009390 
#    z -0.019570 0.009390 1.795060 
# 
# From -- ./inp_files/168899.got.cif
#   From: 2010.05.17/outbox.cif.g08.bks.cpg/sg2_85_cif.got.tgz:168899.got - 2010.06.03 11:33:40.
