data_PCOD9087722
_publ_section_title
;
Structure prediction by ZEFSAII (Michael W. Deem and Ramdas Pophale) SiO2 
 PCOD9087722
Probable space group: P -1
;
_chemical_formula_sum "Si O2"
_cell_formula_units_Z 16
_cell_length_a 7.065459
_cell_length_b 16.208241
_cell_length_c 8.039865
_cell_angle_alpha 133.413709
_cell_angle_beta 101.002061
_cell_angle_gamma 63.874756
_cell_volume 591.600586
_symmetry_space_group_name_H-M "P -1"
_symmetry_group_IT_number 2
_symmetry_cell_setting 'triclinic'
loop_
_space_group_symop_operation_xyz
x,y,z
-x,-y,-z
loop_
_atom_site_type_symbol
_atom_site_label
_atom_site_fract_x
_atom_site_fract_y
_atom_site_fract_z
Si Si1 0.676775 0.515120 0.291988
Si Si2 0.627305 0.779803 0.682508
Si Si3 0.180808 0.050891 0.554590
Si Si4 0.476389 0.779827 0.278850
Si Si5 0.988114 0.757468 0.511239
Si Si6 0.214003 0.874077 0.888488
Si Si7 0.732046 0.515930 0.901523
Si Si8 0.894332 0.243865 0.980480
O O1 0.677159 0.637565 0.545477
O O2 0.452444 0.506261 0.256927
O O3 0.856710 0.384044 0.207692
O O4 0.707793 0.516758 0.099139
O O5 0.538828 0.789631 0.492037
O O6 0.843904 0.791942 0.701229
O O7 0.437711 0.877678 0.897737
O O8 0.130159 0.139180 0.507014
O O9 0.391874 0.921676 0.395335
O O10 0.000000 0.000000 0.500000
O O11 0.131381 0.149213 0.833680
O O12 0.671726 0.663156 0.061197
O O13 0.275479 0.742438 0.180217
O O14 0.195252 0.778585 0.617812
O O15 0.055847 0.610948 0.278473
O O16 0.198308 0.816224 0.980237
O O17 0.000000 0.000000 0.000000
#
# Coordination Sequence:
#
# PCOD9087722 Si02
#       8
#     2   2   2   2   2   2   2   2
#     4   9  17  35  64  94 123 163 211 264 314 370
#     4  11  24  41  67  94 128 166 215 258 320 379
#     4  10  19  37  64  95 125 157 213 261 315 365
#     4   9  19  37  63  93 125 160 206 264 311 367
#     4  12  24  42  68  96 126 169 214 260 314 388
#     4  12  25  44  66  88 131 176 208 260 318 381
#     4   9  17  35  65  93 124 160 209 260 315 373
#     4  10  19  36  66  93 124 170 216 258 314 376
#
# _framework density 27.045272000000001
#
# number of rings (size 3 to 8) (size 9 to 14) (size 15 to 20)
#    0.000    1.750    2.500    4.500    1.750    3.500 
#    0.000    1.875    0.000    0.000    0.000    0.000 
#    0.000    0.000    0.000    0.000    0.000    0.000 
#
# Total GULP energy -89473.838318 kJ/mol
# GULP energy per Si atom -5592.114895 kJ/mol
# Density = 2.698372 g / cm^3
# Si number density = 27.045272 Si / 1000 Ang^3
#
#
#
# Elastic Constant Matrix: (Units=GPa)
#
#
# Indices 1 2 3 4 5 6 
#
# 1 103.4475 23.1454 18.8343 15.0363 -8.4539 7.2092
# 2 23.1454 139.6805 64.8389 48.5982 -13.4139 11.3426
# 3 18.8343 64.8389 99.7600 48.3244 -27.2523 0.3065
# 4 15.0363 48.5982 48.3244 65.9028 -5.7052 1.7341
# 5 -8.4539 -13.4139 -27.2523 -5.7052 33.0633 -3.7256
# 6 7.2092 11.3426 0.3065 1.7341 -3.7256 33.5515
#
#
#
# Elastic Compliance Matrix: (Units=1/GPa)
#
#
# Indices 1 2 3 4 5 6 
#
# 1 0.010353 -0.000798 -0.000339 -0.001340 0.001621 -0.001702
# 2 -0.000798 0.011552 -0.005678 -0.004193 -0.001328 -0.003613
# 3 -0.000339 -0.005678 0.023844 -0.011973 0.015663 0.004133
# 4 -0.001340 -0.004193 -0.011973 0.026725 -0.007344 -0.000382
# 5 0.001621 -0.001328 0.015663 -0.007344 0.042331 0.005038
# 6 -0.001702 -0.003613 0.004133 -0.000382 0.005038 0.031933
#
#
# Mechanical properties :
#
#
# Convention : Reuss Voigt Hill
#
# Bulk Modulus (GPa) = 31.13412 61.83616 46.48514
# Shear Modulus (GPa) = 29.22706 42.24146 35.73426
#
# Velocity S-wave (km/s) = 3.29092 3.95635 3.63888
# Velocity P-wave (km/s) = 5.09677 6.61694 5.90597
#
# Compressibility (1/GPa) = 0.03211911
#
# Stress axis : x y z
#
# Youngs Moduli (GPa) = 96.59160 86.56677 41.93907
#
# Poissons Ratio (x) = 0.06909 0.01420
# Poissons Ratio (y) = 0.07710 0.23813
# Poissons Ratio (z) = 0.03270 0.49154
#
# Static dielectric constant tensor:
#      x y z
#    x 2.130000 -0.069070 0.005180 
#    y -0.069070 2.126970 0.013770 
#    z 0.005180 0.013770 2.182280 
# 
# From -- ./inp_files/215861.got.cif
#   From: 2010.05.17/outbox.cif.g08.bks.cpg/sg2_108_cif.got.tgz:215861.got - 2010.06.03 11:33:40.
