data_PCOD9087588
_publ_section_title
;
Structure prediction by ZEFSAII (Michael W. Deem and Ramdas Pophale) SiO2 
 PCOD9087588
Probable space group: P -1
;
_chemical_formula_sum "Si O2"
_cell_formula_units_Z 14
_cell_length_a 23.798218
_cell_length_b 10.226298
_cell_length_c 13.162862
_cell_angle_alpha 142.527578
_cell_angle_beta 27.075350
_cell_angle_gamma 154.692554
_cell_volume 622.236624
_symmetry_space_group_name_H-M "P -1"
_symmetry_group_IT_number 2
_symmetry_cell_setting 'triclinic'
loop_
_space_group_symop_operation_xyz
x,y,z
-x,-y,-z
loop_
_atom_site_type_symbol
_atom_site_label
_atom_site_fract_x
_atom_site_fract_y
_atom_site_fract_z
Si Si1 0.615477 0.817772 0.953034
Si Si2 0.442920 0.835611 0.598471
Si Si3 0.002641 0.674547 0.414276
Si Si4 0.298372 0.991661 0.550673
Si Si5 0.808784 0.746134 0.250732
Si Si6 0.652713 0.349440 0.866108
Si Si7 0.142215 0.447538 0.144999
O O1 0.511868 0.722235 0.953903
O O2 0.596125 0.007026 0.170095
O O3 0.500000 0.500000 0.000000
O O4 0.821135 0.018643 0.730887
O O5 0.281572 0.468132 0.637652
O O6 0.500000 0.000000 0.500000
O O7 0.592236 0.882359 0.445306
O O8 0.075869 0.611477 0.348321
O O9 0.889259 0.355757 0.337416
O O10 0.846074 0.638956 0.680995
O O11 0.378257 0.924822 0.299601
O O12 0.284151 0.191917 0.634231
O O13 0.820352 0.568151 0.041053
O O14 0.989695 0.088423 0.197360
O O15 0.698270 0.390464 0.935537
#
# Coordination Sequence:
#
# PCOD9087588 Si02
#       7
#     2   2   2   2   2   2   2
#     4  11  24  43  60  87 124 170 208 252 303 370
#     4  11  23  43  58  91 130 163 207 253 304 377
#     4   9  19  39  63  85 127 150 202 258 308 355
#     4   8  20  40  64  91 119 162 200 258 312 356
#     4  10  20  36  64  92 127 158 203 254 314 367
#     4   9  21  39  62  93 122 151 211 256 310 357
#     4  10  19  36  64  95 122 155 204 258 313 363
#
# _framework density 22.499480999999999
#
# number of rings (size 3 to 8) (size 9 to 14) (size 15 to 20)
#    0.857    1.429    1.429    0.857    0.000    3.429 
#    2.571    0.714    0.000    0.000    0.000    0.000 
#    0.000    0.000    0.000    0.000    0.000    0.000 
#
# Total GULP energy -77981.327145 kJ/mol
# GULP energy per Si atom -5570.094796 kJ/mol
# Density = 2.244827 g / cm^3
# Si number density = 22.499481 Si / 1000 Ang^3
#
#
#
# Elastic Constant Matrix: (Units=GPa)
#
#
# Indices 1 2 3 4 5 6 
#
# 1 72.3378 29.7744 1.6500 -9.7210 14.7974 5.2244
# 2 29.7744 121.5405 33.0358 -42.9532 13.0379 -23.0751
# 3 1.6500 33.0358 44.1917 -26.3503 1.0476 3.9176
# 4 -9.7210 -42.9532 -26.3503 39.3739 -1.6090 3.7470
# 5 14.7974 13.0379 1.0476 -1.6090 25.3321 -3.1096
# 6 5.2244 -23.0751 3.9176 3.7470 -3.1096 31.8144
#
#
#
# Elastic Compliance Matrix: (Units=1/GPa)
#
#
# Indices 1 2 3 4 5 6 
#
# 1 0.019367 -0.006519 0.007009 0.002935 -0.009292 -0.010025
# 2 -0.006519 0.019705 -0.007877 0.013101 -0.003401 0.014457
# 3 0.007009 -0.007877 0.043908 0.023888 -0.002217 -0.015301
# 4 0.002935 0.013101 0.023888 0.056263 -0.006011 -0.001135
# 5 -0.009292 -0.003401 -0.002217 -0.006011 0.046932 0.004627
# 6 -0.010025 0.014457 -0.015301 -0.001135 0.004627 0.046035
#
#
# Mechanical properties :
#
#
# Convention : Reuss Voigt Hill
#
# Bulk Modulus (GPa) = 14.66118 40.77673 27.71895
# Shear Modulus (GPa) = 18.53794 30.87808 24.70801
#
# Velocity S-wave (km/s) = 2.87353 3.70860 3.31744
# Velocity P-wave (km/s) = 4.18807 6.04161 5.19812
#
# Compressibility (1/GPa) = 0.06820733
#
# Stress axis : x y z
#
# Youngs Moduli (GPa) = 51.63548 50.74798 22.77497
#
# Poissons Ratio (x) = 0.33082 -0.15964
# Poissons Ratio (y) = 0.33660 0.17939
# Poissons Ratio (z) = -0.36193 0.39972
#
# Static dielectric constant tensor:
#      x y z
#    x 1.828780 0.007520 -0.031740 
#    y 0.007520 1.866040 -0.042490 
#    z -0.031740 -0.042490 1.950080 
# 
# From -- ./inp_files/381073.got.cif
#   From: 2010.05.17/outbox.cif.g08.bks.cpg/sg2_191_cif.got.tgz:381073.got - 2010.06.03 11:33:40.
