data_PCOD9087268
_publ_section_title
;
Structure prediction by ZEFSAII (Michael W. Deem and Ramdas Pophale) SiO2 
 PCOD9087268
Probable space group: P -1
;
_chemical_formula_sum "Si O2"
_cell_formula_units_Z 16
_cell_length_a 9.549152
_cell_length_b 14.861895
_cell_length_c 9.081177
_cell_angle_alpha 56.867919
_cell_angle_beta 51.698190
_cell_angle_gamma 91.160137
_cell_volume 709.389840
_symmetry_space_group_name_H-M "P -1"
_symmetry_group_IT_number 2
_symmetry_cell_setting 'triclinic'
loop_
_space_group_symop_operation_xyz
x,y,z
-x,-y,-z
loop_
_atom_site_type_symbol
_atom_site_label
_atom_site_fract_x
_atom_site_fract_y
_atom_site_fract_z
Si Si1 0.199405 0.275508 0.622041
Si Si2 0.788983 0.491291 0.716056
Si Si3 0.107006 0.588148 0.657416
Si Si4 0.832254 0.945140 0.294915
Si Si5 0.069795 0.683448 0.901644
Si Si6 0.704035 0.130167 0.154200
Si Si7 0.847927 0.828128 0.932774
Si Si8 0.467900 0.766415 0.033977
O O1 0.273815 0.417586 0.400638
O O2 0.251682 0.248061 0.777185
O O3 0.941355 0.206041 0.856169
O O4 0.260262 0.203523 0.529640
O O5 0.599880 0.347095 0.936946
O O6 0.000000 0.500000 0.500000
O O7 0.874827 0.539429 0.782270
O O8 0.097594 0.455168 0.791901
O O9 0.284560 0.695524 0.340336
O O10 0.146409 0.647267 0.740272
O O11 0.675543 0.995450 0.333201
O O12 0.978591 0.025231 0.265725
O O13 0.000000 0.000000 0.000000
O O14 0.962081 0.759597 0.859559
O O15 0.244485 0.775992 0.824757
O O16 0.547036 0.128027 0.139592
O O17 0.682713 0.817406 0.934353
#
# Coordination Sequence:
#
# PCOD9087268 Si02
#       8
#     2   2   2   2   2   2   2   2
#     4   9  15  30  49  71  94 130 165 199 228 287
#     4  10  16  27  48  71  99 124 162 194 239 287
#     4  10  18  29  49  71  95 132 170 189 230 299
#     4   7  15  29  48  71  91 129 166 197 229 285
#     4   9  18  32  48  66  99 135 163 188 235 301
#     4   9  14  29  50  66  92 128 162 190 234 289
#     4   9  18  30  48  74 101 122 160 202 248 272
#     4  11  18  28  51  80  99 121 156 209 245 277
#
# _framework density 22.554594000000002
#
# number of rings (size 3 to 8) (size 9 to 14) (size 15 to 20)
#    0.000    3.250    3.750    2.250    0.000    2.000 
#    0.000    6.250    2.750    3.000    0.000   31.500 
#    0.000    0.000    0.000    0.000    0.000    0.000 
#
# Total GULP energy -89244.406108 kJ/mol
# GULP energy per Si atom -5577.775382 kJ/mol
# Density = 2.250326 g / cm^3
# Si number density = 22.554594 Si / 1000 Ang^3
#
#
#
# Elastic Constant Matrix: (Units=GPa)
#
#
# Indices 1 2 3 4 5 6 
#
# 1 171.3951 43.5437 20.0595 -4.3436 21.7657 0.2899
# 2 43.5437 134.0818 25.7129 -4.9875 3.1893 -7.8788
# 3 20.0595 25.7129 69.9249 0.1888 11.7041 -8.6940
# 4 -4.3436 -4.9875 0.1888 9.3514 -0.0372 5.3786
# 5 21.7657 3.1893 11.7041 -0.0372 17.2308 -10.9101
# 6 0.2899 -7.8788 -8.6940 5.3786 -10.9101 0.7591
#
#
#
# Elastic Compliance Matrix: (Units=1/GPa)
#
#
# Indices 1 2 3 4 5 6 
#
# 1 0.006107 -0.001532 0.000314 -0.004550 -0.000431 0.011408
# 2 -0.001532 0.008550 -0.003246 0.006812 -0.000621 -0.005044
# 3 0.000314 -0.003246 0.017326 -0.001397 -0.012214 -0.001020
# 4 -0.004550 0.006812 -0.001397 0.078747 0.038510 0.051968
# 5 -0.000431 -0.000621 -0.012214 0.038510 0.024473 -0.067281
# 6 0.011408 -0.005044 -0.001020 0.051968 -0.067281 -0.086248
#
#
# Mechanical properties :
#
#
# Convention : Reuss Voigt Hill
#
# Bulk Modulus (GPa) = 43.37461 61.55935 52.46698
# Shear Modulus (GPa) = 76.25630 24.54064 50.39847
#
# Velocity S-wave (km/s) = 5.82091 3.30215 4.73219
# Velocity P-wave (km/s) = 8.02808 6.47237 7.29184
#
# Compressibility (1/GPa) = 0.02305496
#
# Stress axis : x y z
#
# Youngs Moduli (GPa) = 163.74399 116.95862 57.71735
#
# Poissons Ratio (x) = 0.17921 -0.01814
# Poissons Ratio (y) = 0.25090 0.18735
# Poissons Ratio (z) = -0.05146 0.37965
#
# Static dielectric constant tensor:
#      x y z
#    x 1.827660 -0.009240 -0.014630 
#    y -0.009240 1.860290 0.012800 
#    z -0.014630 0.012800 1.940700 
# 
# From -- ./inp_files/200189.got.cif
#   From: 2010.05.17/outbox.cif.g08.bks.cpg/sg2_101_cif.got.tgz:200189.got - 2010.06.03 11:33:40.
