data_PCOD9087205
_publ_section_title
;
Structure prediction by ZEFSAII (Michael W. Deem and Ramdas Pophale) SiO2 
 PCOD9087205
Probable space group: P -1
;
_chemical_formula_sum "Si O2"
_cell_formula_units_Z 16
_cell_length_a 5.442031
_cell_length_b 8.305687
_cell_length_c 22.148275
_cell_angle_alpha 130.768461
_cell_angle_beta 74.110361
_cell_angle_gamma 118.122546
_cell_volume 667.808096
_symmetry_space_group_name_H-M "P -1"
_symmetry_group_IT_number 2
_symmetry_cell_setting 'triclinic'
loop_
_space_group_symop_operation_xyz
x,y,z
-x,-y,-z
loop_
_atom_site_type_symbol
_atom_site_label
_atom_site_fract_x
_atom_site_fract_y
_atom_site_fract_z
Si Si1 0.895929 0.833934 0.713226
Si Si2 0.963762 0.676411 0.227665
Si Si3 0.323392 0.073893 0.981088
Si Si4 0.468841 0.560633 0.137543
Si Si5 0.749310 0.060344 0.182107
Si Si6 0.676449 0.522454 0.334206
Si Si7 0.168427 0.777028 0.567183
Si Si8 0.298318 0.263592 0.491060
O O1 0.658763 0.575994 0.661056
O O2 0.145283 0.832345 0.652560
O O3 0.864789 0.057703 0.740702
O O4 0.950338 0.884082 0.793138
O O5 0.700633 0.574173 0.174787
O O6 0.824029 0.654110 0.296781
O O7 0.171728 0.542999 0.179677
O O8 0.315232 0.961477 0.889181
O O9 0.441368 0.352717 0.043827
O O10 0.500000 0.000000 0.000000
O O11 0.000000 0.000000 0.000000
O O12 0.580519 0.804708 0.156096
O O13 0.695383 0.274125 0.265019
O O14 0.788917 0.662184 0.421826
O O15 0.488676 0.861412 0.547155
O O16 0.000000 0.500000 0.500000
O O17 0.974423 0.864640 0.561642
O O18 0.500000 0.500000 0.500000
#
# Coordination Sequence:
#
# PCOD9087205 Si02
#       8
#     2   2   2   2   2   2   2   2
#     4  11  24  43  67  99 134 177 225 282 329 404
#     4  11  27  43  68 102 136 172 228 279 334 391
#     4  12  27  45  69 102 139 175 223 275 330 400
#     4  11  24  49  65 100 138 175 223 280 322 411
#     4  11  25  42  73  97 132 184 224 269 348 388
#     4  12  23  41  70  95 136 177 227 275 343 391
#     4  10  19  36  62  88 130 169 221 268 329 386
#     4  10  20  35  61  93 124 177 218 270 326 401
#
# _framework density 23.958977999999998
#
# number of rings (size 3 to 8) (size 9 to 14) (size 15 to 20)
#    0.000    1.000    3.750    4.125    5.250    0.000 
#    0.000    4.375    0.000    0.000    0.000    0.000 
#    0.000    0.000    0.000    0.000    0.000    0.000 
#
# Total GULP energy -89348.421743 kJ/mol
# GULP energy per Si atom -5584.276359 kJ/mol
# Density = 2.390445 g / cm^3
# Si number density = 23.958978 Si / 1000 Ang^3
#
#
#
# Elastic Constant Matrix: (Units=GPa)
#
#
# Indices 1 2 3 4 5 6 
#
# 1 149.8444 29.4648 52.7858 -15.3170 13.2341 1.9354
# 2 29.4648 62.3336 20.8607 1.1026 23.9149 -9.8795
# 3 52.7858 20.8607 136.1468 -17.5190 21.5990 -15.9437
# 4 -15.3170 1.1026 -17.5190 43.7322 -12.3112 0.4215
# 5 13.2341 23.9149 21.5990 -12.3112 35.5728 -3.2053
# 6 1.9354 -9.8795 -15.9437 0.4215 -3.2053 16.4776
#
#
#
# Elastic Compliance Matrix: (Units=1/GPa)
#
#
# Indices 1 2 3 4 5 6 
#
# 1 0.009152 -0.005345 -0.003673 0.002696 0.002687 -0.007380
# 2 -0.005345 0.027842 0.001664 -0.007377 -0.018901 0.015444
# 3 -0.003673 0.001664 0.010738 0.001527 -0.004766 0.010853
# 4 0.002696 -0.007377 0.001527 0.028183 0.012646 -0.001524
# 5 0.002687 -0.018901 -0.004766 0.012646 0.046408 -0.007556
# 6 -0.007380 0.015444 0.010853 -0.001524 -0.007556 0.079885
#
#
# Mechanical properties :
#
#
# Convention : Reuss Voigt Hill
#
# Bulk Modulus (GPa) = 30.28103 61.61638 45.94870
# Shear Modulus (GPa) = 21.93706 35.50407 28.72056
#
# Velocity S-wave (km/s) = 3.02919 3.85368 3.46604
# Velocity P-wave (km/s) = 4.99007 6.75088 5.93613
#
# Compressibility (1/GPa) = 0.03302398
#
# Stress axis : x y z
#
# Youngs Moduli (GPa) = 109.26349 35.91648 93.13138
#
# Poissons Ratio (x) = 0.19198 0.34207
# Poissons Ratio (y) = 0.58405 -0.15499
# Poissons Ratio (z) = 0.40132 -0.05977
#
# Static dielectric constant tensor:
#      x y z
#    x 2.159950 -0.033160 0.011520 
#    y -0.033160 1.938580 0.004410 
#    z 0.011520 0.004410 1.882270 
# 
# From -- ./inp_files/356059.got.cif
#   From: 2010.05.17/outbox.cif.g08.bks.cpg/sg2_179_cif.got.tgz:356059.got - 2010.06.03 11:33:40.
