data_PCOD9087225
_publ_section_title
;
Structure prediction by ZEFSAII (Michael W. Deem and Ramdas Pophale) SiO2 
 PCOD9087225
Probable space group: P -1
;
_chemical_formula_sum "Si O2"
_cell_formula_units_Z 16
_cell_length_a 14.212745
_cell_length_b 13.312523
_cell_length_c 7.279350
_cell_angle_alpha 73.438796
_cell_angle_beta 117.099168
_cell_angle_gamma 148.726235
_cell_volume 620.082561
_symmetry_space_group_name_H-M "P -1"
_symmetry_group_IT_number 2
_symmetry_cell_setting 'triclinic'
loop_
_space_group_symop_operation_xyz
x,y,z
-x,-y,-z
loop_
_atom_site_type_symbol
_atom_site_label
_atom_site_fract_x
_atom_site_fract_y
_atom_site_fract_z
Si Si1 0.746539 0.625872 0.652644
Si Si2 0.297268 0.029363 0.330893
Si Si3 0.144193 0.656561 0.817709
Si Si4 0.296709 0.181922 0.560452
Si Si5 0.736219 0.360842 0.395621
Si Si6 0.958465 0.300418 0.986288
Si Si7 0.249610 0.174103 0.934546
Si Si8 0.280380 0.422708 0.787211
O O1 0.534546 0.408229 0.658554
O O2 0.778783 0.776942 0.634520
O O3 0.915699 0.693862 0.845008
O O4 0.728374 0.598382 0.430254
O O5 0.265407 0.047105 0.496321
O O6 0.531247 0.205084 0.405964
O O7 0.223864 0.063445 0.118686
O O8 0.172708 0.828499 0.244622
O O9 0.283349 0.743696 0.724797
O O10 0.925732 0.496209 0.620034
O O11 0.185406 0.784177 0.929912
O O12 0.114797 0.525816 0.975849
O O13 0.205201 0.103286 0.722730
O O14 0.787570 0.516830 0.266500
O O15 0.175651 0.230626 0.872975
O O16 0.491760 0.387851 0.043311
#
# Coordination Sequence:
#
# PCOD9087225 Si02
#       8
#     2   2   2   2   2   2   2   2
#     4  10  19  36  62  89 124 163 201 245 288 369
#     4  11  23  41  60  95 130 155 195 258 308 359
#     4  10  23  42  64  85 111 162 219 251 300 362
#     4  10  20  36  63  92 124 163 204 235 296 375
#     4  10  20  41  64  87 117 157 209 259 295 353
#     4  11  24  41  61  90 123 159 202 259 310 352
#     4   9  19  33  59  95 119 156 200 235 298 368
#     4   9  16  34  60  90 117 156 199 246 287 360
#
# _framework density 25.803016
#
# number of rings (size 3 to 8) (size 9 to 14) (size 15 to 20)
#    0.000    2.000    3.750    0.000    5.250    1.500 
#    4.500    2.500    0.000    0.000    0.000    0.000 
#    0.000    0.000    0.000    0.000    0.000    0.000 
#
# Total GULP energy -89575.614413 kJ/mol
# GULP energy per Si atom -5598.475901 kJ/mol
# Density = 2.574429 g / cm^3
# Si number density = 25.803016 Si / 1000 Ang^3
#
#
#
# Elastic Constant Matrix: (Units=GPa)
#
#
# Indices 1 2 3 4 5 6 
#
# 1 145.5815 23.1714 42.0883 19.3102 -2.0842 -11.8237
# 2 23.1714 41.7861 11.0882 13.5914 9.0564 -1.2238
# 3 42.0883 11.0882 80.3866 2.3811 -2.1203 -3.6005
# 4 19.3102 13.5914 2.3811 34.0609 -15.2995 -5.0004
# 5 -2.0842 9.0564 -2.1203 -15.2995 36.7262 -2.8756
# 6 -11.8237 -1.2238 -3.6005 -5.0004 -2.8756 30.4432
#
#
#
# Elastic Compliance Matrix: (Units=1/GPa)
#
#
# Indices 1 2 3 4 5 6 
#
# 1 0.009187 -0.002571 -0.004253 -0.003762 -0.000477 0.002299
# 2 -0.002571 0.038129 -0.004002 -0.023245 -0.019904 -0.005637
# 3 -0.004253 -0.004002 0.015225 0.004770 0.003699 0.001121
# 4 -0.003762 -0.023245 0.004770 0.055188 0.029569 0.010027
# 5 -0.000477 -0.019904 0.003699 0.029569 0.045314 0.008589
# 6 0.002299 -0.005637 0.001121 0.010027 0.008589 0.036105
#
#
# Mechanical properties :
#
#
# Convention : Reuss Voigt Hill
#
# Bulk Modulus (GPa) = 24.45742 46.71667 35.58704
# Shear Modulus (GPa) = 21.32827 33.00647 27.16737
#
# Velocity S-wave (km/s) = 2.87815 3.58043 3.24832
# Velocity P-wave (km/s) = 4.53256 5.93608 5.28115
#
# Compressibility (1/GPa) = 0.04088739
#
# Stress axis : x y z
#
# Youngs Moduli (GPa) = 108.85188 26.22691 65.67972
#
# Poissons Ratio (x) = 0.06744 0.27937
# Poissons Ratio (y) = 0.27989 0.26285
# Poissons Ratio (z) = 0.46300 0.10496
#
# Static dielectric constant tensor:
#      x y z
#    x 2.059120 -0.015580 -0.032220 
#    y -0.015580 2.106390 0.004760 
#    z -0.032220 0.004760 1.995970 
# 
# From -- ./inp_files/305170.got.cif
#   From: 2010.05.17/outbox.cif.g08.bks.cpg/sg2_153_cif.got.tgz:305170.got - 2010.06.03 11:33:40.
