data_PCOD9087727
_publ_section_title
;
Structure prediction by ZEFSAII (Michael W. Deem and Ramdas Pophale) SiO2 
 PCOD9087727
Probable space group: P -1
;
_chemical_formula_sum "Si O2"
_cell_formula_units_Z 16
_cell_length_a 11.387143
_cell_length_b 8.875776
_cell_length_c 8.292927
_cell_angle_alpha 92.750421
_cell_angle_beta 75.199939
_cell_angle_gamma 82.105077
_cell_volume 799.649687
_symmetry_space_group_name_H-M "P -1"
_symmetry_group_IT_number 2
_symmetry_cell_setting 'triclinic'
loop_
_space_group_symop_operation_xyz
x,y,z
-x,-y,-z
loop_
_atom_site_type_symbol
_atom_site_label
_atom_site_fract_x
_atom_site_fract_y
_atom_site_fract_z
Si Si1 0.528053 0.380017 0.628793
Si Si2 0.046361 0.652957 0.444796
Si Si3 0.710615 0.520816 0.784198
Si Si4 0.622983 0.042801 0.536598
Si Si5 0.014674 0.077906 0.321999
Si Si6 0.291707 0.134975 0.200572
Si Si7 0.863740 0.852295 0.274577
Si Si8 0.694967 0.706589 0.104105
O O1 0.500000 0.500000 0.500000
O O2 0.589868 0.463452 0.755845
O O3 0.616636 0.224834 0.538867
O O4 0.405678 0.320748 0.732370
O O5 0.176690 0.605784 0.312229
O O6 0.053360 0.752952 0.608009
O O7 0.000000 0.500000 0.500000
O O8 0.944874 0.740430 0.364640
O O9 0.719931 0.690400 0.716882
O O10 0.715676 0.558280 0.973756
O O11 0.500000 0.000000 0.500000
O O12 0.631232 0.984518 0.715023
O O13 0.742662 0.948091 0.404844
O O14 0.155711 0.089135 0.236580
O O15 0.950344 0.979224 0.213965
O O16 0.000000 0.000000 0.500000
O O17 0.345280 0.158051 0.005439
O O18 0.815165 0.752872 0.147032
#
# Coordination Sequence:
#
# PCOD9087727 Si02
#       8
#     2   2   2   2   2   2   2   2
#     4  12  26  43  73  96 128 172 228 274 320 392
#     4  11  19  36  70  94 128 174 214 273 317 379
#     4  10  23  42  64  97 133 176 213 263 340 380
#     4  12  22  42  72  99 123 173 226 273 321 386
#     4  10  19  36  66  94 126 164 219 266 309 377
#     4  10  22  43  65  97 137 166 219 265 330 388
#     4  11  23  41  64  98 132 167 227 263 322 394
#     4  10  25  45  63  94 142 173 209 275 333 387
#
# _framework density 20.008762999999998
#
# number of rings (size 3 to 8) (size 9 to 14) (size 15 to 20)
#    0.750    0.500    5.000    1.875    3.500    1.500 
#    0.000    0.000    0.000    0.000    0.000    0.000 
#    0.000    0.000    0.000    0.000    0.000    0.000 
#
# Total GULP energy -89184.688701 kJ/mol
# GULP energy per Si atom -5574.043044 kJ/mol
# Density = 1.996322 g / cm^3
# Si number density = 20.008763 Si / 1000 Ang^3
#
#
#
# Elastic Constant Matrix: (Units=GPa)
#
#
# Indices 1 2 3 4 5 6 
#
# 1 107.5474 51.7856 30.1003 6.9409 16.3820 16.0737
# 2 51.7856 120.8675 32.8203 3.2157 13.3792 4.1222
# 3 30.1003 32.8203 65.9789 -2.7167 10.0079 2.2894
# 4 6.9409 3.2157 -2.7167 36.1477 11.4501 7.8385
# 5 16.3820 13.3792 10.0079 11.4501 34.2095 6.8713
# 6 16.0737 4.1222 2.2894 7.8385 6.8713 45.4502
#
#
#
# Elastic Compliance Matrix: (Units=1/GPa)
#
#
# Indices 1 2 3 4 5 6 
#
# 1 0.013353 -0.004347 -0.003427 -0.000797 -0.002700 -0.003610
# 2 -0.004347 0.011192 -0.003406 -0.000167 -0.001432 0.000939
# 3 -0.003427 -0.003406 0.019134 0.003521 -0.003911 0.000541
# 4 -0.000797 -0.000167 0.003521 0.032294 -0.010620 -0.003844
# 5 -0.002700 -0.001432 -0.003911 -0.010620 0.036259 -0.002369
# 6 -0.003610 0.000939 0.000541 -0.003844 -0.002369 0.024187
#
#
# Mechanical properties :
#
#
# Convention : Reuss Voigt Hill
#
# Bulk Modulus (GPa) = 46.91122 58.20071 52.55596
# Shear Modulus (GPa) = 30.14105 35.14066 32.64086
#
# Velocity S-wave (km/s) = 3.88544 4.19533 4.04335
# Velocity P-wave (km/s) = 6.60493 7.25386 6.93698
#
# Compressibility (1/GPa) = 0.02131686
#
# Stress axis : x y z
#
# Youngs Moduli (GPa) = 74.89023 89.35017 52.26345
#
# Poissons Ratio (x) = 0.38843 0.17912
# Poissons Ratio (y) = 0.32556 0.17803
# Poissons Ratio (z) = 0.25667 0.30436
#
# Static dielectric constant tensor:
#      x y z
#    x 1.706800 0.016900 -0.005780 
#    y 0.016900 1.716990 0.024220 
#    z -0.005780 0.024220 1.760550 
# 
# From -- ./inp_files/239675.got.cif
#   From: 2010.05.17/outbox.cif.g08.bks.cpg/sg2_120_cif.got.tgz:239675.got - 2010.06.03 11:33:40.
