data_PCOD9087659
_publ_section_title
;
Structure prediction by ZEFSAII (Michael W. Deem and Ramdas Pophale) SiO2 
 PCOD9087659
Probable space group: P -1
;
_chemical_formula_sum "Si O2"
_cell_formula_units_Z 16
_cell_length_a 11.543563
_cell_length_b 9.418084
_cell_length_c 15.699572
_cell_angle_alpha 74.518007
_cell_angle_beta 47.706610
_cell_angle_gamma 38.021006
_cell_volume 634.807654
_symmetry_space_group_name_H-M "P -1"
_symmetry_group_IT_number 2
_symmetry_cell_setting 'triclinic'
loop_
_space_group_symop_operation_xyz
x,y,z
-x,-y,-z
loop_
_atom_site_type_symbol
_atom_site_label
_atom_site_fract_x
_atom_site_fract_y
_atom_site_fract_z
Si Si1 0.030408 0.115964 0.694837
Si Si2 0.931987 0.885945 0.848572
Si Si3 0.561133 0.705198 0.380462
Si Si4 0.916811 0.901302 0.580817
Si Si5 0.230531 0.452248 0.386759
Si Si6 0.520766 0.823565 0.101725
Si Si7 0.401302 0.961298 0.869157
Si Si8 0.039417 0.572338 0.198663
O O1 0.852581 0.351849 0.672612
O O2 0.083563 0.182489 0.736159
O O3 0.343130 0.822876 0.542812
O O4 0.871833 0.098681 0.812589
O O5 0.256135 0.569992 0.712236
O O6 0.703783 0.956909 0.901409
O O7 0.857070 0.929359 0.977591
O O8 0.333971 0.953089 0.384291
O O9 0.787520 0.649724 0.306308
O O10 0.739656 0.046389 0.733697
O O11 0.000000 0.000000 0.500000
O O12 0.192294 0.569536 0.476977
O O13 0.523021 0.143405 0.247772
O O14 0.000000 0.500000 0.500000
O O15 0.657424 0.826396 0.102686
O O16 0.795843 0.536057 0.956757
O O17 0.708359 0.682396 0.816274
#
# Coordination Sequence:
#
# PCOD9087659 Si02
#       8
#     2   2   2   2   2   2   2   2
#     4  10  23  35  58  94 120 151 201 254 292 343
#     4  11  21  39  64  90 120 157 199 246 301 345
#     4  11  21  40  59  86 122 159 197 239 300 359
#     4  11  25  40  59  91 121 157 200 244 300 355
#     4  10  20  38  59  85 120 158 194 238 297 353
#     4  11  19  37  64  87 119 158 201 242 292 359
#     4  10  19  36  65  90 115 156 204 243 290 356
#     4  10  20  37  60  90 115 152 202 248 295 345
#
# _framework density 25.204484999999998
#
# number of rings (size 3 to 8) (size 9 to 14) (size 15 to 20)
#    0.000    1.500    3.750    3.000    0.000    6.000 
#    0.000    2.500    0.000    1.500    0.000    0.000 
#    0.000    0.000    0.000    0.000    0.000    0.000 
#
# Total GULP energy -89304.344527 kJ/mol
# GULP energy per Si atom -5581.521533 kJ/mol
# Density = 2.514712 g / cm^3
# Si number density = 25.204485 Si / 1000 Ang^3
#
#
#
# Elastic Constant Matrix: (Units=GPa)
#
#
# Indices 1 2 3 4 5 6 
#
# 1 43.4937 -2.4090 -2.6363 -0.7177 2.5503 -1.3970
# 2 -2.4090 40.6341 -0.6845 -6.6367 -5.3444 5.5888
# 3 -2.6363 -0.6845 144.3153 -2.4470 25.2138 15.2333
# 4 -0.7177 -6.6367 -2.4470 40.8123 3.4016 -4.6569
# 5 2.5503 -5.3444 25.2138 3.4016 26.6246 -1.0151
# 6 -1.3970 5.5888 15.2333 -4.6569 -1.0151 34.5449
#
#
#
# Elastic Compliance Matrix: (Units=1/GPa)
#
#
# Indices 1 2 3 4 5 6 
#
# 1 0.023313 0.001103 0.000929 0.000940 -0.002997 0.000393
# 2 0.001103 0.026360 -0.000279 0.003486 0.004872 -0.003484
# 3 0.000929 -0.000279 0.008928 0.000787 -0.008853 -0.004008
# 4 0.000940 0.003486 0.000787 0.025694 -0.003323 0.002493
# 5 -0.002997 0.004872 -0.008853 -0.003323 0.047784 0.003951
# 6 0.000393 -0.003484 -0.004008 0.002493 0.003951 0.031747
#
#
# Mechanical properties :
#
#
# Convention : Reuss Voigt Hill
#
# Bulk Modulus (GPa) = 16.10125 24.10927 20.10526
# Shear Modulus (GPa) = 27.62084 36.00788 31.81436
#
# Velocity S-wave (km/s) = 3.31398 3.78382 3.55667
# Velocity P-wave (km/s) = 4.58753 5.35500 4.98605
#
# Compressibility (1/GPa) = 0.06210699
#
# Stress axis : x y z
#
# Youngs Moduli (GPa) = 42.89435 37.93658 112.00486
#
# Poissons Ratio (x) = -0.04185 -0.10406
# Poissons Ratio (y) = -0.04731 0.03127
# Poissons Ratio (z) = -0.03985 0.01059
#
# Static dielectric constant tensor:
#      x y z
#    x 2.024830 -0.012890 0.065650 
#    y -0.012890 2.097390 0.025610 
#    z 0.065650 0.025610 2.063480 
# 
# From -- ./inp_files/176372.got.cif
#   From: 2010.05.17/outbox.cif.g08.bks.cpg/sg2_89_cif.got.tgz:176372.got - 2010.06.03 11:33:40.
