data_PCOD9087208
_publ_section_title
;
Structure prediction by ZEFSAII (Michael W. Deem and Ramdas Pophale) SiO2 
 PCOD9087208
Probable space group: P -1
;
_chemical_formula_sum "Si O2"
_cell_formula_units_Z 16
_cell_length_a 13.710932
_cell_length_b 17.524406
_cell_length_c 13.573098
_cell_angle_alpha 133.550494
_cell_angle_beta 159.804971
_cell_angle_gamma 44.702305
_cell_volume 788.717606
_symmetry_space_group_name_H-M "P -1"
_symmetry_group_IT_number 2
_symmetry_cell_setting 'triclinic'
loop_
_space_group_symop_operation_xyz
x,y,z
-x,-y,-z
loop_
_atom_site_type_symbol
_atom_site_label
_atom_site_fract_x
_atom_site_fract_y
_atom_site_fract_z
Si Si1 0.970411 0.609589 0.845140
Si Si2 0.309613 0.865515 0.856309
Si Si3 0.756710 0.290652 0.527943
Si Si4 0.850035 0.543682 0.294932
Si Si5 0.507291 0.483543 0.333685
Si Si6 0.675621 0.330573 0.182195
Si Si7 0.787055 0.993660 0.386351
Si Si8 0.279722 0.216933 0.108271
O O1 0.127755 0.559814 0.849085
O O2 0.689427 0.562107 0.532648
O O3 0.872338 0.736978 0.892094
O O4 0.175890 0.555599 0.084599
O O5 0.253084 0.789689 0.644661
O O6 0.306755 0.794315 0.888006
O O7 0.028236 0.969079 0.679348
O O8 0.602595 0.902276 0.140814
O O9 0.699338 0.411858 0.537537
O O10 0.471992 0.298212 0.330133
O O11 0.033888 0.233694 0.806036
O O12 0.028526 0.629610 0.500513
O O13 0.000000 0.500000 0.500000
O O14 0.516778 0.615424 0.045062
O O15 0.492326 0.392639 0.156801
O O16 0.522981 0.102653 0.237734
O O17 0.000000 0.000000 0.500000
#
# Coordination Sequence:
#
# PCOD9087208 Si02
#       8
#     2   2   2   2   2   2   2   2
#     4  10  21  36  51  75 112 140 173 223 267 329
#     4  11  22  37  56  74 110 147 190 241 266 306
#     4  11  22  33  52  74 101 147 191 224 264 309
#     4  10  19  36  62  89 111 134 169 217 278 347
#     4   9  19  35  51  72 106 145 180 215 262 323
#     4   9  19  35  56  86 109 138 177 219 275 332
#     4  12  24  37  52  76 103 151 203 241 270 296
#     4  12  24  34  48  75 105 145 194 229 264 314
#
# _framework density 20.286096000000001
#
# number of rings (size 3 to 8) (size 9 to 14) (size 15 to 20)
#    0.000    1.500    1.250    4.500    0.000    7.000 
#    0.000    0.000    0.000    0.000    0.000    5.250 
#    0.000    0.000    0.000    0.000    0.000    0.000 
#
# Total GULP energy -89104.521085 kJ/mol
# GULP energy per Si atom -5569.032568 kJ/mol
# Density = 2.023992 g / cm^3
# Si number density = 20.286096 Si / 1000 Ang^3
#
#
#
# Elastic Constant Matrix: (Units=GPa)
#
#
# Indices 1 2 3 4 5 6 
#
# 1 38.3785 23.6310 10.8007 -4.5746 -9.6685 0.3853
# 2 23.6310 75.8751 21.9271 -9.5465 -0.1977 2.8776
# 3 10.8007 21.9271 116.0869 -16.3877 8.9209 2.6500
# 4 -4.5746 -9.5465 -16.3877 30.1580 6.5418 1.2447
# 5 -9.6685 -0.1977 8.9209 6.5418 27.1446 -4.9325
# 6 0.3853 2.8776 2.6500 1.2447 -4.9325 20.9198
#
#
#
# Elastic Compliance Matrix: (Units=1/GPa)
#
#
# Indices 1 2 3 4 5 6 
#
# 1 0.037545 -0.011352 -0.003176 -0.003333 0.016094 0.005265
# 2 -0.011352 0.017748 -0.001164 0.004559 -0.005285 -0.003602
# 3 -0.003176 -0.001164 0.010644 0.006533 -0.006779 -0.003117
# 4 -0.003333 0.004559 0.006533 0.041096 -0.014525 -0.007263
# 5 0.016094 -0.005285 -0.006779 -0.014525 0.050831 0.014138
# 6 0.005265 -0.003602 -0.003117 -0.007263 0.014138 0.052360
#
#
# Mechanical properties :
#
#
# Convention : Reuss Voigt Hill
#
# Bulk Modulus (GPa) = 28.94298 38.11759 33.53028
# Shear Modulus (GPa) = 19.75293 27.24327 23.49810
#
# Velocity S-wave (km/s) = 3.12383 3.66861 3.40712
# Velocity P-wave (km/s) = 5.22585 6.06430 5.66062
#
# Compressibility (1/GPa) = 0.03455069
#
# Stress axis : x y z
#
# Youngs Moduli (GPa) = 26.63501 56.34424 93.95047
#
# Poissons Ratio (x) = 0.63964 0.29842
# Poissons Ratio (y) = 0.30237 0.10938
# Poissons Ratio (z) = 0.08460 0.06560
#
# Static dielectric constant tensor:
#      x y z
#    x 1.808730 -0.028830 -0.008300 
#    y -0.028830 1.856300 -0.002280 
#    z -0.008300 -0.002280 1.771200 
# 
# From -- ./inp_files/534385.got.cif
#   From: 2010.05.17/outbox.cif.g08.bks.cpg/sg2_268_cif.got.tgz:534385.got - 2010.06.03 11:33:40.
