data_PCOD9087294
_publ_section_title
;
Structure prediction by ZEFSAII (Michael W. Deem and Ramdas Pophale) SiO2 
 PCOD9087294
Probable space group: P -1
;
_chemical_formula_sum "Si O2"
_cell_formula_units_Z 16
_cell_length_a 11.981276
_cell_length_b 7.711806
_cell_length_c 7.999745
_cell_angle_alpha 74.961129
_cell_angle_beta 114.806198
_cell_angle_gamma 99.281615
_cell_volume 646.814529
_symmetry_space_group_name_H-M "P -1"
_symmetry_group_IT_number 2
_symmetry_cell_setting 'triclinic'
loop_
_space_group_symop_operation_xyz
x,y,z
-x,-y,-z
loop_
_atom_site_type_symbol
_atom_site_label
_atom_site_fract_x
_atom_site_fract_y
_atom_site_fract_z
Si Si1 0.995768 0.727197 0.599051
Si Si2 0.270511 0.753554 0.425823
Si Si3 0.612521 0.403039 0.778744
Si Si4 0.261134 0.254105 0.060782
Si Si5 0.359626 0.965874 0.974048
Si Si6 0.984392 0.656587 0.219964
Si Si7 0.613799 0.521506 0.199010
Si Si8 0.796521 0.971323 0.449773
O O1 0.034458 0.556398 0.768233
O O2 0.960201 0.679591 0.397209
O O3 0.103737 0.878212 0.599420
O O4 0.875631 0.805051 0.584254
O O5 0.358342 0.685653 0.356328
O O6 0.130234 0.709198 0.285042
O O7 0.313407 0.641570 0.642172
O O8 0.269429 0.954044 0.448273
O O9 0.675738 0.603468 0.801864
O O10 0.664060 0.249603 0.971972
O O11 0.465975 0.404464 0.717310
O O12 0.322610 0.068286 0.095838
O O13 0.289746 0.362575 0.878531
O O14 0.112397 0.237372 0.975071
O O15 0.291050 0.051503 0.755614
O O16 0.500000 0.000000 0.000000
O O17 0.500000 0.500000 0.000000
#
# Coordination Sequence:
#
# PCOD9087294 Si02
#       8
#     2   2   2   2   2   2   2   2
#     4   9  17  33  61  90 122 155 214 276 309 361
#     4  11  24  40  64  95 136 168 201 265 340 383
#     4  11  25  44  61  94 138 172 208 265 328 382
#     4  11  22  42  70  94 124 172 227 265 307 376
#     4  12  24  41  68  94 122 169 227 267 310 380
#     4  10  19  36  62  95 123 165 215 263 317 381
#     4  10  20  40  69  90 118 169 217 259 309 373
#     4  10  20  36  61  93 121 160 213 271 318 370
#
# _framework density 24.736612000000001
#
# number of rings (size 3 to 8) (size 9 to 14) (size 15 to 20)
#    0.000    1.500    2.500    4.875    1.750    0.500 
#    2.250    1.250    0.000    0.000    0.000    0.000 
#    0.000    0.000    0.000    0.000    0.000    0.000 
#
# Total GULP energy -89320.206572 kJ/mol
# GULP energy per Si atom -5582.512911 kJ/mol
# Density = 2.468031 g / cm^3
# Si number density = 24.736612 Si / 1000 Ang^3
#
#
#
# Elastic Constant Matrix: (Units=GPa)
#
#
# Indices 1 2 3 4 5 6 
#
# 1 53.6871 15.9287 23.3582 -3.5016 -5.8519 -29.0657
# 2 15.9287 103.5850 7.9794 3.9136 8.4601 -34.2458
# 3 23.3582 7.9794 59.2030 4.3742 9.7947 -5.4741
# 4 -3.5016 3.9136 4.3742 20.4715 -12.9292 7.1675
# 5 -5.8519 8.4601 9.7947 -12.9292 36.1589 9.8643
# 6 -29.0657 -34.2458 -5.4741 7.1675 9.8643 46.0950
#
#
#
# Elastic Compliance Matrix: (Units=1/GPa)
#
#
# Indices 1 2 3 4 5 6 
#
# 1 0.036159 0.001547 -0.013931 0.005340 0.005647 0.020256
# 2 0.001547 0.020910 0.005137 -0.029214 -0.023777 0.026751
# 3 -0.013931 0.005137 0.027940 -0.025860 -0.022216 0.007126
# 4 0.005340 -0.029214 -0.025860 0.129804 0.076957 -0.058060
# 5 0.005647 -0.023777 -0.022216 0.076957 0.080180 -0.045868
# 6 0.020256 0.026751 0.007126 -0.058060 -0.045868 0.074032
#
#
# Mechanical properties :
#
#
# Convention : Reuss Voigt Hill
#
# Bulk Modulus (GPa) = 14.18124 34.55640 24.36882
# Shear Modulus (GPa) = 12.28431 31.82568 22.05499
#
# Velocity S-wave (km/s) = 2.23088 3.59079 2.98920
# Velocity P-wave (km/s) = 3.51868 5.58496 4.66759
#
# Compressibility (1/GPa) = 0.07051569
#
# Stress axis : x y z
#
# Youngs Moduli (GPa) = 27.65573 47.82375 35.79121
#
# Poissons Ratio (x) = -0.07397 0.49859
# Poissons Ratio (y) = -0.04278 -0.18387
# Poissons Ratio (z) = 0.38526 -0.24568
#
# Static dielectric constant tensor:
#      x y z
#    x 2.039160 -0.026970 0.012340 
#    y -0.026970 2.063130 0.000030 
#    z 0.012340 0.000030 2.037830 
# 
# From -- ./inp_files/238710.got.cif
#   From: 2010.05.17/outbox.cif.g08.bks.cpg/sg2_120_cif.got.tgz:238710.got - 2010.06.03 11:33:40.
