data_PCOD9087398
_publ_section_title
;
Structure prediction by ZEFSAII (Michael W. Deem and Ramdas Pophale) SiO2 
 PCOD9087398
Probable space group: P -1
;
_chemical_formula_sum "Si O2"
_cell_formula_units_Z 14
_cell_length_a 8.025836
_cell_length_b 11.418836
_cell_length_c 8.960738
_cell_angle_alpha 117.995307
_cell_angle_beta 47.662213
_cell_angle_gamma 113.071881
_cell_volume 532.377575
_symmetry_space_group_name_H-M "P -1"
_symmetry_group_IT_number 2
_symmetry_cell_setting 'triclinic'
loop_
_space_group_symop_operation_xyz
x,y,z
-x,-y,-z
loop_
_atom_site_type_symbol
_atom_site_label
_atom_site_fract_x
_atom_site_fract_y
_atom_site_fract_z
Si Si1 0.935367 0.374207 0.175269
Si Si2 0.260394 0.435264 0.229343
Si Si3 0.585932 0.842241 0.463833
Si Si4 0.248853 0.968459 0.279914
Si Si5 0.651357 0.550845 0.266191
Si Si6 0.596717 0.266958 0.792055
Si Si7 0.933479 0.075228 0.937774
O O1 0.996582 0.398732 0.327346
O O2 0.763385 0.468970 0.273401
O O3 0.159740 0.414544 0.958946
O O4 0.858947 0.219232 0.107458
O O5 0.429836 0.464386 0.281811
O O6 0.300307 0.580999 0.210990
O O7 0.354689 0.301668 0.021336
O O8 0.598159 0.695670 0.434654
O O9 0.422536 0.815501 0.401730
O O10 0.826591 0.891504 0.271865
O O11 0.571822 0.945120 0.668645
O O12 0.276540 0.814856 0.212805
O O13 0.239377 0.994671 0.124215
O O14 0.000000 0.000000 0.500000
O O15 0.000000 0.000000 0.000000
#
# Coordination Sequence:
#
# PCOD9087398 Si02
#       7
#     2   2   2   2   2   2   2
#     4  10  16  27  50  71 100 131 162 216 257 289
#     4  10  16  27  48  79 106 123 160 226 267 286
#     4   9  18  33  50  77 104 133 163 212 261 303
#     4  10  21  31  50  75 102 140 167 207 255 308
#     4   9  16  26  48  78  99 122 167 214 259 297
#     4  10  16  30  49  78 108 123 167 217 264 300
#     4  10  20  34  48  71 105 137 176 208 244 308
#
# _framework density 26.297125999999999
#
# number of rings (size 3 to 8) (size 9 to 14) (size 15 to 20)
#    0.000    2.286    5.714    1.286    6.000    0.000 
#    0.000    0.714    0.000    0.857    0.000    2.000 
#    0.000    0.571    0.000    0.000    0.000    0.000 
#
# Total GULP energy -78224.804839 kJ/mol
# GULP energy per Si atom -5587.486060 kJ/mol
# Density = 2.623727 g / cm^3
# Si number density = 26.297126 Si / 1000 Ang^3
#
#
#
# Elastic Constant Matrix: (Units=GPa)
#
#
# Indices 1 2 3 4 5 6 
#
# 1 130.6282 65.8355 49.3786 3.3765 16.4901 -36.3379
# 2 65.8355 85.0742 69.4469 -0.8706 11.4943 -39.3379
# 3 49.3786 69.4469 133.5075 4.9104 31.3516 -12.0051
# 4 3.3765 -0.8706 4.9104 28.9944 11.6752 -4.8453
# 5 16.4901 11.4943 31.3516 11.6752 45.3017 6.2302
# 6 -36.3379 -39.3379 -12.0051 -4.8453 6.2302 63.4690
#
#
#
# Elastic Compliance Matrix: (Units=1/GPa)
#
#
# Indices 1 2 3 4 5 6 
#
# 1 0.013094 -0.009757 0.001197 -0.000364 -0.003297 0.001972
# 2 -0.009757 0.040519 -0.016261 0.007896 0.000146 0.017040
# 3 0.001197 -0.016261 0.016592 -0.001761 -0.006548 -0.005746
# 4 -0.000364 0.007896 -0.001761 0.041596 -0.012578 0.008763
# 5 -0.003297 0.000146 -0.006548 -0.012578 0.031992 -0.007136
# 6 0.001972 0.017040 -0.005746 0.008763 -0.007136 0.027729
#
#
# Mechanical properties :
#
#
# Convention : Reuss Voigt Hill
#
# Bulk Modulus (GPa) = 48.62810 79.83687 64.23249
# Shear Modulus (GPa) = 21.92816 38.52294 30.22555
#
# Velocity S-wave (km/s) = 2.89080 3.83157 3.39394
# Velocity P-wave (km/s) = 5.44741 7.07107 6.31166
#
# Compressibility (1/GPa) = 0.02056424
#
# Stress axis : x y z
#
# Youngs Moduli (GPa) = 76.36927 24.67972 60.27159
#
# Poissons Ratio (x) = 0.24080 -0.07215
# Poissons Ratio (y) = 0.74512 0.98005
# Poissons Ratio (z) = -0.09142 0.40131
#
# Static dielectric constant tensor:
#      x y z
#    x 2.099040 0.059180 0.008270 
#    y 0.059180 1.991560 -0.062330 
#    z 0.008270 -0.062330 2.192690 
# 
# From -- ./inp_files/172794.got.cif
#   From: 2010.05.17/outbox.cif.g08.bks.cpg/sg2_87_cif.got.tgz:172794.got - 2010.06.03 11:33:40.
