data_PCOD9087741
_publ_section_title
;
Structure prediction by ZEFSAII (Michael W. Deem and Ramdas Pophale) SiO2 
 PCOD9087741
Probable space group: P -1
;
_chemical_formula_sum "Si O2"
_cell_formula_units_Z 14
_cell_length_a 13.433438
_cell_length_b 10.391387
_cell_length_c 11.767553
_cell_angle_alpha 125.327538
_cell_angle_beta 32.113802
_cell_angle_gamma 131.944257
_cell_volume 649.207645
_symmetry_space_group_name_H-M "P -1"
_symmetry_group_IT_number 2
_symmetry_cell_setting 'triclinic'
loop_
_space_group_symop_operation_xyz
x,y,z
-x,-y,-z
loop_
_atom_site_type_symbol
_atom_site_label
_atom_site_fract_x
_atom_site_fract_y
_atom_site_fract_z
Si Si1 0.621402 0.178024 0.404711
Si Si2 0.285635 0.531293 0.095082
Si Si3 0.612561 0.704194 0.494279
Si Si4 0.082343 0.861402 0.092008
Si Si5 0.867986 0.857896 0.959427
Si Si6 0.399995 0.619445 0.279519
Si Si7 0.621484 0.183408 0.033347
O O1 0.798027 0.170664 0.148472
O O2 0.711289 0.339410 0.486749
O O3 0.458308 0.213925 0.501923
O O4 0.500000 0.000000 0.500000
O O5 0.277113 0.664442 0.078930
O O6 0.514040 0.527942 0.861854
O O7 0.127899 0.330224 0.128679
O O8 0.285633 0.590760 0.255657
O O9 0.500000 0.500000 0.500000
O O10 0.619421 0.787815 0.155771
O O11 0.537107 0.773523 0.712769
O O12 0.210204 0.841581 0.063096
O O13 0.847720 0.738022 0.271466
O O14 0.068849 0.044105 0.171427
O O15 0.000000 0.000000 0.000000
O O16 0.500000 0.000000 0.000000
#
# Coordination Sequence:
#
# PCOD9087741 Si02
#       7
#     2   2   2   2   2   2   2
#     4  11  21  39  71 104 128 176 233 294 339 415
#     4   9  20  39  68  96 135 184 220 280 357 412
#     4  11  27  47  66 100 142 187 230 288 354 414
#     4  11  25  42  69 103 137 181 235 284 353 415
#     4  10  19  36  66  98 131 176 227 281 347 408
#     4   9  18  36  67  98 136 173 222 282 355 401
#     4  11  25  44  73 101 142 185 236 284 350 429
#
# _framework density 21.564748999999999
#
# number of rings (size 3 to 8) (size 9 to 14) (size 15 to 20)
#    0.857    0.857    1.429    2.571    4.000    2.857 
#    0.000    0.000    3.143    1.714    0.000    0.000 
#    0.000    0.000    0.000    0.000    0.000    0.000 
#
# Total GULP energy -78040.497307 kJ/mol
# GULP energy per Si atom -5574.321236 kJ/mol
# Density = 2.151567 g / cm^3
# Si number density = 21.564749 Si / 1000 Ang^3
#
#
#
# Elastic Constant Matrix: (Units=GPa)
#
#
# Indices 1 2 3 4 5 6 
#
# 1 159.2023 70.7716 71.4656 -7.7416 17.9116 -3.0244
# 2 70.7716 136.8574 59.0709 6.6999 9.8720 -1.1025
# 3 71.4656 59.0709 89.7784 23.0358 4.4126 14.1697
# 4 -7.7416 6.6999 23.0358 33.7577 11.2484 0.9029
# 5 17.9116 9.8720 4.4126 11.2484 37.6570 -11.6480
# 6 -3.0244 -1.1025 14.1697 0.9029 -11.6480 36.3710
#
#
#
# Elastic Compliance Matrix: (Units=1/GPa)
#
#
# Indices 1 2 3 4 5 6 
#
# 1 0.017254 -0.001225 -0.018300 0.019971 -0.010237 0.004753
# 2 -0.001225 0.011152 -0.007477 0.003069 -0.001589 0.002564
# 3 -0.018300 -0.007477 0.040872 -0.034294 0.012117 -0.012940
# 4 0.019971 0.003069 -0.034294 0.064774 -0.023815 0.005879
# 5 -0.010237 -0.001589 0.012117 -0.023815 0.039936 0.007761
# 6 0.004753 0.002564 -0.012940 0.005879 0.007761 0.035348
#
#
# Mechanical properties :
#
#
# Convention : Reuss Voigt Hill
#
# Bulk Modulus (GPa) = 65.46955 87.60605 76.53780
# Shear Modulus (GPa) = 18.62677 33.85912 26.24295
#
# Velocity S-wave (km/s) = 2.94217 3.96677 3.49225
# Velocity P-wave (km/s) = 6.47821 7.85450 7.19932
#
# Compressibility (1/GPa) = 0.01527428
#
# Stress axis : x y z
#
# Youngs Moduli (GPa) = 57.95862 89.66629 24.46680
#
# Poissons Ratio (x) = 0.10980 0.44774
# Poissons Ratio (y) = 0.07097 0.18294
# Poissons Ratio (z) = 1.06064 0.67046
#
# Static dielectric constant tensor:
#      x y z
#    x 1.826180 -0.039870 -0.024480 
#    y -0.039870 1.785130 0.033490 
#    z -0.024480 0.033490 1.836800 
# 
# From -- ./inp_files/254824.got.cif
#   From: 2010.05.17/outbox.cif.g08.bks.cpg/sg2_128_cif.got.tgz:254824.got - 2010.06.03 11:33:40.
