data_PCOD9087008
_publ_section_title
;
Structure prediction by ZEFSAII (Michael W. Deem and Ramdas Pophale) SiO2 
 PCOD9087008
Probable space group: P -1
;
_chemical_formula_sum "Si O2"
_cell_formula_units_Z 16
_cell_length_a 16.157780
_cell_length_b 19.383404
_cell_length_c 16.066278
_cell_angle_alpha 34.597376
_cell_angle_beta 18.110881
_cell_angle_gamma 37.820793
_cell_volume 887.339212
_symmetry_space_group_name_H-M "P -1"
_symmetry_group_IT_number 2
_symmetry_cell_setting 'triclinic'
loop_
_space_group_symop_operation_xyz
x,y,z
-x,-y,-z
loop_
_atom_site_type_symbol
_atom_site_label
_atom_site_fract_x
_atom_site_fract_y
_atom_site_fract_z
Si Si1 0.088356 0.347742 0.445079
Si Si2 0.852410 0.040461 0.515598
Si Si3 0.178958 0.671536 0.446677
Si Si4 0.281053 0.223261 0.112622
Si Si5 0.354509 0.388578 0.537279
Si Si6 0.319109 0.200862 0.900047
Si Si7 0.823246 0.376711 0.972675
Si Si8 0.607938 0.360349 0.022110
O O1 0.155442 0.481161 0.213765
O O2 0.362377 0.296873 0.275239
O O3 0.960621 0.285508 0.548969
O O4 0.861317 0.361013 0.718836
O O5 0.576345 0.111098 0.730462
O O6 0.794210 0.913278 0.654468
O O7 0.000000 0.000000 0.500000
O O8 0.058127 0.131343 0.188943
O O9 0.283975 0.531718 0.474703
O O10 0.950553 0.686760 0.719407
O O11 0.433434 0.745711 0.154876
O O12 0.292265 0.229511 0.995342
O O13 0.357066 0.319199 0.690865
O O14 0.119715 0.336638 0.756279
O O15 0.627370 0.370396 0.244150
O O16 0.702674 0.315289 0.067169
O O17 0.500000 0.500000 0.000000
#
# Coordination Sequence:
#
# PCOD9087008 Si02
#       8
#     2   2   2   2   2   2   2   2
#     4  10  18  29  45  69 102 137 170 205 245 297
#     4  10  20  38  58  76  94 124 178 234 268 282
#     4  11  21  33  49  76 112 141 165 201 255 314
#     4  11  21  35  55  74 100 137 175 215 256 300
#     4  11  22  34  49  75 113 143 166 203 252 312
#     4  11  22  37  56  76 101 136 176 217 257 298
#     4  10  18  31  47  70 103 140 173 205 248 298
#     4  10  16  27  47  68  94 136 178 204 241 296
#
# _framework density 18.031434999999998
#
# number of rings (size 3 to 8) (size 9 to 14) (size 15 to 20)
#    0.000    1.500    0.000   12.000    0.000    1.000 
#    0.000    0.000    0.000    0.000    0.000    0.000 
#    0.000   70.000    0.000    0.000    0.000    0.000 
#
# Total GULP energy -89254.341842 kJ/mol
# GULP energy per Si atom -5578.396365 kJ/mol
# Density = 1.799040 g / cm^3
# Si number density = 18.031435 Si / 1000 Ang^3
#
#
#
# Elastic Constant Matrix: (Units=GPa)
#
#
# Indices 1 2 3 4 5 6 
#
# 1 77.2598 14.2667 38.8898 -20.1542 -16.5669 16.6926
# 2 14.2667 15.0865 8.2363 -2.6266 2.2575 3.5698
# 3 38.8898 8.2363 126.9396 7.0597 -5.5907 12.3883
# 4 -20.1542 -2.6266 7.0597 14.9941 5.1388 -4.6979
# 5 -16.5669 2.2575 -5.5907 5.1388 32.3493 5.2453
# 6 16.6926 3.5698 12.3883 -4.6979 5.2453 3.4891
#
#
#
# Elastic Compliance Matrix: (Units=1/GPa)
#
#
# Indices 1 2 3 4 5 6 
#
# 1 0.021977 -0.016448 -0.016952 0.062274 -0.012503 0.074521
# 2 -0.016448 0.085458 0.002785 -0.014950 -0.006937 -0.028333
# 3 -0.016952 0.002785 0.012132 -0.020639 -0.006214 0.016731
# 4 0.062274 -0.014950 -0.020639 0.137982 0.014905 -0.045980
# 5 -0.012503 -0.006937 -0.006214 0.014905 0.005118 0.101349
# 6 0.074521 -0.028333 0.016731 -0.045980 0.101349 -0.314605
#
#
# Mechanical properties :
#
#
# Convention : Reuss Voigt Hill
#
# Bulk Modulus (GPa) = 17.14204 38.00793 27.57499
# Shear Modulus (GPa) = 173.99180 20.69273 97.34226
#
# Velocity S-wave (km/s) = 9.83377 3.39129 7.35540
# Velocity P-wave (km/s) = 11.76711 6.03812 9.35210
#
# Compressibility (1/GPa) = 0.05833610
#
# Stress axis : x y z
#
# Youngs Moduli (GPa) = 45.50254 11.70170 82.42701
#
# Poissons Ratio (x) = 0.19247 1.39733
# Poissons Ratio (y) = 0.74843 -0.22959
# Poissons Ratio (z) = 0.77138 -0.03259
#
# Static dielectric constant tensor:
#      x y z
#    x 1.665080 0.011700 -0.030520 
#    y 0.011700 1.604740 -0.012120 
#    z -0.030520 -0.012120 1.638670 
# 
# From -- ./inp_files/477220.got.cif
#   From: 2010.05.17/outbox.cif.g08.bks.cpg/sg2_239_cif.got.tgz:477220.got - 2010.06.03 11:33:40.
