data_PCOD9087780
_publ_section_title
;
Structure prediction by ZEFSAII (Michael W. Deem and Ramdas Pophale) SiO2 
 PCOD9087780
Probable space group: P -1
;
_chemical_formula_sum "Si O2"
_cell_formula_units_Z 13
_cell_length_a 6.630860
_cell_length_b 9.297523
_cell_length_c 10.371128
_cell_angle_alpha 57.636354
_cell_angle_beta 62.335211
_cell_angle_gamma 71.170142
_cell_volume 475.967443
_symmetry_space_group_name_H-M "P -1"
_symmetry_group_IT_number 2
_symmetry_cell_setting 'triclinic'
loop_
_space_group_symop_operation_xyz
x,y,z
-x,-y,-z
loop_
_atom_site_type_symbol
_atom_site_label
_atom_site_fract_x
_atom_site_fract_y
_atom_site_fract_z
Si Si1 0.000000 0.500000 0.000000
Si Si2 0.872105 0.170589 0.329768
Si Si3 0.811723 0.718205 0.166461
Si Si4 0.169225 0.945480 0.176559
Si Si5 0.341400 0.277285 0.225731
Si Si6 0.429272 0.617997 0.157008
Si Si7 0.514487 0.918664 0.326452
O O1 0.868040 0.338001 0.162661
O O2 0.995524 0.578881 0.116164
O O3 0.654866 0.160019 0.487678
O O4 0.098886 0.200540 0.333560
O O5 0.954539 0.999430 0.306703
O O6 0.584020 0.632542 0.229035
O O7 0.739968 0.791933 0.292081
O O8 0.831699 0.893664 0.996260
O O9 0.227166 0.771762 0.160405
O O10 0.380275 0.946619 0.214852
O O11 0.355185 0.432432 0.243489
O O12 0.527257 0.115000 0.270519
O O13 0.392706 0.345363 0.031126
#
# Coordination Sequence:
#
# PCOD9087780 Si02
#       7
#     1   2   2   2   2   2   2
#     4  10  20  34  50  68  92 130 178 196 222 282
#     4  10  20  32  50  71  99 129 161 200 233 287
#     4  10  17  32  51  71  98 130 162 192 235 289
#     4   9  15  30  48  74  97 124 156 190 243 286
#     4  10  17  28  50  82  98 118 156 203 247 280
#     4  10  16  27  52  78 100 121 154 201 243 285
#     4  10  17  31  50  74 100 123 160 200 242 283
#
# _framework density 27.312794
#
# number of rings (size 3 to 8) (size 9 to 14) (size 15 to 20)
#    0.000    2.154    6.154    2.769    0.000    0.615 
#    0.000    6.923    0.000    9.231    0.000    0.000 
#    0.000    0.000    0.000    0.000    0.000    0.000 
#
# Total GULP energy -72495.742672 kJ/mol
# GULP energy per Si atom -5576.595590 kJ/mol
# Density = 2.725063 g / cm^3
# Si number density = 27.312794 Si / 1000 Ang^3
#
#
#
# Elastic Constant Matrix: (Units=GPa)
#
#
# Indices 1 2 3 4 5 6 
#
# 1 64.8861 39.8864 11.4095 1.6185 -7.3190 0.8680
# 2 39.8864 302.2343 76.3121 4.3840 -28.7464 17.3242
# 3 11.4095 76.3121 137.6578 24.5147 -14.3689 7.9300
# 4 1.6185 4.3840 24.5147 37.5723 -11.9640 -21.0618
# 5 -7.3190 -28.7464 -14.3689 -11.9640 13.4127 1.3455
# 6 0.8680 17.3242 7.9300 -21.0618 1.3455 43.6736
#
#
#
# Elastic Compliance Matrix: (Units=1/GPa)
#
#
# Indices 1 2 3 4 5 6 
#
# 1 0.017272 -0.001505 -0.000398 0.003387 0.008625 0.001693
# 2 -0.001505 0.005191 -0.002446 0.005340 0.012385 0.000609
# 3 -0.000398 -0.002446 0.010664 -0.011292 -0.003475 -0.006297
# 4 0.003387 0.005340 -0.011292 0.070561 0.060924 0.032016
# 5 0.008625 0.012385 -0.003475 0.060924 0.154404 0.020171
# 6 0.001693 0.000609 -0.006297 0.032016 0.020171 0.038584
#
#
# Mechanical properties :
#
#
# Convention : Reuss Voigt Hill
#
# Bulk Modulus (GPa) = 40.93364 84.44380 62.68872
# Shear Modulus (GPa) = 15.94818 44.07642 30.01230
#
# Velocity S-wave (km/s) = 2.41904 4.02153 3.31847
# Velocity P-wave (km/s) = 4.77722 7.24900 6.13881
#
# Compressibility (1/GPa) = 0.02442978
#
# Stress axis : x y z
#
# Youngs Moduli (GPa) = 57.89602 192.65871 93.77200
#
# Poissons Ratio (x) = 0.28994 0.03729
# Poissons Ratio (y) = 0.08713 0.22937
# Poissons Ratio (z) = 0.02303 0.47124
#
# Static dielectric constant tensor:
#      x y z
#    x 1.431370 0.370590 -0.105340 
#    y 0.370590 1.998430 0.082110 
#    z -0.105340 0.082110 1.988240 
# 
# From -- ./inp_files/151480.got.cif
#   From: 2010.05.17/outbox.cif.g08.bks.cpg/sg2_76_cif.got.tgz:151480.got - 2010.06.03 11:33:40.
