data_PCOD9087218
_publ_section_title
;
Structure prediction by ZEFSAII (Michael W. Deem and Ramdas Pophale) SiO2 
 PCOD9087218
Probable space group: P -1
;
_chemical_formula_sum "Si O2"
_cell_formula_units_Z 16
_cell_length_a 9.035135
_cell_length_b 14.306066
_cell_length_c 11.627795
_cell_angle_alpha 140.598061
_cell_angle_beta 64.834668
_cell_angle_gamma 93.898312
_cell_volume 769.532504
_symmetry_space_group_name_H-M "P -1"
_symmetry_group_IT_number 2
_symmetry_cell_setting 'triclinic'
loop_
_space_group_symop_operation_xyz
x,y,z
-x,-y,-z
loop_
_atom_site_type_symbol
_atom_site_label
_atom_site_fract_x
_atom_site_fract_y
_atom_site_fract_z
Si Si1 0.162896 0.942968 0.799197
Si Si2 0.445201 0.688953 0.054165
Si Si3 0.727690 0.387098 0.166772
Si Si4 0.223550 0.242368 0.050166
Si Si5 0.344500 0.185491 0.210202
Si Si6 0.035316 0.442105 0.703765
Si Si7 0.600426 0.299110 0.330248
Si Si8 0.745011 0.326556 0.678336
O O1 0.334524 0.842984 0.732058
O O2 0.160697 0.812132 0.582533
O O3 0.184729 0.093561 0.877184
O O4 0.000000 0.000000 0.000000
O O5 0.339355 0.740688 0.258707
O O6 0.301825 0.713129 0.022486
O O7 0.579462 0.771053 0.064373
O O8 0.580730 0.491721 0.835734
O O9 0.867943 0.464012 0.169401
O O10 0.762069 0.300046 0.199014
O O11 0.528081 0.538904 0.403245
O O12 0.233476 0.219535 0.162123
O O13 0.072708 0.422763 0.231732
O O14 0.198146 0.272465 0.441476
O O15 0.466049 0.282210 0.265153
O O16 0.500000 0.000000 0.000000
O O17 0.882861 0.390681 0.750223
#
# Coordination Sequence:
#
# PCOD9087218 Si02
#       8
#     2   2   2   2   2   2   2   2
#     4  12  23  37  61  93 130 158 203 259 312 364
#     4  10  21  41  65  86 124 167 212 251 304 378
#     4  10  19  36  62  89 121 159 201 253 304 366
#     4  11  22  38  62  91 124 166 200 255 312 370
#     4  11  20  35  60  92 124 159 204 253 310 367
#     4  10  23  38  60  90 126 162 207 255 308 368
#     4  10  20  33  55  94 123 154 198 250 307 363
#     4  10  23  41  61  90 122 168 212 254 305 366
#
# _framework density 20.791844999999999
#
# number of rings (size 3 to 8) (size 9 to 14) (size 15 to 20)
#    0.000    1.500    3.750    1.875    0.000    2.000 
#    0.000    0.000    0.000    5.250    0.000    0.000 
#    0.000    0.000    0.000    0.000    0.000    0.000 
#
# Total GULP energy -89144.092154 kJ/mol
# GULP energy per Si atom -5571.505760 kJ/mol
# Density = 2.074452 g / cm^3
# Si number density = 20.791845 Si / 1000 Ang^3
#
#
#
# Elastic Constant Matrix: (Units=GPa)
#
#
# Indices 1 2 3 4 5 6 
#
# 1 82.6087 9.5171 13.4516 -5.4248 2.6302 17.9496
# 2 9.5171 53.1508 20.7545 0.4892 1.4037 11.5356
# 3 13.4516 20.7545 67.7738 0.8175 1.5117 2.9110
# 4 -5.4248 0.4892 0.8175 27.3160 -4.9613 -6.8133
# 5 2.6302 1.4037 1.5117 -4.9613 22.3974 6.9933
# 6 17.9496 11.5356 2.9110 -6.8133 6.9933 32.3443
#
#
#
# Elastic Compliance Matrix: (Units=1/GPa)
#
#
# Indices 1 2 3 4 5 6 
#
# 1 0.014225 0.000079 -0.002558 0.001193 0.001163 -0.007693
# 2 0.000079 0.023263 -0.006779 -0.002088 0.001157 -0.008421
# 3 -0.002558 -0.006779 0.017269 -0.000531 -0.001325 0.002457
# 4 0.001193 -0.002088 -0.000531 0.039875 0.006645 0.007094
# 5 0.001163 0.001157 -0.001325 0.006645 0.049176 -0.010172
# 6 -0.007693 -0.008421 0.002457 0.007094 -0.010172 0.041662
#
#
# Mechanical properties :
#
#
# Convention : Reuss Voigt Hill
#
# Bulk Modulus (GPa) = 27.59082 32.33108 29.96095
# Shear Modulus (GPa) = 23.14103 27.06554 25.10329
#
# Velocity S-wave (km/s) = 3.33976 3.61188 3.47848
# Velocity P-wave (km/s) = 5.30762 5.74263 5.52941
#
# Compressibility (1/GPa) = 0.03624394
#
# Stress axis : x y z
#
# Youngs Moduli (GPa) = 70.29679 42.98588 57.90767
#
# Poissons Ratio (x) = -0.00342 0.14811
# Poissons Ratio (y) = -0.00559 0.39254
# Poissons Ratio (z) = 0.17980 0.29139
#
# Static dielectric constant tensor:
#      x y z
#    x 1.808870 0.024380 0.037580 
#    y 0.024380 1.821870 0.043110 
#    z 0.037580 0.043110 1.921610 
# 
# From -- ./inp_files/208897.got.cif
#   From: 2010.05.17/outbox.cif.g08.bks.cpg/sg2_105_cif.got.tgz:208897.got - 2010.06.03 11:33:40.
