data_PCOD9087676
_publ_section_title
;
Structure prediction by ZEFSAII (Michael W. Deem and Ramdas Pophale) SiO2 
 PCOD9087676
Probable space group: P -1
;
_chemical_formula_sum "Si O2"
_cell_formula_units_Z 12
_cell_length_a 9.051251
_cell_length_b 8.521263
_cell_length_c 10.792901
_cell_angle_alpha 55.033804
_cell_angle_beta 85.475096
_cell_angle_gamma 50.620304
_cell_volume 471.026380
_symmetry_space_group_name_H-M "P -1"
_symmetry_group_IT_number 2
_symmetry_cell_setting 'triclinic'
loop_
_space_group_symop_operation_xyz
x,y,z
-x,-y,-z
loop_
_atom_site_type_symbol
_atom_site_label
_atom_site_fract_x
_atom_site_fract_y
_atom_site_fract_z
Si Si1 0.858974 0.605774 0.084652
Si Si2 0.591528 0.627383 0.673305
Si Si3 0.749800 0.702175 0.396881
Si Si4 0.377556 0.817632 0.245425
Si Si5 0.138941 0.050526 0.425318
Si Si6 0.451869 0.323146 0.081184
O O1 0.002348 0.373520 0.284136
O O2 0.687979 0.603001 0.059903
O O3 0.000000 0.500000 0.000000
O O4 0.731908 0.922946 0.954244
O O5 0.661319 0.715722 0.529054
O O6 0.637240 0.373603 0.731864
O O7 0.678315 0.587193 0.822164
O O8 0.335549 0.875193 0.584901
O O9 0.616840 0.669304 0.334124
O O10 0.000000 0.500000 0.500000
O O11 0.649524 0.993840 0.223019
O O12 0.245378 0.930131 0.334491
O O13 0.000000 0.000000 0.500000
O O14 0.500000 0.500000 0.000000
#
# Coordination Sequence:
#
# PCOD9087676 Si02
#       6
#     2   2   2   2   2   2
#     4   9  20  41  63  86 123 164 203 250 311 375
#     4  11  23  42  66  95 127 164 211 266 312 372
#     4  10  22  42  65  92 128 168 212 260 311 375
#     4   9  21  42  64  92 127 163 210 262 313 374
#     4  10  19  36  65  93 118 161 210 254 307 371
#     4  11  24  43  63  92 129 166 208 260 318 377
#
# _framework density 25.476279999999999
#
# number of rings (size 3 to 8) (size 9 to 14) (size 15 to 20)
#    0.000    2.000    0.000    4.500    0.000    6.667 
#    0.000   20.000    0.000    2.000    0.000    0.000 
#    0.000    0.000    0.000    0.000    0.000    0.000 
#
# Total GULP energy -67161.949566 kJ/mol
# GULP energy per Si atom -5596.829130 kJ/mol
# Density = 2.541829 g / cm^3
# Si number density = 25.476280 Si / 1000 Ang^3
#
#
#
# Elastic Constant Matrix: (Units=GPa)
#
#
# Indices 1 2 3 4 5 6 
#
# 1 143.5590 40.8365 48.4459 -20.4144 -11.7762 -9.8599
# 2 40.8365 74.5877 33.4328 5.9039 12.2655 4.1885
# 3 48.4459 33.4328 122.2052 -10.1361 -12.7486 17.6925
# 4 -20.4144 5.9039 -10.1361 47.1603 7.1956 -9.0692
# 5 -11.7762 12.2655 -12.7486 7.1956 44.9292 2.7135
# 6 -9.8599 4.1885 17.6925 -9.0692 2.7135 49.3088
#
#
#
# Elastic Compliance Matrix: (Units=1/GPa)
#
#
# Indices 1 2 3 4 5 6 
#
# 1 0.010764 -0.005808 -0.002613 0.005284 0.002552 0.004415
# 2 -0.005808 0.020140 -0.004110 -0.005190 -0.007237 -0.001954
# 3 -0.002613 -0.004110 0.011420 0.000398 0.003880 -0.004411
# 4 0.005284 -0.005190 0.000398 0.025650 -0.001565 0.006159
# 5 0.002552 -0.007237 0.003880 -0.001565 0.026375 -0.002006
# 6 0.004415 -0.001954 -0.004411 0.006159 -0.002006 0.024155
#
#
# Mechanical properties :
#
#
# Convention : Reuss Voigt Hill
#
# Bulk Modulus (GPa) = 57.93163 65.08692 61.50928
# Shear Modulus (GPa) = 33.48566 42.78876 38.13721
#
# Velocity S-wave (km/s) = 3.62938 4.10268 3.87327
# Velocity P-wave (km/s) = 6.35232 6.93153 6.64824
#
# Compressibility (1/GPa) = 0.01726173
#
# Stress axis : x y z
#
# Youngs Moduli (GPa) = 92.90630 49.65314 87.56925
#
# Poissons Ratio (x) = 0.28838 0.22879
# Poissons Ratio (y) = 0.53958 0.35992
# Poissons Ratio (z) = 0.24273 0.20408
#
# Static dielectric constant tensor:
#      x y z
#    x 1.980730 -0.010050 0.015960 
#    y -0.010050 2.130450 0.023470 
#    z 0.015960 0.023470 1.970050 
# 
# From -- ./inp_files/379349.got.cif
#   From: 2010.05.17/outbox.cif.g08.bks.cpg/sg2_190_cif.got.tgz:379349.got - 2010.06.03 11:33:40.
