data_PCOD9087913
_publ_section_title
;
Structure prediction by ZEFSAII (Michael W. Deem and Ramdas Pophale) SiO2 
 PCOD9087913
Probable space group: P -1
;
_chemical_formula_sum "Si O2"
_cell_formula_units_Z 15
_cell_length_a 5.463530
_cell_length_b 12.162926
_cell_length_c 13.434048
_cell_angle_alpha 78.506419
_cell_angle_beta 57.167924
_cell_angle_gamma 101.688805
_cell_volume 680.769752
_symmetry_space_group_name_H-M "P -1"
_symmetry_group_IT_number 2
_symmetry_cell_setting 'triclinic'
loop_
_space_group_symop_operation_xyz
x,y,z
-x,-y,-z
loop_
_atom_site_type_symbol
_atom_site_label
_atom_site_fract_x
_atom_site_fract_y
_atom_site_fract_z
Si Si1 0.488308 0.332902 0.356687
Si Si2 0.053119 0.356522 0.086248
Si Si3 0.202182 0.102015 0.356873
Si Si4 0.000000 0.500000 0.500000
Si Si5 0.494530 0.742914 0.409296
Si Si6 0.669906 0.013544 0.351620
Si Si7 0.836449 0.577884 0.303166
Si Si8 0.315016 0.632478 0.010125
O O1 0.232699 0.236096 0.360356
O O2 0.479849 0.270051 0.475075
O O3 0.515154 0.471292 0.346309
O O4 0.820459 0.353757 0.227402
O O5 0.255575 0.500927 0.996559
O O6 0.316475 0.304977 0.063724
O O7 0.845451 0.307347 0.043212
O O8 0.543825 0.095709 0.296640
O O9 0.000000 0.000000 0.500000
O O10 0.031162 0.066156 0.296258
O O11 0.828958 0.351253 0.546349
O O12 0.902297 0.522928 0.400712
O O13 0.563979 0.882092 0.349812
O O14 0.749153 0.693403 0.318217
O O15 0.500000 0.000000 0.500000
O O16 0.122934 0.608752 0.158926
#
# Coordination Sequence:
#
# PCOD9087913 Si02
#       8
#     2   2   2   1   2   2   2   2
#     4  10  19  37  56  89 124 145 199 237 303 343
#     4   9  19  35  57  82 107 158 184 253 270 344
#     4  10  20  36  56  81 114 155 185 246 283 347
#     4  10  22  34  54  86 122 160 184 226 298 352
#     4  11  22  37  53  87 122 157 190 230 300 358
#     4  10  21  36  55  77 115 154 194 230 281 347
#     4  10  23  37  55  87 122 164 181 244 281 375
#     4   9  19  38  55  78 116 147 207 218 296 331
#
# _framework density 22.033881000000001
#
# number of rings (size 3 to 8) (size 9 to 14) (size 15 to 20)
#    0.000    2.133    2.667    1.600    3.733    3.200 
#   16.800    0.000    0.000    0.000    0.000    5.600 
#    0.000    0.000    0.000    0.000    0.000    0.000 
#
# Total GULP energy -83554.413339 kJ/mol
# GULP energy per Si atom -5570.294223 kJ/mol
# Density = 2.198373 g / cm^3
# Si number density = 22.033881 Si / 1000 Ang^3
#
#
#
# Elastic Constant Matrix: (Units=GPa)
#
#
# Indices 1 2 3 4 5 6 
#
# 1 138.3972 34.7930 10.3368 4.9933 1.7174 14.8742
# 2 34.7930 146.8800 7.0706 5.5653 7.8740 10.2960
# 3 10.3368 7.0706 72.8860 8.8738 2.9110 -2.7265
# 4 4.9933 5.5653 8.8738 19.3109 -0.1957 2.5223
# 5 1.7174 7.8740 2.9110 -0.1957 12.0781 -2.4344
# 6 14.8742 10.2960 -2.7265 2.5223 -2.4344 32.4399
#
#
#
# Elastic Compliance Matrix: (Units=1/GPa)
#
#
# Indices 1 2 3 4 5 6 
#
# 1 0.008083 -0.001579 -0.001002 -0.000753 -0.000550 -0.003272
# 2 -0.001579 0.007665 -0.000206 -0.001497 -0.005149 -0.001996
# 3 -0.001002 -0.000206 0.014913 -0.006837 -0.003008 0.002084
# 4 -0.000753 -0.001497 -0.006837 0.056091 0.002854 -0.003901
# 5 -0.000550 -0.005149 -0.003008 0.002854 0.088626 0.008063
# 6 -0.003272 -0.001996 0.002084 -0.003901 0.008063 0.034044
#
#
# Mechanical properties :
#
#
# Convention : Reuss Voigt Hill
#
# Bulk Modulus (GPa) = 39.86307 51.39603 45.62955
# Shear Modulus (GPa) = 22.38562 33.16330 27.77446
#
# Velocity S-wave (km/s) = 3.19088 3.88378 3.55425
# Velocity P-wave (km/s) = 5.63086 6.59456 6.13167
#
# Compressibility (1/GPa) = 0.02508588
#
# Stress axis : x y z
#
# Youngs Moduli (GPa) = 123.71579 130.46364 67.05723
#
# Poissons Ratio (x) = 0.20602 0.06719
# Poissons Ratio (y) = 0.19536 0.01384
# Poissons Ratio (z) = 0.12396 0.02692
#
# Static dielectric constant tensor:
#      x y z
#    x 2.113290 0.035530 -0.090780 
#    y 0.035530 1.878750 -0.035410 
#    z -0.090780 -0.035410 1.786570 
# 
# From -- ./inp_files/481609.got.cif
#   From: 2010.05.17/outbox.cif.g08.bks.cpg/sg2_241_cif.got.tgz:481609.got - 2010.06.03 11:33:40.
