data_PCOD9087619
_publ_section_title
;
Structure prediction by ZEFSAII (Michael W. Deem and Ramdas Pophale) SiO2 
 PCOD9087619
Probable space group: P -1
;
_chemical_formula_sum "Si O2"
_cell_formula_units_Z 16
_cell_length_a 13.365004
_cell_length_b 16.647804
_cell_length_c 7.900255
_cell_angle_alpha 80.105776
_cell_angle_beta 118.289629
_cell_angle_gamma 45.614990
_cell_volume 663.958557
_symmetry_space_group_name_H-M "P -1"
_symmetry_group_IT_number 2
_symmetry_cell_setting 'triclinic'
loop_
_space_group_symop_operation_xyz
x,y,z
-x,-y,-z
loop_
_atom_site_type_symbol
_atom_site_label
_atom_site_fract_x
_atom_site_fract_y
_atom_site_fract_z
Si Si1 0.886292 0.320035 0.517813
Si Si2 0.878066 0.662874 0.409317
Si Si3 0.165383 0.004731 0.364147
Si Si4 0.662090 0.065115 0.134766
Si Si5 0.197976 0.140399 0.148070
Si Si6 0.553946 0.393504 0.715169
Si Si7 0.490051 0.262210 0.575372
Si Si8 0.783252 0.719480 0.696015
O O1 0.583518 0.505040 0.248999
O O2 0.976233 0.354613 0.546664
O O3 0.052120 0.159157 0.579345
O O4 0.007008 0.221716 0.833874
O O5 0.909330 0.650698 0.640405
O O6 0.000000 0.500000 0.500000
O O7 0.568038 0.853068 0.054909
O O8 0.316925 0.890600 0.701360
O O9 0.197760 0.081654 0.331355
O O10 0.861536 0.181413 0.062727
O O11 0.298559 0.877386 0.354732
O O12 0.584897 0.161167 0.865390
O O13 0.124029 0.280308 0.082575
O O14 0.483201 0.948658 0.363072
O O15 0.500000 0.500000 0.500000
O O16 0.435694 0.389333 0.534437
O O17 0.264380 0.346507 0.295795
#
# Coordination Sequence:
#
# PCOD9087619 Si02
#       8
#     2   2   2   2   2   2   2   2
#     4  12  22  39  67  96 135 182 217 276 335 395
#     4  11  23  40  59  96 141 173 215 279 338 401
#     4  11  23  43  71  99 133 183 229 272 328 405
#     4  11  23  43  71 100 133 177 224 278 343 397
#     4  10  19  36  65 100 129 170 221 263 328 404
#     4  12  25  46  68  95 138 183 228 279 336 392
#     4  10  22  45  68  98 134 173 225 283 337 396
#     4   9  19  37  64  94 133 164 211 274 330 397
#
# _framework density 24.097891000000001
#
# number of rings (size 3 to 8) (size 9 to 14) (size 15 to 20)
#    0.000    1.250    5.000    3.000    5.250    1.000 
#    2.250    2.500    0.000    0.000    0.000    0.000 
#    0.000    0.000    0.000    0.000    0.000    0.000 
#
# Total GULP energy -89470.488469 kJ/mol
# GULP energy per Si atom -5591.905529 kJ/mol
# Density = 2.404304 g / cm^3
# Si number density = 24.097891 Si / 1000 Ang^3
#
#
#
# Elastic Constant Matrix: (Units=GPa)
#
#
# Indices 1 2 3 4 5 6 
#
# 1 97.6129 49.8788 17.7219 -13.9613 10.2572 -7.3348
# 2 49.8788 108.6822 0.0949 1.0839 -3.7867 -8.0259
# 3 17.7219 0.0949 63.2340 14.3956 10.0928 -22.8670
# 4 -13.9613 1.0839 14.3956 35.6876 -11.5176 2.2276
# 5 10.2572 -3.7867 10.0928 -11.5176 25.5314 -8.2847
# 6 -7.3348 -8.0259 -22.8670 2.2276 -8.2847 56.4174
#
#
#
# Elastic Compliance Matrix: (Units=1/GPa)
#
#
# Indices 1 2 3 4 5 6 
#
# 1 0.017236 -0.008254 -0.007785 0.009812 -0.001521 -0.002700
# 2 -0.008254 0.013345 0.004014 -0.004598 0.002613 0.003018
# 3 -0.007785 0.004014 0.027925 -0.019172 -0.012799 0.009755
# 4 0.009812 -0.004598 -0.019172 0.047336 0.022452 -0.005721
# 5 -0.001521 0.002613 -0.012799 0.022452 0.056113 0.002340
# 6 -0.002700 0.003018 0.009755 -0.005721 0.002340 0.022327
#
#
# Mechanical properties :
#
#
# Convention : Reuss Voigt Hill
#
# Bulk Modulus (GPa) = 29.02169 44.99114 37.00641
# Shear Modulus (GPa) = 22.74623 36.98285 29.86454
#
# Velocity S-wave (km/s) = 3.07564 3.92176 3.52419
# Velocity P-wave (km/s) = 4.96812 6.26240 5.65243
#
# Compressibility (1/GPa) = 0.03445699
#
# Stress axis : x y z
#
# Youngs Moduli (GPa) = 58.01908 74.93265 35.81005
#
# Poissons Ratio (x) = 0.61846 0.27879
# Poissons Ratio (y) = 0.47887 -0.14375
# Poissons Ratio (z) = 0.45169 -0.30080
#
# Static dielectric constant tensor:
#      x y z
#    x 1.917910 -0.002800 0.019550 
#    y -0.002800 1.932610 -0.043070 
#    z 0.019550 -0.043070 2.002260 
# 
# From -- ./inp_files/317164.got.cif
#   From: 2010.05.17/outbox.cif.g08.bks.cpg/sg2_159_cif.got.tgz:317164.got - 2010.06.03 11:33:40.
