data_PCOD9087705
_publ_section_title
;
Structure prediction by ZEFSAII (Michael W. Deem and Ramdas Pophale) SiO2 
 PCOD9087705
Probable space group: P -1
;
_chemical_formula_sum "Si O2"
_cell_formula_units_Z 12
_cell_length_a 12.946749
_cell_length_b 5.644316
_cell_length_c 19.064420
_cell_angle_alpha 112.055907
_cell_angle_beta 21.360533
_cell_angle_gamma 103.857912
_cell_volume 444.532315
_symmetry_space_group_name_H-M "P -1"
_symmetry_group_IT_number 2
_symmetry_cell_setting 'triclinic'
loop_
_space_group_symop_operation_xyz
x,y,z
-x,-y,-z
loop_
_atom_site_type_symbol
_atom_site_label
_atom_site_fract_x
_atom_site_fract_y
_atom_site_fract_z
Si Si1 0.362720 0.803210 0.143714
Si Si2 0.414702 0.294133 0.656483
Si Si3 0.722798 0.880123 0.604920
Si Si4 0.708737 0.159509 0.247393
Si Si5 0.433189 0.502133 0.822935
Si Si6 0.883515 0.006612 0.830057
O O1 0.213411 0.969358 0.187397
O O2 0.500000 0.500000 0.000000
O O3 0.074312 0.825311 0.374370
O O4 0.646857 0.879000 0.999030
O O5 0.695758 0.965565 0.297866
O O6 0.287307 0.538739 0.709830
O O7 0.330892 0.435661 0.802656
O O8 0.772465 0.174988 0.408560
O O9 0.566459 0.205922 0.739181
O O10 0.586926 0.808591 0.609313
O O11 0.654731 0.672522 0.680264
O O12 0.000000 0.000000 0.000000
O O13 0.200418 0.703694 0.045860
#
# Coordination Sequence:
#
# PCOD9087705 Si02
#       6
#     2   2   2   2   2   2
#     4  11  23  39  59  88 121 158 203 245 287 359
#     4  10  21  41  59  90 123 148 200 246 285 358
#     4  10  22  41  57  87 126 149 202 249 285 354
#     4  10  19  36  66  88 114 159 195 239 303 348
#     4  10  22  39  61  85 119 163 193 242 295 346
#     4  11  24  38  62  87 119 163 197 239 301 349
#
# _framework density 26.994662000000002
#
# number of rings (size 3 to 8) (size 9 to 14) (size 15 to 20)
#    0.000    1.667    3.333    2.500    4.667    1.333 
#    0.000    0.000    0.000   24.000    0.000    0.000 
#    0.000    0.000    0.000    0.000    0.000    0.000 
#
# Total GULP energy -67163.622973 kJ/mol
# GULP energy per Si atom -5596.968581 kJ/mol
# Density = 2.693322 g / cm^3
# Si number density = 26.994662 Si / 1000 Ang^3
#
#
#
# Elastic Constant Matrix: (Units=GPa)
#
#
# Indices 1 2 3 4 5 6 
#
# 1 65.6915 22.0361 23.9242 -14.5408 5.2467 -0.8216
# 2 22.0361 246.0677 71.0026 -4.2745 -12.4253 -23.5375
# 3 23.9242 71.0026 136.9812 -3.5721 -14.5227 15.6901
# 4 -14.5408 -4.2745 -3.5721 56.7272 1.6028 6.4074
# 5 5.2467 -12.4253 -14.5227 1.6028 35.3149 4.1296
# 6 -0.8216 -23.5375 15.6901 6.4074 4.1296 42.3228
#
#
#
# Elastic Compliance Matrix: (Units=1/GPa)
#
#
# Indices 1 2 3 4 5 6 
#
# 1 0.017996 -0.000746 -0.003231 0.004379 -0.004571 0.000915
# 2 -0.000746 0.005455 -0.003168 -0.000466 0.000253 0.004240
# 3 -0.003231 -0.003168 0.010705 0.000187 0.004491 -0.006260
# 4 0.004379 -0.000466 0.000187 0.019103 -0.001252 -0.003013
# 5 -0.004571 0.000253 0.004491 -0.001252 0.031514 -0.004499
# 6 0.000915 0.004240 -0.006260 -0.003013 -0.004499 0.029219
#
#
# Mechanical properties :
#
#
# Convention : Reuss Voigt Hill
#
# Bulk Modulus (GPa) = 50.34299 75.85182 63.09741
# Shear Modulus (GPa) = 37.06288 48.99149 43.02718
#
# Velocity S-wave (km/s) = 3.70938 4.26474 3.99672
# Velocity P-wave (km/s) = 6.08570 7.23951 6.68753
#
# Compressibility (1/GPa) = 0.01986374
#
# Stress axis : x y z
#
# Youngs Moduli (GPa) = 55.56906 183.31198 93.41501
#
# Poissons Ratio (x) = 0.13681 0.30186
# Poissons Ratio (y) = 0.04147 0.29596
# Poissons Ratio (z) = 0.17957 0.58078
#
# Static dielectric constant tensor:
#      x y z
#    x 2.194720 0.020290 0.109690 
#    y 0.020290 2.127890 -0.025860 
#    z 0.109690 -0.025860 2.093790 
# 
# From -- ./inp_files/286667.got.cif
#   From: 2010.05.17/outbox.cif.g08.bks.cpg/sg2_144_cif.got.tgz:286667.got - 2010.06.03 11:33:40.
