data_PCOD9087673
_publ_section_title
;
Structure prediction by ZEFSAII (Michael W. Deem and Ramdas Pophale) SiO2 
 PCOD9087673
Probable space group: P -1
;
_chemical_formula_sum "Si O2"
_cell_formula_units_Z 16
_cell_length_a 16.777380
_cell_length_b 12.365082
_cell_length_c 9.021801
_cell_angle_alpha 45.030886
_cell_angle_beta 43.997918
_cell_angle_gamma 31.288466
_cell_volume 652.875454
_symmetry_space_group_name_H-M "P -1"
_symmetry_group_IT_number 2
_symmetry_cell_setting 'triclinic'
loop_
_space_group_symop_operation_xyz
x,y,z
-x,-y,-z
loop_
_atom_site_type_symbol
_atom_site_label
_atom_site_fract_x
_atom_site_fract_y
_atom_site_fract_z
Si Si1 0.925100 0.365385 0.238450
Si Si2 0.750720 0.711525 0.874780
Si Si3 0.316165 0.652390 0.468414
Si Si4 0.250648 0.265404 0.647043
Si Si5 0.686131 0.996657 0.929289
Si Si6 0.344568 0.712583 0.710302
Si Si7 0.101050 0.209369 0.640237
Si Si8 0.714004 0.538961 0.834721
O O1 0.842003 0.278596 0.451336
O O2 0.870122 0.524956 0.291033
O O3 0.845271 0.516782 0.053388
O O4 0.116192 0.179397 0.155816
O O5 0.863872 0.700116 0.622465
O O6 0.657152 0.685554 0.914945
O O7 0.657529 0.926798 0.885872
O O8 0.355857 0.786191 0.231876
O O9 0.297881 0.684915 0.638961
O O10 0.471690 0.405767 0.451284
O O11 0.164760 0.227006 0.688434
O O12 0.331168 0.319578 0.384746
O O13 0.356872 0.066399 0.810681
O O14 0.215295 0.960004 0.689048
O O15 0.342133 0.581615 0.962689
O O16 0.911441 0.348883 0.762475
#
# Coordination Sequence:
#
# PCOD9087673 Si02
#       8
#     2   2   2   2   2   2   2   2
#     4  11  20  39  64  95 123 157 202 252 307 360
#     4  10  19  36  65  92 127 154 203 258 295 358
#     4  11  25  43  61  87 124 169 212 246 288 359
#     4  10  23  36  65  98 121 152 197 262 317 356
#     4  11  20  39  64  95 123 157 202 252 307 360
#     4  11  25  43  61  87 124 169 212 246 288 359
#     4  11  20  39  64  95 123 157 202 252 307 360
#     4  11  20  39  64  95 123 157 202 252 307 360
#
# _framework density 24.506969999999999
#
# number of rings (size 3 to 8) (size 9 to 14) (size 15 to 20)
#    0.000    1.250    2.500    6.750    0.000    1.000 
#    0.000   10.000    0.000    0.000    0.000    0.000 
#    0.000    0.000    0.000    0.000    0.000    0.000 
#
# Total GULP energy -89601.003359 kJ/mol
# GULP energy per Si atom -5600.062710 kJ/mol
# Density = 2.445119 g / cm^3
# Si number density = 24.506970 Si / 1000 Ang^3
#
#
#
# Elastic Constant Matrix: (Units=GPa)
#
#
# Indices 1 2 3 4 5 6 
#
# 1 74.5895 22.7121 25.6261 0.9195 3.8038 7.8636
# 2 22.7121 140.7790 33.5825 8.0402 -4.9631 10.5504
# 3 25.6261 33.5825 112.8407 -16.0518 9.9236 18.3399
# 4 0.9195 8.0402 -16.0518 31.1475 10.4675 -1.6017
# 5 3.8038 -4.9631 9.9236 10.4675 43.4976 2.9250
# 6 7.8636 10.5504 18.3399 -1.6017 2.9250 20.9696
#
#
#
# Elastic Compliance Matrix: (Units=1/GPa)
#
#
# Indices 1 2 3 4 5 6 
#
# 1 0.015119 -0.001518 -0.002746 -0.001488 -0.000338 -0.002571
# 2 -0.001518 0.008548 -0.002802 -0.004728 0.003024 -0.002063
# 3 -0.002746 -0.002802 0.013259 0.008814 -0.004699 -0.007828
# 4 -0.001488 -0.004728 0.008814 0.042149 -0.012577 0.000202
# 5 -0.000338 0.003024 -0.004699 -0.012577 0.027604 -0.002096
# 6 -0.002571 -0.002063 -0.007828 0.000202 -0.002096 0.056844
#
#
# Mechanical properties :
#
#
# Convention : Reuss Voigt Hill
#
# Bulk Modulus (GPa) = 43.87312 54.67228 49.27270
# Shear Modulus (GPa) = 26.98997 35.54219 31.26608
#
# Velocity S-wave (km/s) = 3.32221 3.81240 3.57571
# Velocity P-wave (km/s) = 5.71466 6.46038 6.09892
#
# Compressibility (1/GPa) = 0.02279300
#
# Stress axis : x y z
#
# Youngs Moduli (GPa) = 66.14192 116.98511 75.42069
#
# Poissons Ratio (x) = 0.17764 0.20708
# Poissons Ratio (y) = 0.10043 0.21135
# Poissons Ratio (z) = 0.18161 0.32783
#
# Static dielectric constant tensor:
#      x y z
#    x 1.950540 -0.044310 -0.002390 
#    y -0.044310 1.962890 0.010540 
#    z -0.002390 0.010540 1.949790 
# 
# From -- ./inp_files/332837.got.cif
#   From: 2010.05.17/outbox.cif.g08.bks.cpg/sg2_167_cif.got.tgz:332837.got - 2010.06.03 11:33:40.
