data_PCOD9087973
_publ_section_title
;
Structure prediction by ZEFSAII (Michael W. Deem and Ramdas Pophale) SiO2 
 PCOD9087973
Probable space group: P -1
;
_chemical_formula_sum "Si O2"
_cell_formula_units_Z 16
_cell_length_a 7.812709
_cell_length_b 15.402797
_cell_length_c 8.855420
_cell_angle_alpha 130.349539
_cell_angle_beta 86.494131
_cell_angle_gamma 65.112223
_cell_volume 645.251856
_symmetry_space_group_name_H-M "P -1"
_symmetry_group_IT_number 2
_symmetry_cell_setting 'triclinic'
loop_
_space_group_symop_operation_xyz
x,y,z
-x,-y,-z
loop_
_atom_site_type_symbol
_atom_site_label
_atom_site_fract_x
_atom_site_fract_y
_atom_site_fract_z
Si Si1 0.317093 0.903162 0.676520
Si Si2 0.665725 0.331387 0.774962
Si Si3 0.012328 0.114401 0.709368
Si Si4 0.049251 0.619106 0.365755
Si Si5 0.320784 0.158768 0.568562
Si Si6 0.276769 0.295928 0.019734
Si Si7 0.149340 0.614591 0.698801
Si Si8 0.543826 0.292052 0.271339
O O1 0.384999 0.769021 0.413119
O O2 0.481578 0.938345 0.663801
O O3 0.346084 0.840450 0.768880
O O4 0.092203 0.046598 0.794958
O O5 0.829267 0.318632 0.629624
O O6 0.785795 0.264726 0.853293
O O7 0.500000 0.500000 0.000000
O O8 0.183825 0.112171 0.593764
O O9 0.000000 0.000000 0.500000
O O10 0.189372 0.451640 0.138934
O O11 0.039441 0.632412 0.561717
O O12 0.836074 0.701928 0.370673
O O13 0.389234 0.190297 0.755964
O O14 0.439113 0.262756 0.107133
O O15 0.055652 0.317106 0.101722
O O16 0.334274 0.443677 0.523544
O O17 0.287595 0.675403 0.744764
#
# Coordination Sequence:
#
# PCOD9087973 Si02
#       8
#     2   2   2   2   2   2   2   2
#     4  11  20  40  65  89 125 168 215 256 309 395
#     4  10  20  35  61  98 129 154 203 273 323 361
#     4   9  22  41  60  90 127 165 210 255 321 392
#     4  10  19  37  57  91 129 165 214 253 324 381
#     4  11  22  37  62  95 119 163 210 275 326 365
#     4  11  22  37  56  93 138 161 209 276 324 374
#     4  10  20  38  57  87 131 176 217 260 311 391
#     4  10  21  37  59  89 123 180 221 248 321 398
#
# _framework density 24.796517999999999
#
# number of rings (size 3 to 8) (size 9 to 14) (size 15 to 20)
#    0.000    1.750    1.250    4.500    0.000    3.000 
#    6.750    0.625    0.000    0.750    0.000    0.000 
#    0.000    0.000    0.000    0.000    0.000    0.000 
#
# Total GULP energy -89397.778569 kJ/mol
# GULP energy per Si atom -5587.361161 kJ/mol
# Density = 2.474008 g / cm^3
# Si number density = 24.796518 Si / 1000 Ang^3
#
#
#
# Elastic Constant Matrix: (Units=GPa)
#
#
# Indices 1 2 3 4 5 6 
#
# 1 100.3383 40.2723 17.2900 -3.6822 14.3553 7.5165
# 2 40.2723 214.0088 15.7471 9.8511 -0.4135 -28.0592
# 3 17.2900 15.7471 36.4414 8.3457 -4.5125 -2.7517
# 4 -3.6822 9.8511 8.3457 23.9662 3.0415 -7.7903
# 5 14.3553 -0.4135 -4.5125 3.0415 22.8485 -4.5812
# 6 7.5165 -28.0592 -2.7517 -7.7903 -4.5812 47.9124
#
#
#
# Elastic Compliance Matrix: (Units=1/GPa)
#
#
# Indices 1 2 3 4 5 6 
#
# 1 0.015532 -0.003225 -0.009699 0.007195 -0.013697 -0.005022
# 2 -0.003225 0.005886 0.000166 -0.002106 0.003234 0.003929
# 3 -0.009699 0.000166 0.037831 -0.015896 0.016237 0.002760
# 4 0.007195 -0.002106 -0.015896 0.052259 -0.013873 0.003895
# 5 -0.013697 0.003234 0.016237 -0.013873 0.059164 0.008376
# 6 -0.005022 0.003929 0.002760 0.003895 0.008376 0.025553
#
#
# Mechanical properties :
#
#
# Convention : Reuss Voigt Hill
#
# Bulk Modulus (GPa) = 29.64464 55.26748 42.45606
# Shear Modulus (GPa) = 21.46076 37.44404 29.45240
#
# Velocity S-wave (km/s) = 2.94509 3.89015 3.45013
# Velocity P-wave (km/s) = 4.85240 6.52032 5.74719
#
# Compressibility (1/GPa) = 0.03373291
#
# Stress axis : x y z
#
# Youngs Moduli (GPa) = 64.38346 169.90148 26.43369
#
# Poissons Ratio (x) = 0.54799 0.25637
# Poissons Ratio (y) = 0.20766 -0.00440
# Poissons Ratio (z) = 0.62444 -0.02827
#
# Static dielectric constant tensor:
#      x y z
#    x 2.041440 -0.011540 0.017560 
#    y -0.011540 1.914670 -0.016080 
#    z 0.017560 -0.016080 1.973180 
# 
# From -- ./inp_files/208723.got.cif
#   From: 2010.05.17/outbox.cif.g08.bks.cpg/sg2_105_cif.got.tgz:208723.got - 2010.06.03 11:33:40.
