data_PCOD9087128
_publ_section_title
;
Structure prediction by ZEFSAII (Michael W. Deem and Ramdas Pophale) SiO2 
 PCOD9087128
Probable space group: P -1
;
_chemical_formula_sum "Si O2"
_cell_formula_units_Z 10
_cell_length_a 5.837791
_cell_length_b 10.529881
_cell_length_c 10.774601
_cell_angle_alpha 45.472394
_cell_angle_beta 90.020878
_cell_angle_gamma 114.495149
_cell_volume 384.235740
_symmetry_space_group_name_H-M "P -1"
_symmetry_group_IT_number 2
_symmetry_cell_setting 'triclinic'
loop_
_space_group_symop_operation_xyz
x,y,z
-x,-y,-z
loop_
_atom_site_type_symbol
_atom_site_label
_atom_site_fract_x
_atom_site_fract_y
_atom_site_fract_z
Si Si1 0.330548 0.527958 0.084532
Si Si2 0.108713 0.751796 0.330205
Si Si3 0.805488 0.252117 0.403873
Si Si4 0.835681 0.695996 0.119730
Si Si5 0.683772 0.062030 0.223803
O O1 0.517558 0.610145 0.153351
O O2 0.026044 0.304235 0.260552
O O3 0.500000 0.500000 0.000000
O O4 0.314142 0.723904 0.909452
O O5 0.059887 0.786119 0.449282
O O6 0.000000 0.500000 0.500000
O O7 0.963066 0.786461 0.193463
O O8 0.447407 0.910066 0.221523
O O9 0.844368 0.484288 0.250724
O O10 0.472515 0.080657 0.553839
O O11 0.025907 0.858106 0.896596
#
# Coordination Sequence:
#
# PCOD9087128 Si02
#       5
#     2   2   2   2   2
#     4  11  24  38  53  82 117 148 190 229 260 322
#     4   8  16  36  61  83 111 138 177 232 280 335
#     4   8  20  38  55  84 111 138 187 227 271 334
#     4  10  19  36  62  81 112 149 175 226 290 320
#     4   9  20  38  57  87 110 140 187 226 277 336
#
# _framework density 26.025691999999999
#
# number of rings (size 3 to 8) (size 9 to 14) (size 15 to 20)
#    1.200    1.600    0.000    0.600    0.000    7.200 
#    0.000    2.000    0.000    0.000    0.000    0.000 
#    0.000    0.000    0.000    0.000    0.000    0.000 
#
# Total GULP energy -55776.021740 kJ/mol
# GULP energy per Si atom -5577.602174 kJ/mol
# Density = 2.596646 g / cm^3
# Si number density = 26.025692 Si / 1000 Ang^3
#
#
#
# Elastic Constant Matrix: (Units=GPa)
#
#
# Indices 1 2 3 4 5 6 
#
# 1 64.5226 27.1129 48.9103 -0.3057 -14.1076 13.6332
# 2 27.1129 38.2188 32.4050 -14.1427 -19.5180 27.8484
# 3 48.9103 32.4050 174.9830 -18.9889 -40.7593 -2.4662
# 4 -0.3057 -14.1427 -18.9889 39.8885 15.2186 4.0503
# 5 -14.1076 -19.5180 -40.7593 15.2186 45.4957 -5.8990
# 6 13.6332 27.8484 -2.4662 4.0503 -5.8990 52.0106
#
#
#
# Elastic Compliance Matrix: (Units=1/GPa)
#
#
# Indices 1 2 3 4 5 6 
#
# 1 0.028096 -0.026774 -0.004501 -0.011398 -0.002032 0.007415
# 2 -0.026774 0.109964 -0.006439 0.035697 0.014249 -0.053330
# 3 -0.004501 -0.006439 0.009398 -0.000376 0.005124 0.005684
# 4 -0.011398 0.035697 -0.000376 0.041386 -0.004985 -0.019932
# 5 -0.002032 0.014249 0.005124 -0.004985 0.033374 -0.002680
# 6 0.007415 -0.053330 0.005684 -0.019932 -0.002680 0.047356
#
#
# Mechanical properties :
#
#
# Convention : Reuss Voigt Hill
#
# Bulk Modulus (GPa) = 13.88300 54.95344 34.41822
# Shear Modulus (GPa) = 13.54970 38.76536 26.15753
#
# Velocity S-wave (km/s) = 2.28420 3.86360 3.17372
# Velocity P-wave (km/s) = 3.50752 6.40813 5.16560
#
# Compressibility (1/GPa) = 0.07203056
#
# Stress axis : x y z
#
# Youngs Moduli (GPa) = 35.59277 9.09385 106.40199
#
# Poissons Ratio (x) = 0.24348 0.47887
# Poissons Ratio (y) = 0.95295 0.68517
# Poissons Ratio (z) = 0.16019 0.05856
#
# Static dielectric constant tensor:
#      x y z
#    x 1.965270 0.007530 -0.016860 
#    y 0.007530 2.272040 0.026550 
#    z -0.016860 0.026550 2.027260 
# 
# From -- ./inp_files/9112.got.cif
#   From: 2010.05.17/outbox.cif.g08.bks.cpg/sg2_5_cif.got.tgz:9112.got - 2010.06.03 11:33:40.
