data_PCOD9087338
_publ_section_title
;
Structure prediction by ZEFSAII (Michael W. Deem and Ramdas Pophale) SiO2 
 PCOD9087338
Probable space group: P -1
;
_chemical_formula_sum "Si O2"
_cell_formula_units_Z 16
_cell_length_a 11.483156
_cell_length_b 8.275071
_cell_length_c 10.235548
_cell_angle_alpha 43.818904
_cell_angle_beta 97.389845
_cell_angle_gamma 92.936677
_cell_volume 666.606675
_symmetry_space_group_name_H-M "P -1"
_symmetry_group_IT_number 2
_symmetry_cell_setting 'triclinic'
loop_
_space_group_symop_operation_xyz
x,y,z
-x,-y,-z
loop_
_atom_site_type_symbol
_atom_site_label
_atom_site_fract_x
_atom_site_fract_y
_atom_site_fract_z
Si Si1 0.596619 0.157351 0.705958
Si Si2 0.813189 0.209390 0.345545
Si Si3 0.235956 0.329055 0.759945
Si Si4 0.858047 0.065321 0.867324
Si Si5 0.989276 0.961096 0.690447
Si Si6 0.485059 0.434484 0.752593
Si Si7 0.537503 0.173294 0.288829
Si Si8 0.098860 0.435873 0.443240
O O1 0.734269 0.088460 0.758257
O O2 0.577376 0.272529 0.779251
O O3 0.559643 0.359277 0.476557
O O4 0.518957 0.941407 0.779540
O O5 0.805945 0.443270 0.295636
O O6 0.679860 0.172739 0.302452
O O7 0.910654 0.228347 0.233807
O O8 0.867153 0.003061 0.568792
O O9 0.371396 0.285430 0.838687
O O10 0.217141 0.374095 0.578014
O O11 0.161877 0.116675 0.916367
O O12 0.885083 0.324333 0.768391
O O13 0.952688 0.967274 0.831983
O O14 0.053106 0.198998 0.522549
O O15 0.510522 0.572140 0.809759
O O16 0.500000 0.000000 0.500000
O O17 0.000000 0.500000 0.500000
#
# Coordination Sequence:
#
# PCOD9087338 Si02
#       8
#     2   2   2   2   2   2   2   2
#     4  10  19  36  63  85 117 166 199 244 313 356
#     4  10  20  38  58  90 119 158 198 250 300 356
#     4  11  21  38  62  85 127 151 195 260 297 356
#     4  11  22  38  62  90 120 159 199 248 302 365
#     4  10  21  37  63  83 121 159 200 248 300 360
#     4   9  19  35  58  88 118 156 202 252 295 361
#     4   9  18  32  59  89 116 153 202 246 297 362
#     4  10  20  38  60  85 114 157 200 243 295 359
#
# _framework density 24.002158999999999
#
# number of rings (size 3 to 8) (size 9 to 14) (size 15 to 20)
#    0.000    2.000    3.750    1.500    1.750    4.000 
#    0.000    2.500    2.750    0.000    0.000    0.000 
#    0.000    0.000    0.000    0.000    0.000    0.000 
#
# Total GULP energy -89310.712243 kJ/mol
# GULP energy per Si atom -5581.919515 kJ/mol
# Density = 2.394753 g / cm^3
# Si number density = 24.002159 Si / 1000 Ang^3
#
#
#
# Elastic Constant Matrix: (Units=GPa)
#
#
# Indices 1 2 3 4 5 6 
#
# 1 119.6027 54.2423 16.3091 -2.5844 0.0070 -1.6872
# 2 54.2423 89.6166 5.6951 1.7058 5.3482 -3.7182
# 3 16.3091 5.6951 70.9977 -3.4396 -8.6713 1.0248
# 4 -2.5844 1.7058 -3.4396 14.8446 6.7991 -3.3933
# 5 0.0070 5.3482 -8.6713 6.7991 29.8090 5.0138
# 6 -1.6872 -3.7182 1.0248 -3.3933 5.0138 46.0331
#
#
#
# Elastic Compliance Matrix: (Units=1/GPa)
#
#
# Indices 1 2 3 4 5 6 
#
# 1 0.011930 -0.007142 -0.002037 0.002381 0.000132 0.000067
# 2 -0.007142 0.015722 -0.000040 -0.001564 -0.002673 0.001185
# 3 -0.002037 -0.000040 0.015144 0.000993 0.004323 -0.000813
# 4 0.002381 -0.001564 0.000993 0.078499 -0.018640 0.007756
# 5 0.000132 -0.002673 0.004323 -0.018640 0.040562 -0.006099
# 6 0.000067 0.001185 -0.000813 0.007756 -0.006099 0.023076
#
#
# Mechanical properties :
#
#
# Convention : Reuss Voigt Hill
#
# Bulk Modulus (GPa) = 41.05346 48.07889 44.56618
# Shear Modulus (GPa) = 23.64169 31.73538 27.68854
#
# Velocity S-wave (km/s) = 3.14185 3.64014 3.40013
# Velocity P-wave (km/s) = 5.50480 6.14345 5.83287
#
# Compressibility (1/GPa) = 0.02435848
#
# Stress axis : x y z
#
# Youngs Moduli (GPa) = 83.82083 63.60325 66.03285
#
# Poissons Ratio (x) = 0.45425 0.13452
# Poissons Ratio (y) = 0.59864 0.00264
# Poissons Ratio (z) = 0.17076 0.00254
#
# Static dielectric constant tensor:
#      x y z
#    x 1.944660 0.020250 0.014400 
#    y 0.020250 1.973860 0.022100 
#    z 0.014400 0.022100 1.968190 
# 
# From -- ./inp_files/405367.got.cif
#   From: 2010.05.17/outbox.cif.g08.bks.cpg/sg2_203_cif.got.tgz:405367.got - 2010.06.03 11:33:40.
